REMARK  5 active torsions:
REMARK  status: ('A' for Active; 'I' for Inactive)
REMARK    1  A    between atoms: S_8  and  C_2 
REMARK    2  A    between atoms: C_13  and  S_8 
REMARK    3  A    between atoms: C_10  and  C_13 
REMARK    4  A    between atoms: O_14  and  C_10 
REMARK    5  A    between atoms: C_17  and  O_14 
ROOT
ATOM      1  C   UNL d   1       0.868   0.276  -0.040  0.00  0.00     0.084 A 
ATOM      2  C   UNL d   1       0.075   1.431  -0.058  0.00  0.00     0.091 A 
ATOM      3  N   UNL d   1      -1.281   1.392  -0.041  0.00  0.00    -0.353 N 
ATOM      4  HN  UNL d   1      -1.830   2.252  -0.049  1.00  0.00     0.166 HD
ATOM      5  C   UNL d   1       0.231  -0.976  -0.012  0.00  0.00    -0.037 A 
ATOM      6  C   UNL d   1       2.299   0.368  -0.048  0.00  0.00     0.103 C 
ATOM      7  N   UNL d   1       3.461   0.405  -0.046  0.00  0.00    -0.191 NA
ATOM      8  C   UNL d   1      -1.886   0.181  -0.012  0.00  0.00     0.006 A 
ATOM      9  C   UNL d   1      -1.169  -1.011   0.001  0.00  0.00     0.033 A 
ATOM     10  C   UNL d   1       0.974  -2.285  -0.002  0.00  0.00     0.050 C 
ATOM     11  C   UNL d   1      -3.386   0.168   0.004  0.00  0.00     0.068 C 
ENDROOT
BRANCH   2  12
ATOM     12  S   UNL d   1       0.832   3.047  -0.119  0.00  0.00    -0.101 SA
BRANCH  12  13
ATOM     13  C   UNL d   1      -0.611   4.163  -0.082  0.00  0.00     0.191 C 
BRANCH  13  14
ATOM     14  C   UNL d   1      -0.068   5.575  -0.118  0.00  0.00     0.268 C 
ATOM     15  O   UNL d   1       0.079   6.236  -1.139  0.00  0.00    -0.264 OA
BRANCH  14  16
ATOM     16  O   UNL d   1       0.346   5.946   1.129  0.00  0.00    -0.321 OA
BRANCH  16  17
ATOM     17  C   UNL d   1       1.302   7.014   1.184  0.00  0.00     0.174 C 
ATOM     18  C   UNL d   1       2.691   6.401   1.240  0.00  0.00     0.034 C 
ENDBRANCH  16  17
ENDBRANCH  14  16
ENDBRANCH  13  14
ENDBRANCH  12  13
ENDBRANCH   2  12
TORSDOF 5
