REMARK  6 active torsions:
REMARK  status: ('A' for Active; 'I' for Inactive)
REMARK    1  A    between atoms: C_2  and  C_1 
REMARK    2  A    between atoms: O_8  and  C_1 
REMARK    3  A    between atoms: O_16  and  C_3 
REMARK    4  A    between atoms: O_17  and  C_4 
REMARK    5  A    between atoms: O_18  and  C_5 
REMARK    6  A    between atoms: C_9  and  O_8 
ROOT
ATOM      1  C   UNL d   1       0.209   1.146   0.502  0.00  0.00     0.045 A 
ATOM      2  C   UNL d   1      -1.304   3.433   1.128  0.00  0.00     0.135 A 
ATOM      3  C   UNL d   1      -1.688   2.158   1.607  0.00  0.00     0.105 A 
ATOM      4  C   UNL d   1      -0.136   3.562   0.349  0.00  0.00     0.105 A 
ATOM      5  C   UNL d   1       0.613   2.414   0.056  0.00  0.00     0.057 A 
ATOM      6  C   UNL d   1      -0.937   1.023   1.286  0.00  0.00     0.057 A 
ENDROOT
BRANCH   1   7
ATOM      7  C   UNL d   1       1.006  -0.030   0.050  0.00  0.00     0.298 C 
ATOM      8  O   UNL d   1       1.961   0.090  -0.697  0.00  0.00    -0.259 OA
BRANCH   7   9
ATOM      9  O   UNL d   1       0.472  -1.210   0.559  0.00  0.00    -0.275 OA
BRANCH   9  10
ATOM     10  C   UNL d   1       0.954  -2.476   0.151  0.00  0.00     0.080 A 
ATOM     11  C   UNL d   1       2.276  -2.708  -0.224  0.00  0.00     0.044 A 
ATOM     12  C   UNL d   1       2.660  -3.972  -0.683  0.00  0.00    -0.059 A 
ATOM     13  C   UNL d   1       4.054  -4.210  -1.183  0.00  0.00     0.048 C 
ATOM     14  C   UNL d   1       1.721  -5.011  -0.700  0.00  0.00     0.013 A 
ATOM     15  C   UNL d   1       0.405  -4.800  -0.262  0.00  0.00    -0.059 A 
ATOM     16  C   UNL d   1       0.024  -3.519   0.158  0.00  0.00     0.044 A 
ATOM     17  C   UNL d   1      -0.564  -5.946  -0.262  0.00  0.00     0.048 C 
ENDBRANCH   9  10
ENDBRANCH   7   9
ENDBRANCH   1   7
BRANCH   4  18
ATOM     18  O   UNL d   1       0.194   4.804  -0.126  0.00  0.00    -0.353 OA
ATOM     19  C   UNL d   1       1.376   4.943  -0.906  0.00  0.00     0.210 C 
ENDBRANCH   4  18
BRANCH   3  20
ATOM     20  O   UNL d   1      -2.843   2.104   2.355  0.00  0.00    -0.353 OA
ATOM     21  C   UNL d   1      -2.989   0.985   3.221  0.00  0.00     0.210 C 
ENDBRANCH   3  20
BRANCH   2  22
ATOM     22  O   UNL d   1      -2.186   4.445   1.432  0.00  0.00    -0.351 OA
ATOM     23  C   UNL d   1      -1.675   5.763   1.570  0.00  0.00     0.210 C 
ENDBRANCH   2  22
TORSDOF 6
