REMARK  5 active torsions:
REMARK  status: ('A' for Active; 'I' for Inactive)
REMARK    1  A    between atoms: C_3  and  C_1 
REMARK    2  A    between atoms: C_12  and  C_2 
REMARK    3  A    between atoms: C_18  and  C_8 
REMARK    4  A    between atoms: O_23  and  C_12 
REMARK    5  A    between atoms: O_28  and  C_25 
ROOT
ATOM      1  C   UNL d   1       2.954   1.123  -1.569  0.00  0.00     0.052 C 
ATOM      2  C   UNL d   1       2.271   1.728  -0.325  0.00  0.00     0.102 C 
ATOM      3  C   UNL d   1       3.249   1.996   0.818  0.00  0.00     0.024 C 
ATOM      4  C   UNL d   1       4.526   1.573   0.755  0.00  0.00     0.021 C 
ATOM      5  C   UNL d   1       4.244   0.717  -1.522  0.00  0.00     0.018 C 
ATOM      6  N   UNL d   1       4.961   0.846  -0.338  0.00  0.00    -0.362 N 
ATOM      7  C   UNL d   1       2.857   2.960   1.886  0.00  0.00     0.159 C 
ATOM      8  C   UNL d   1       5.590   1.937   1.767  0.00  0.00     0.067 C 
ATOM      9  C   UNL d   1       5.064   2.530   3.087  0.00  0.00    -0.036 C 
ATOM     10  C   UNL d   1       3.942   3.530   2.785  0.00  0.00     0.092 C 
ATOM     11  O   UNL d   1       1.708   3.373   1.967  0.00  0.00    -0.293 OA
ATOM     12  C   UNL d   1       5.062   0.172  -2.668  0.00  0.00     0.069 C 
ATOM     13  C   UNL d   1       6.221   3.255   3.804  0.00  0.00     0.015 C 
ATOM     14  C   UNL d   1       4.549   1.416   4.017  0.00  0.00     0.015 C 
ATOM     15  H   UNL d   1       5.955   0.646  -0.385  0.00  0.00     0.165 HD
ENDROOT
BRANCH   2  16
ATOM     16  C   UNL d   1       1.073   0.878   0.055  0.00  0.00     0.001 A 
ATOM     17  C   UNL d   1      -0.316   1.253   0.200  0.00  0.00     0.067 A 
ATOM     18  N   UNL d   1      -1.073   0.165   0.439  0.00  0.00    -0.300 N 
ATOM     19  N   UNL d   1      -0.224  -0.864   0.407  0.00  0.00    -0.311 N 
ATOM     20  HN  UNL d   1      -2.078   0.133   0.607  1.00  0.00     0.187 HD
ATOM     21  C   UNL d   1       1.071  -0.498   0.231  0.00  0.00     0.117 A 
ATOM     22  H   UNL d   1      -0.605  -1.801   0.494  0.00  0.00     0.186 HD
BRANCH  17  23
ATOM     23  C   UNL d   1      -0.958   2.575   0.115  0.00  0.00    -0.007 A 
ATOM     24  C   UNL d   1      -0.491   3.570  -0.748  0.00  0.00     0.016 A 
ATOM     25  C   UNL d   1      -1.037   4.856  -0.759  0.00  0.00     0.037 A 
ATOM     26  C   UNL d   1      -2.110   5.160   0.067  0.00  0.00     0.068 A 
ATOM     27  C   UNL d   1      -2.662   4.156   0.861  0.00  0.00     0.037 A 
ATOM     28  C   UNL d   1      -2.083   2.878   0.897  0.00  0.00     0.016 A 
BRANCH  26  29
ATOM     29  O   UNL d   1      -2.711   6.388   0.129  0.00  0.00    -0.356 OA
ATOM     30  C   UNL d   1      -1.839   7.489  -0.123  0.00  0.00     0.210 C 
ENDBRANCH  26  29
ENDBRANCH  17  23
ENDBRANCH   2  16
BRANCH   1  31
ATOM     31  C   UNL d   1       2.091   1.123  -2.783  0.00  0.00     0.291 C 
ATOM     32  O   UNL d   1       1.297   2.009  -3.034  0.00  0.00    -0.260 OA
BRANCH  31  33
ATOM     33  O   UNL d   1       2.265   0.006  -3.536  0.00  0.00    -0.323 OA
ATOM     34  C   UNL d   1       1.469  -0.003  -4.724  0.00  0.00     0.213 C 
ENDBRANCH  31  33
ENDBRANCH   1  31
TORSDOF 5
