REMARK  5 active torsions:
REMARK  status: ('A' for Active; 'I' for Inactive)
REMARK    1  A    between atoms: N_2  and  S_1 
REMARK    2  A    between atoms: C_3  and  S_1 
REMARK    3  A    between atoms: C_5  and  N_2 
REMARK    4  A    between atoms: O_14  and  C_9 
REMARK    5  A    between atoms: O_15  and  C_10 
ROOT
ATOM      1  S   UNL d   1       2.111  -1.094  -0.768  0.00  0.00     0.259 S 
ATOM      2  O   UNL d   1       2.865  -1.788   0.259  0.00  0.00    -0.201 OA
ATOM      3  O   UNL d   1       1.084  -0.098  -0.448  0.00  0.00    -0.201 OA
ENDROOT
BRANCH   1   4
ATOM      4  N   UNL d   1       1.269  -2.240  -1.594  0.00  0.00    -0.306 N 
ATOM      5  H   UNL d   1       0.317  -2.130  -1.226  0.00  0.00     0.173 HD
BRANCH   4   6
ATOM      6  C   UNL d   1       1.534  -3.661  -1.923  0.00  0.00     0.126 C 
ATOM      7  C   UNL d   1       2.583  -4.122  -2.939  0.00  0.00    -0.029 C 
ATOM      8  C   UNL d   1       2.624  -3.567  -4.227  0.00  0.00    -0.050 C 
ATOM      9  C   UNL d   1       3.138  -5.418  -2.862  0.00  0.00     0.010 C 
ATOM     10  C   UNL d   1       3.654  -3.906  -5.123  0.00  0.00     0.007 C 
ATOM     11  C   UNL d   1       1.248  -3.403  -4.889  0.00  0.00     0.039 C 
ATOM     12  C   UNL d   1       4.274  -5.140  -4.982  0.00  0.00     0.001 C 
ATOM     13  C   UNL d   1       3.923  -5.946  -3.905  0.00  0.00     0.001 C 
ATOM     14  C   UNL d   1       0.119  -3.095  -3.913  0.00  0.00     0.007 C 
ATOM     15  C   UNL d   1       0.206  -3.998  -2.651  0.00  0.00     0.031 C 
ENDBRANCH   4   6
ENDBRANCH   1   4
BRANCH   1  16
ATOM     16  C   UNL d   1       3.195  -0.278  -1.894  0.00  0.00     0.082 A 
ATOM     17  C   UNL d   1       2.814   0.063  -3.202  0.00  0.00     0.065 A 
ATOM     18  C   UNL d   1       3.681   0.819  -4.015  0.00  0.00     0.102 A 
ATOM     19  C   UNL d   1       4.925   1.227  -3.487  0.00  0.00     0.101 A 
ATOM     20  C   UNL d   1       5.270   0.887  -2.173  0.00  0.00     0.041 A 
ATOM     21  C   UNL d   1       4.420   0.135  -1.379  0.00  0.00     0.028 A 
BRANCH  18  22
ATOM     22  O   UNL d   1       3.390   1.200  -5.295  0.00  0.00    -0.353 OA
ATOM     23  C   UNL d   1       2.147   0.824  -5.870  0.00  0.00     0.210 C 
ENDBRANCH  18  22
BRANCH  19  24
ATOM     24  O   UNL d   1       5.915   1.975  -4.072  0.00  0.00    -0.353 OA
ATOM     25  C   UNL d   1       5.778   2.389  -5.418  0.00  0.00     0.210 C 
ENDBRANCH  19  24
ENDBRANCH   1  16
TORSDOF 5
