REMARK  7 active torsions:
REMARK  status: ('A' for Active; 'I' for Inactive)
REMARK    1  A    between atoms: C_4  and  C_1 
REMARK    2  A    between atoms: C_2  and  C_5 
REMARK       I    between atoms: C_3  and  N_7 
REMARK    3  A    between atoms: C_6  and  C_3 
REMARK    4  A    between atoms: N_10  and  C_6 
REMARK    5  A    between atoms: N_7  and  C_8 
REMARK    6  A    between atoms: C_21  and  N_10 
REMARK    7  A    between atoms: C_22  and  C_21 
ROOT
ATOM      1  C   UNL d   1      -0.756   4.404  -3.961  0.00  0.00     0.283 C 
ATOM      2  N   UNL d   1      -0.090   3.688  -2.984  0.00  0.00    -0.321 N 
ATOM      3  O   UNL d   1      -0.765   5.634  -3.933  0.00  0.00    -0.265 OA
ATOM      4  H   UNL d   1       0.055   4.259  -2.161  0.00  0.00     0.169 HD
ENDROOT
BRANCH   2   5
ATOM      5  C   UNL d   1       0.318   2.354  -2.911  0.00  0.00     0.036 A 
ATOM      6  C   UNL d   1       0.781   1.616  -4.003  0.00  0.00     0.045 A 
ATOM      7  C   UNL d   1       1.282   0.310  -3.818  0.00  0.00     0.050 A 
ATOM      8  C   UNL d   1       1.287  -0.250  -2.527  0.00  0.00     0.032 A 
ATOM      9  C   UNL d   1       0.820   0.479  -1.427  0.00  0.00     0.050 A 
ATOM     10  C   UNL d   1       0.345   1.782  -1.634  0.00  0.00     0.045 A 
BRANCH   7  11
ATOM     11  C   UNL d   1       1.841  -0.467  -4.990  0.00  0.00     0.417 C 
ATOM     12  F   UNL d   1       2.317  -1.697  -4.647  0.00  0.00    -0.166 F 
ATOM     13  F   UNL d   1       2.881   0.179  -5.586  0.00  0.00    -0.166 F 
ATOM     14  F   UNL d   1       0.920  -0.680  -5.967  0.00  0.00    -0.166 F 
ENDBRANCH   7  11
BRANCH   9  15
ATOM     15  C   UNL d   1       0.819  -0.101  -0.032  0.00  0.00     0.417 C 
ATOM     16  F   UNL d   1       1.543  -1.249   0.078  0.00  0.00    -0.166 F 
ATOM     17  F   UNL d   1       1.343   0.760   0.884  0.00  0.00    -0.166 F 
ATOM     18  F   UNL d   1      -0.433  -0.400   0.408  0.00  0.00    -0.166 F 
ENDBRANCH   9  15
ENDBRANCH   2   5
BRANCH   1  19
ATOM     19  C   UNL d   1      -1.572   3.734  -5.062  0.00  0.00     0.165 C 
ATOM     20  S   UNL d   1      -2.621   2.503  -4.632  0.00  0.00    -0.055 SA
BRANCH  19  21
ATOM     21  N   UNL d   1      -1.483   4.339  -6.312  0.00  0.00    -0.372 N 
ATOM     22  H   UNL d   1      -0.921   5.185  -6.379  0.00  0.00     0.161 HD
BRANCH  21  23
ATOM     23  C   UNL d   1      -1.930   3.721  -7.544  0.00  0.00     0.159 C 
BRANCH  23  24
ATOM     24  C   UNL d   1      -2.152   4.675  -8.685  0.00  0.00    -0.041 A 
ATOM     25  C   UNL d   1      -1.296   4.658  -9.797  0.00  0.00     0.009 A 
ATOM     26  C   UNL d   1      -1.582   5.423 -10.929  0.00  0.00     0.001 A 
ATOM     27  C   UNL d   1      -2.722   6.224 -10.960  0.00  0.00     0.000 A 
ATOM     28  C   UNL d   1      -3.565   6.275  -9.851  0.00  0.00     0.001 A 
ATOM     29  C   UNL d   1      -3.280   5.511  -8.716  0.00  0.00     0.009 A 
ENDBRANCH  23  24
ENDBRANCH  21  23
ENDBRANCH  19  21
ENDBRANCH   1  19
TORSDOF 7
