REMARK  5 active torsions:
REMARK  status: ('A' for Active; 'I' for Inactive)
REMARK    1  A    between atoms: C_2  and  C_1 
REMARK    2  A    between atoms: C_6  and  C_9 
REMARK    3  A    between atoms: S_12  and  C_8 
REMARK    4  A    between atoms: C_9  and  C_16 
REMARK    5  A    between atoms: C_16  and  S_12 
ROOT
ATOM      1  C   UNL d   1      -1.289   2.215  -6.039  0.00  0.00     0.164 C 
ENDROOT
BRANCH   1   2
ATOM      2  C   UNL d   1      -1.757   3.000  -7.246  0.00  0.00     0.169 C 
ATOM      3  O   UNL d   1      -2.419   2.471  -8.142  0.00  0.00    -0.291 OA
BRANCH   2   4
ATOM      4  C   UNL d   1      -1.415   4.446  -7.371  0.00  0.00     0.013 A 
ATOM      5  C   UNL d   1      -0.284   5.002  -6.762  0.00  0.00     0.054 A 
ATOM      6  C   UNL d   1      -0.062   6.377  -6.847  0.00  0.00     0.103 A 
ATOM      7  O   UNL d   1       1.037   6.861  -6.183  0.00  0.00    -0.346 OA
ATOM      8  C   UNL d   1      -0.937   7.194  -7.571  0.00  0.00     0.102 A 
ATOM      9  C   UNL d   1       0.919   8.272  -5.964  0.00  0.00     0.202 C 
ATOM     10  C   UNL d   1       0.513   8.980  -7.246  0.00  0.00     0.202 C 
ATOM     11  O   UNL d   1      -0.780   8.551  -7.686  0.00  0.00    -0.346 OA
ATOM     12  C   UNL d   1      -2.047   6.639  -8.200  0.00  0.00     0.040 A 
ATOM     13  C   UNL d   1      -2.284   5.266  -8.105  0.00  0.00     0.018 A 
ENDBRANCH   2   4
ENDBRANCH   1   2
BRANCH   1  14
ATOM     14  S   UNL d   1      -2.057   2.863  -4.516  0.00  0.00    -0.104 SA
BRANCH  14  15
ATOM     15  C   UNL d   1      -1.256   1.828  -3.307  0.00  0.00     0.069 A 
ATOM     16  C   UNL d   1      -1.546   1.998  -1.959  0.00  0.00     0.038 A 
ATOM     17  C   UNL d   1      -0.885   1.202  -1.023  0.00  0.00     0.020 A 
ATOM     18  C   UNL d   1       0.048   0.256  -1.456  0.00  0.00     0.063 A 
ATOM     19  C   UNL d   1       0.260   0.149  -2.821  0.00  0.00     0.105 A 
ATOM     20  N   UNL d   1      -0.365   0.914  -3.746  0.00  0.00    -0.360 N 
ATOM     21  HN  UNL d   1      -0.170   0.804  -4.741  1.00  0.00     0.166 HD
BRANCH  18  22
ATOM     22  C   UNL d   1       0.809  -0.605  -0.497  0.00  0.00     0.418 C 
ATOM     23  F   UNL d   1       1.676  -1.462  -1.105  0.00  0.00    -0.166 F 
ATOM     24  F   UNL d   1      -0.005  -1.380   0.271  0.00  0.00    -0.166 F 
ATOM     25  F   UNL d   1       1.559   0.127   0.372  0.00  0.00    -0.166 F 
ENDBRANCH  18  22
ENDBRANCH  14  15
ENDBRANCH   1  14
TORSDOF 5
