REMARK  3 active torsions:
REMARK  status: ('A' for Active; 'I' for Inactive)
REMARK    1  A    between atoms: C_2  and  C_1 
REMARK       I    between atoms: N_6  and  C_2 
REMARK    2  A    between atoms: C_8  and  N_6 
REMARK    3  A    between atoms: C_11  and  C_9 
ROOT
ATOM      1  C   UNL d   1       2.015   4.509  -0.641  0.00  0.00     0.258 C 
ATOM      2  N   UNL d   1       1.049   3.642  -0.138  0.00  0.00    -0.322 N 
ATOM      3  O   UNL d   1       1.828   5.690  -0.905  0.00  0.00    -0.267 OA
ATOM      4  H   UNL d   1       1.375   2.767   0.235  0.00  0.00     0.169 HD
ENDROOT
BRANCH   2   5
ATOM      5  C   UNL d   1      -0.305   3.976   0.096  0.00  0.00     0.041 A 
ATOM      6  C   UNL d   1      -1.049   3.329   1.110  0.00  0.00    -0.028 A 
ATOM      7  C   UNL d   1      -2.423   3.642   1.227  0.00  0.00     0.010 A 
ATOM      8  C   UNL d   1      -3.037   4.580   0.398  0.00  0.00     0.001 A 
ATOM      9  C   UNL d   1      -2.292   5.227  -0.575  0.00  0.00     0.002 A 
ATOM     10  C   UNL d   1      -0.939   4.924  -0.725  0.00  0.00     0.030 A 
BRANCH   6  11
ATOM     11  C   UNL d   1      -0.493   2.354   2.146  0.00  0.00     0.013 C 
ATOM     12  C   UNL d   1      -0.461   0.922   1.609  0.00  0.00     0.015 C 
ATOM     13  C   UNL d   1       0.837   2.759   2.792  0.00  0.00     0.015 C 
ENDBRANCH   6  11
ENDBRANCH   2   5
BRANCH   1  14
ATOM     14  C   UNL d   1       3.339   3.905  -0.772  0.00  0.00     0.064 A 
ATOM     15  C   UNL d   1       4.533   4.614  -0.792  0.00  0.00     0.065 A 
ATOM     16  O   UNL d   1       5.588   3.766  -0.943  0.00  0.00    -0.319 OA
ATOM     17  C   UNL d   1       4.894   6.044  -0.678  0.00  0.00     0.077 C 
ATOM     18  C   UNL d   1       5.090   2.506  -1.026  0.00  0.00     0.050 A 
ATOM     19  C   UNL d   1       3.717   2.535  -0.927  0.00  0.00     0.051 A 
ATOM     20  C   UNL d   1       6.085   1.431  -1.210  0.00  0.00     0.076 C 
ENDBRANCH   1  14
TORSDOF 3
