REMARK  8 active torsions:
REMARK  status: ('A' for Active; 'I' for Inactive)
REMARK    1  A    between atoms: C_2  and  C_1 
REMARK    2  A    between atoms: C_3  and  C_2 
REMARK    3  A    between atoms: N_5  and  C_4 
REMARK       I    between atoms: C_6  and  N_5 
REMARK    4  A    between atoms: C_13  and  C_6 
REMARK    5  A    between atoms: N_7  and  C_13 
REMARK    6  A    between atoms: C_8  and  C_12 
REMARK    7  A    between atoms: O_23  and  C_8 
REMARK    8  A    between atoms: C_28  and  O_23 
ROOT
ATOM      1  C   UNL d   1       5.266  -2.647   1.493  0.00  0.00     0.038 A 
ATOM      2  C   UNL d   1       4.112  -1.948   1.075  0.00  0.00     0.029 A 
ATOM      3  C   UNL d   1       5.144  -3.545   2.576  0.00  0.00     0.041 A 
ATOM      4  C   UNL d   1       2.879  -2.192   1.722  0.00  0.00     0.026 A 
ATOM      5  C   UNL d   1       3.929  -3.738   3.230  0.00  0.00     0.035 A 
ATOM      6  C   UNL d   1       2.792  -3.067   2.803  0.00  0.00     0.026 A 
ATOM      7 CL   UNL d   1       3.836  -4.828   4.560  0.00  0.00    -0.084 Cl
ENDROOT
BRANCH   2   8
ATOM      8  N   UNL d   1       4.100  -0.960   0.060  0.00  0.00    -0.227 NA
ATOM      9  C   UNL d   1       4.212   0.361   0.509  0.00  0.00     0.230 C 
ATOM     10  O   UNL d   1       4.495   0.686   1.659  0.00  0.00    -0.278 OA
ATOM     11  H   UNL d   1       3.298  -0.989  -0.570  0.00  0.00     0.136 HD
BRANCH   9  12
ATOM     12  C   UNL d   1       3.946   1.409  -0.566  0.00  0.00     0.368 C 
BRANCH  12  13
ATOM     13  N   UNL d   1       2.576   1.304  -1.138  0.00  0.00     0.096 N 
ATOM     14  C   UNL d   1       1.556   1.634  -0.119  0.00  0.00     0.273 C 
ATOM     15  C   UNL d   1       0.138   1.588  -0.707  0.00  0.00     0.045 C 
ATOM     16  C   UNL d   1      -0.028   2.417  -1.986  0.00  0.00     0.089 C 
ATOM     17  C   UNL d   1       1.140   2.210  -2.945  0.00  0.00     0.045 C 
ATOM     18  C   UNL d   1       2.488   2.292  -2.235  0.00  0.00     0.273 C 
BRANCH  16  19
ATOM     19  C   UNL d   1      -0.227   3.893  -1.673  0.00  0.00     0.263 C 
ATOM     20  O   UNL d   1       0.324   4.494  -0.762  0.00  0.00    -0.265 OA
BRANCH  19  21
ATOM     21  O   UNL d   1      -1.127   4.437  -2.541  0.00  0.00    -0.322 OA
BRANCH  21  22
ATOM     22  C   UNL d   1      -1.608   5.754  -2.224  0.00  0.00     0.174 C 
ATOM     23  C   UNL d   1      -0.942   6.799  -3.099  0.00  0.00     0.034 C 
ENDBRANCH  21  22
ENDBRANCH  19  21
ENDBRANCH  16  19
ENDBRANCH  12  13
ENDBRANCH   9  12
ENDBRANCH   2   8
BRANCH   1  24
ATOM     24  C   UNL d   1       6.617  -2.671   0.834  0.00  0.00     0.195 C 
ATOM     25  O   UNL d   1       7.318  -3.673   0.975  0.00  0.00    -0.287 OA
BRANCH  24  26
ATOM     26  C   UNL d   1       7.172  -1.633  -0.049  0.00  0.00     0.037 C 
ATOM     27  C   UNL d   1       7.499  -0.348   0.383  0.00  0.00     0.048 C 
ATOM     28 CL   UNL d   1       7.441   0.108   2.047  0.00  0.00    -0.083 Cl
ATOM     29  C   UNL d   1       8.040   0.575  -0.524  0.00  0.00     0.025 C 
ATOM     30  C   UNL d   1       8.374   0.178  -1.821  0.00  0.00     0.002 C 
ATOM     31  C   UNL d   1       8.189  -1.146  -2.207  0.00  0.00     0.001 C 
ATOM     32  C   UNL d   1       7.582  -2.045  -1.328  0.00  0.00     0.017 C 
ENDBRANCH  24  26
ENDBRANCH   1  24
TORSDOF 8
