REMARK  7 active torsions:
REMARK  status: ('A' for Active; 'I' for Inactive)
REMARK    1  A    between atoms: O_8  and  C_1 
REMARK    2  A    between atoms: O_10  and  N_2 
REMARK    3  A    between atoms: C_4  and  O_10 
REMARK       I    between atoms: N_9  and  C_4 
REMARK    4  A    between atoms: C_5  and  C_13 
REMARK    5  A    between atoms: N_17  and  C_5 
REMARK    6  A    between atoms: C_18  and  O_8 
REMARK    7  A    between atoms: C_19  and  N_9 
ROOT
ATOM      1  N   UNL d   1      -5.264  -5.753   0.928  0.00  0.00    -0.244 N 
ATOM      2  HN  UNL d   1      -6.237  -5.999   1.115  1.00  0.00     0.196 HD
ATOM      3  C   UNL d   1      -4.824  -4.977  -0.036  0.00  0.00     0.109 C 
ENDROOT
BRANCH   3   4
ATOM      4  C   UNL d   1      -5.761  -4.349  -1.028  0.00  0.00     0.004 A 
ATOM      5  C   UNL d   1      -7.129  -4.208  -0.785  0.00  0.00     0.017 A 
ATOM      6  C   UNL d   1      -7.941  -3.553  -1.726  0.00  0.00     0.038 A 
ATOM      7  C   UNL d   1      -7.391  -3.045  -2.910  0.00  0.00     0.076 A 
ATOM      8  C   UNL d   1      -6.018  -3.144  -3.131  0.00  0.00     0.038 A 
ATOM      9  C   UNL d   1      -5.222  -3.834  -2.220  0.00  0.00     0.017 A 
BRANCH   7  10
ATOM     10  O   UNL d   1      -8.271  -2.493  -3.821  0.00  0.00    -0.307 OA
BRANCH  10  11
ATOM     11  C   UNL d   1      -7.960  -2.580  -5.167  0.00  0.00     0.122 A 
ATOM     12  C   UNL d   1      -7.636  -3.782  -5.813  0.00  0.00     0.085 A 
ATOM     13 CL   UNL d   1      -7.682  -5.334  -5.058  0.00  0.00    -0.080 Cl
ATOM     14  C   UNL d   1      -7.282  -3.730  -7.155  0.00  0.00     0.114 A 
ATOM     15  N   UNL d   1      -7.300  -2.603  -7.904  0.00  0.00    -0.372 N 
ATOM     16  C   UNL d   1      -7.702  -1.473  -7.278  0.00  0.00     0.114 A 
ATOM     17  HN  UNL d   1      -7.027  -2.606  -8.887  1.00  0.00     0.164 HD
ATOM     18  C   UNL d   1      -8.029  -1.407  -5.929  0.00  0.00     0.085 A 
ATOM     19 CL   UNL d   1      -8.498   0.108  -5.255  0.00  0.00    -0.080 Cl
ENDBRANCH  10  11
ENDBRANCH   7  10
ENDBRANCH   3   4
BRANCH   3  20
ATOM     20  N   UNL d   1      -3.484  -4.678  -0.172  0.00  0.00    -0.286 NA
ATOM     21  H   UNL d   1      -2.942  -4.949   0.644  0.00  0.00     0.125 HD
ATOM     22  H   UNL d   1      -3.269  -3.731  -0.465  0.00  0.00     0.125 HD
ENDBRANCH   3  20
BRANCH   1  23
ATOM     23  O   UNL d   1      -4.122  -6.185   1.662  0.00  0.00    -0.179 OA
BRANCH  23  24
ATOM     24  C   UNL d   1      -4.363  -7.020   2.726  0.00  0.00     0.387 C 
ATOM     25  N   UNL d   1      -5.686  -7.260   2.989  0.00  0.00    -0.301 N 
ATOM     26  H   UNL d   1      -6.301  -6.784   2.333  0.00  0.00     0.171 HD
ATOM     27  O   UNL d   1      -3.403  -7.458   3.361  0.00  0.00    -0.236 OA
BRANCH  25  28
ATOM     28  C   UNL d   1      -6.226  -8.063   4.013  0.00  0.00     0.037 A 
ATOM     29  C   UNL d   1      -5.443  -8.777   4.930  0.00  0.00     0.031 A 
ATOM     30  C   UNL d   1      -6.035  -9.576   5.916  0.00  0.00     0.026 A 
ATOM     31  C   UNL d   1      -7.420  -9.666   5.993  0.00  0.00     0.034 A 
ATOM     32  C   UNL d   1      -8.215  -8.955   5.098  0.00  0.00     0.026 A 
ATOM     33 CL   UNL d   1      -8.146 -10.663   7.190  0.00  0.00    -0.084 Cl
ATOM     34  C   UNL d   1      -7.619  -8.157   4.111  0.00  0.00     0.031 A 
ENDBRANCH  25  28
ENDBRANCH  23  24
ENDBRANCH   1  23
TORSDOF 7
