REMARK  3 active torsions:
REMARK  status: ('A' for Active; 'I' for Inactive)
REMARK    1  A    between atoms: C_2  and  C_1 
REMARK       I    between atoms: N_4  and  C_1 
REMARK    2  A    between atoms: N_3  and  C_7 
REMARK       I    between atoms: C_8  and  N_3 
REMARK    3  A    between atoms: C_15  and  N_4 
ROOT
ATOM      1  N   UNL d   1      -3.292  -2.225  -0.534  0.00  0.00    -0.350 N 
ATOM      2  HN  UNL d   1      -3.833  -3.072  -0.361  1.00  0.00     0.166 HD
ATOM      3  C   UNL d   1      -3.901  -1.085  -0.874  0.00  0.00     0.107 A 
ATOM      4  C   UNL d   1      -1.131  -1.130  -0.639  0.00  0.00     0.050 A 
ATOM      5  C   UNL d   1      -1.944  -2.234  -0.424  0.00  0.00     0.119 A 
ATOM      6  C   UNL d   1      -3.176   0.070  -1.145  0.00  0.00     0.051 A 
ATOM      7  C   UNL d   1      -1.775   0.046  -1.026  0.00  0.00     0.035 A 
ENDROOT
BRANCH   4   8
ATOM      8  N   UNL d   1       0.274  -1.129  -0.474  0.00  0.00    -0.320 N 
ATOM      9  C   UNL d   1       1.038  -2.205  -0.043  0.00  0.00     0.280 C 
ATOM     10  O   UNL d   1       0.592  -3.317   0.216  0.00  0.00    -0.265 OA
ATOM     11  H   UNL d   1       0.780  -0.269  -0.646  0.00  0.00     0.169 HD
BRANCH   9  12
ATOM     12  C   UNL d   1       2.454  -1.930   0.094  0.00  0.00     0.142 A 
ATOM     13  O   UNL d   1       2.958  -0.687  -0.182  0.00  0.00    -0.317 OA
ATOM     14  C   UNL d   1       4.299  -0.751   0.044  0.00  0.00     0.143 A 
ATOM     15  C   UNL d   1       4.667  -2.008   0.461  0.00  0.00     0.027 A 
ATOM     16  C   UNL d   1       3.476  -2.768   0.498  0.00  0.00     0.045 A 
ENDBRANCH   9  12
ENDBRANCH   4   8
BRANCH   3  17
ATOM     17  N   UNL d   1      -5.302  -1.042  -0.938  0.00  0.00    -0.314 N 
ATOM     18  C   UNL d   1      -6.127  -2.116  -0.649  0.00  0.00     0.219 C 
ATOM     19  O   UNL d   1      -5.798  -3.255  -0.338  0.00  0.00    -0.274 OA
ATOM     20  C   UNL d   1      -7.595  -1.779  -0.736  0.00  0.00     0.117 C 
ATOM     21  H   UNL d   1      -5.724  -0.160  -1.181  0.00  0.00     0.170 HD
ENDBRANCH   3  17
TORSDOF 3
