REMARK  2 active torsions:
REMARK  status: ('A' for Active; 'I' for Inactive)
REMARK       I    between atoms: N_4  and  C_1 
REMARK       I    between atoms: N_5  and  C_1 
REMARK    1  A    between atoms: C_10  and  N_4 
REMARK    2  A    between atoms: C_11  and  N_5 
ROOT
ATOM      1  C   UNL d   1       1.013  -0.050   0.032  0.00  0.00     0.325 C 
ATOM      2  N   UNL d   1       0.380  -0.346   1.231  0.00  0.00    -0.309 N 
ATOM      3  N   UNL d   1       0.121  -0.029  -1.030  0.00  0.00    -0.309 N 
ATOM      4  O   UNL d   1       2.214   0.157  -0.085  0.00  0.00    -0.247 OA
ATOM      5  H   UNL d   1      -0.541  -0.749   1.162  0.00  0.00     0.170 HD
ATOM      6  H   UNL d   1      -0.837   0.193  -0.807  0.00  0.00     0.170 HD
ENDROOT
BRANCH   2   7
ATOM      7  C   UNL d   1       1.032  -0.451   2.484  0.00  0.00     0.039 A 
ATOM      8  C   UNL d   1       2.323   0.034   2.718  0.00  0.00     0.069 A 
ATOM      9  C   UNL d   1       2.957  -0.185   3.940  0.00  0.00     0.104 A 
ATOM     10  O   UNL d   1       4.244   0.276   4.049  0.00  0.00    -0.346 OA
ATOM     11  C   UNL d   1       2.287  -0.846   4.967  0.00  0.00     0.102 A 
ATOM     12  C   UNL d   1       4.922  -0.346   5.142  0.00  0.00     0.202 C 
ATOM     13  C   UNL d   1       4.048  -0.325   6.385  0.00  0.00     0.202 C 
ATOM     14  O   UNL d   1       2.853  -1.093   6.192  0.00  0.00    -0.346 OA
ATOM     15  C   UNL d   1       0.986  -1.298   4.763  0.00  0.00     0.042 A 
ATOM     16  C   UNL d   1       0.357  -1.096   3.527  0.00  0.00     0.032 A 
ENDBRANCH   2   7
BRANCH   3  17
ATOM     17  C   UNL d   1       0.509   0.092  -2.389  0.00  0.00     0.039 A 
ATOM     18  C   UNL d   1       1.798  -0.221  -2.837  0.00  0.00     0.069 A 
ATOM     19  C   UNL d   1       2.157  -0.020  -4.167  0.00  0.00     0.104 A 
ATOM     20  O   UNL d   1       3.457  -0.307  -4.499  0.00  0.00    -0.346 OA
ATOM     21  C   UNL d   1       1.216   0.447  -5.083  0.00  0.00     0.102 A 
ATOM     22  C   UNL d   1       3.817   0.303  -5.740  0.00  0.00     0.202 C 
ATOM     23  C   UNL d   1       2.742   0.050  -6.783  0.00  0.00     0.202 C 
ATOM     24  O   UNL d   1       1.501   0.662  -6.407  0.00  0.00    -0.346 OA
ATOM     25  C   UNL d   1      -0.081   0.729  -4.658  0.00  0.00     0.042 A 
ATOM     26  C   UNL d   1      -0.438   0.541  -3.316  0.00  0.00     0.032 A 
ENDBRANCH   3  17
TORSDOF 2
