REMARK  5 active torsions:
REMARK  status: ('A' for Active; 'I' for Inactive)
REMARK    1  A    between atoms: C_7  and  N_1 
REMARK    2  A    between atoms: C_4  and  C_3 
REMARK    3  A    between atoms: C_5  and  C_4 
REMARK       I    between atoms: N_8  and  C_5 
REMARK    4  A    between atoms: C_15  and  C_7 
REMARK    5  A    between atoms: C_11  and  N_8 
ROOT
ATOM      1  N   UNL d   1       0.282   1.460   0.606  0.00  0.00    -0.344 N 
ATOM      2  C   UNL d   1       0.834   0.290   1.114  0.00  0.00     0.254 C 
ATOM      3  C   UNL d   1       0.169  -0.985   0.538  0.00  0.00     0.320 C 
ATOM      4  N   UNL d   1      -1.296  -0.937   0.788  0.00  0.00     0.099 N 
ATOM      5  O   UNL d   1       1.840   0.270   1.818  0.00  0.00    -0.271 OA
ATOM      6  C   UNL d   1      -1.173   1.560   0.504  0.00  0.00     0.156 C 
ATOM      7  C   UNL d   1      -1.845   0.238   0.079  0.00  0.00     0.290 C 
ATOM      8  H   UNL d   1      -1.724  -1.779   0.401  0.00  0.00     0.317 HD
ENDROOT
BRANCH   3   9
ATOM      9  C   UNL d   1       0.827  -2.248   1.096  0.00  0.00     0.148 C 
BRANCH   9  10
ATOM     10  C   UNL d   1       2.214  -2.390   0.474  0.00  0.00     0.224 C 
ATOM     11  N   UNL d   1       3.235  -1.997   1.315  0.00  0.00    -0.327 N 
ATOM     12  H   UNL d   1       2.944  -1.603   2.207  0.00  0.00     0.169 HD
ATOM     13  O   UNL d   1       2.333  -2.778  -0.686  0.00  0.00    -0.273 OA
BRANCH  11  14
ATOM     14  C   UNL d   1       4.601  -1.821   1.012  0.00  0.00     0.034 A 
ATOM     15  C   UNL d   1       5.155  -2.002  -0.257  0.00  0.00     0.031 A 
ATOM     16  C   UNL d   1       6.509  -1.724  -0.484  0.00  0.00     0.026 A 
ATOM     17  C   UNL d   1       7.317  -1.283   0.561  0.00  0.00     0.034 A 
ATOM     18  C   UNL d   1       6.785  -1.123   1.836  0.00  0.00     0.026 A 
ATOM     19 CL   UNL d   1       8.975  -0.922   0.275  0.00  0.00    -0.084 Cl
ATOM     20  C   UNL d   1       5.430  -1.385   2.057  0.00  0.00     0.031 A 
ENDBRANCH  11  14
ENDBRANCH   9  10
ENDBRANCH   3   9
BRANCH   1  21
ATOM     21  C   UNL d   1       1.128   2.627   0.434  0.00  0.00     0.164 C 
BRANCH  21  22
ATOM     22  C   UNL d   1       0.985   3.770   1.404  0.00  0.00    -0.040 A 
ATOM     23  C   UNL d   1       0.621   3.605   2.745  0.00  0.00     0.009 A 
ATOM     24  C   UNL d   1       0.573   4.707   3.605  0.00  0.00     0.001 A 
ATOM     25  C   UNL d   1       0.913   5.977   3.141  0.00  0.00     0.000 A 
ATOM     26  C   UNL d   1       1.312   6.150   1.819  0.00  0.00     0.001 A 
ATOM     27  C   UNL d   1       1.351   5.053   0.961  0.00  0.00     0.009 A 
ENDBRANCH  21  22
ENDBRANCH   1  21
TORSDOF 5
