REMARK  3 active torsions:
REMARK  status: ('A' for Active; 'I' for Inactive)
REMARK    1  A    between atoms: N_2  and  S_1 
REMARK    2  A    between atoms: C_3  and  S_1 
REMARK    3  A    between atoms: C_14  and  N_4 
ROOT
ATOM      1  N   UNL d   1       0.290   1.249  -0.747  0.00  0.00    -0.203 NA
ATOM      2  N   UNL d   1      -1.006   2.821   1.318  0.00  0.00    -0.379 N 
ATOM      3  C   UNL d   1       0.823   2.593  -0.346  0.00  0.00     0.127 C 
ATOM      4  C   UNL d   1      -1.182   1.170  -0.490  0.00  0.00     0.127 C 
ATOM      5  C   UNL d   1      -1.523   1.480   0.978  0.00  0.00     0.138 C 
ATOM      6  C   UNL d   1       0.452   2.963   1.111  0.00  0.00     0.138 C 
ENDROOT
BRANCH   1   7
ATOM      7  S   UNL d   1       1.194  -0.097  -0.248  0.00  0.00     0.250 S 
ATOM      8  O   UNL d   1       0.351  -1.272  -0.326  0.00  0.00    -0.205 OA
ATOM      9  O   UNL d   1       1.904   0.235   0.965  0.00  0.00    -0.205 OA
BRANCH   7  10
ATOM     10  C   UNL d   1       2.483  -0.439  -1.428  0.00  0.00     0.115 A 
ATOM     11  S   UNL d   1       2.475   0.435  -2.896  0.00  0.00    -0.089 SA
ATOM     12  C   UNL d   1       3.851  -0.400  -3.477  0.00  0.00     0.051 A 
ATOM     13  C   UNL d   1       4.307  -1.335  -2.575  0.00  0.00     0.009 A 
ATOM     14  C   UNL d   1       3.519  -1.354  -1.390  0.00  0.00     0.033 A 
ENDBRANCH   7  10
ENDBRANCH   1   7
BRANCH   2  15
ATOM     15  C   UNL d   1      -1.671   3.651   2.208  0.00  0.00     0.030 A 
ATOM     16  C   UNL d   1      -2.723   3.209   3.026  0.00  0.00     0.029 A 
ATOM     17  C   UNL d   1      -3.443   4.085   3.850  0.00  0.00     0.002 A 
ATOM     18  C   UNL d   1      -3.121   5.436   3.886  0.00  0.00     0.000 A 
ATOM     19  C   UNL d   1      -2.076   5.905   3.100  0.00  0.00     0.002 A 
ATOM     20  C   UNL d   1      -1.371   5.023   2.274  0.00  0.00     0.029 A 
ENDBRANCH   2  15
TORSDOF 3
