REMARK  2 active torsions:
REMARK  status: ('A' for Active; 'I' for Inactive)
REMARK    1  A    between atoms: C_2  and  S_1 
REMARK    2  A    between atoms: C_3  and  S_1 
ROOT
ATOM      1  S   UNL d   1       0.890  -0.057   0.165  0.00  0.00    -0.089 SA
ENDROOT
BRANCH   1   2
ATOM      2  C   UNL d   1       0.342  -1.754   0.000  0.00  0.00     0.016 A 
ATOM      3  C   UNL d   1       0.031  -2.347  -1.256  0.00  0.00    -0.009 A 
ATOM      4  C   UNL d   1      -0.448  -3.682  -1.273  0.00  0.00    -0.025 A 
ATOM      5  C   UNL d   1       0.153  -1.681  -2.500  0.00  0.00     0.013 A 
ATOM      6  C   UNL d   1      -0.781  -4.294  -2.493  0.00  0.00     0.012 A 
ATOM      7  C   UNL d   1      -0.604  -4.389  -0.070  0.00  0.00     0.012 A 
ATOM      8  C   UNL d   1      -0.659  -3.606  -3.699  0.00  0.00     0.001 A 
ATOM      9  C   UNL d   1      -0.192  -2.300  -3.703  0.00  0.00     0.001 A 
ATOM     10  C   UNL d   1      -0.324  -3.787   1.153  0.00  0.00     0.002 A 
ATOM     11  C   UNL d   1       0.136  -2.474   1.189  0.00  0.00     0.020 A 
ENDBRANCH   1   2
BRANCH   1  12
ATOM     12  C   UNL d   1       2.696  -0.075   0.063  0.00  0.00     0.016 A 
ATOM     13  C   UNL d   1       3.417   1.163   0.138  0.00  0.00    -0.009 A 
ATOM     14  C   UNL d   1       4.835   1.132   0.147  0.00  0.00    -0.025 A 
ATOM     15  C   UNL d   1       2.811   2.446   0.206  0.00  0.00     0.013 A 
ATOM     16  C   UNL d   1       5.577   2.325   0.231  0.00  0.00     0.012 A 
ATOM     17  C   UNL d   1       5.511  -0.093   0.069  0.00  0.00     0.012 A 
ATOM     18  C   UNL d   1       4.943   3.564   0.290  0.00  0.00     0.001 A 
ATOM     19  C   UNL d   1       3.558   3.624   0.275  0.00  0.00     0.001 A 
ATOM     20  C   UNL d   1       4.806  -1.286  -0.048  0.00  0.00     0.002 A 
ATOM     21  C   UNL d   1       3.412  -1.278  -0.058  0.00  0.00     0.020 A 
ENDBRANCH   1  12
TORSDOF 2
