REMARK  2 active torsions:
REMARK  status: ('A' for Active; 'I' for Inactive)
REMARK    1  A    between atoms: C_4  and  C_3 
REMARK    2  A    between atoms: C_12  and  C_5 
ROOT
ATOM      1  N   UNL d   1       1.396  -0.604  -0.208  0.00  0.00    -0.347 N 
ATOM      2  HN  UNL d   1       2.254  -1.107  -0.436  1.00  0.00     0.167 HD
ATOM      3  C   UNL d   1       1.303   0.765  -0.025  0.00  0.00     0.074 A 
ATOM      4  C   UNL d   1       0.211  -1.162  -0.044  0.00  0.00     0.084 A 
ATOM      5  S   UNL d   1      -1.082  -0.045   0.209  0.00  0.00    -0.081 SA
ATOM      6  C   UNL d   1       0.034   1.249   0.205  0.00  0.00     0.084 A 
ENDROOT
BRANCH   3   7
ATOM      7  C   UNL d   1       2.496   1.655  -0.054  0.00  0.00     0.104 A 
ATOM      8  O   UNL d   1       2.473   2.993   0.225  0.00  0.00    -0.308 OA
ATOM      9  C   UNL d   1       3.750   3.449   0.126  0.00  0.00     0.086 A 
ATOM     10  C   UNL d   1       4.159   4.760   0.360  0.00  0.00     0.040 A 
ATOM     11  C   UNL d   1       4.605   2.417  -0.243  0.00  0.00     0.002 A 
ATOM     12  C   UNL d   1       5.523   5.026   0.193  0.00  0.00     0.026 A 
ATOM     13  C   UNL d   1       6.408   4.016  -0.194  0.00  0.00     0.035 A 
ATOM     14  C   UNL d   1       5.971   2.703  -0.415  0.00  0.00     0.038 A 
ATOM     15 CL   UNL d   1       8.076   4.392  -0.405  0.00  0.00    -0.084 Cl
ATOM     16  C   UNL d   1       3.788   1.262  -0.346  0.00  0.00     0.054 A 
ENDBRANCH   3   7
BRANCH   4  17
ATOM     17  C   UNL d   1      -0.036  -2.615  -0.086  0.00  0.00    -0.002 A 
ATOM     18  C   UNL d   1      -1.061  -3.224   0.657  0.00  0.00     0.016 A 
ATOM     19  C   UNL d   1      -1.254  -4.610   0.619  0.00  0.00     0.024 A 
ATOM     20  C   UNL d   1      -0.420  -5.403  -0.164  0.00  0.00     0.034 A 
ATOM     21  C   UNL d   1       0.609  -4.823  -0.903  0.00  0.00     0.024 A 
ATOM     22 CL   UNL d   1      -0.657  -7.105  -0.209  0.00  0.00    -0.084 Cl
ATOM     23  C   UNL d   1       0.801  -3.437  -0.859  0.00  0.00     0.016 A 
ENDBRANCH   4  17
TORSDOF 2
