REMARK  6 active torsions:
REMARK  status: ('A' for Active; 'I' for Inactive)
REMARK    1  A    between atoms: C_7  and  C_1 
REMARK    2  A    between atoms: N_2  and  C_10 
REMARK    3  A    between atoms: C_12  and  N_4 
REMARK    4  A    between atoms: N_6  and  C_7 
REMARK    5  A    between atoms: O_15  and  C_8 
REMARK    6  A    between atoms: O_20  and  C_13 
ROOT
ATOM      1  C   UNL d   1       0.183   0.960   0.003  0.00  0.00     0.005 A 
ATOM      2  C   UNL d   1       0.685  -0.346   0.038  0.00  0.00     0.073 A 
ATOM      3  C   UNL d   1      -1.216   1.133  -0.004  0.00  0.00     0.042 A 
ATOM      4  C   UNL d   1      -2.090   0.036  -0.010  0.00  0.00     0.048 A 
ATOM      5  C   UNL d   1      -0.166  -1.446   0.022  0.00  0.00     0.039 A 
ATOM      6  C   UNL d   1      -1.547  -1.252  -0.003  0.00  0.00     0.034 A 
ENDROOT
BRANCH   4   7
ATOM      7  N   UNL d   1      -3.487   0.167   0.077  0.00  0.00    -0.300 N 
ATOM      8  N   UNL d   1      -3.945   1.057  -0.675  0.00  0.00    -0.300 N 
ATOM      9  HN  UNL d   1      -3.380   1.674  -1.258  1.00  0.00     0.187 HD
ATOM     10  HN  UNL d   1      -4.068  -0.405   0.690  1.00  0.00     0.187 HD
BRANCH   8  11
ATOM     11  C   UNL d   1      -5.355   1.085  -0.600  0.00  0.00     0.048 A 
ATOM     12  C   UNL d   1      -6.018   2.321  -0.568  0.00  0.00     0.034 A 
ATOM     13  C   UNL d   1      -7.415   2.378  -0.502  0.00  0.00     0.039 A 
ATOM     14  C   UNL d   1      -8.175   1.208  -0.491  0.00  0.00     0.068 A 
ATOM     15  C   UNL d   1      -7.527  -0.028  -0.518  0.00  0.00     0.039 A 
ATOM     16  C   UNL d   1      -6.133  -0.081  -0.586  0.00  0.00     0.034 A 
BRANCH  14  17
ATOM     17  O   UNL d   1      -9.527   1.378  -0.411  0.00  0.00    -0.356 OA
ATOM     18  C   UNL d   1     -10.314   0.319  -0.954  0.00  0.00     0.210 C 
ENDBRANCH  14  17
ENDBRANCH   8  11
ENDBRANCH   4   7
BRANCH   1  19
ATOM     19  C   UNL d   1       1.052   2.192   0.099  0.00  0.00     0.313 C 
BRANCH  19  20
ATOM     20  N   UNL d   1       2.396   2.084  -0.537  0.00  0.00     0.092 N 
ATOM     21  C   UNL d   1       2.255   2.018  -2.011  0.00  0.00     0.272 C 
ATOM     22  C   UNL d   1       3.588   2.147  -2.751  0.00  0.00     0.030 C 
ATOM     23  C   UNL d   1       4.311   3.422  -2.349  0.00  0.00     0.003 C 
ATOM     24  C   UNL d   1       4.510   3.434  -0.842  0.00  0.00     0.030 C 
ATOM     25  C   UNL d   1       3.175   3.267  -0.115  0.00  0.00     0.272 C 
ENDBRANCH  19  20
ENDBRANCH   1  19
BRANCH   2  26
ATOM     26  O   UNL d   1       2.027  -0.600   0.095  0.00  0.00    -0.360 OA
ATOM     27  H   UNL d   1       2.485   0.259  -0.036  0.00  0.00     0.217 HD
ENDBRANCH   2  26
TORSDOF 6
