REMARK  5 active torsions:
REMARK  status: ('A' for Active; 'I' for Inactive)
REMARK    1  A    between atoms: C_5  and  C_1 
REMARK    2  A    between atoms: C_7  and  C_2 
REMARK    3  A    between atoms: O_11  and  C_7 
REMARK       I    between atoms: C_9  and  N_10 
REMARK    4  A    between atoms: C_16  and  C_9 
REMARK    5  A    between atoms: N_10  and  O_11 
ROOT
ATOM      1  C   UNL d   1      -1.195  -0.622   0.197  0.00  0.00     0.090 A 
ATOM      2  C   UNL d   1       0.051  -1.315   0.039  0.00  0.00     0.102 A 
ATOM      3  N   UNL d   1      -1.000   0.698   0.029  0.00  0.00    -0.259 N 
ATOM      4  HN  UNL d   1      -1.721   1.420   0.026  1.00  0.00     0.195 HD
ATOM      5  O   UNL d   1       0.342   0.893  -0.138  0.00  0.00    -0.241 OA
ATOM      6  C   UNL d   1       0.979  -0.298  -0.108  0.00  0.00     0.091 A 
ATOM      7  C   UNL d   1       2.452  -0.218  -0.165  0.00  0.00     0.080 C 
ENDROOT
BRANCH   2   8
ATOM      8  C   UNL d   1       0.409  -2.715   0.108  0.00  0.00     0.320 C 
ATOM      9  O   UNL d   1       0.062  -3.480   1.001  0.00  0.00    -0.257 OA
BRANCH   8  10
ATOM     10  O   UNL d   1       1.292  -3.051  -0.886  0.00  0.00    -0.192 OA
BRANCH  10  11
ATOM     11  N   UNL d   1       2.208  -4.099  -0.556  0.00  0.00    -0.221 N 
ATOM     12  C   UNL d   1       3.354  -3.983  -1.331  0.00  0.00     0.275 C 
ATOM     13  O   UNL d   1       3.385  -3.294  -2.349  0.00  0.00    -0.265 OA
ATOM     14  H   UNL d   1       2.165  -4.456   0.392  0.00  0.00     0.198 HD
BRANCH  12  15
ATOM     15  C   UNL d   1       4.622  -4.637  -0.876  0.00  0.00     0.034 A 
ATOM     16  C   UNL d   1       4.749  -5.403   0.285  0.00  0.00     0.017 A 
ATOM     17  C   UNL d   1       6.008  -5.888   0.669  0.00  0.00     0.001 A 
ATOM     18  C   UNL d   1       7.144  -5.623  -0.100  0.00  0.00     0.000 A 
ATOM     19  C   UNL d   1       7.023  -4.889  -1.271  0.00  0.00     0.001 A 
ATOM     20  C   UNL d   1       5.772  -4.403  -1.658  0.00  0.00     0.017 A 
ENDBRANCH  12  15
ENDBRANCH  10  11
ENDBRANCH   8  10
ENDBRANCH   2   8
BRANCH   1  21
ATOM     21  C   UNL d   1      -2.553  -1.096   0.465  0.00  0.00     0.071 A 
ATOM     22  C   UNL d   1      -3.443  -0.314   1.222  0.00  0.00     0.132 A 
ATOM     23  F   UNL d   1      -3.051   0.846   1.773  0.00  0.00    -0.205 F 
ATOM     24  C   UNL d   1      -4.765  -0.704   1.443  0.00  0.00     0.043 A 
ATOM     25  C   UNL d   1      -5.230  -1.903   0.917  0.00  0.00     0.006 A 
ATOM     26  C   UNL d   1      -4.364  -2.699   0.166  0.00  0.00     0.043 A 
ATOM     27  C   UNL d   1      -3.045  -2.291  -0.060  0.00  0.00     0.132 A 
ATOM     28  F   UNL d   1      -2.273  -3.066  -0.835  0.00  0.00    -0.205 F 
ENDBRANCH   1  21
TORSDOF 5
