REMARK  9 active torsions:
REMARK  status: ('A' for Active; 'I' for Inactive)
REMARK    1  A    between atoms: O_4  and  C_1 
REMARK    2  A    between atoms: C_2  and  O_4 
REMARK    3  A    between atoms: C_6  and  C_2 
REMARK    4  A    between atoms: C_3  and  C_14 
REMARK    5  A    between atoms: C_11  and  C_5 
REMARK    6  A    between atoms: O_27  and  C_7 
REMARK    7  A    between atoms: O_28  and  C_9 
REMARK    8  A    between atoms: O_29  and  C_10 
REMARK    9  A    between atoms: C_25  and  N_16 
ROOT
ATOM      1  C   UNL d   1       2.021  -5.685  -0.928  0.00  0.00     0.113 A 
ATOM      2  C   UNL d   1       1.637  -4.441  -0.393  0.00  0.00     0.017 A 
ATOM      3  C   UNL d   1       3.384  -6.003  -1.050  0.00  0.00     0.070 A 
ATOM      4  C   UNL d   1       4.353  -5.068  -0.685  0.00  0.00     0.050 A 
ATOM      5  C   UNL d   1       2.616  -3.496  -0.070  0.00  0.00     0.039 A 
ATOM      6  C   UNL d   1       3.964  -3.824  -0.195  0.00  0.00     0.036 A 
ATOM      7 CL   UNL d   1       3.949  -7.568  -1.519  0.00  0.00    -0.081 Cl
ATOM      8 CL   UNL d   1       5.164  -2.704   0.318  0.00  0.00    -0.084 Cl
ENDROOT
BRANCH   1   9
ATOM      9  O   UNL d   1       1.030  -6.681  -1.094  0.00  0.00    -0.272 OA
BRANCH   9  10
ATOM     10  C   UNL d   1       0.957  -7.401  -2.283  0.00  0.00     0.298 C 
ATOM     11  O   UNL d   1       1.286  -7.004  -3.383  0.00  0.00    -0.259 OA
BRANCH  10  12
ATOM     12  C   UNL d   1       0.500  -8.792  -1.963  0.00  0.00     0.045 A 
ATOM     13  C   UNL d   1       0.585  -9.794  -2.939  0.00  0.00     0.057 A 
ATOM     14  C   UNL d   1       0.251 -11.129  -2.632  0.00  0.00     0.105 A 
ATOM     15  C   UNL d   1      -0.180 -11.463  -1.325  0.00  0.00     0.135 A 
ATOM     16  C   UNL d   1      -0.227 -10.453  -0.345  0.00  0.00     0.105 A 
ATOM     17  C   UNL d   1       0.082  -9.132  -0.676  0.00  0.00     0.057 A 
BRANCH  14  18
ATOM     18  O   UNL d   1       0.364 -12.155  -3.534  0.00  0.00    -0.353 OA
ATOM     19  C   UNL d   1       0.746 -11.867  -4.872  0.00  0.00     0.210 C 
ENDBRANCH  14  18
BRANCH  15  20
ATOM     20  O   UNL d   1      -0.544 -12.713  -0.895  0.00  0.00    -0.351 OA
ATOM     21  C   UNL d   1      -0.990 -13.679  -1.833  0.00  0.00     0.210 C 
ENDBRANCH  15  20
BRANCH  16  22
ATOM     22  O   UNL d   1      -0.602 -10.585   0.969  0.00  0.00    -0.353 OA
ATOM     23  C   UNL d   1      -0.261 -11.805   1.618  0.00  0.00     0.210 C 
ENDBRANCH  16  22
ENDBRANCH  10  12
ENDBRANCH   9  10
ENDBRANCH   1   9
BRANCH   2  24
ATOM     24  C   UNL d   1       0.204  -4.151  -0.168  0.00  0.00     0.102 C 
ATOM     25  N   UNL d   1      -0.398  -3.491   0.780  0.00  0.00    -0.365 N 
ATOM     26  HN  UNL d   1      -1.408  -3.376   0.696  1.00  0.00     0.165 HD
BRANCH  25  27
ATOM     27  C   UNL d   1       0.217  -2.926   1.905  0.00  0.00     0.032 A 
ATOM     28  C   UNL d   1       1.082  -3.636   2.743  0.00  0.00     0.045 A 
ATOM     29  C   UNL d   1       1.671  -3.027   3.867  0.00  0.00     0.050 A 
ATOM     30  C   UNL d   1       1.316  -1.709   4.192  0.00  0.00     0.016 A 
ATOM     31  C   UNL d   1       0.410  -1.011   3.397  0.00  0.00     0.003 A 
ATOM     32  C   UNL d   1      -0.128  -1.617   2.259  0.00  0.00     0.029 A 
BRANCH  29  33
ATOM     33  C   UNL d   1       2.671  -3.770   4.715  0.00  0.00     0.417 C 
ATOM     34  F   UNL d   1       3.033  -4.976   4.193  0.00  0.00    -0.166 F 
ATOM     35  F   UNL d   1       3.831  -3.075   4.876  0.00  0.00    -0.166 F 
ATOM     36  F   UNL d   1       2.210  -4.026   5.969  0.00  0.00    -0.166 F 
ENDBRANCH  29  33
ENDBRANCH  25  27
ENDBRANCH   2  24
TORSDOF 9
