REMARK  6 active torsions:
REMARK  status: ('A' for Active; 'I' for Inactive)
REMARK    1  A    between atoms: N_8  and  S_1 
REMARK    2  A    between atoms: C_2  and  N_4 
REMARK    3  A    between atoms: N_5  and  C_2 
REMARK    4  A    between atoms: N_4  and  C_3 
REMARK    5  A    between atoms: C_6  and  N_5 
REMARK    6  A    between atoms: C_13  and  N_8 
ROOT
ATOM      1  N   UNL d   1      -0.853  -5.029   3.468  0.00  0.00    -0.333 N 
ATOM      2  H   UNL d   1      -0.448  -5.896   3.804  0.00  0.00     0.168 HD
ENDROOT
BRANCH   1   3
ATOM      3  C   UNL d   1      -2.061  -4.718   4.040  0.00  0.00     0.176 C 
ATOM      4  S   UNL d   1      -3.394  -4.092   3.245  0.00  0.00    -0.041 SA
BRANCH   3   5
ATOM      5  N   UNL d   1      -2.217  -5.124   5.341  0.00  0.00    -0.333 N 
ATOM      6  H   UNL d   1      -3.191  -5.204   5.622  0.00  0.00     0.168 HD
BRANCH   5   7
ATOM      7  C   UNL d   1      -1.291  -5.051   6.411  0.00  0.00     0.042 A 
ATOM      8  C   UNL d   1      -1.556  -5.757   7.605  0.00  0.00    -0.013 A 
ATOM      9  C   UNL d   1      -0.706  -5.550   8.713  0.00  0.00     0.042 A 
ATOM     10  C   UNL d   1      -2.694  -6.740   7.720  0.00  0.00     0.052 C 
ATOM     11 CL   UNL d   1      -0.958  -6.368  10.219  0.00  0.00    -0.084 Cl
ATOM     12  C   UNL d   1       0.373  -4.667   8.643  0.00  0.00     0.024 A 
ATOM     13  C   UNL d   1       0.634  -3.985   7.460  0.00  0.00     0.004 A 
ATOM     14  C   UNL d   1      -0.186  -4.185   6.349  0.00  0.00     0.030 A 
ENDBRANCH   5   7
ENDBRANCH   3   5
ENDBRANCH   1   3
BRANCH   1  15
ATOM     15  C   UNL d   1      -0.158  -4.364   2.436  0.00  0.00     0.042 A 
ATOM     16  C   UNL d   1      -0.251  -2.973   2.314  0.00  0.00     0.054 A 
ATOM     17  C   UNL d   1       0.615  -2.280   1.472  0.00  0.00     0.024 A 
ATOM     18  C   UNL d   1       1.588  -2.963   0.750  0.00  0.00     0.025 A 
ATOM     19  C   UNL d   1       1.641  -4.355   0.810  0.00  0.00     0.011 A 
ATOM     20  C   UNL d   1       0.760  -5.073   1.637  0.00  0.00    -0.035 A 
ATOM     21  C   UNL d   1       0.748  -6.576   1.545  0.00  0.00     0.050 C 
BRANCH  17  22
ATOM     22  N   UNL d   1       0.579  -0.856   1.450  0.00  0.00    -0.186 NA
ATOM     23  H   UNL d   1       0.756  -0.430   0.539  0.00  0.00     0.145 HD
BRANCH  22  24
ATOM     24  S   UNL d   1       1.488  -0.046   2.629  0.00  0.00     0.210 S 
ATOM     25  O   UNL d   1       1.877   1.209   2.014  0.00  0.00    -0.211 OA
ATOM     26  O   UNL d   1       2.468  -0.935   3.205  0.00  0.00    -0.211 OA
ATOM     27  C   UNL d   1       0.246   0.316   3.848  0.00  0.00     0.180 C 
ENDBRANCH  22  24
ENDBRANCH  17  22
ENDBRANCH   1  15
TORSDOF 6
