REMARK  1 active torsions:
REMARK  status: ('A' for Active; 'I' for Inactive)
REMARK    1  A    between atoms: O_10  and  C_4 
ROOT
ATOM      1  C   UNL d   1       0.732   1.383  -0.298  0.00  0.00     0.138 C 
ATOM      2  C   UNL d   1       1.318  -0.002  -0.000  0.00  0.00     0.017 C 
ATOM      3  C   UNL d   1      -0.782   1.438  -0.313  0.00  0.00     0.117 C 
ATOM      4  C   UNL d   1      -1.297   0.025  -0.003  0.00  0.00     0.064 C 
ATOM      5  O   UNL d   1       1.414   2.384  -0.502  0.00  0.00    -0.297 OA
ATOM      6  C   UNL d   1       0.767  -0.422   1.378  0.00  0.00     0.020 C 
ATOM      7  C   UNL d   1       0.765  -0.954  -1.080  0.00  0.00     0.020 C 
ATOM      8  C   UNL d   1      -0.768  -0.425   1.370  0.00  0.00     0.039 C 
ATOM      9  C   UNL d   1      -0.769  -0.951  -1.069  0.00  0.00     0.039 C 
ATOM     10  C   UNL d   1       2.842   0.006  -0.002  0.00  0.00     0.023 C 
ENDROOT
BRANCH   4  11
ATOM     11  O   UNL d   1      -2.716  -0.000  -0.012  0.00  0.00    -0.389 OA
ATOM     12  H   UNL d   1      -3.039   0.606   0.677  0.00  0.00     0.210 HD
ENDBRANCH   4  11
TORSDOF 1
