REMARK  5 active torsions:
REMARK  status: ('A' for Active; 'I' for Inactive)
REMARK    1  A    between atoms: C_2  and  S_1 
REMARK    2  A    between atoms: N_3  and  S_1 
REMARK    3  A    between atoms: C_11  and  C_14 
REMARK    4  A    between atoms: O_18  and  C_11 
REMARK    5  A    between atoms: C_21  and  O_18 
ROOT
ATOM      1  N   UNL d   1       0.354   0.870   1.359  0.00  0.00    -0.206 NA
ATOM      2  C   UNL d   1       0.507   2.342   1.182  0.00  0.00     0.108 C 
ATOM      3  C   UNL d   1      -1.014   0.494   1.830  0.00  0.00     0.108 C 
ATOM      4  C   UNL d   1      -1.242   2.737   2.976  0.00  0.00     0.088 C 
ATOM      5  C   UNL d   1       0.166   3.077   2.475  0.00  0.00     0.030 C 
ATOM      6  C   UNL d   1      -1.349   1.216   3.134  0.00  0.00     0.030 C 
ENDROOT
BRANCH   1   7
ATOM      7  S   UNL d   1       0.807  -0.037  -0.039  0.00  0.00     0.248 S 
ATOM      8  O   UNL d   1       0.637  -1.442   0.264  0.00  0.00    -0.206 OA
ATOM      9  O   UNL d   1       0.163   0.571  -1.180  0.00  0.00    -0.206 OA
BRANCH   7  10
ATOM     10  C   UNL d   1       2.482   0.123  -0.307  0.00  0.00     0.130 A 
ATOM     11  C   UNL d   1       3.492  -0.362   0.488  0.00  0.00     0.097 A 
ATOM     12  O   UNL d   1       4.687  -0.068  -0.091  0.00  0.00    -0.241 OA
ATOM     13  C   UNL d   1       3.569  -1.103   1.760  0.00  0.00     0.081 C 
ATOM     14  N   UNL d   1       4.475   0.629  -1.264  0.00  0.00    -0.264 N 
ATOM     15  C   UNL d   1       3.145   0.745  -1.391  0.00  0.00     0.054 A 
ATOM     16  HN  UNL d   1       5.186   0.984  -1.903  1.00  0.00     0.194 HD
ATOM     17  C   UNL d   1       2.596   1.462  -2.567  0.00  0.00     0.072 C 
ENDBRANCH   7  10
ENDBRANCH   1   7
BRANCH   4  18
ATOM     18  C   UNL d   1      -2.372   3.251   2.089  0.00  0.00     0.263 C 
ATOM     19  O   UNL d   1      -3.475   2.723   2.026  0.00  0.00    -0.265 OA
BRANCH  18  20
ATOM     20  O   UNL d   1      -2.016   4.375   1.411  0.00  0.00    -0.322 OA
BRANCH  20  21
ATOM     21  C   UNL d   1      -3.024   4.919   0.542  0.00  0.00     0.174 C 
ATOM     22  C   UNL d   1      -3.038   4.177  -0.782  0.00  0.00     0.034 C 
ENDBRANCH  20  21
ENDBRANCH  18  20
ENDBRANCH   4  18
TORSDOF 5
