REMARK  2 active torsions:
REMARK  status: ('A' for Active; 'I' for Inactive)
REMARK    1  A    between atoms: N_2  and  S_1 
REMARK    2  A    between atoms: C_8  and  S_1 
ROOT
ATOM      1  S   UNL d   1       1.052  -0.019   0.026  0.00  0.00     0.244 S 
ATOM      2  O   UNL d   1       0.366   0.792   1.007  0.00  0.00    -0.206 OA
ATOM      3  O   UNL d   1       2.498  -0.051  -0.024  0.00  0.00    -0.206 OA
ENDROOT
BRANCH   1   4
ATOM      4  N   UNL d   1       0.498   0.447  -1.529  0.00  0.00    -0.189 NA
ATOM      5  C   UNL d   1      -0.971   0.674  -1.627  0.00  0.00     0.211 C 
ATOM      6  C   UNL d   1      -1.409   1.956  -0.929  0.00  0.00     0.238 C 
ATOM      7  O   UNL d   1      -2.566   2.139  -0.555  0.00  0.00    -0.272 OA
ATOM      8  N   UNL d   1      -0.460   2.949  -0.829  0.00  0.00    -0.296 N 
ATOM      9  C   UNL d   1       0.797   2.937  -1.389  0.00  0.00     0.238 C 
ATOM     10  H   UNL d   1      -0.745   3.805  -0.375  0.00  0.00     0.171 HD
ATOM     11  C   UNL d   1       1.210   1.644  -2.074  0.00  0.00     0.211 C 
ATOM     12  O   UNL d   1       1.485   3.954  -1.420  0.00  0.00    -0.272 OA
ENDBRANCH   1   4
BRANCH   1  13
ATOM     13  C   UNL d   1       0.484  -1.694   0.191  0.00  0.00     0.074 A 
ATOM     14  C   UNL d   1       1.332  -2.740  -0.182  0.00  0.00     0.025 A 
ATOM     15  C   UNL d   1       0.936  -4.061   0.032  0.00  0.00     0.008 A 
ATOM     16  C   UNL d   1      -0.303  -4.347   0.621  0.00  0.00    -0.062 A 
ATOM     17  C   UNL d   1      -1.142  -3.290   0.999  0.00  0.00     0.008 A 
ATOM     18  C   UNL d   1      -0.702  -5.774   0.862  0.00  0.00     0.048 C 
ATOM     19  C   UNL d   1      -0.747  -1.964   0.799  0.00  0.00     0.025 A 
ENDBRANCH   1  13
TORSDOF 2
