REMARK  4 active torsions:
REMARK  status: ('A' for Active; 'I' for Inactive)
REMARK    1  A    between atoms: O_2  and  S_1 
REMARK    2  A    between atoms: C_4  and  S_1 
REMARK    3  A    between atoms: C_3  and  O_2 
REMARK    4  A    between atoms: N_5  and  C_6 
ROOT
ATOM      1  C   UNL d   1       0.647  -1.421  -2.092  0.00  0.00     0.116 A 
ATOM      2  C   UNL d   1       2.011  -1.160  -2.376  0.00  0.00     0.065 A 
ATOM      3  C   UNL d   1      -0.235  -1.840  -3.097  0.00  0.00     0.040 A 
ATOM      4  C   UNL d   1       2.429  -1.327  -3.707  0.00  0.00     0.032 A 
ATOM      5  C   UNL d   1       0.215  -1.996  -4.404  0.00  0.00     0.003 A 
ATOM      6  C   UNL d   1       1.546  -1.740  -4.710  0.00  0.00     0.002 A 
ENDROOT
BRANCH   1   7
ATOM      7  O   UNL d   1       0.256  -1.389  -0.768  0.00  0.00    -0.227 OA
BRANCH   7   8
ATOM      8  S   UNL d   1      -1.195  -0.789  -0.335  0.00  0.00     0.303 S 
ATOM      9  O   UNL d   1      -2.233  -1.758  -0.629  0.00  0.00    -0.193 OA
ATOM     10  O   UNL d   1      -1.295   0.585  -0.793  0.00  0.00    -0.193 OA
BRANCH   8  11
ATOM     11  C   UNL d   1      -1.090  -0.734   1.441  0.00  0.00     0.088 A 
ATOM     12  C   UNL d   1      -1.347   0.458   2.123  0.00  0.00     0.049 A 
ATOM     13  C   UNL d   1      -1.283   0.462   3.516  0.00  0.00     0.035 A 
ATOM     14 CL   UNL d   1      -1.603   1.915   4.379  0.00  0.00    -0.084 Cl
ATOM     15  C   UNL d   1      -0.967  -0.703   4.218  0.00  0.00     0.024 A 
ATOM     16  C   UNL d   1      -0.709  -1.888   3.526  0.00  0.00     0.003 A 
ATOM     17  C   UNL d   1      -0.768  -1.908   2.135  0.00  0.00     0.026 A 
ENDBRANCH   8  11
ENDBRANCH   7   8
ENDBRANCH   1   7
BRANCH   2  18
ATOM     18  N   UNL d   1       2.905  -0.824  -1.356  0.00  0.00    -0.374 N 
ATOM     19  C   UNL d   1       4.348  -1.078  -1.525  0.00  0.00     0.149 C 
ATOM     20  C   UNL d   1       5.004  -1.100  -0.133  0.00  0.00     0.187 C 
ATOM     21  O   UNL d   1       4.776   0.128   0.581  0.00  0.00    -0.388 OA
ATOM     22  C   UNL d   1       3.365   0.376   0.722  0.00  0.00     0.187 C 
ATOM     23  C   UNL d   1       2.667   0.453  -0.648  0.00  0.00     0.149 C 
ENDBRANCH   2  18
TORSDOF 4
