REMARK  3 active torsions:
REMARK  status: ('A' for Active; 'I' for Inactive)
REMARK    1  A    between atoms: N_12  and  C_2 
REMARK    2  A    between atoms: C_11  and  C_10 
REMARK    3  A    between atoms: C_14  and  C_11 
ROOT
ATOM      1  C   UNL d   1       1.336  -1.577  -0.463  0.00  0.00     0.085 A 
ATOM      2  C   UNL d   1       2.469  -0.812  -0.239  0.00  0.00     0.089 A 
ATOM      3  C   UNL d   1       0.415   0.541  -0.262  0.00  0.00    -0.007 A 
ATOM      4  C   UNL d   1       0.139  -0.785  -0.537  0.00  0.00    -0.021 A 
ATOM      5  S   UNL d   1       2.073   0.849  -0.084  0.00  0.00    -0.075 SA
ATOM      6  C   UNL d   1       1.367  -3.002  -0.567  0.00  0.00     0.103 C 
ATOM      7  C   UNL d   1      -0.618   1.606  -0.110  0.00  0.00     0.052 C 
ATOM      8  N   UNL d   1       1.380  -4.165  -0.625  0.00  0.00    -0.191 NA
ATOM      9  C   UNL d   1      -1.259  -1.280  -0.754  0.00  0.00     0.042 C 
ATOM     10  C   UNL d   1      -1.970   0.998   0.360  0.00  0.00    -0.002 C 
ATOM     11  C   UNL d   1      -2.324  -0.176  -0.604  0.00  0.00     0.010 C 
ENDROOT
BRANCH   2  12
ATOM     12  N   UNL d   1       3.753  -1.211  -0.123  0.00  0.00    -0.392 N 
ATOM     13  H   UNL d   1       4.020  -2.188  -0.024  0.00  0.00     0.156 HD
ATOM     14  H   UNL d   1       4.464  -0.546   0.168  0.00  0.00     0.156 HD
ENDBRANCH   2  12
BRANCH  10  15
ATOM     15  C   UNL d   1      -2.113   0.692   1.914  0.00  0.00    -0.044 C 
ATOM     16  C   UNL d   1      -3.599   0.390   2.228  0.00  0.00     0.015 C 
ATOM     17  C   UNL d   1      -1.306  -0.534   2.398  0.00  0.00     0.015 C 
BRANCH  15  18
ATOM     18  C   UNL d   1      -1.643   1.885   2.806  0.00  0.00     0.004 C 
ATOM     19  C   UNL d   1      -2.459   3.167   2.706  0.00  0.00     0.006 C 
ENDBRANCH  15  18
ENDBRANCH  10  15
TORSDOF 3
