REMARK  7 active torsions:
REMARK  status: ('A' for Active; 'I' for Inactive)
REMARK    1  A    between atoms: S_13  and  C_5 
REMARK    2  A    between atoms: C_12  and  C_11 
REMARK    3  A    between atoms: C_21  and  S_13 
REMARK    4  A    between atoms: C_26  and  C_14 
REMARK    5  A    between atoms: C_19  and  C_21 
REMARK    6  A    between atoms: C_27  and  C_26 
REMARK    7  A    between atoms: C_28  and  C_27 
ROOT
ATOM      1  C   UNL d   1      -0.005   1.150  -0.059  0.00  0.00     0.158 A 
ATOM      2  N   UNL d   1       0.841   0.066  -0.060  0.00  0.00    -0.314 N 
ATOM      3  N   UNL d   1      -1.250   0.711  -0.021  0.00  0.00    -0.281 N 
ATOM      4  HN  UNL d   1      -2.087   1.292   0.031  1.00  0.00     0.188 HD
ATOM      5  C   UNL d   1       0.030  -1.042  -0.092  0.00  0.00     0.163 A 
ATOM      6  N   UNL d   1      -1.228  -0.669  -0.064  0.00  0.00    -0.278 N 
ATOM      7  HN  UNL d   1      -2.040  -1.286  -0.073  1.00  0.00     0.189 HD
ATOM      8  C   UNL d   1       0.362   2.538  -0.087  0.00  0.00     0.122 A 
ATOM      9  O   UNL d   1       1.488   3.027  -0.714  0.00  0.00    -0.298 OA
ATOM     10  C   UNL d   1      -0.331   3.611   0.458  0.00  0.00     0.044 A 
ATOM     11  C   UNL d   1       1.484   4.380  -0.572  0.00  0.00     0.129 A 
ATOM     12  C   UNL d   1       0.395   4.790   0.155  0.00  0.00     0.049 A 
ATOM     13  C   UNL d   1       2.277   0.069   0.033  0.00  0.00     0.160 C 
ENDROOT
BRANCH   5  14
ATOM     14  S   UNL d   1       0.632  -2.668  -0.107  0.00  0.00    -0.088 SA
BRANCH  14  15
ATOM     15  C   UNL d   1      -0.740  -3.572  -0.887  0.00  0.00     0.121 C 
BRANCH  15  16
ATOM     16  C   UNL d   1      -0.452  -5.057  -0.983  0.00  0.00    -0.043 A 
ATOM     17  C   UNL d   1      -0.890  -5.941   0.018  0.00  0.00     0.050 A 
ATOM     18  C   UNL d   1      -0.627  -7.309  -0.083  0.00  0.00     0.119 A 
ATOM     19  F   UNL d   1      -1.064  -8.134   0.877  0.00  0.00    -0.206 F 
ATOM     20  C   UNL d   1       0.075  -7.830  -1.159  0.00  0.00     0.084 A 
ATOM     21  C   UNL d   1       0.517  -6.960  -2.144  0.00  0.00     0.119 A 
ATOM     22  C   UNL d   1       0.265  -5.588  -2.067  0.00  0.00     0.050 A 
ATOM     23  F   UNL d   1       1.196  -7.446  -3.192  0.00  0.00    -0.206 F 
ENDBRANCH  15  16
ENDBRANCH  14  15
ENDBRANCH   5  14
BRANCH  11  24
ATOM     24  C   UNL d   1       2.537   5.123  -1.171  0.00  0.00    -0.041 C 
ATOM     25  C   UNL d   1       3.390   5.807  -1.668  0.00  0.00    -0.099 C 
BRANCH  25  26
ATOM     26  C   UNL d   1       4.408   6.686  -2.273  0.00  0.00     0.094 C 
BRANCH  26  27
ATOM     27  C   UNL d   1       5.796   6.048  -2.212  0.00  0.00     0.012 C 
BRANCH  27  28
ATOM     28  C   UNL d   1       6.869   6.946  -2.831  0.00  0.00    -0.004 C 
ATOM     29  C   UNL d   1       8.241   6.292  -2.765  0.00  0.00     0.005 C 
ENDBRANCH  27  28
ENDBRANCH  26  27
ENDBRANCH  25  26
ENDBRANCH  11  24
TORSDOF 7
