REMARK  5 active torsions:
REMARK  status: ('A' for Active; 'I' for Inactive)
REMARK    1  A    between atoms: C_6  and  C_1 
REMARK    2  A    between atoms: O_10  and  C_2 
REMARK    3  A    between atoms: O_11  and  C_3 
REMARK    4  A    between atoms: O_12  and  C_6 
REMARK    5  A    between atoms: C_14  and  O_12 
ROOT
ATOM      1  C   UNL d   1      -0.686   1.264  -0.020  0.00  0.00     0.123 A 
ATOM      2  C   UNL d   1      -1.322   0.027  -0.056  0.00  0.00     0.159 A 
ATOM      3  C   UNL d   1       0.713   1.252  -0.034  0.00  0.00     0.088 A 
ATOM      4  N   UNL d   1      -0.664  -1.152  -0.077  0.00  0.00    -0.340 N 
ATOM      5  HN  UNL d   1      -1.173  -2.035  -0.102  1.00  0.00     0.167 HD
ATOM      6  C   UNL d   1       1.411   0.051  -0.054  0.00  0.00     0.062 A 
ATOM      7  C   UNL d   1       0.689  -1.132  -0.063  0.00  0.00     0.010 A 
ATOM      8  C   UNL d   1       1.379  -2.461  -0.032  0.00  0.00     0.068 C 
ENDROOT
BRANCH   1   9
ATOM      9  C   UNL d   1      -1.388   2.559   0.098  0.00  0.00     0.300 C 
ATOM     10  O   UNL d   1      -0.789   3.623   0.149  0.00  0.00    -0.259 OA
BRANCH   9  11
ATOM     11  O   UNL d   1      -2.726   2.388   0.231  0.00  0.00    -0.318 OA
BRANCH  11  12
ATOM     12  C   UNL d   1      -3.455   3.535   0.704  0.00  0.00     0.174 C 
ATOM     13  C   UNL d   1      -3.502   3.472   2.219  0.00  0.00     0.034 C 
ENDBRANCH  11  12
ENDBRANCH   9  11
ENDBRANCH   1   9
BRANCH   2  14
ATOM     14  O   UNL d   1      -2.676  -0.141  -0.060  0.00  0.00    -0.345 OA
ATOM     15  H   UNL d   1      -3.096   0.735  -0.007  0.00  0.00     0.219 HD
ENDBRANCH   2  14
BRANCH   3  16
ATOM     16  O   UNL d   1       1.487   2.385  -0.008  0.00  0.00    -0.359 OA
ATOM     17  H   UNL d   1       0.906   3.177   0.030  0.00  0.00     0.217 HD
ENDBRANCH   3  16
TORSDOF 5
