REMARK  10 active torsions:
REMARK  status: ('A' for Active; 'I' for Inactive)
REMARK    1  A    between atoms: O_5  and  C_1 
REMARK    2  A    between atoms: C_2  and  C_4 
REMARK       I    between atoms: N_3  and  C_2 
REMARK    3  A    between atoms: C_13  and  N_3 
REMARK    4  A    between atoms: C_14  and  O_5 
REMARK    5  A    between atoms: O_12  and  C_17 
REMARK    6  A    between atoms: C_16  and  O_12 
REMARK    7  A    between atoms: C_15  and  C_13 
REMARK    8  A    between atoms: C_17  and  C_15 
REMARK    9  A    between atoms: O_25  and  C_15 
REMARK   10  A    between atoms: O_26  and  C_18 
ROOT
ATOM      1  C   UNL d   1       1.860  -6.413   4.453  0.00  0.00     0.251 C 
ATOM      2  N   UNL d   1       1.384  -5.261   5.040  0.00  0.00    -0.354 N 
ATOM      3  O   UNL d   1       1.134  -7.353   4.136  0.00  0.00    -0.268 OA
ATOM      4  H   UNL d   1       2.017  -4.510   5.274  0.00  0.00     0.162 HD
ENDROOT
BRANCH   2   5
ATOM      5  C   UNL d   1      -0.041  -5.038   5.219  0.00  0.00     0.156 C 
BRANCH   5   6
ATOM      6  C   UNL d   1      -0.766  -5.998   6.184  0.00  0.00     0.160 C 
BRANCH   6   7
ATOM      7  C   UNL d   1      -0.120  -5.997   7.580  0.00  0.00     0.209 C 
BRANCH   7   8
ATOM      8  O   UNL d   1      -0.819  -6.905   8.441  0.00  0.00    -0.349 OA
BRANCH   8   9
ATOM      9  C   UNL d   1      -0.381  -6.979   9.738  0.00  0.00     0.069 A 
ATOM     10  C   UNL d   1       0.704  -6.288  10.273  0.00  0.00     0.039 A 
ATOM     11  C   UNL d   1       1.050  -6.436  11.623  0.00  0.00     0.039 A 
ATOM     12  C   UNL d   1       0.315  -7.284  12.451  0.00  0.00     0.068 A 
ATOM     13  C   UNL d   1      -0.767  -7.983  11.914  0.00  0.00     0.039 A 
ATOM     14  C   UNL d   1      -1.113  -7.833  10.567  0.00  0.00     0.039 A 
BRANCH  12  15
ATOM     15  O   UNL d   1       0.552  -7.506  13.780  0.00  0.00    -0.356 OA
ATOM     16  C   UNL d   1       1.629  -6.787  14.369  0.00  0.00     0.210 C 
ENDBRANCH  12  15
ENDBRANCH   8   9
ENDBRANCH   7   8
ENDBRANCH   6   7
BRANCH   6  17
ATOM     17  O   UNL d   1      -2.142  -5.579   6.253  0.00  0.00    -0.392 OA
ATOM     18  H   UNL d   1      -2.234  -4.937   6.976  0.00  0.00     0.210 HD
ENDBRANCH   6  17
ENDBRANCH   5   6
ENDBRANCH   2   5
BRANCH   1  19
ATOM     19  C   UNL d   1       3.331  -6.520   4.248  0.00  0.00     0.032 A 
ATOM     20  C   UNL d   1       3.899  -7.801   4.224  0.00  0.00     0.020 A 
ATOM     21  C   UNL d   1       5.278  -7.972   4.049  0.00  0.00     0.038 A 
ATOM     22  C   UNL d   1       6.104  -6.858   3.922  0.00  0.00     0.078 A 
ATOM     23  C   UNL d   1       5.531  -5.584   3.887  0.00  0.00     0.038 A 
ATOM     24  C   UNL d   1       4.152  -5.407   4.052  0.00  0.00     0.020 A 
BRANCH  22  25
ATOM     25  O   UNL d   1       7.460  -6.874   3.786  0.00  0.00    -0.255 OA
BRANCH  25  26
ATOM     26  C   UNL d   1       8.195  -7.962   4.330  0.00  0.00     0.530 C 
ATOM     27  F   UNL d   1       7.533  -8.635   5.295  0.00  0.00    -0.144 F 
ATOM     28  F   UNL d   1       9.329  -7.471   4.880  0.00  0.00    -0.144 F 
ATOM     29  F   UNL d   1       8.539  -8.819   3.346  0.00  0.00    -0.144 F 
ENDBRANCH  25  26
ENDBRANCH  22  25
ENDBRANCH   1  19
TORSDOF 10
