REMARK  5 active torsions:
REMARK  status: ('A' for Active; 'I' for Inactive)
REMARK    1  A    between atoms: C_12  and  C_2 
REMARK    2  A    between atoms: S_15  and  C_5 
REMARK    3  A    between atoms: C_8  and  C_9 
REMARK    4  A    between atoms: C_22  and  S_15 
REMARK    5  A    between atoms: C_20  and  C_22 
ROOT
ATOM      1  S   UNL d   1       1.170  -0.068  -0.003  0.00  0.00    -0.043 SA
ATOM      2  C   UNL d   1      -0.058   1.145  -0.013  0.00  0.00     0.118 A 
ATOM      3  N   UNL d   1      -1.282   0.644  -0.002  0.00  0.00    -0.291 N 
ATOM      4  HN  UNL d   1      -2.127   1.215   0.010  1.00  0.00     0.187 HD
ATOM      5  C   UNL d   1      -0.075  -1.239  -0.017  0.00  0.00     0.129 A 
ATOM      6  N   UNL d   1      -1.291  -0.739  -0.009  0.00  0.00    -0.287 N 
ATOM      7  HN  UNL d   1      -2.140  -1.304  -0.007  1.00  0.00     0.188 HD
ENDROOT
BRANCH   2   8
ATOM      8  C   UNL d   1       0.274   2.579  -0.041  0.00  0.00     0.067 A 
ATOM      9  N   UNL d   1       1.590   2.907  -0.111  0.00  0.00    -0.363 N 
ATOM     10  C   UNL d   1       1.917   4.220  -0.161  0.00  0.00     0.104 A 
ATOM     11  HN  UNL d   1       2.311   2.185  -0.125  1.00  0.00     0.165 HD
ATOM     12  C   UNL d   1       0.991   5.251  -0.146  0.00  0.00     0.063 A 
ATOM     13  C   UNL d   1      -0.360   4.897  -0.069  0.00  0.00     0.020 A 
ATOM     14  C   UNL d   1      -0.724   3.550  -0.016  0.00  0.00     0.033 A 
BRANCH  12  15
ATOM     15  C   UNL d   1       1.434   6.680  -0.215  0.00  0.00     0.418 C 
ATOM     16  F   UNL d   1       2.786   6.829  -0.284  0.00  0.00    -0.166 F 
ATOM     17  F   UNL d   1       0.933   7.329  -1.302  0.00  0.00    -0.166 F 
ATOM     18  F   UNL d   1       1.036   7.402   0.868  0.00  0.00    -0.166 F 
ENDBRANCH  12  15
ENDBRANCH   2   8
BRANCH   5  19
ATOM     19  S   UNL d   1       0.250  -2.956  -0.026  0.00  0.00    -0.100 SA
BRANCH  19  20
ATOM     20  C   UNL d   1      -1.250  -3.575  -0.835  0.00  0.00     0.107 C 
BRANCH  20  21
ATOM     21  C   UNL d   1      -1.171  -5.072  -0.938  0.00  0.00    -0.026 C 
ATOM     22  C   UNL d   1      -1.176  -5.759  -2.088  0.00  0.00     0.007 C 
ENDBRANCH  20  21
ENDBRANCH  19  20
ENDBRANCH   5  19
TORSDOF 5
