REMARK  4 active torsions:
REMARK  status: ('A' for Active; 'I' for Inactive)
REMARK    1  A    between atoms: C_9  and  N_1 
REMARK    2  A    between atoms: C_12  and  N_2 
REMARK    3  A    between atoms: C_16  and  C_12 
REMARK    4  A    between atoms: O_20  and  C_18 
ROOT
ATOM      1  N   UNL d   1       0.914  -1.394   0.082  0.00  0.00    -0.246 N 
ATOM      2  N   UNL d   1       2.087   0.698  -0.017  0.00  0.00    -0.260 N 
ATOM      3  C   UNL d   1       2.142  -0.713   0.103  0.00  0.00     0.338 A 
ATOM      4  C   UNL d   1      -0.268  -0.691  -0.029  0.00  0.00     0.150 A 
ATOM      5  C   UNL d   1      -0.258   0.667  -0.099  0.00  0.00     0.147 A 
ATOM      6  C   UNL d   1       0.920   1.456  -0.113  0.00  0.00     0.282 A 
ATOM      7  N   UNL d   1      -1.547  -1.171  -0.041  0.00  0.00    -0.336 N 
ATOM      8  HN  UNL d   1      -1.846  -2.146  -0.012  1.00  0.00     0.168 HD
ATOM      9  N   UNL d   1      -1.568   1.049  -0.132  0.00  0.00    -0.345 N 
ATOM     10  C   UNL d   1      -2.312  -0.099  -0.098  0.00  0.00     0.182 A 
ATOM     11  O   UNL d   1       3.229  -1.297   0.180  0.00  0.00    -0.246 OA
ATOM     12  O   UNL d   1       0.879   2.678  -0.223  0.00  0.00    -0.265 OA
ATOM     13  H   UNL d   1      -1.913   2.001  -0.163  0.00  0.00     0.167 HD
ENDROOT
BRANCH   2  14
ATOM     14  C   UNL d   1       3.352   1.419  -0.051  0.00  0.00     0.175 C 
BRANCH  14  15
ATOM     15  C   UNL d   1       3.799   1.843   1.331  0.00  0.00    -0.037 A 
ATOM     16  C   UNL d   1       4.628   1.004   2.095  0.00  0.00     0.045 A 
ATOM     17  C   UNL d   1       4.975   1.347   3.403  0.00  0.00     0.068 A 
ATOM     18  C   UNL d   1       4.506   2.547   3.942  0.00  0.00     0.037 A 
ATOM     19  C   UNL d   1       3.700   3.399   3.188  0.00  0.00     0.003 A 
ATOM     20  C   UNL d   1       3.346   3.047   1.888  0.00  0.00     0.009 A 
BRANCH  17  21
ATOM     21  O   UNL d   1       5.743   0.598   4.252  0.00  0.00    -0.356 OA
ATOM     22  C   UNL d   1       6.217  -0.649   3.757  0.00  0.00     0.210 C 
ENDBRANCH  17  21
ENDBRANCH  14  15
ENDBRANCH   2  14
BRANCH   1  23
ATOM     23  C   UNL d   1       0.847  -2.811   0.126  0.00  0.00     0.051 A 
ATOM     24  C   UNL d   1       1.328  -3.544   1.228  0.00  0.00    -0.035 A 
ATOM     25  C   UNL d   1       1.768  -2.906   2.517  0.00  0.00     0.050 C 
ATOM     26  C   UNL d   1       1.366  -4.948   1.147  0.00  0.00     0.009 A 
ATOM     27  C   UNL d   1       0.920  -5.614   0.005  0.00  0.00     0.001 A 
ATOM     28  C   UNL d   1       0.409  -4.889  -1.065  0.00  0.00     0.002 A 
ATOM     29  C   UNL d   1       0.363  -3.496  -1.002  0.00  0.00     0.031 A 
ENDBRANCH   1  23
TORSDOF 4
