REMARK  3 active torsions:
REMARK  status: ('A' for Active; 'I' for Inactive)
REMARK    1  A    between atoms: N_5  and  C_8 
REMARK    2  A    between atoms: C_6  and  C_12 
REMARK    3  A    between atoms: C_16  and  C_12 
ROOT
ATOM      1  C   UNL d   1      -0.152   1.748  -1.582  0.00  0.00     0.073 C 
ENDROOT
BRANCH   1   2
ATOM      2  C   UNL d   1      -1.433   2.495  -1.866  0.00  0.00    -0.056 A 
ATOM      3  C   UNL d   1      -1.735   3.695  -1.208  0.00  0.00     0.009 A 
ATOM      4  C   UNL d   1      -2.924   4.375  -1.477  0.00  0.00     0.036 A 
ATOM      5  C   UNL d   1      -3.803   3.870  -2.441  0.00  0.00     0.102 A 
ATOM      6  C   UNL d   1      -3.492   2.702  -3.145  0.00  0.00     0.036 A 
ATOM      7  C   UNL d   1      -2.310   2.019  -2.853  0.00  0.00     0.009 A 
BRANCH   5   8
ATOM      8  N   UNL d   1      -5.063   4.570  -2.716  0.00  0.00    -0.116 N 
ATOM      9  O   UNL d   1      -5.798   4.112  -3.599  0.00  0.00    -0.532 OA
ATOM     10  O   UNL d   1      -5.320   5.578  -2.039  0.00  0.00    -0.532 OA
ENDBRANCH   5   8
ENDBRANCH   1   2
BRANCH   1  11
ATOM     11  C   UNL d   1      -0.007   1.194  -0.156  0.00  0.00     0.180 C 
ATOM     12  C   UNL d   1       1.319   0.435  -0.138  0.00  0.00     0.248 C 
ATOM     13  N   UNL d   1       2.261   1.224   0.478  0.00  0.00    -0.297 N 
ATOM     14  O   UNL d   1       1.518  -0.637  -0.694  0.00  0.00    -0.271 OA
ATOM     15  C   UNL d   1       1.651   2.280   1.091  0.00  0.00     0.176 C 
ATOM     16  C   UNL d   1       3.672   0.910   0.405  0.00  0.00     0.161 C 
ATOM     17  N   UNL d   1       0.300   2.210   0.827  0.00  0.00    -0.353 N 
ATOM     18  S   UNL d   1       2.300   3.492   2.012  0.00  0.00    -0.041 SA
ATOM     19  H   UNL d   1      -0.359   2.880   1.206  0.00  0.00     0.162 HD
ENDBRANCH   1  11
TORSDOF 3
