REMARK  4 active torsions:
REMARK  status: ('A' for Active; 'I' for Inactive)
REMARK    1  A    between atoms: C_2  and  C_1 
REMARK       I    between atoms: N_6  and  C_1 
REMARK       I    between atoms: C_3  and  N_4 
REMARK    2  A    between atoms: C_9  and  C_3 
REMARK    3  A    between atoms: N_4  and  C_5 
REMARK    4  A    between atoms: C_10  and  N_6 
ROOT
ATOM      1  C   UNL d   1       0.300   0.452  -1.282  0.00  0.00     0.059 A 
ATOM      2  C   UNL d   1       0.820  -0.137  -2.454  0.00  0.00     0.050 A 
ATOM      3  C   UNL d   1      -0.839   1.277  -1.376  0.00  0.00     0.019 A 
ATOM      4  C   UNL d   1       0.129   0.028  -3.664  0.00  0.00     0.030 A 
ATOM      5  C   UNL d   1      -1.502   1.444  -2.593  0.00  0.00     0.001 A 
ATOM      6  C   UNL d   1      -1.029   0.804  -3.732  0.00  0.00     0.002 A 
ENDROOT
BRANCH   1   7
ATOM      7  C   UNL d   1       0.998   0.283   0.036  0.00  0.00     0.258 C 
ATOM      8  N   UNL d   1       0.200   0.441   1.157  0.00  0.00    -0.323 N 
ATOM      9  H   UNL d   1      -0.799   0.481   1.012  0.00  0.00     0.169 HD
ATOM     10  O   UNL d   1       2.183  -0.035   0.044  0.00  0.00    -0.267 OA
BRANCH   8  11
ATOM     11  C   UNL d   1       0.609   0.422   2.506  0.00  0.00     0.035 A 
ATOM     12  C   UNL d   1       1.941   0.392   2.919  0.00  0.00     0.029 A 
ATOM     13  C   UNL d   1       2.259   0.349   4.280  0.00  0.00     0.002 A 
ATOM     14  C   UNL d   1       1.248   0.346   5.238  0.00  0.00     0.000 A 
ATOM     15  C   UNL d   1      -0.083   0.404   4.837  0.00  0.00     0.002 A 
ATOM     16  C   UNL d   1      -0.401   0.448   3.477  0.00  0.00     0.029 A 
ENDBRANCH   8  11
ENDBRANCH   1   7
BRANCH   2  17
ATOM     17  N   UNL d   1       2.021  -0.894  -2.421  0.00  0.00    -0.322 N 
ATOM     18  C   UNL d   1       2.965  -0.854  -3.431  0.00  0.00     0.256 C 
ATOM     19  O   UNL d   1       2.907  -0.167  -4.448  0.00  0.00    -0.267 OA
ATOM     20  H   UNL d   1       2.390  -1.093  -1.488  0.00  0.00     0.169 HD
BRANCH  18  21
ATOM     21  C   UNL d   1       4.183  -1.671  -3.207  0.00  0.00     0.032 A 
ATOM     22  C   UNL d   1       4.087  -2.993  -2.763  0.00  0.00     0.017 A 
ATOM     23  C   UNL d   1       5.244  -3.771  -2.664  0.00  0.00     0.001 A 
ATOM     24  C   UNL d   1       6.488  -3.226  -2.995  0.00  0.00     0.000 A 
ATOM     25  C   UNL d   1       6.583  -1.904  -3.428  0.00  0.00     0.001 A 
ATOM     26  C   UNL d   1       5.428  -1.127  -3.541  0.00  0.00     0.017 A 
ENDBRANCH  18  21
ENDBRANCH   2  17
TORSDOF 4
