REMARK  3 active torsions:
REMARK  status: ('A' for Active; 'I' for Inactive)
REMARK    1  A    between atoms: C_2  and  S_1 
REMARK    2  A    between atoms: N_6  and  S_1 
REMARK    3  A    between atoms: C_13  and  N_6 
ROOT
ATOM      1  N   UNL d   1       0.538   0.579   1.502  0.00  0.00    -0.280 N 
ATOM      2  H   UNL d   1       0.444   1.592   1.426  0.00  0.00     0.179 HD
ENDROOT
BRANCH   1   3
ATOM      3  S   UNL d   1      -0.083  -0.308   0.223  0.00  0.00     0.264 S 
ATOM      4  O   UNL d   1      -0.402   0.630  -0.829  0.00  0.00    -0.200 OA
ATOM      5  O   UNL d   1       0.831  -1.407  -0.025  0.00  0.00    -0.200 OA
BRANCH   3   6
ATOM      6  C   UNL d   1      -1.610  -0.992   0.805  0.00  0.00     0.101 A 
ATOM      7  C   UNL d   1      -2.655  -0.187   1.266  0.00  0.00     0.057 A 
ATOM      8 CL   UNL d   1      -2.576   1.535   1.371  0.00  0.00    -0.083 Cl
ATOM      9  C   UNL d   1      -3.845  -0.789   1.701  0.00  0.00     0.025 A 
ATOM     10  C   UNL d   1      -4.003  -2.175   1.650  0.00  0.00     0.002 A 
ATOM     11  C   UNL d   1      -2.969  -2.974   1.169  0.00  0.00     0.002 A 
ATOM     12  C   UNL d   1      -1.774  -2.387   0.750  0.00  0.00     0.027 A 
ENDBRANCH   3   6
ENDBRANCH   1   3
BRANCH   1  13
ATOM     13  C   UNL d   1       0.872  -0.011   2.743  0.00  0.00     0.045 A 
ATOM     14  C   UNL d   1      -0.087  -0.061   3.759  0.00  0.00     0.069 A 
ATOM     15  C   UNL d   1       0.351  -0.566   4.976  0.00  0.00     0.106 A 
ATOM     16  O   UNL d   1      -0.381  -0.711   6.116  0.00  0.00    -0.296 OA
ATOM     17  C   UNL d   1       1.641  -0.993   5.240  0.00  0.00     0.068 A 
ATOM     18  C   UNL d   1       0.516  -1.222   7.018  0.00  0.00     0.120 A 
ATOM     19  C   UNL d   1       0.008  -1.478   8.381  0.00  0.00     0.098 C 
ATOM     20  N   UNL d   1       1.732  -1.410   6.543  0.00  0.00    -0.338 N 
ATOM     21  HN  UNL d   1       2.549  -1.779   7.030  1.00  0.00     0.168 HD
ATOM     22  C   UNL d   1       2.596  -0.926   4.215  0.00  0.00     0.035 A 
ATOM     23  C   UNL d   1       2.191  -0.431   2.963  0.00  0.00     0.032 A 
ENDBRANCH   1  13
TORSDOF 3
