REMARK  8 active torsions:
REMARK  status: ('A' for Active; 'I' for Inactive)
REMARK    1  A    between atoms: C_7  and  C_1 
REMARK       I    between atoms: C_2  and  N_8 
REMARK    2  A    between atoms: C_3  and  C_2 
REMARK    3  A    between atoms: C_6  and  C_4 
REMARK    4  A    between atoms: O_9  and  C_5 
REMARK    5  A    between atoms: O_14  and  C_6 
REMARK    6  A    between atoms: N_8  and  C_7 
REMARK    7  A    between atoms: C_13  and  O_9 
REMARK    8  A    between atoms: O_24  and  C_16 
ROOT
ATOM      1  C   UNL d   1       0.299   1.136   0.148  0.00  0.00     0.015 A 
ATOM      2  C   UNL d   1       1.702   1.179   0.013  0.00  0.00     0.085 A 
ATOM      3  C   UNL d   1      -0.312  -0.134   0.176  0.00  0.00     0.044 A 
ATOM      4 CL   UNL d   1      -2.018  -0.344   0.376  0.00  0.00    -0.084 Cl
ATOM      5  C   UNL d   1       2.438  -0.002  -0.199  0.00  0.00     0.038 A 
ATOM      6  C   UNL d   1       1.814  -1.242  -0.171  0.00  0.00     0.004 A 
ATOM      7  C   UNL d   1       0.441  -1.308   0.033  0.00  0.00     0.024 A 
ENDROOT
BRANCH   1   8
ATOM      8  C   UNL d   1      -0.505   2.412   0.180  0.00  0.00     0.166 C 
BRANCH   8   9
ATOM      9  N   UNL d   1      -0.363   3.190   1.394  0.00  0.00    -0.352 N 
ATOM     10  C   UNL d   1      -1.164   4.292   1.592  0.00  0.00     0.253 C 
ATOM     11  O   UNL d   1      -2.037   4.604   0.781  0.00  0.00    -0.268 OA
ATOM     12  H   UNL d   1       0.415   2.974   2.016  0.00  0.00     0.163 HD
BRANCH  10  13
ATOM     13  C   UNL d   1      -1.022   5.132   2.822  0.00  0.00     0.048 A 
ATOM     14  C   UNL d   1       0.141   5.352   3.577  0.00  0.00     0.053 A 
ATOM     15  C   UNL d   1       0.117   6.219   4.689  0.00  0.00     0.019 A 
ATOM     16  C   UNL d   1      -1.049   6.896   5.040  0.00  0.00     0.001 A 
ATOM     17  C   UNL d   1      -2.203   6.701   4.295  0.00  0.00     0.001 A 
ATOM     18  C   UNL d   1      -2.187   5.831   3.202  0.00  0.00     0.018 A 
BRANCH  14  19
ATOM     19  C   UNL d   1       1.423   4.687   3.302  0.00  0.00     0.177 C 
ATOM     20  O   UNL d   1       1.521   3.474   3.207  0.00  0.00    -0.646 OA
BRANCH  19  21
ATOM     21  O   UNL d   1       2.462   5.538   3.216  0.00  0.00    -0.773 OA
ATOM     22  H   UNL d   1       2.235   6.487   3.255  0.00  0.00     0.167 HD
ENDBRANCH  19  21
ENDBRANCH  14  19
ENDBRANCH  10  13
ENDBRANCH   8   9
ENDBRANCH   1   8
BRANCH   2  23
ATOM     23  O   UNL d   1       2.330   2.415   0.050  0.00  0.00    -0.310 OA
BRANCH  23  24
ATOM     24  C   UNL d   1       3.589   2.462   0.616  0.00  0.00     0.076 A 
ATOM     25  C   UNL d   1       4.581   3.159  -0.073  0.00  0.00     0.040 A 
ATOM     26  C   UNL d   1       5.899   3.148   0.402  0.00  0.00     0.039 A 
ATOM     27  C   UNL d   1       6.219   2.443   1.565  0.00  0.00     0.068 A 
ATOM     28  C   UNL d   1       5.206   1.820   2.294  0.00  0.00     0.039 A 
ATOM     29  C   UNL d   1       3.891   1.839   1.830  0.00  0.00     0.040 A 
BRANCH  27  30
ATOM     30  O   UNL d   1       7.473   2.317   2.096  0.00  0.00    -0.356 OA
ATOM     31  C   UNL d   1       8.550   2.433   1.173  0.00  0.00     0.210 C 
ENDBRANCH  27  30
ENDBRANCH  23  24
ENDBRANCH   2  23
TORSDOF 8
