REMARK  4 active torsions:
REMARK  status: ('A' for Active; 'I' for Inactive)
REMARK    1  A    between atoms: C_11  and  C_2 
REMARK    2  A    between atoms: C_13  and  C_10 
REMARK    3  A    between atoms: C_14  and  C_12 
REMARK    4  A    between atoms: O_29  and  C_23 
ROOT
ATOM      1  N   UNL d   1       0.318   0.630   0.050  0.00  0.00    -0.235 N 
ATOM      2  C   UNL d   1      -0.799   1.456   0.039  0.00  0.00     0.144 A 
ATOM      3  C   UNL d   1       0.163  -0.760   0.029  0.00  0.00     0.130 A 
ATOM      4  N   UNL d   1       1.627   0.967   0.073  0.00  0.00    -0.291 N 
ATOM      5  HN  UNL d   1       2.018   1.908   0.121  1.00  0.00     0.187 HD
ATOM      6  N   UNL d   1      -1.058  -1.368   0.036  0.00  0.00    -0.340 N 
ATOM      7  HN  UNL d   1      -1.148  -2.384   0.028  1.00  0.00     0.167 HD
ATOM      8  C   UNL d   1      -2.029   0.906   0.028  0.00  0.00     0.067 A 
ATOM      9  C   UNL d   1       1.429  -1.289  -0.001  0.00  0.00     0.082 A 
ATOM     10  C   UNL d   1       2.308  -0.185   0.020  0.00  0.00     0.062 A 
ATOM     11  C   UNL d   1      -2.103  -0.591   0.053  0.00  0.00     0.046 A 
ENDROOT
BRANCH  11  12
ATOM     12  C   UNL d   1      -3.465  -1.201   0.074  0.00  0.00    -0.009 A 
ATOM     13  C   UNL d   1      -4.556  -0.561   0.674  0.00  0.00     0.016 A 
ATOM     14  C   UNL d   1      -5.824  -1.156   0.656  0.00  0.00     0.037 A 
ATOM     15  C   UNL d   1      -6.010  -2.400   0.054  0.00  0.00     0.068 A 
ATOM     16  C   UNL d   1      -4.915  -3.051  -0.520  0.00  0.00     0.037 A 
ATOM     17  C   UNL d   1      -3.649  -2.460  -0.508  0.00  0.00     0.016 A 
BRANCH  15  18
ATOM     18  O   UNL d   1      -7.192  -3.080  -0.028  0.00  0.00    -0.356 OA
ATOM     19  C   UNL d   1      -8.338  -2.444   0.524  0.00  0.00     0.210 C 
ENDBRANCH  15  18
ENDBRANCH  11  12
BRANCH   2  20
ATOM     20  C   UNL d   1      -0.616   2.927   0.020  0.00  0.00     0.434 C 
ATOM     21  F   UNL d   1       0.654   3.389  -0.013  0.00  0.00    -0.165 F 
ATOM     22  F   UNL d   1      -1.248   3.472  -1.057  0.00  0.00    -0.165 F 
ATOM     23  F   UNL d   1      -1.202   3.493   1.112  0.00  0.00    -0.165 F 
ENDBRANCH   2  20
BRANCH  10  24
ATOM     24  C   UNL d   1       3.770  -0.209   0.008  0.00  0.00    -0.008 A 
ATOM     25  C   UNL d   1       4.503   0.814   0.629  0.00  0.00     0.015 A 
ATOM     26  C   UNL d   1       5.899   0.773   0.655  0.00  0.00     0.024 A 
ATOM     27  C   UNL d   1       6.571  -0.286   0.050  0.00  0.00     0.034 A 
ATOM     28  C   UNL d   1       5.859  -1.298  -0.591  0.00  0.00     0.024 A 
ATOM     29 CL   UNL d   1       8.289  -0.349   0.095  0.00  0.00    -0.084 Cl
ATOM     30  C   UNL d   1       4.462  -1.260  -0.611  0.00  0.00     0.015 A 
ENDBRANCH  10  24
TORSDOF 4
