REMARK  6 active torsions:
REMARK  status: ('A' for Active; 'I' for Inactive)
REMARK    1  A    between atoms: C_3  and  C_1 
REMARK    2  A    between atoms: N_4  and  C_2 
REMARK       I    between atoms: C_6  and  N_4 
REMARK    3  A    between atoms: C_17  and  C_6 
REMARK    4  A    between atoms: S_7  and  C_17 
REMARK    5  A    between atoms: C_9  and  S_7 
REMARK    6  A    between atoms: N_18  and  C_12 
ROOT
ATOM      1  N   UNL d   1      -2.541   3.571  -0.033  0.00  0.00    -0.325 N 
ATOM      2  C   UNL d   1      -3.220   4.768  -0.192  0.00  0.00     0.231 C 
ATOM      3  O   UNL d   1      -2.746   5.785  -0.696  0.00  0.00    -0.272 OA
ATOM      4  H   UNL d   1      -3.089   2.798   0.336  0.00  0.00     0.169 HD
ENDROOT
BRANCH   1   5
ATOM      5  C   UNL d   1      -1.175   3.290  -0.266  0.00  0.00     0.057 A 
ATOM      6  C   UNL d   1      -0.243   4.269  -0.627  0.00  0.00     0.047 A 
ATOM      7  C   UNL d   1       1.112   3.945  -0.829  0.00  0.00     0.050 A 
ATOM      8  C   UNL d   1       1.529   2.615  -0.673  0.00  0.00     0.018 A 
ATOM      9  C   UNL d   1       0.613   1.629  -0.311  0.00  0.00     0.027 A 
ATOM     10  C   UNL d   1      -0.726   1.965  -0.105  0.00  0.00     0.060 A 
ATOM     11 CL   UNL d   1      -1.821   0.700   0.346  0.00  0.00    -0.082 Cl
BRANCH   7  12
ATOM     12  C   UNL d   1       2.119   5.007  -1.208  0.00  0.00     0.417 C 
ATOM     13  F   UNL d   1       1.601   6.263  -1.272  0.00  0.00    -0.166 F 
ATOM     14  F   UNL d   1       2.683   4.771  -2.425  0.00  0.00    -0.166 F 
ATOM     15  F   UNL d   1       3.155   5.074  -0.326  0.00  0.00    -0.166 F 
ENDBRANCH   7  12
ENDBRANCH   1   5
BRANCH   2  16
ATOM     16  C   UNL d   1      -4.695   4.729   0.212  0.00  0.00     0.182 C 
BRANCH  16  17
ATOM     17  S   UNL d   1      -4.990   3.571   1.600  0.00  0.00    -0.119 SA
BRANCH  17  18
ATOM     18  C   UNL d   1      -6.665   4.023   2.059  0.00  0.00     0.021 A 
ATOM     19  C   UNL d   1      -7.783   3.693   1.268  0.00  0.00     0.022 A 
ATOM     20  C   UNL d   1      -9.060   4.060   1.715  0.00  0.00     0.024 A 
ATOM     21  C   UNL d   1      -9.240   4.641   2.972  0.00  0.00     0.002 A 
ATOM     22  C   UNL d   1      -8.137   4.920   3.773  0.00  0.00     0.001 A 
ATOM     23  C   UNL d   1      -6.853   4.620   3.315  0.00  0.00     0.020 A 
BRANCH  19  24
ATOM     24  N   UNL d   1      -7.643   3.187  -0.041  0.00  0.00    -0.302 NA
ATOM     25  H   UNL d   1      -6.802   2.622  -0.132  0.00  0.00     0.124 HD
ATOM     26  H   UNL d   1      -8.467   2.695  -0.371  0.00  0.00     0.124 HD
ENDBRANCH  19  24
ENDBRANCH  17  18
ENDBRANCH  16  17
ENDBRANCH   2  16
TORSDOF 6
