REMARK  3 active torsions:
REMARK  status: ('A' for Active; 'I' for Inactive)
REMARK    1  A    between atoms: N_2  and  C_1 
REMARK    2  A    between atoms: N_3  and  C_1 
REMARK    3  A    between atoms: C_4  and  N_3 
ROOT
ATOM      1  C   UNL d   1       0.857   0.211  -0.146  0.00  0.00     0.174 C 
ATOM      2  S   UNL d   1       2.478  -0.206  -0.301  0.00  0.00    -0.041 SA
ENDROOT
BRANCH   1   3
ATOM      3  N   UNL d   1       0.228   1.197  -0.884  0.00  0.00    -0.353 N 
ATOM      4  C   UNL d   1       0.968   2.358  -1.403  0.00  0.00     0.164 C 
ATOM      5  C   UNL d   1       0.079   3.580  -1.394  0.00  0.00    -0.034 A 
ATOM      6  C   UNL d   1       0.500   4.808  -0.881  0.00  0.00     0.009 A 
ATOM      7  C   UNL d   1      -1.233   3.436  -1.882  0.00  0.00    -0.049 A 
ATOM      8  C   UNL d   1      -0.390   5.883  -0.838  0.00  0.00     0.001 A 
ATOM      9  C   UNL d   1      -1.691   5.737  -1.324  0.00  0.00     0.001 A 
ATOM     10  C   UNL d   1      -2.113   4.518  -1.856  0.00  0.00     0.008 A 
ATOM     11  C   UNL d   1      -1.625   2.073  -2.385  0.00  0.00     0.059 C 
ATOM     12  C   UNL d   1      -1.150   1.006  -1.388  0.00  0.00     0.130 C 
ENDBRANCH   1   3
BRANCH   1  13
ATOM     13  N   UNL d   1       0.109  -0.566   0.691  0.00  0.00    -0.332 N 
ATOM     14  H   UNL d   1       0.565  -1.443   0.907  0.00  0.00     0.168 HD
BRANCH  13  15
ATOM     15  C   UNL d   1      -0.977  -0.259   1.549  0.00  0.00     0.046 A 
ATOM     16  C   UNL d   1      -1.825  -1.344   1.904  0.00  0.00    -0.035 A 
ATOM     17  C   UNL d   1      -2.890  -1.144   2.797  0.00  0.00     0.009 A 
ATOM     18  C   UNL d   1      -1.671  -2.737   1.345  0.00  0.00     0.050 C 
ATOM     19  C   UNL d   1      -3.145   0.110   3.331  0.00  0.00     0.001 A 
ATOM     20  C   UNL d   1      -2.323   1.176   2.986  0.00  0.00     0.009 A 
ATOM     21  C   UNL d   1      -1.222   1.012   2.124  0.00  0.00    -0.035 A 
ATOM     22  C   UNL d   1      -0.376   2.242   1.945  0.00  0.00     0.050 C 
ENDBRANCH  13  15
ENDBRANCH   1  13
TORSDOF 3
