REMARK  6 active torsions:
REMARK  status: ('A' for Active; 'I' for Inactive)
REMARK    1  A    between atoms: N_2  and  S_1 
REMARK    2  A    between atoms: C_9  and  S_1 
REMARK    3  A    between atoms: C_3  and  N_2 
REMARK       I    between atoms: C_4  and  N_12 
REMARK       I    between atoms: N_13  and  C_4 
REMARK    4  A    between atoms: N_12  and  C_25 
REMARK    5  A    between atoms: C_24  and  N_13 
REMARK    6  A    between atoms: C_16  and  C_17 
ROOT
ATOM      1  C   UNL d   1       1.180   1.392  -1.627  0.00  0.00     0.075 A 
ATOM      2  C   UNL d   1       1.157   0.347  -2.557  0.00  0.00     0.027 A 
ATOM      3  C   UNL d   1       0.556   2.600  -1.923  0.00  0.00     0.027 A 
ATOM      4  C   UNL d   1      -0.182   1.713  -4.072  0.00  0.00     0.036 A 
ATOM      5  C   UNL d   1       0.484   0.514  -3.779  0.00  0.00     0.031 A 
ATOM      6  C   UNL d   1      -0.100   2.760  -3.145  0.00  0.00     0.031 A 
ENDROOT
BRANCH   4   7
ATOM      7  N   UNL d   1      -0.941   1.790  -5.270  0.00  0.00    -0.309 N 
ATOM      8  C   UNL d   1      -1.740   2.854  -5.662  0.00  0.00     0.325 C 
ATOM      9  N   UNL d   1      -2.394   2.614  -6.861  0.00  0.00    -0.309 N 
ATOM     10  O   UNL d   1      -1.860   3.897  -5.030  0.00  0.00    -0.247 OA
ATOM     11  H   UNL d   1      -2.464   1.660  -7.172  0.00  0.00     0.170 HD
ATOM     12  H   UNL d   1      -0.911   0.985  -5.877  0.00  0.00     0.170 HD
BRANCH   9  13
ATOM     13  C   UNL d   1      -3.056   3.591  -7.645  0.00  0.00     0.036 A 
ATOM     14  C   UNL d   1      -2.950   4.962  -7.416  0.00  0.00     0.030 A 
ATOM     15  C   UNL d   1      -3.465   5.888  -8.328  0.00  0.00     0.010 A 
ATOM     16  C   UNL d   1      -4.090   5.478  -9.515  0.00  0.00    -0.051 A 
ATOM     17  C   UNL d   1      -4.308   4.100  -9.673  0.00  0.00     0.010 A 
ATOM     18  C   UNL d   1      -3.790   3.169  -8.757  0.00  0.00     0.030 A 
BRANCH  16  19
ATOM     19  C   UNL d   1      -4.385   6.513 -10.615  0.00  0.00    -0.024 C 
ATOM     20  C   UNL d   1      -4.969   5.897 -11.905  0.00  0.00     0.019 C 
ATOM     21  C   UNL d   1      -5.372   7.590 -10.124  0.00  0.00     0.019 C 
ATOM     22  C   UNL d   1      -3.051   7.195 -11.011  0.00  0.00     0.019 C 
ENDBRANCH  16  19
ENDBRANCH   9  13
ENDBRANCH   4   7
BRANCH   1  23
ATOM     23  S   UNL d   1       1.849   1.142   0.015  0.00  0.00     0.248 S 
ATOM     24  O   UNL d   1       1.065   1.941   0.927  0.00  0.00    -0.205 OA
ATOM     25  O   UNL d   1       1.944  -0.293   0.191  0.00  0.00    -0.205 OA
BRANCH  23  26
ATOM     26  N   UNL d   1       3.425   1.700  -0.079  0.00  0.00    -0.151 NA
ATOM     27  H   UNL d   1       3.953   1.160  -0.752  0.00  0.00     0.149 HD
BRANCH  26  28
ATOM     28  C   UNL d   1       3.547   3.058  -0.364  0.00  0.00     0.171 A 
ATOM     29  N   UNL d   1       3.380   3.935   0.623  0.00  0.00    -0.336 N 
ATOM     30  C   UNL d   1       3.514   5.232   0.286  0.00  0.00     0.009 A 
ATOM     31  HN  UNL d   1       3.165   3.642   1.576  1.00  0.00     0.168 HD
ATOM     32  C   UNL d   1       3.386   6.251   1.380  0.00  0.00     0.068 C 
ATOM     33  C   UNL d   1       3.782   5.632  -1.010  0.00  0.00     0.049 A 
ATOM     34  C   UNL d   1       3.915   4.631  -1.956  0.00  0.00     0.009 A 
ATOM     35  N   UNL d   1       3.818   3.323  -1.643  0.00  0.00    -0.336 N 
ATOM     36  C   UNL d   1       4.192   4.979  -3.387  0.00  0.00     0.068 C 
ATOM     37  HN  UNL d   1       3.943   2.587  -2.337  1.00  0.00     0.168 HD
ENDBRANCH  26  28
ENDBRANCH  23  26
ENDBRANCH   1  23
TORSDOF 6
