REMARK  1 active torsions:
REMARK  status: ('A' for Active; 'I' for Inactive)
REMARK    1  A    between atoms: C_4  and  C_1 
ROOT
ATOM      1  C   UNL d   1       2.329   0.052   0.033  0.00  0.00     0.241 A 
ATOM      2  N   UNL d   1       1.506   1.273   0.156  0.00  0.00    -0.260 NA
ATOM      3  O   UNL d   1       1.503  -1.152   0.041  0.00  0.00    -0.324 OA
ATOM      4  C   UNL d   1       0.212   0.722   0.126  0.00  0.00     0.044 A 
ATOM      5  C   UNL d   1       0.230  -0.659   0.091  0.00  0.00     0.092 A 
ATOM      6  C   UNL d   1      -0.986   1.409   0.133  0.00  0.00     0.026 A 
ATOM      7  C   UNL d   1      -0.921  -1.417   0.051  0.00  0.00     0.039 A 
ATOM      8  C   UNL d   1      -2.172   0.668   0.091  0.00  0.00     0.002 A 
ATOM      9  C   UNL d   1      -2.140  -0.737   0.049  0.00  0.00     0.003 A 
ATOM     10  H   UNL d   1       1.633   1.918  -0.618  0.00  0.00     0.130 HD
ENDROOT
BRANCH   1  11
ATOM     11  C   UNL d   1       3.170   0.102  -1.234  0.00  0.00     0.007 A 
ATOM     12  C   UNL d   1       4.480   0.607  -1.244  0.00  0.00     0.044 A 
ATOM     13 CL   UNL d   1       5.250   1.204   0.182  0.00  0.00    -0.084 Cl
ATOM     14  C   UNL d   1       5.217   0.655  -2.434  0.00  0.00     0.024 A 
ATOM     15  C   UNL d   1       4.657   0.211  -3.631  0.00  0.00     0.002 A 
ATOM     16  C   UNL d   1       3.356  -0.276  -3.645  0.00  0.00     0.001 A 
ATOM     17  C   UNL d   1       2.619  -0.326  -2.461  0.00  0.00     0.013 A 
ENDBRANCH   1  11
TORSDOF 1
