REMARK  3 active torsions:
REMARK  status: ('A' for Active; 'I' for Inactive)
REMARK    1  A    between atoms: C_2  and  C_1 
REMARK    2  A    between atoms: C_13  and  N_3 
REMARK    3  A    between atoms: C_12  and  C_4 
ROOT
ATOM      1  C   UNL d   1      -0.447  -2.747  -0.102  0.00  0.00     0.056 A 
ATOM      2  C   UNL d   1      -1.383  -3.420  -0.869  0.00  0.00     0.073 A 
ATOM      3  N   UNL d   1      -0.366  -4.940   0.509  0.00  0.00    -0.310 N 
ATOM      4  HN  UNL d   1      -0.115  -5.820   0.960  1.00  0.00     0.186 HD
ATOM      5  N   UNL d   1      -1.293  -4.726  -0.440  0.00  0.00    -0.299 N 
ATOM      6  C   UNL d   1       0.146  -3.728   0.720  0.00  0.00     0.124 A 
ATOM      7  H   UNL d   1      -1.809  -5.526  -0.788  0.00  0.00     0.187 HD
ENDROOT
BRANCH   1   8
ATOM      8  C   UNL d   1      -0.136  -1.294  -0.109  0.00  0.00     0.152 C 
ATOM      9  N   UNL d   1       1.078  -0.695   0.179  0.00  0.00    -0.224 N 
ATOM     10  N   UNL d   1       0.842   0.611   0.453  0.00  0.00     0.001 NA
ATOM     11  N   UNL d   1      -0.415   0.827   0.091  0.00  0.00    -0.007 NA
ATOM     12  N   UNL d   1      -1.028  -0.341  -0.290  0.00  0.00    -0.269 N 
ATOM     13  HN  UNL d   1      -1.979  -0.448  -0.641  1.00  0.00     0.185 HD
BRANCH   9  14
ATOM     14  C   UNL d   1       2.394  -1.199   0.054  0.00  0.00     0.056 A 
ATOM     15  C   UNL d   1       2.666  -2.258  -0.823  0.00  0.00     0.032 A 
ATOM     16  C   UNL d   1       3.973  -2.720  -0.981  0.00  0.00     0.009 A 
ATOM     17  C   UNL d   1       5.021  -2.139  -0.262  0.00  0.00    -0.062 A 
ATOM     18  C   UNL d   1       4.748  -1.070   0.601  0.00  0.00     0.009 A 
ATOM     19  C   UNL d   1       6.423  -2.631  -0.470  0.00  0.00     0.048 C 
ATOM     20  C   UNL d   1       3.444  -0.590   0.751  0.00  0.00     0.032 A 
ENDBRANCH   9  14
ENDBRANCH   1   8
BRANCH   2  21
ATOM     21  C   UNL d   1      -2.222  -3.037  -2.006  0.00  0.00    -0.004 A 
ATOM     22  C   UNL d   1      -1.758  -2.120  -2.957  0.00  0.00     0.056 A 
ATOM     23  C   UNL d   1      -2.529  -1.818  -4.075  0.00  0.00     0.117 A 
ATOM     24  F   UNL d   1      -2.061  -0.949  -4.981  0.00  0.00    -0.206 F 
ATOM     25  C   UNL d   1      -3.764  -2.418  -4.279  0.00  0.00     0.042 A 
ATOM     26  C   UNL d   1      -4.242  -3.329  -3.342  0.00  0.00     0.004 A 
ATOM     27  C   UNL d   1      -3.477  -3.634  -2.210  0.00  0.00     0.014 A 
ENDBRANCH   2  21
TORSDOF 3
