REMARK  5 active torsions:
REMARK  status: ('A' for Active; 'I' for Inactive)
REMARK       I    between atoms: N_6  and  C_1 
REMARK    1  A    between atoms: O_11  and  C_1 
REMARK    2  A    between atoms: C_8  and  C_3 
REMARK    3  A    between atoms: C_4  and  C_22 
REMARK    4  A    between atoms: C_10  and  N_6 
REMARK    5  A    between atoms: C_22  and  O_11 
ROOT
ATOM      1  N   UNL d   1      12.575   0.080  -0.856  0.00  0.00    -0.191 NA
ATOM      2  C   UNL d   1      11.448   0.094  -0.584  0.00  0.00     0.099 C 
ATOM      3  C   UNL d   1       7.311   0.161   0.337  0.00  0.00     0.017 A 
ATOM      4  C   UNL d   1      10.051   0.115  -0.255  0.00  0.00     0.044 A 
ATOM      5  C   UNL d   1       8.017   1.356   0.193  0.00  0.00     0.022 A 
ATOM      6  C   UNL d   1       7.981  -1.059   0.205  0.00  0.00     0.022 A 
ATOM      7  C   UNL d   1       9.347  -1.082  -0.092  0.00  0.00     0.024 A 
ATOM      8  C   UNL d   1       9.383   1.336  -0.104  0.00  0.00     0.024 A 
ENDROOT
BRANCH   3   9
ATOM      9  C   UNL d   1       5.904   0.187   0.604  0.00  0.00    -0.065 C 
ATOM     10  C   UNL d   1       4.725   0.205   0.837  0.00  0.00    -0.074 C 
BRANCH  10  11
ATOM     11  C   UNL d   1       3.300   0.203   1.190  0.00  0.00     0.274 C 
BRANCH  11  12
ATOM     12  O   UNL d   1       2.443   0.065   0.046  0.00  0.00    -0.292 OA
BRANCH  12  13
ATOM     13  C   UNL d   1       2.273  -1.203  -0.396  0.00  0.00     0.366 C 
ATOM     14  N   UNL d   1       1.242  -1.402  -1.276  0.00  0.00    -0.303 N 
ATOM     15  H   UNL d   1       1.173  -2.382  -1.520  0.00  0.00     0.171 HD
ATOM     16  O   UNL d   1       2.939  -2.163  -0.019  0.00  0.00    -0.238 OA
BRANCH  14  17
ATOM     17  C   UNL d   1       0.174  -0.577  -1.676  0.00  0.00     0.036 A 
ATOM     18  C   UNL d   1       0.089   0.796  -1.440  0.00  0.00     0.031 A 
ATOM     19  C   UNL d   1      -1.078   1.501  -1.765  0.00  0.00     0.026 A 
ATOM     20  C   UNL d   1      -2.160   0.838  -2.336  0.00  0.00     0.034 A 
ATOM     21  C   UNL d   1      -2.071  -0.519  -2.627  0.00  0.00     0.026 A 
ATOM     22 CL   UNL d   1      -3.616   1.691  -2.667  0.00  0.00    -0.084 Cl
ATOM     23  C   UNL d   1      -0.903  -1.218  -2.309  0.00  0.00     0.031 A 
ENDBRANCH  14  17
ENDBRANCH  12  13
ENDBRANCH  11  12
ENDBRANCH  10  11
ENDBRANCH   3   9
TORSDOF 5
