REMARK  4 active torsions:
REMARK  status: ('A' for Active; 'I' for Inactive)
REMARK       I    between atoms: N_2  and  C_1 
REMARK    1  A    between atoms: O_6  and  C_1 
REMARK    2  A    between atoms: N_3  and  O_6 
REMARK    3  A    between atoms: C_7  and  C_5 
REMARK    4  A    between atoms: N_12  and  C_5 
ROOT
ATOM      1  N   UNL d   1      -1.005   0.720  -1.028  0.00  0.00    -0.244 N 
ATOM      2  HN  UNL d   1      -0.043   0.447  -1.228  1.00  0.00     0.196 HD
ATOM      3  C   UNL d   1      -1.685   1.556  -1.752  0.00  0.00     0.109 C 
ENDROOT
BRANCH   1   4
ATOM      4  O   UNL d   1      -1.752   0.231   0.070  0.00  0.00    -0.180 OA
BRANCH   4   5
ATOM      5  C   UNL d   1      -0.962  -0.599   0.839  0.00  0.00     0.385 C 
ATOM      6  N   UNL d   1      -1.615  -1.107   1.952  0.00  0.00    -0.322 N 
ATOM      7  C   UNL d   1      -0.904  -1.986   2.878  0.00  0.00     0.154 C 
ATOM      8  C   UNL d   1      -2.995  -0.819   2.333  0.00  0.00     0.154 C 
ATOM      9  C   UNL d   1      -1.723  -3.253   3.134  0.00  0.00     0.187 C 
ATOM     10  O   UNL d   1      -3.043  -2.924   3.599  0.00  0.00    -0.388 OA
ATOM     11  C   UNL d   1      -3.743  -2.127   2.629  0.00  0.00     0.187 C 
ATOM     12  O   UNL d   1       0.204  -0.890   0.580  0.00  0.00    -0.236 OA
ENDBRANCH   4   5
ENDBRANCH   1   4
BRANCH   3  13
ATOM     13  C   UNL d   1      -1.000   2.172  -2.934  0.00  0.00     0.004 A 
ATOM     14  C   UNL d   1       0.039   1.488  -3.582  0.00  0.00     0.016 A 
ATOM     15  C   UNL d   1       0.667   2.055  -4.695  0.00  0.00     0.024 A 
ATOM     16  C   UNL d   1       0.268   3.311  -5.153  0.00  0.00     0.034 A 
ATOM     17  C   UNL d   1      -0.753   4.005  -4.505  0.00  0.00     0.024 A 
ATOM     18 CL   UNL d   1       1.041   4.010  -6.521  0.00  0.00    -0.084 Cl
ATOM     19  C   UNL d   1      -1.389   3.437  -3.397  0.00  0.00     0.016 A 
ENDBRANCH   3  13
BRANCH   3  20
ATOM     20  N   UNL d   1      -2.997   1.891  -1.507  0.00  0.00    -0.286 NA
ATOM     21  H   UNL d   1      -3.444   1.234  -0.877  0.00  0.00     0.125 HD
ATOM     22  H   UNL d   1      -3.558   2.074  -2.332  0.00  0.00     0.125 HD
ENDBRANCH   3  20
TORSDOF 4
