REMARK  3 active torsions:
REMARK  status: ('A' for Active; 'I' for Inactive)
REMARK       I    between atoms: N_2  and  C_4 
REMARK       I    between atoms: C_6  and  N_2 
REMARK    1  A    between atoms: C_4  and  C_3 
REMARK    2  A    between atoms: C_9  and  C_5 
REMARK       I    between atoms: N_10  and  C_6 
REMARK    3  A    between atoms: C_13  and  N_10 
ROOT
ATOM      1  N   UNL d   1      -1.798   2.996   0.251  0.00  0.00    -0.274 N 
ATOM      2  C   UNL d   1      -0.463   2.654   0.089  0.00  0.00     0.266 C 
ATOM      3  C   UNL d   1      -2.902   2.359  -0.292  0.00  0.00     0.327 C 
ATOM      4  N   UNL d   1      -4.075   2.929   0.181  0.00  0.00    -0.309 N 
ATOM      5  O   UNL d   1      -2.832   1.395  -1.053  0.00  0.00    -0.247 OA
ATOM      6  O   UNL d   1       0.315   3.600  -0.074  0.00  0.00    -0.267 OA
ATOM      7  H   UNL d   1      -1.884   4.000   0.211  0.00  0.00     0.173 HD
ATOM      8  H   UNL d   1      -3.968   3.575   0.950  0.00  0.00     0.170 HD
ENDROOT
BRANCH   2   9
ATOM      9  C   UNL d   1      -0.013   1.267   0.057  0.00  0.00     0.073 C 
ATOM     10  S   UNL d   1      -0.823  -0.040   0.811  0.00  0.00    -0.088 SA
ATOM     11  C   UNL d   1       0.167  -1.223   0.026  0.00  0.00    -0.009 C 
ATOM     12  C   UNL d   1       1.250  -0.595  -0.566  0.00  0.00     0.017 C 
ATOM     13  C   UNL d   1       1.172   0.826  -0.501  0.00  0.00     0.025 C 
BRANCH  11  14
ATOM     14  C   UNL d   1      -0.196  -2.719   0.037  0.00  0.00    -0.018 C 
ATOM     15  C   UNL d   1      -1.666  -2.928  -0.384  0.00  0.00     0.020 C 
ATOM     16  C   UNL d   1       0.678  -3.505  -0.970  0.00  0.00     0.020 C 
ATOM     17  C   UNL d   1       0.022  -3.342   1.427  0.00  0.00     0.020 C 
ENDBRANCH  11  14
ENDBRANCH   2   9
BRANCH   4  18
ATOM     18  C   UNL d   1      -5.365   2.373   0.021  0.00  0.00     0.036 A 
ATOM     19  C   UNL d   1      -6.308   2.629   1.024  0.00  0.00     0.029 A 
ATOM     20  C   UNL d   1      -7.561   2.010   0.994  0.00  0.00     0.002 A 
ATOM     21  C   UNL d   1      -7.898   1.169  -0.064  0.00  0.00     0.000 A 
ATOM     22  C   UNL d   1      -6.986   0.955  -1.094  0.00  0.00     0.002 A 
ATOM     23  C   UNL d   1      -5.722   1.552  -1.051  0.00  0.00     0.029 A 
ENDBRANCH   4  18
TORSDOF 3
