REMARK  3 active torsions:
REMARK  status: ('A' for Active; 'I' for Inactive)
REMARK       I    between atoms: N_3  and  C_1 
REMARK    1  A    between atoms: C_9  and  C_1 
REMARK    2  A    between atoms: N_2  and  C_5 
REMARK    3  A    between atoms: C_12  and  N_3 
ROOT
ATOM      1  C   UNL d   1       2.175  -5.072  -0.006  0.00  0.00     0.030 A 
ATOM      2  C   UNL d   1       2.448  -4.084   0.945  0.00  0.00     0.031 A 
ATOM      3  C   UNL d   1       1.129  -4.817  -0.904  0.00  0.00     0.031 A 
ATOM      4  C   UNL d   1       0.768  -2.596  -0.011  0.00  0.00     0.035 A 
ATOM      5  C   UNL d   1       0.436  -3.604  -0.912  0.00  0.00     0.032 A 
ATOM      6  C   UNL d   1       1.764  -2.854   0.935  0.00  0.00     0.032 A 
ENDROOT
BRANCH   4   7
ATOM      7  N   UNL d   1       0.200  -1.302  -0.062  0.00  0.00    -0.323 N 
ATOM      8  C   UNL d   1      -0.865  -0.917  -0.859  0.00  0.00     0.256 C 
ATOM      9  O   UNL d   1      -1.659  -1.669  -1.419  0.00  0.00    -0.267 OA
ATOM     10  H   UNL d   1       0.613  -0.603   0.540  0.00  0.00     0.169 HD
BRANCH   8  11
ATOM     11  C   UNL d   1      -1.062   0.548  -1.037  0.00  0.00     0.032 A 
ATOM     12  C   UNL d   1       0.016   1.442  -1.085  0.00  0.00     0.017 A 
ATOM     13  C   UNL d   1      -0.211   2.790  -1.379  0.00  0.00     0.001 A 
ATOM     14  C   UNL d   1      -1.506   3.247  -1.627  0.00  0.00     0.000 A 
ATOM     15  C   UNL d   1      -2.581   2.361  -1.579  0.00  0.00     0.001 A 
ATOM     16  C   UNL d   1      -2.359   1.015  -1.289  0.00  0.00     0.017 A 
ENDBRANCH   8  11
ENDBRANCH   4   7
BRANCH   1  17
ATOM     17  N   UNL d   1       2.874  -6.277  -0.121  0.00  0.00    -0.378 N 
ATOM     18  C   UNL d   1       3.673  -6.772   1.015  0.00  0.00     0.153 C 
ATOM     19  C   UNL d   1       4.084  -8.246   0.757  0.00  0.00     0.291 C 
ATOM     20  N   UNL d   1       4.832  -8.424  -0.511  0.00  0.00     0.087 N 
ATOM     21  C   UNL d   1       4.034  -7.873  -1.629  0.00  0.00     0.291 C 
ATOM     22  C   UNL d   1       5.120  -9.838  -0.746  0.00  0.00     0.310 C 
ATOM     23  C   UNL d   1       3.612  -6.405  -1.403  0.00  0.00     0.153 C 
ENDBRANCH   1  17
TORSDOF 3
