REMARK  1 active torsions:
REMARK  status: ('A' for Active; 'I' for Inactive)
REMARK    1  A    between atoms: C_4  and  C_1 
ROOT
ATOM      1  C   UNL d   1      -0.773  -1.146   0.043  0.00  0.00     0.067 A 
ATOM      2  C   UNL d   1      -1.218   0.161  -0.081  0.00  0.00    -0.031 A 
ATOM      3  N   UNL d   1       0.589  -1.118   0.206  0.00  0.00    -0.358 N 
ATOM      4  C   UNL d   1      -0.044   0.978  -0.087  0.00  0.00     0.033 A 
ATOM      5  C   UNL d   1       1.057   0.162   0.066  0.00  0.00     0.006 A 
ATOM      6  C   UNL d   1      -2.602   0.696  -0.151  0.00  0.00     0.050 C 
ATOM      7  C   UNL d   1       2.503   0.491   0.102  0.00  0.00     0.068 C 
ATOM      8  H   UNL d   1       1.143  -1.953   0.350  0.00  0.00     0.166 HD
ENDROOT
BRANCH   1   9
ATOM      9  C   UNL d   1      -1.526  -2.430   0.038  0.00  0.00     0.076 A 
ATOM     10  N   UNL d   1      -0.953  -3.550   0.500  0.00  0.00    -0.299 N 
ATOM     11  N   UNL d   1      -1.920  -4.477   0.388  0.00  0.00    -0.311 N 
ATOM     12  HN  UNL d   1      -0.004  -3.671   0.854  1.00  0.00     0.187 HD
ATOM     13  C   UNL d   1      -3.050  -4.014  -0.215  0.00  0.00     0.109 A 
ATOM     14  H   UNL d   1      -1.732  -5.412   0.733  0.00  0.00     0.186 HD
ATOM     15  C   UNL d   1      -2.826  -2.679  -0.452  0.00  0.00     0.052 A 
ENDBRANCH   1   9
TORSDOF 1
