REMARK  2 active torsions:
REMARK  status: ('A' for Active; 'I' for Inactive)
REMARK    1  A    between atoms: O_2  and  C_1 
REMARK       I    between atoms: N_5  and  C_1 
REMARK    2  A    between atoms: C_4  and  O_2 
ROOT
ATOM      1  C   UNL d   1       0.964  -1.275   1.972  0.00  0.00     0.081 A 
ATOM      2  C   UNL d   1       1.987  -0.784   2.786  0.00  0.00     0.044 A 
ATOM      3  C   UNL d   1       2.573  -1.612   3.752  0.00  0.00    -0.059 A 
ATOM      4  C   UNL d   1       1.020  -3.379   3.149  0.00  0.00     0.003 A 
ATOM      5  C   UNL d   1       0.460  -2.562   2.166  0.00  0.00     0.037 A 
ATOM      6  C   UNL d   1       2.078  -2.910   3.930  0.00  0.00     0.007 A 
ATOM      7  C   UNL d   1       3.728  -1.125   4.576  0.00  0.00     0.048 C 
ENDROOT
BRANCH   1   8
ATOM      8  O   UNL d   1       0.354  -0.510   0.958  0.00  0.00    -0.262 OA
BRANCH   8   9
ATOM      9  C   UNL d   1       1.117   0.360   0.183  0.00  0.00     0.365 C 
ATOM     10  O   UNL d   1       2.326   0.548   0.276  0.00  0.00    -0.238 OA
ATOM     11  N   UNL d   1       0.396   1.035  -0.762  0.00  0.00    -0.341 N 
ATOM     12  C   UNL d   1      -0.956   0.752  -1.163  0.00  0.00     0.151 C 
ATOM     13  H   UNL d   1       0.974   1.612  -1.359  0.00  0.00     0.164 HD
ENDBRANCH   8   9
ENDBRANCH   1   8
TORSDOF 2
