REMARK  3 active torsions:
REMARK  status: ('A' for Active; 'I' for Inactive)
REMARK       I    between atoms: C_2  and  N_1 
REMARK       I    between atoms: N_7  and  C_2 
REMARK    1  A    between atoms: C_14  and  N_7 
REMARK    2  A    between atoms: O_16  and  C_9 
REMARK    3  A    between atoms: O_17  and  C_11 
ROOT
ATOM      1  N   UNL d   1      -2.500   0.667  -0.174  0.00  0.00    -0.325 N 
ATOM      2  C   UNL d   1      -3.359   1.040  -1.204  0.00  0.00     0.323 C 
ATOM      3  C   UNL d   1      -0.063   0.612   0.277  0.00  0.00    -0.026 A 
ATOM      4  C   UNL d   1      -1.355   1.415   0.370  0.00  0.00     0.118 C 
ATOM      5  C   UNL d   1      -0.072  -0.775   0.047  0.00  0.00    -0.045 A 
ATOM      6  C   UNL d   1       1.170   1.275   0.402  0.00  0.00     0.049 A 
ATOM      7  N   UNL d   1      -3.209   2.318  -1.698  0.00  0.00    -0.309 N 
ATOM      8  C   UNL d   1      -2.585  -0.718   0.305  0.00  0.00     0.133 C 
ATOM      9  C   UNL d   1       2.380   0.582   0.289  0.00  0.00     0.102 A 
ATOM     10  C   UNL d   1       1.143  -1.468  -0.076  0.00  0.00     0.047 A 
ATOM     11  C   UNL d   1       2.368  -0.801   0.040  0.00  0.00     0.102 A 
ATOM     12  O   UNL d   1      -4.189   0.238  -1.634  0.00  0.00    -0.247 OA
ATOM     13  C   UNL d   1      -1.372  -1.520  -0.159  0.00  0.00     0.059 C 
ATOM     14  C   UNL d   1      -1.630   1.853   1.814  0.00  0.00     0.037 C 
ATOM     15  H   UNL d   1      -2.529   2.916  -1.270  0.00  0.00     0.170 HD
ENDROOT
BRANCH   7  16
ATOM     16  C   UNL d   1      -3.874   2.882  -2.815  0.00  0.00     0.036 A 
ATOM     17  C   UNL d   1      -4.899   2.249  -3.527  0.00  0.00     0.032 A 
ATOM     18  C   UNL d   1      -5.460   2.848  -4.660  0.00  0.00     0.044 A 
ATOM     19  C   UNL d   1      -4.999   4.085  -5.082  0.00  0.00     0.116 A 
ATOM     20  C   UNL d   1      -4.002   4.748  -4.378  0.00  0.00     0.044 A 
ATOM     21  F   UNL d   1      -5.517   4.646  -6.182  0.00  0.00    -0.206 F 
ATOM     22  C   UNL d   1      -3.446   4.150  -3.243  0.00  0.00     0.032 A 
ENDBRANCH   7  16
BRANCH   9  23
ATOM     23  O   UNL d   1       3.612   1.188   0.351  0.00  0.00    -0.353 OA
ATOM     24  C   UNL d   1       3.683   2.438   1.023  0.00  0.00     0.210 C 
ENDBRANCH   9  23
BRANCH  11  25
ATOM     25  O   UNL d   1       3.596  -1.407  -0.068  0.00  0.00    -0.353 OA
ATOM     26  C   UNL d   1       3.619  -2.803  -0.331  0.00  0.00     0.210 C 
ENDBRANCH  11  25
TORSDOF 3
