REMARK  4 active torsions:
REMARK  status: ('A' for Active; 'I' for Inactive)
REMARK    1  A    between atoms: C_3  and  C_1 
REMARK    2  A    between atoms: C_13  and  C_2 
REMARK    3  A    between atoms: C_12  and  C_6 
REMARK    4  A    between atoms: O_25  and  C_13 
ROOT
ATOM      1  C   UNL d   1       2.924   1.214  -1.574  0.00  0.00     0.052 C 
ATOM      2  C   UNL d   1       2.265   1.808  -0.317  0.00  0.00     0.102 C 
ATOM      3  C   UNL d   1       3.257   2.053   0.815  0.00  0.00     0.024 C 
ATOM      4  C   UNL d   1       4.533   1.627   0.735  0.00  0.00     0.021 C 
ATOM      5  C   UNL d   1       4.212   0.792  -1.547  0.00  0.00     0.018 C 
ATOM      6  N   UNL d   1       4.954   0.927  -0.380  0.00  0.00    -0.362 N 
ATOM      7  C   UNL d   1       2.865   2.959   1.931  0.00  0.00     0.159 C 
ATOM      8  C   UNL d   1       5.598   1.950   1.758  0.00  0.00     0.067 C 
ATOM      9  C   UNL d   1       5.077   2.533   3.087  0.00  0.00    -0.036 C 
ATOM     10  C   UNL d   1       3.960   3.543   2.800  0.00  0.00     0.092 C 
ATOM     11  O   UNL d   1       1.698   3.300   2.094  0.00  0.00    -0.293 OA
ATOM     12  C   UNL d   1       4.982   0.202  -2.702  0.00  0.00     0.069 C 
ATOM     13  C   UNL d   1       6.236   3.248   3.807  0.00  0.00     0.015 C 
ATOM     14  C   UNL d   1       4.555   1.413   4.008  0.00  0.00     0.015 C 
ATOM     15  H   UNL d   1       5.942   0.688  -0.434  0.00  0.00     0.165 HD
ENDROOT
BRANCH   2  16
ATOM     16  C   UNL d   1       1.078   0.959   0.086  0.00  0.00     0.002 A 
ATOM     17  C   UNL d   1      -0.310   1.309   0.200  0.00  0.00     0.073 A 
ATOM     18  N   UNL d   1      -1.059   0.220   0.460  0.00  0.00    -0.299 N 
ATOM     19  N   UNL d   1      -0.192  -0.794   0.487  0.00  0.00    -0.311 N 
ATOM     20  HN  UNL d   1      -2.068   0.179   0.605  1.00  0.00     0.187 HD
ATOM     21  C   UNL d   1       1.099  -0.410   0.302  0.00  0.00     0.117 A 
ATOM     22  H   UNL d   1      -0.556  -1.733   0.610  0.00  0.00     0.186 HD
BRANCH  17  23
ATOM     23  C   UNL d   1      -1.001   2.646   0.015  0.00  0.00     0.033 A 
ATOM     24  S   UNL d   1      -0.266   4.136  -0.397  0.00  0.00    -0.100 SA
ATOM     25  C   UNL d   1      -1.746   4.969  -0.425  0.00  0.00     0.050 A 
ATOM     26  C   UNL d   1      -2.800   4.146  -0.110  0.00  0.00     0.008 A 
ATOM     27  C   UNL d   1      -2.371   2.809   0.146  0.00  0.00     0.021 A 
ENDBRANCH  17  23
ENDBRANCH   2  16
BRANCH   1  28
ATOM     28  C   UNL d   1       2.051   1.104  -2.776  0.00  0.00     0.291 C 
ATOM     29  O   UNL d   1       2.125   0.222  -3.621  0.00  0.00    -0.260 OA
BRANCH  28  30
ATOM     30  O   UNL d   1       1.140   2.107  -2.779  0.00  0.00    -0.323 OA
ATOM     31  C   UNL d   1       0.131   2.005  -3.786  0.00  0.00     0.213 C 
ENDBRANCH  28  30
ENDBRANCH   1  28
TORSDOF 4
