REMARK  2 active torsions:
REMARK  status: ('A' for Active; 'I' for Inactive)
REMARK    1  A    between atoms: C_2  and  N_1 
REMARK       I    between atoms: C_3  and  N_1 
REMARK    2  A    between atoms: C_4  and  C_3 
ROOT
ATOM      1  N   UNL d   1       1.183  -0.260   0.004  0.00  0.00    -0.303 N 
ATOM      2  C   UNL d   1       2.521   0.041   0.226  0.00  0.00     0.264 C 
ATOM      3  O   UNL d   1       3.291  -0.685   0.848  0.00  0.00    -0.267 OA
ATOM      4  H   UNL d   1       0.692   0.334  -0.649  0.00  0.00     0.171 HD
ENDROOT
BRANCH   1   5
ATOM      5  C   UNL d   1       0.395  -1.261   0.492  0.00  0.00     0.142 C 
ATOM      6  N   UNL d   1      -0.789  -1.411   0.004  0.00  0.00    -0.370 N 
ATOM      7  C   UNL d   1      -1.465  -2.525   0.706  0.00  0.00     0.132 C 
ATOM      8  HN  UNL d   1      -1.195  -0.852  -0.746  1.00  0.00     0.161 HD
ATOM      9  C   UNL d   1      -0.438  -3.449   1.344  0.00  0.00     0.102 C 
ATOM     10  S   UNL d   1       0.910  -2.330   1.747  0.00  0.00    -0.092 SA
ENDBRANCH   1   5
BRANCH   2  11
ATOM     11  C   UNL d   1       2.990   1.268  -0.414  0.00  0.00     0.072 A 
ATOM     12  S   UNL d   1       1.919   2.444  -1.055  0.00  0.00    -0.097 SA
ATOM     13  C   UNL d   1       3.208   3.462  -1.532  0.00  0.00     0.050 A 
ATOM     14  C   UNL d   1       4.434   2.920  -1.223  0.00  0.00     0.009 A 
ATOM     15  C   UNL d   1       4.308   1.659  -0.572  0.00  0.00     0.025 A 
ENDBRANCH   2  11
TORSDOF 2
