REMARK  2 active torsions:
REMARK  status: ('A' for Active; 'I' for Inactive)
REMARK    1  A    between atoms: N_2  and  C_1 
REMARK    2  A    between atoms: C_6  and  C_4 
REMARK       I    between atoms: N_11  and  C_6 
ROOT
ATOM      1  C   UNL d   1       0.120   1.225  -0.008  0.00  0.00     0.144 A 
ATOM      2  S   UNL d   1      -1.050  -0.002  -0.016  0.00  0.00    -0.061 SA
ATOM      3  C   UNL d   1       0.142  -1.237  -0.010  0.00  0.00     0.074 A 
ATOM      4  C   UNL d   1       1.407   0.735   0.001  0.00  0.00     0.045 A 
ATOM      5  C   UNL d   1       1.417  -0.694  -0.001  0.00  0.00     0.027 A 
ENDROOT
BRANCH   3   6
ATOM      6  C   UNL d   1      -0.216  -2.646  -0.016  0.00  0.00     0.256 C 
ATOM      7  O   UNL d   1       0.602  -3.561  -0.013  0.00  0.00    -0.267 OA
ATOM      8  N   UNL d   1      -1.552  -2.935  -0.025  0.00  0.00    -0.366 N 
ATOM      9  H   UNL d   1      -2.259  -2.214  -0.027  0.00  0.00     0.159 HD
ATOM     10  H   UNL d   1      -1.832  -3.908  -0.029  0.00  0.00     0.159 HD
ENDBRANCH   3   6
BRANCH   1  11
ATOM     11  N   UNL d   1      -0.279   2.608  -0.011  0.00  0.00    -0.108 N 
ATOM     12  O   UNL d   1       0.634   3.444  -0.006  0.00  0.00    -0.531 OA
ATOM     13  O   UNL d   1      -1.490   2.868  -0.018  0.00  0.00    -0.531 OA
ENDBRANCH   1  11
TORSDOF 2
