REMARK  5 active torsions:
REMARK  status: ('A' for Active; 'I' for Inactive)
REMARK    1  A    between atoms: N_6  and  S_1 
REMARK    2  A    between atoms: C_13  and  S_1 
REMARK    3  A    between atoms: C_2  and  C_8 
REMARK    4  A    between atoms: N_9  and  N_6 
REMARK    5  A    between atoms: C_8  and  C_10 
REMARK       I    between atoms: C_10  and  N_9 
ROOT
ATOM      1  N   UNL d   1       1.638  -0.385  -3.160  0.00  0.00    -0.260 N 
ATOM      2  C   UNL d   1       0.424  -0.153  -3.773  0.00  0.00     0.241 C 
ATOM      3  O   UNL d   1       0.064   0.985  -4.088  0.00  0.00    -0.271 OA
ATOM      4  H   UNL d   1       1.945  -1.297  -2.827  0.00  0.00     0.190 HD
ENDROOT
BRANCH   2   5
ATOM      5  C   UNL d   1      -0.360  -1.376  -4.181  0.00  0.00     0.151 C 
BRANCH   5   6
ATOM      6  C   UNL d   1      -0.882  -2.206  -3.041  0.00  0.00    -0.001 C 
ATOM      7  S   UNL d   1      -0.153  -3.725  -2.743  0.00  0.00    -0.093 SA
ATOM      8  C   UNL d   1      -1.472  -4.262  -1.785  0.00  0.00     0.016 A 
ATOM      9  C   UNL d   1      -1.679  -5.566  -1.291  0.00  0.00     0.021 A 
ATOM     10  C   UNL d   1      -2.375  -3.225  -1.543  0.00  0.00    -0.011 A 
ATOM     11  C   UNL d   1      -2.839  -5.837  -0.562  0.00  0.00     0.025 A 
ATOM     12  C   UNL d   1      -3.744  -4.821  -0.291  0.00  0.00     0.035 A 
ATOM     13  C   UNL d   1      -3.518  -3.521  -0.752  0.00  0.00     0.037 A 
ATOM     14 CL   UNL d   1      -5.178  -5.173   0.593  0.00  0.00    -0.084 Cl
ATOM     15  C   UNL d   1      -1.990  -2.002  -2.231  0.00  0.00    -0.037 C 
ATOM     16  C   UNL d   1      -2.802  -0.745  -2.160  0.00  0.00     0.050 C 
ENDBRANCH   5   6
ENDBRANCH   2   5
BRANCH   1  17
ATOM     17  N   UNL d   1       2.526   0.751  -3.012  0.00  0.00    -0.220 N 
ATOM     18  H   UNL d   1       2.222   1.657  -3.385  0.00  0.00     0.200 HD
BRANCH  17  19
ATOM     19  S   UNL d   1       4.017   0.610  -2.254  0.00  0.00     0.276 S 
ATOM     20  O   UNL d   1       4.816  -0.322  -3.022  0.00  0.00    -0.199 OA
ATOM     21  O   UNL d   1       3.779   0.401  -0.843  0.00  0.00    -0.199 OA
BRANCH  19  22
ATOM     22  C   UNL d   1       4.679   2.243  -2.479  0.00  0.00     0.081 A 
ATOM     23  C   UNL d   1       4.428   3.228  -1.517  0.00  0.00     0.025 A 
ATOM     24  C   UNL d   1       4.946   4.512  -1.698  0.00  0.00     0.002 A 
ATOM     25  C   UNL d   1       5.715   4.804  -2.826  0.00  0.00     0.000 A 
ATOM     26  C   UNL d   1       5.976   3.813  -3.775  0.00  0.00     0.002 A 
ATOM     27  C   UNL d   1       5.464   2.523  -3.602  0.00  0.00     0.025 A 
ENDBRANCH  19  22
ENDBRANCH  17  19
ENDBRANCH   1  17
TORSDOF 5
