REMARK  4 active torsions:
REMARK  status: ('A' for Active; 'I' for Inactive)
REMARK    1  A    between atoms: N_2  and  C_1 
REMARK    2  A    between atoms: N_3  and  C_1 
REMARK    3  A    between atoms: C_6  and  N_3 
REMARK    4  A    between atoms: O_14  and  C_7 
ROOT
ATOM      1  N   UNL d   1       0.207   0.925  -0.298  0.00  0.00    -0.333 N 
ATOM      2  H   UNL d   1       0.642   1.330  -1.116  0.00  0.00     0.168 HD
ENDROOT
BRANCH   1   3
ATOM      3  C   UNL d   1       0.947  -0.114   0.260  0.00  0.00     0.174 C 
ATOM      4  S   UNL d   1       0.281  -1.615   0.650  0.00  0.00    -0.041 SA
BRANCH   3   5
ATOM      5  N   UNL d   1       2.312   0.185   0.400  0.00  0.00    -0.354 N 
ATOM      6  C   UNL d   1       3.311  -0.785   0.896  0.00  0.00     0.151 C 
ATOM      7  C   UNL d   1       4.039  -0.227   2.123  0.00  0.00     0.187 C 
ATOM      8  O   UNL d   1       4.670   1.025   1.811  0.00  0.00    -0.388 OA
ATOM      9  C   UNL d   1       3.690   1.991   1.404  0.00  0.00     0.187 C 
ATOM     10  C   UNL d   1       2.907   1.516   0.171  0.00  0.00     0.151 C 
ENDBRANCH   3   5
ENDBRANCH   1   3
BRANCH   1  11
ATOM     11  C   UNL d   1      -1.182   1.160  -0.175  0.00  0.00     0.034 A 
ATOM     12  C   UNL d   1      -1.892   0.851   0.987  0.00  0.00     0.032 A 
ATOM     13  C   UNL d   1      -3.276   1.034   1.048  0.00  0.00     0.039 A 
ATOM     14  C   UNL d   1      -3.959   1.546  -0.052  0.00  0.00     0.068 A 
ATOM     15  C   UNL d   1      -3.241   1.955  -1.175  0.00  0.00     0.039 A 
ATOM     16  C   UNL d   1      -1.855   1.768  -1.238  0.00  0.00     0.032 A 
BRANCH  14  17
ATOM     17  O   UNL d   1      -5.316   1.717  -0.110  0.00  0.00    -0.356 OA
ATOM     18  C   UNL d   1      -6.063   0.739   0.611  0.00  0.00     0.210 C 
ENDBRANCH  14  17
ENDBRANCH   1  11
TORSDOF 4
