REMARK  1 active torsions:
REMARK  status: ('A' for Active; 'I' for Inactive)
REMARK    1  A    between atoms: C_8  and  C_2 
ROOT
ATOM      1  C   UNL d   1       1.387  -1.350  -0.027  0.00  0.00     0.302 A 
ATOM      2  C   UNL d   1       2.321   0.795  -0.090  0.00  0.00     0.169 A 
ATOM      3  N   UNL d   1       1.198   1.425  -0.069  0.00  0.00    -0.335 N 
ATOM      4  HN  UNL d   1       1.164   2.444  -0.094  1.00  0.00     0.168 HD
ATOM      5  O   UNL d   1       2.473  -0.547  -0.064  0.00  0.00    -0.256 OA
ATOM      6  C   UNL d   1       0.048  -0.725   0.058  0.00  0.00     0.072 A 
ATOM      7  C   UNL d   1       0.031   0.669  -0.012  0.00  0.00     0.051 A 
ATOM      8  O   UNL d   1       1.534  -2.567  -0.089  0.00  0.00    -0.259 OA
ATOM      9  C   UNL d   1      -1.167  -1.443   0.164  0.00  0.00    -0.043 A 
ATOM     10  C   UNL d   1      -1.185   1.355  -0.036  0.00  0.00     0.030 A 
ATOM     11  C   UNL d   1      -2.389   0.660  -0.006  0.00  0.00     0.003 A 
ATOM     12  C   UNL d   1      -2.377  -0.728   0.095  0.00  0.00     0.008 A 
ATOM     13  C   UNL d   1      -1.278  -2.935   0.317  0.00  0.00     0.049 C 
ENDROOT
BRANCH   2  14
ATOM     14  C   UNL d   1       3.607   1.460  -0.170  0.00  0.00     0.056 A 
ATOM     15  S   UNL d   1       3.704   3.172  -0.077  0.00  0.00    -0.098 SA
ATOM     16  C   UNL d   1       5.402   3.161  -0.259  0.00  0.00     0.050 A 
ATOM     17  C   UNL d   1       5.898   1.885  -0.390  0.00  0.00     0.009 A 
ATOM     18  C   UNL d   1       4.865   0.904  -0.330  0.00  0.00     0.024 A 
ENDBRANCH   2  14
TORSDOF 1
