REMARK  3 active torsions:
REMARK  status: ('A' for Active; 'I' for Inactive)
REMARK    1  A    between atoms: O_12  and  C_2 
REMARK    2  A    between atoms: C_6  and  C_3 
REMARK    3  A    between atoms: O_13  and  C_6 
ROOT
ATOM      1  C   UNL d   1      -0.734   1.279  -0.008  0.00  0.00     0.112 A 
ATOM      2  C   UNL d   1      -1.353   0.035   0.004  0.00  0.00     0.162 A 
ATOM      3  C   UNL d   1       0.663   1.308   0.019  0.00  0.00     0.064 A 
ATOM      4  N   UNL d   1      -0.681  -1.131   0.022  0.00  0.00    -0.340 N 
ATOM      5  HN  UNL d   1      -1.180  -2.021   0.037  1.00  0.00     0.167 HD
ATOM      6  C   UNL d   1      -1.519   2.464  -0.048  0.00  0.00     0.105 C 
ATOM      7  N   UNL d   1      -2.147   3.434   0.003  0.00  0.00    -0.191 NA
ATOM      8  C   UNL d   1       1.370   0.096   0.022  0.00  0.00     0.044 A 
ATOM      9  C   UNL d   1       0.669  -1.098   0.021  0.00  0.00     0.008 A 
ATOM     10  C   UNL d   1       1.380  -2.417   0.008  0.00  0.00     0.068 C 
ENDROOT
BRANCH   2  11
ATOM     11  O   UNL d   1      -2.706  -0.143   0.001  0.00  0.00    -0.345 OA
ATOM     12  H   UNL d   1      -3.189   0.697  -0.025  0.00  0.00     0.219 HD
ENDBRANCH   2  11
BRANCH   3  13
ATOM     13  C   UNL d   1       1.502   2.534  -0.039  0.00  0.00     0.177 C 
ATOM     14  O   UNL d   1       2.601   2.506  -0.576  0.00  0.00    -0.646 OA
BRANCH  13  15
ATOM     15  O   UNL d   1       1.047   3.643   0.568  0.00  0.00    -0.773 OA
ATOM     16  H   UNL d   1       0.204   3.655   1.058  0.00  0.00     0.167 HD
ENDBRANCH  13  15
ENDBRANCH   3  13
TORSDOF 3
