REMARK  3 active torsions:
REMARK  status: ('A' for Active; 'I' for Inactive)
REMARK    1  A    between atoms: C_11  and  N_1 
REMARK    2  A    between atoms: C_14  and  N_4 
REMARK    3  A    between atoms: C_21  and  C_14 
ROOT
ATOM      1  N   UNL d   1       0.920  -1.430   0.049  0.00  0.00    -0.247 N 
ATOM      2  C   UNL d   1      -0.248  -0.696   0.082  0.00  0.00     0.150 A 
ATOM      3  C   UNL d   1       2.157  -0.766  -0.025  0.00  0.00     0.338 A 
ATOM      4  N   UNL d   1       2.132   0.647  -0.003  0.00  0.00    -0.264 N 
ATOM      5  C   UNL d   1      -0.215   0.667   0.062  0.00  0.00     0.147 A 
ATOM      6  C   UNL d   1       0.977   1.433   0.048  0.00  0.00     0.282 A 
ATOM      7  N   UNL d   1      -1.539  -1.149   0.060  0.00  0.00    -0.336 N 
ATOM      8  HN  UNL d   1      -1.857  -2.118   0.073  1.00  0.00     0.168 HD
ATOM      9  N   UNL d   1      -1.517   1.073   0.034  0.00  0.00    -0.345 N 
ATOM     10  C   UNL d   1      -2.283  -0.062   0.018  0.00  0.00     0.182 A 
ATOM     11  O   UNL d   1       3.237  -1.369  -0.067  0.00  0.00    -0.246 OA
ATOM     12  O   UNL d   1       0.967   2.660   0.068  0.00  0.00    -0.265 OA
ATOM     13  H   UNL d   1      -1.846   2.030  -0.002  0.00  0.00     0.167 HD
ENDROOT
BRANCH   1  14
ATOM     14  C   UNL d   1       0.834  -2.850   0.088  0.00  0.00     0.045 A 
ATOM     15  C   UNL d   1       0.044  -3.498   1.051  0.00  0.00     0.032 A 
ATOM     16  C   UNL d   1       0.059  -4.892   1.164  0.00  0.00     0.026 A 
ATOM     17  C   UNL d   1       0.835  -5.649   0.289  0.00  0.00     0.034 A 
ATOM     18  C   UNL d   1       1.594  -5.027  -0.697  0.00  0.00     0.026 A 
ATOM     19 CL   UNL d   1       0.868  -7.363   0.439  0.00  0.00    -0.084 Cl
ATOM     20  C   UNL d   1       1.604  -3.632  -0.786  0.00  0.00     0.032 A 
ENDBRANCH   1  14
BRANCH   4  21
ATOM     21  C   UNL d   1       3.416   1.345  -0.028  0.00  0.00     0.137 C 
BRANCH  21  22
ATOM     22  C   UNL d   1       3.922   1.758   1.360  0.00  0.00     0.016 C 
ATOM     23  C   UNL d   1       4.281   0.587   2.263  0.00  0.00     0.006 C 
ENDBRANCH  21  22
ENDBRANCH   4  21
TORSDOF 3
