REMARK  6 active torsions:
REMARK  status: ('A' for Active; 'I' for Inactive)
REMARK    1  A    between atoms: C_2  and  N_1 
REMARK    2  A    between atoms: C_3  and  C_5 
REMARK    3  A    between atoms: O_9  and  C_3 
REMARK    4  A    between atoms: C_14  and  O_9 
REMARK    5  A    between atoms: C_11  and  C_14 
REMARK    6  A    between atoms: C_16  and  C_11 
ROOT
ATOM      1  C   UNL d   1      -1.629  -2.345  -4.565  0.00  0.00     0.293 C 
ATOM      2  O   UNL d   1      -1.091  -3.333  -5.037  0.00  0.00    -0.259 OA
ENDROOT
BRANCH   1   3
ATOM      3  C   UNL d   1      -1.136  -1.651  -3.338  0.00  0.00     0.040 A 
ATOM      4  C   UNL d   1      -1.669  -0.430  -2.902  0.00  0.00     0.020 A 
ATOM      5  C   UNL d   1      -1.141   0.204  -1.774  0.00  0.00     0.037 A 
ATOM      6  C   UNL d   1      -0.077  -0.389  -1.078  0.00  0.00     0.108 A 
ATOM      7  C   UNL d   1       0.469  -1.621  -1.474  0.00  0.00    -0.028 A 
ATOM      8  C   UNL d   1      -0.073  -2.234  -2.622  0.00  0.00     0.027 A 
ATOM      9  C   UNL d   1       1.588  -2.325  -0.758  0.00  0.00     0.050 C 
BRANCH   6  10
ATOM     10  N   UNL d   1       0.446   0.337   0.069  0.00  0.00    -0.115 N 
ATOM     11  O   UNL d   1       1.637   0.675   0.034  0.00  0.00    -0.532 OA
ATOM     12  O   UNL d   1      -0.350   0.595   0.983  0.00  0.00    -0.532 OA
ENDBRANCH   6  10
ENDBRANCH   1   3
BRANCH   1  13
ATOM     13  O   UNL d   1      -2.689  -1.689  -5.096  0.00  0.00    -0.310 OA
BRANCH  13  14
ATOM     14  C   UNL d   1      -3.172  -2.213  -6.336  0.00  0.00     0.263 C 
BRANCH  14  15
ATOM     15  C   UNL d   1      -4.198  -3.338  -6.191  0.00  0.00     0.183 C 
ATOM     16  O   UNL d   1      -4.562  -3.759  -5.094  0.00  0.00    -0.290 OA
BRANCH  15  17
ATOM     17  C   UNL d   1      -4.799  -3.911  -7.441  0.00  0.00     0.012 A 
ATOM     18  C   UNL d   1      -4.491  -3.421  -8.718  0.00  0.00     0.015 A 
ATOM     19  C   UNL d   1      -5.094  -3.974  -9.852  0.00  0.00     0.001 A 
ATOM     20  C   UNL d   1      -6.005  -5.021  -9.723  0.00  0.00     0.000 A 
ATOM     21  C   UNL d   1      -6.317  -5.517  -8.459  0.00  0.00     0.001 A 
ATOM     22  C   UNL d   1      -5.717  -4.966  -7.323  0.00  0.00     0.015 A 
ENDBRANCH  15  17
ENDBRANCH  14  15
ENDBRANCH  13  14
ENDBRANCH   1  13
TORSDOF 6
