REMARK  5 active torsions:
REMARK  status: ('A' for Active; 'I' for Inactive)
REMARK    1  A    between atoms: S_2  and  C_1 
REMARK    2  A    between atoms: N_7  and  S_2 
REMARK    3  A    between atoms: C_8  and  C_3 
REMARK    4  A    between atoms: O_12  and  C_4 
REMARK    5  A    between atoms: O_16  and  C_8 
ROOT
ATOM      1  C   UNL d   1       0.322   1.451   0.289  0.00  0.00     0.149 A 
ATOM      2  C   UNL d   1       1.574  -0.567   0.251  0.00  0.00     0.081 A 
ATOM      3  C   UNL d   1       1.588   0.880   0.120  0.00  0.00     0.114 A 
ATOM      4  S   UNL d   1      -0.811   0.226   0.760  0.00  0.00    -0.085 SA
ATOM      5  C   UNL d   1       0.315  -1.024   0.581  0.00  0.00     0.071 A 
ENDROOT
BRANCH   1   6
ATOM      6  S   UNL d   1      -0.459   3.073   0.194  0.00  0.00     0.253 S 
ATOM      7  O   UNL d   1       0.314   3.845  -0.752  0.00  0.00    -0.205 OA
ATOM      8  O   UNL d   1      -1.860   2.841  -0.077  0.00  0.00    -0.205 OA
BRANCH   6   9
ATOM      9  N   UNL d   1      -0.369   3.857   1.704  0.00  0.00    -0.202 NA
ATOM     10  C   UNL d   1       0.980   4.125   2.284  0.00  0.00     0.134 C 
ATOM     11  C   UNL d   1       1.605   5.415   1.731  0.00  0.00     0.183 C 
ATOM     12  O   UNL d   1       0.738   6.540   1.918  0.00  0.00    -0.389 OA
ATOM     13  C   UNL d   1      -0.507   6.321   1.237  0.00  0.00     0.183 C 
ATOM     14  C   UNL d   1      -1.223   5.092   1.809  0.00  0.00     0.134 C 
ENDBRANCH   6   9
ENDBRANCH   1   6
BRANCH   3  15
ATOM     15  O   UNL d   1       2.796   1.476  -0.073  0.00  0.00    -0.353 OA
ATOM     16  C   UNL d   1       2.856   2.743  -0.679  0.00  0.00     0.210 C 
ENDBRANCH   3  15
BRANCH   2  17
ATOM     17  C   UNL d   1       2.690  -1.509   0.087  0.00  0.00     0.296 C 
ATOM     18  O   UNL d   1       2.553  -2.724   0.203  0.00  0.00    -0.259 OA
BRANCH  17  19
ATOM     19  O   UNL d   1       3.877  -0.909  -0.207  0.00  0.00    -0.322 OA
ATOM     20  C   UNL d   1       4.984  -1.797  -0.360  0.00  0.00     0.213 C 
ENDBRANCH  17  19
ENDBRANCH   2  17
TORSDOF 5
