REMARK  5 active torsions:
REMARK  status: ('A' for Active; 'I' for Inactive)
REMARK       I    between atoms: N_3  and  C_1 
REMARK       I    between atoms: N_4  and  C_1 
REMARK    1  A    between atoms: C_9  and  N_3 
REMARK    2  A    between atoms: C_8  and  N_4 
REMARK    3  A    between atoms: O_10  and  C_11 
REMARK    4  A    between atoms: C_12  and  O_10 
REMARK    5  A    between atoms: C_21  and  C_12 
ROOT
ATOM      1  N   UNL d   1       7.766  -1.721  -3.889  0.00  0.00    -0.191 NA
ATOM      2  C   UNL d   1       6.852  -1.500  -3.207  0.00  0.00     0.099 C 
ATOM      3  C   UNL d   1       5.726  -1.230  -2.365  0.00  0.00     0.044 A 
ATOM      4  C   UNL d   1       3.496  -0.765  -0.714  0.00  0.00     0.036 A 
ATOM      5  C   UNL d   1       5.873  -1.195  -0.976  0.00  0.00     0.025 A 
ATOM      6  C   UNL d   1       4.472  -1.005  -2.929  0.00  0.00     0.025 A 
ATOM      7  C   UNL d   1       3.368  -0.766  -2.107  0.00  0.00     0.031 A 
ATOM      8  C   UNL d   1       4.764  -0.956  -0.155  0.00  0.00     0.031 A 
ENDROOT
BRANCH   4   9
ATOM      9  N   UNL d   1       2.405  -0.586   0.166  0.00  0.00    -0.309 N 
ATOM     10  C   UNL d   1       1.065  -0.684  -0.182  0.00  0.00     0.325 C 
ATOM     11  N   UNL d   1       0.243  -0.427   0.902  0.00  0.00    -0.309 N 
ATOM     12  O   UNL d   1       0.666  -0.981  -1.301  0.00  0.00    -0.247 OA
ATOM     13  H   UNL d   1       0.682  -0.061   1.732  0.00  0.00     0.170 HD
ATOM     14  H   UNL d   1       2.616  -0.594   1.151  0.00  0.00     0.170 HD
BRANCH  11  15
ATOM     15  C   UNL d   1      -1.165  -0.542   0.935  0.00  0.00     0.036 A 
ATOM     16  C   UNL d   1      -1.935  -0.994  -0.138  0.00  0.00     0.032 A 
ATOM     17  C   UNL d   1      -3.322  -1.113  -0.022  0.00  0.00     0.039 A 
ATOM     18  C   UNL d   1      -3.958  -0.803   1.175  0.00  0.00     0.069 A 
ATOM     19  C   UNL d   1      -3.204  -0.321   2.244  0.00  0.00     0.039 A 
ATOM     20  C   UNL d   1      -1.814  -0.197   2.126  0.00  0.00     0.032 A 
BRANCH  18  21
ATOM     21  O   UNL d   1      -5.310  -1.002   1.179  0.00  0.00    -0.347 OA
BRANCH  21  22
ATOM     22  C   UNL d   1      -5.900  -1.193   2.463  0.00  0.00     0.214 C 
BRANCH  22  23
ATOM     23  C   UNL d   1      -7.223  -1.902   2.303  0.00  0.00    -0.034 A 
ATOM     24  C   UNL d   1      -7.294  -3.127   1.622  0.00  0.00     0.009 A 
ATOM     25  C   UNL d   1      -8.504  -3.815   1.526  0.00  0.00     0.001 A 
ATOM     26  C   UNL d   1      -9.652  -3.288   2.112  0.00  0.00     0.000 A 
ATOM     27  C   UNL d   1      -9.595  -2.071   2.789  0.00  0.00     0.001 A 
ATOM     28  C   UNL d   1      -8.386  -1.380   2.886  0.00  0.00     0.009 A 
ENDBRANCH  22  23
ENDBRANCH  21  22
ENDBRANCH  18  21
ENDBRANCH  11  15
ENDBRANCH   4   9
TORSDOF 5
