REMARK  3 active torsions:
REMARK  status: ('A' for Active; 'I' for Inactive)
REMARK       I    between atoms: C_2  and  N_1 
REMARK    1  A    between atoms: C_3  and  N_1 
REMARK    2  A    between atoms: C_4  and  C_2 
REMARK    3  A    between atoms: C_15  and  C_9 
ROOT
ATOM      1  C   UNL d   1       2.423  -0.076   0.314  0.00  0.00     0.047 A 
ATOM      2  C   UNL d   1       2.870  -1.418   0.312  0.00  0.00    -0.035 A 
ATOM      3  C   UNL d   1       3.364   0.979   0.294  0.00  0.00    -0.031 A 
ATOM      4  C   UNL d   1       5.174  -0.650   0.430  0.00  0.00     0.001 A 
ATOM      5  C   UNL d   1       4.249  -1.685   0.374  0.00  0.00     0.009 A 
ATOM      6  C   UNL d   1       4.735   0.669   0.377  0.00  0.00     0.009 A 
ATOM      7  C   UNL d   1       1.959  -2.616   0.248  0.00  0.00     0.050 C 
ENDROOT
BRANCH   1   8
ATOM      8  N   UNL d   1       1.034   0.169   0.273  0.00  0.00    -0.320 N 
ATOM      9  C   UNL d   1       0.355   0.898   1.245  0.00  0.00     0.279 C 
ATOM     10  O   UNL d   1       0.888   1.546   2.140  0.00  0.00    -0.265 OA
ATOM     11  H   UNL d   1       0.446  -0.526  -0.168  0.00  0.00     0.169 HD
BRANCH   9  12
ATOM     12  C   UNL d   1      -1.088   0.756   1.141  0.00  0.00     0.142 A 
ATOM     13  O   UNL d   1      -1.621   0.087   0.066  0.00  0.00    -0.317 OA
ATOM     14  C   UNL d   1      -2.971   0.108   0.207  0.00  0.00     0.143 A 
ATOM     15  C   UNL d   1      -3.327   0.755   1.363  0.00  0.00     0.027 A 
ATOM     16  C   UNL d   1      -2.115   1.172   1.970  0.00  0.00     0.045 A 
ENDBRANCH   9  12
ENDBRANCH   1   8
BRANCH   3  17
ATOM     17  C   UNL d   1       2.995   2.416  -0.025  0.00  0.00     0.036 C 
ATOM     18  C   UNL d   1       3.411   3.436   1.025  0.00  0.00     0.010 C 
ENDBRANCH   3  17
TORSDOF 3
