REMARK  4 active torsions:
REMARK  status: ('A' for Active; 'I' for Inactive)
REMARK    1  A    between atoms: O_11  and  C_2 
REMARK    2  A    between atoms: C_18  and  O_11 
REMARK    3  A    between atoms: C_12  and  C_13 
REMARK    4  A    between atoms: C_19  and  C_18 
ROOT
ATOM      1  C   UNL d   1       4.053   1.371  -2.453  0.00  0.00     0.042 A 
ATOM      2  C   UNL d   1       3.375   1.727  -1.284  0.00  0.00     0.156 A 
ATOM      3  C   UNL d   1       4.295   0.001  -2.597  0.00  0.00     0.049 A 
ATOM      4  N   UNL d   1       2.991   0.856  -0.336  0.00  0.00    -0.332 N 
ATOM      5  HN  UNL d   1       2.504   1.148   0.512  1.00  0.00     0.168 HD
ATOM      6  N   UNL d   1       3.922  -0.893  -1.673  0.00  0.00    -0.351 N 
ATOM      7  HN  UNL d   1       4.107  -1.890  -1.791  1.00  0.00     0.166 HD
ATOM      8  C   UNL d   1       4.482   2.282  -3.448  0.00  0.00     0.020 A 
ATOM      9  C   UNL d   1       4.949  -0.438  -3.743  0.00  0.00     0.054 A 
ATOM     10  C   UNL d   1       3.295  -0.422  -0.585  0.00  0.00     0.182 A 
ATOM     11  C   UNL d   1       5.369   0.459  -4.725  0.00  0.00     0.036 A 
ATOM     12  C   UNL d   1       5.144   1.822  -4.582  0.00  0.00     0.025 A 
ATOM     13 CL   UNL d   1       6.176  -0.128  -6.128  0.00  0.00    -0.084 Cl
ENDROOT
BRANCH   2  14
ATOM     14  O   UNL d   1       3.088   3.068  -1.119  0.00  0.00    -0.330 OA
BRANCH  14  15
ATOM     15  C   UNL d   1       2.360   3.377   0.068  0.00  0.00     0.216 C 
BRANCH  15  16
ATOM     16  C   UNL d   1       2.108   4.864   0.037  0.00  0.00    -0.034 A 
ATOM     17  C   UNL d   1       0.936   5.388  -0.517  0.00  0.00     0.010 A 
ATOM     18  C   UNL d   1       0.759   6.774  -0.632  0.00  0.00     0.008 A 
ATOM     19  C   UNL d   1       1.752   7.681  -0.214  0.00  0.00    -0.051 A 
ATOM     20  C   UNL d   1       2.910   7.136   0.365  0.00  0.00     0.008 A 
ATOM     21  C   UNL d   1       3.089   5.753   0.484  0.00  0.00     0.010 A 
BRANCH  19  22
ATOM     22  C   UNL d   1       1.573   9.193  -0.435  0.00  0.00    -0.024 C 
ATOM     23  C   UNL d   1       2.790  10.029   0.025  0.00  0.00     0.019 C 
ATOM     24  C   UNL d   1       1.372   9.477  -1.941  0.00  0.00     0.019 C 
ATOM     25  C   UNL d   1       0.343   9.711   0.338  0.00  0.00     0.019 C 
ENDBRANCH  19  22
ENDBRANCH  15  16
ENDBRANCH  14  15
ENDBRANCH   2  14
TORSDOF 4
