REMARK  8 active torsions:
REMARK  status: ('A' for Active; 'I' for Inactive)
REMARK    1  A    between atoms: C_4  and  C_1 
REMARK    2  A    between atoms: C_5  and  O_23 
REMARK       I    between atoms: N_8  and  C_5 
REMARK    3  A    between atoms: C_7  and  N_8 
REMARK    4  A    between atoms: O_23  and  C_31 
REMARK    5  A    between atoms: C_29  and  C_24 
REMARK    6  A    between atoms: S_28  and  C_29 
REMARK    7  A    between atoms: C_30  and  S_28 
REMARK    8  A    between atoms: C_31  and  C_30 
ROOT
ATOM      1  S   UNL d   1      -2.943   5.232   5.996  0.00  0.00    -0.162 SA
ENDROOT
BRANCH   1   2
ATOM      2  C   UNL d   1      -1.585   5.658   4.860  0.00  0.00     0.112 C 
BRANCH   2   3
ATOM      3  C   UNL d   1      -1.359   4.533   3.879  0.00  0.00    -0.048 A 
ATOM      4  C   UNL d   1      -0.530   3.450   4.205  0.00  0.00     0.021 A 
ATOM      5  C   UNL d   1      -0.371   2.368   3.319  0.00  0.00    -0.009 A 
ATOM      6  C   UNL d   1       0.444   1.273   3.630  0.00  0.00     0.016 A 
ATOM      7  C   UNL d   1      -1.045   2.356   2.083  0.00  0.00     0.043 A 
ATOM      8  C   UNL d   1       0.564   0.218   2.729  0.00  0.00     0.035 A 
ATOM      9  C   UNL d   1      -0.134   0.277   1.526  0.00  0.00     0.117 A 
ATOM     10  N   UNL d   1      -0.925   1.340   1.208  0.00  0.00    -0.352 N 
ATOM     11  HN  UNL d   1      -1.420   1.367   0.316  1.00  0.00     0.166 HD
ATOM     12  C   UNL d   1      -1.862   3.434   1.774  0.00  0.00     0.031 A 
ATOM     13  C   UNL d   1      -2.029   4.511   2.652  0.00  0.00     0.010 A 
BRANCH   9  14
ATOM     14  C   UNL d   1      -0.010  -0.881   0.545  0.00  0.00     0.432 C 
ATOM     15  F   UNL d   1      -0.750  -0.746  -0.590  0.00  0.00    -0.165 F 
ATOM     16  F   UNL d   1      -0.389  -2.074   1.095  0.00  0.00    -0.165 F 
ATOM     17  F   UNL d   1       1.279  -1.072   0.127  0.00  0.00    -0.165 F 
ENDBRANCH   9  14
ENDBRANCH   2   3
ENDBRANCH   1   2
BRANCH   1  18
ATOM     18  C   UNL d   1      -3.019   6.771   6.977  0.00  0.00     0.101 C 
BRANCH  18  19
ATOM     19  C   UNL d   1      -4.181   6.702   7.974  0.00  0.00     0.191 C 
BRANCH  19  20
ATOM     20  O   UNL d   1      -5.455   6.518   7.326  0.00  0.00    -0.303 OA
BRANCH  20  21
ATOM     21  C   UNL d   1      -5.989   7.616   6.749  0.00  0.00     0.365 C 
ATOM     22  N   UNL d   1      -7.180   7.437   6.098  0.00  0.00    -0.303 N 
ATOM     23  H   UNL d   1      -7.524   8.322   5.745  0.00  0.00     0.171 HD
ATOM     24  O   UNL d   1      -5.474   8.732   6.788  0.00  0.00    -0.238 OA
BRANCH  22  25
ATOM     25  C   UNL d   1      -7.897   6.286   5.723  0.00  0.00     0.040 A 
ATOM     26  C   UNL d   1      -7.506   4.973   5.987  0.00  0.00     0.053 A 
ATOM     27  C   UNL d   1      -8.222   3.902   5.434  0.00  0.00     0.037 A 
ATOM     28 CL   UNL d   1      -7.691   2.288   5.714  0.00  0.00    -0.084 Cl
ATOM     29  C   UNL d   1      -9.342   4.121   4.638  0.00  0.00     0.048 A 
ATOM     30  C   UNL d   1      -9.766   5.425   4.423  0.00  0.00     0.037 A 
ATOM     31  C   UNL d   1      -9.058   6.500   4.963  0.00  0.00     0.053 A 
ATOM     32 CL   UNL d   1     -11.158   5.723   3.455  0.00  0.00    -0.084 Cl
ENDBRANCH  22  25
ENDBRANCH  20  21
ENDBRANCH  19  20
ENDBRANCH  18  19
ENDBRANCH   1  18
TORSDOF 8
