REMARK  5 active torsions:
REMARK  status: ('A' for Active; 'I' for Inactive)
REMARK    1  A    between atoms: C_3  and  C_1 
REMARK    2  A    between atoms: C_12  and  C_2 
REMARK    3  A    between atoms: C_20  and  C_9 
REMARK    4  A    between atoms: O_24  and  C_12 
REMARK    5  A    between atoms: C_18  and  C_15 
ROOT
ATOM      1  C   UNL d   1       2.965   1.226  -1.437  0.00  0.00     0.052 A 
ATOM      2  C   UNL d   1       2.207   1.498  -0.134  0.00  0.00     0.102 A 
ATOM      3  C   UNL d   1       3.127   1.662   1.071  0.00  0.00     0.024 A 
ATOM      4  C   UNL d   1       4.471   1.629   0.941  0.00  0.00     0.021 A 
ATOM      5  C   UNL d   1       4.321   1.221  -1.470  0.00  0.00     0.018 A 
ATOM      6  N   UNL d   1       5.038   1.437  -0.301  0.00  0.00    -0.362 N 
ATOM      7  C   UNL d   1       2.544   1.891   2.425  0.00  0.00     0.159 C 
ATOM      8  C   UNL d   1       5.431   1.819   2.100  0.00  0.00     0.067 C 
ATOM      9  C   UNL d   1       4.781   2.464   3.340  0.00  0.00     0.031 C 
ATOM     10  C   UNL d   1       3.465   1.728   3.612  0.00  0.00     0.093 C 
ATOM     11  O   UNL d   1       1.359   2.180   2.579  0.00  0.00    -0.293 OA
ATOM     12  C   UNL d   1       5.172   1.028  -2.701  0.00  0.00     0.069 C 
ATOM     13  H   UNL d   1       6.053   1.381  -0.364  0.00  0.00     0.165 HD
ENDROOT
BRANCH   2  14
ATOM     14  C   UNL d   1       1.075   0.515   0.109  0.00  0.00     0.001 A 
ATOM     15  C   UNL d   1       1.025  -0.922   0.164  0.00  0.00     0.067 A 
ATOM     16  N   UNL d   1      -0.239  -1.342   0.356  0.00  0.00    -0.300 N 
ATOM     17  N   UNL d   1      -0.966  -0.227   0.458  0.00  0.00    -0.311 N 
ATOM     18  HN  UNL d   1      -0.570  -2.305   0.413  1.00  0.00     0.187 HD
ATOM     19  C   UNL d   1      -0.244   0.902   0.290  0.00  0.00     0.117 A 
ATOM     20  H   UNL d   1      -1.962  -0.317   0.631  0.00  0.00     0.186 HD
BRANCH  15  21
ATOM     21  C   UNL d   1       2.085  -1.924   0.010  0.00  0.00    -0.007 A 
ATOM     22  C   UNL d   1       3.346  -1.768   0.588  0.00  0.00     0.014 A 
ATOM     23  C   UNL d   1       4.340  -2.737   0.423  0.00  0.00     0.001 A 
ATOM     24  C   UNL d   1       4.067  -3.899  -0.292  0.00  0.00     0.000 A 
ATOM     25  C   UNL d   1       2.802  -4.093  -0.839  0.00  0.00     0.001 A 
ATOM     26  C   UNL d   1       1.820  -3.110  -0.692  0.00  0.00     0.014 A 
ENDBRANCH  15  21
ENDBRANCH   2  14
BRANCH   1  27
ATOM     27  C   UNL d   1       2.160   0.953  -2.653  0.00  0.00     0.291 C 
ATOM     28  O   UNL d   1       2.454   0.135  -3.511  0.00  0.00    -0.260 OA
BRANCH  27  29
ATOM     29  O   UNL d   1       1.053   1.737  -2.658  0.00  0.00    -0.323 OA
ATOM     30  C   UNL d   1       0.112   1.432  -3.691  0.00  0.00     0.213 C 
ENDBRANCH  27  29
ENDBRANCH   1  27
BRANCH   9  31
ATOM     31  C   UNL d   1       4.566   3.978   3.282  0.00  0.00    -0.053 A 
ATOM     32  C   UNL d   1       4.094   4.637   4.435  0.00  0.00     0.010 A 
ATOM     33  C   UNL d   1       3.814   6.004   4.419  0.00  0.00     0.043 A 
ATOM     34  C   UNL d   1       4.019   6.730   3.255  0.00  0.00     0.116 A 
ATOM     35  C   UNL d   1       4.508   6.115   2.113  0.00  0.00     0.043 A 
ATOM     36  F   UNL d   1       3.741   8.040   3.234  0.00  0.00    -0.206 F 
ATOM     37  C   UNL d   1       4.783   4.746   2.125  0.00  0.00     0.010 A 
ENDBRANCH   9  31
TORSDOF 5
