REMARK  1 active torsions:
REMARK  status: ('A' for Active; 'I' for Inactive)
REMARK    1  A    between atoms: C_8  and  C_6 
ROOT
ATOM      1  N   UNL d   1       1.504   1.409  -0.505  0.00  0.00    -0.326 N 
ATOM      2  HN  UNL d   1       1.726   2.239  -1.054  1.00  0.00     0.180 HD
ATOM      3  C   UNL d   1       0.332   0.943  -0.226  0.00  0.00     0.038 C 
ATOM      4  C   UNL d   1       0.401  -0.647   0.717  0.00  0.00     0.293 C 
ATOM      5  N   UNL d   1       2.389   0.542   0.100  0.00  0.00    -0.229 NA
ATOM      6  C   UNL d   1       1.901  -0.849   0.388  0.00  0.00     0.148 C 
ATOM      7  N   UNL d   1      -0.780  -1.637   0.133  0.00  0.00     0.100 N 
ATOM      8  C   UNL d   1      -1.268   1.395  -0.768  0.00  0.00     0.038 C 
ATOM      9  C   UNL d   1      -2.388  -1.300   0.002  0.00  0.00     0.274 C 
ATOM     10  C   UNL d   1      -0.767  -0.753  -0.916  0.00  0.00     0.274 C 
ATOM     11  C   UNL d   1      -1.357   0.603   0.383  0.00  0.00     0.041 C 
ATOM     12  C   UNL d   1      -2.697   0.315  -0.971  0.00  0.00     0.041 C 
ATOM     13  H   UNL d   1       3.297   0.523  -0.371  0.00  0.00     0.147 HD
ENDROOT
BRANCH   6  14
ATOM     14  C   UNL d   1       2.609  -1.492   1.562  0.00  0.00    -0.034 A 
ATOM     15  C   UNL d   1       2.855  -2.876   1.551  0.00  0.00     0.048 A 
ATOM     16  C   UNL d   1       3.354  -3.457   2.699  0.00  0.00     0.105 A 
ATOM     17  O   UNL d   1       3.607  -4.782   2.870  0.00  0.00    -0.323 OA
ATOM     18  C   UNL d   1       3.619  -2.723   3.830  0.00  0.00     0.105 A 
ATOM     19  C   UNL d   1       4.008  -4.803   4.256  0.00  0.00     0.352 A 
ATOM     20  O   UNL d   1       4.063  -3.494   4.858  0.00  0.00    -0.323 OA
ATOM     21  C   UNL d   1       3.418  -1.363   3.876  0.00  0.00     0.040 A 
ATOM     22  C   UNL d   1       2.909  -0.745   2.731  0.00  0.00     0.012 A 
ENDBRANCH   6  14
TORSDOF 1
