REMARK  5 active torsions:
REMARK  status: ('A' for Active; 'I' for Inactive)
REMARK    1  A    between atoms: C_4  and  C_1 
REMARK    2  A    between atoms: N_2  and  C_3 
REMARK       I    between atoms: N_12  and  C_4 
REMARK    3  A    between atoms: N_6  and  N_12 
REMARK    4  A    between atoms: N_13  and  C_11 
REMARK    5  A    between atoms: C_20  and  C_17 
ROOT
ATOM      1  C   UNL d   1       2.593  -0.124  -0.010  0.00  0.00     0.272 C 
ATOM      2  N   UNL d   1       3.281  -1.332  -0.053  0.00  0.00    -0.266 N 
ATOM      3  O   UNL d   1       1.365  -0.039  -0.004  0.00  0.00    -0.266 OA
ATOM      4  H   UNL d   1       4.299  -1.391  -0.076  0.00  0.00     0.190 HD
ENDROOT
BRANCH   2   5
ATOM      5  N   UNL d   1       2.556  -2.493  -0.082  0.00  0.00    -0.308 N 
ATOM      6  C   UNL d   1       3.211  -3.611  -0.094  0.00  0.00     0.118 C 
ATOM      7  HN  UNL d   1       1.537  -2.479  -0.094  1.00  0.00     0.186 HD
BRANCH   6   8
ATOM      8  C   UNL d   1       2.493  -4.909  -0.133  0.00  0.00    -0.019 A 
ATOM      9  C   UNL d   1       1.100  -4.936  -0.173  0.00  0.00     0.015 A 
ATOM     10  C   UNL d   1       0.418  -6.161  -0.205  0.00  0.00     0.030 A 
ATOM     11  C   UNL d   1       1.085  -7.398  -0.189  0.00  0.00     0.029 A 
ATOM     12  C   UNL d   1       2.490  -7.335  -0.157  0.00  0.00     0.030 A 
ATOM     13  C   UNL d   1       3.192  -6.114  -0.129  0.00  0.00     0.015 A 
BRANCH  11  14
ATOM     14  N   UNL d   1       0.391  -8.596  -0.202  0.00  0.00    -0.390 N 
ATOM     15  C   UNL d   1      -0.958  -8.715   0.347  0.00  0.00     0.149 C 
ATOM     16  C   UNL d   1       0.958  -9.833  -0.727  0.00  0.00     0.149 C 
ENDBRANCH  11  14
ENDBRANCH   6   8
ENDBRANCH   2   5
BRANCH   1  17
ATOM     17  C   UNL d   1       3.361   1.160  -0.021  0.00  0.00     0.067 A 
ATOM     18  C   UNL d   1       4.578   1.429   0.613  0.00  0.00     0.118 A 
ATOM     19  C   UNL d   1       5.161   2.710   0.592  0.00  0.00     0.037 A 
ATOM     20  C   UNL d   1       4.518   3.755  -0.068  0.00  0.00     0.009 A 
ATOM     21  C   UNL d   1       3.292   3.533  -0.700  0.00  0.00    -0.061 A 
ATOM     22  C   UNL d   1       2.725   2.246  -0.665  0.00  0.00     0.026 A 
ATOM     23  C   UNL d   1       2.597   4.670  -1.394  0.00  0.00     0.048 C 
BRANCH  18  24
ATOM     24  N   UNL d   1       5.292   0.419   1.357  0.00  0.00    -0.115 N 
ATOM     25  O   UNL d   1       5.689  -0.570   0.716  0.00  0.00    -0.532 OA
ATOM     26  O   UNL d   1       5.514   0.635   2.551  0.00  0.00    -0.532 OA
ENDBRANCH  18  24
ENDBRANCH   1  17
TORSDOF 5
