REMARK  3 active torsions:
REMARK  status: ('A' for Active; 'I' for Inactive)
REMARK    1  A    between atoms: S_2  and  N_1 
REMARK    2  A    between atoms: C_7  and  S_2 
REMARK    3  A    between atoms: N_9  and  C_4 
ROOT
ATOM      1  N   UNL d   1      -0.021  -1.094  -0.006  0.00  0.00    -0.178 N 
ATOM      2  C   UNL d   1       1.291  -0.628   0.039  0.00  0.00     0.077 C 
ATOM      3  C   UNL d   1       1.179   0.764   0.038  0.00  0.00     0.151 C 
ATOM      4  N   UNL d   1      -0.928  -0.082   0.134  0.00  0.00    -0.286 N 
ATOM      5  HN  UNL d   1      -1.937  -0.165   0.262  1.00  0.00     0.188 HD
ATOM      6  C   UNL d   1      -0.208   1.042   0.066  0.00  0.00     0.058 C 
ATOM      7  C   UNL d   1       2.529  -1.457   0.029  0.00  0.00     0.074 C 
ATOM      8  C   UNL d   1      -0.903   2.358   0.041  0.00  0.00     0.072 C 
ENDROOT
BRANCH   1   9
ATOM      9  S   UNL d   1      -0.518  -2.765  -0.142  0.00  0.00     0.289 S 
ATOM     10  O   UNL d   1      -1.885  -2.736  -0.636  0.00  0.00    -0.198 OA
ATOM     11  O   UNL d   1       0.523  -3.470  -0.864  0.00  0.00    -0.198 OA
BRANCH   9  12
ATOM     12  C   UNL d   1      -0.640  -3.523   1.460  0.00  0.00     0.123 A 
ATOM     13  S   UNL d   1       0.771  -3.544   2.428  0.00  0.00    -0.064 SA
ATOM     14  C   UNL d   1       0.000  -4.449   3.631  0.00  0.00     0.075 A 
ATOM     15 CL   UNL d   1       0.877  -4.939   5.023  0.00  0.00    -0.076 Cl
ATOM     16  C   UNL d   1      -1.315  -4.718   3.355  0.00  0.00     0.033 A 
ATOM     17  C   UNL d   1      -1.690  -4.172   2.091  0.00  0.00     0.035 A 
ENDBRANCH   9  12
ENDBRANCH   1   9
BRANCH   3  18
ATOM     18  N   UNL d   1       2.256   1.727   0.010  0.00  0.00    -0.112 N 
ATOM     19  O   UNL d   1       3.412   1.290  -0.010  0.00  0.00    -0.532 OA
ATOM     20  O   UNL d   1       1.943   2.922   0.011  0.00  0.00    -0.532 OA
ENDBRANCH   3  18
TORSDOF 3
