REMARK  3 active torsions:
REMARK  status: ('A' for Active; 'I' for Inactive)
REMARK    1  A    between atoms: N_2  and  C_1 
REMARK       I    between atoms: C_3  and  N_5 
REMARK       I    between atoms: N_7  and  C_3 
REMARK    2  A    between atoms: N_5  and  C_4 
REMARK    3  A    between atoms: C_13  and  N_7 
ROOT
ATOM      1  C   UNL d   1       4.283   1.584   0.803  0.00  0.00     0.325 C 
ATOM      2  N   UNL d   1       3.784   0.404   0.325  0.00  0.00    -0.306 N 
ATOM      3  N   UNL d   1       3.465   2.674   0.785  0.00  0.00    -0.309 N 
ATOM      4  O   UNL d   1       5.461   1.765   1.109  0.00  0.00    -0.247 OA
ATOM      5  H   UNL d   1       2.967   0.527  -0.256  0.00  0.00     0.171 HD
ATOM      6  H   UNL d   1       4.012   3.517   0.924  0.00  0.00     0.170 HD
ENDROOT
BRANCH   2   7
ATOM      7  C   UNL d   1       4.565  -0.748   0.045  0.00  0.00     0.069 A 
ATOM      8  C   UNL d   1       5.758  -1.147   0.677  0.00  0.00     0.131 A 
ATOM      9  C   UNL d   1       6.568  -2.161   0.134  0.00  0.00     0.062 A 
ATOM     10  C   UNL d   1       6.147  -2.829  -1.010  0.00  0.00     0.036 A 
ATOM     11  C   UNL d   1       4.913  -2.535  -1.581  0.00  0.00     0.026 A 
ATOM     12 CL   UNL d   1       7.141  -4.047  -1.707  0.00  0.00    -0.084 Cl
ATOM     13  C   UNL d   1       4.126  -1.507  -1.053  0.00  0.00     0.034 A 
BRANCH   8  14
ATOM     14  N   UNL d   1       6.119  -0.689   2.015  0.00  0.00    -0.113 N 
ATOM     15  O   UNL d   1       5.220  -0.679   2.870  0.00  0.00    -0.532 OA
ATOM     16  O   UNL d   1       7.321  -0.474   2.237  0.00  0.00    -0.532 OA
ENDBRANCH   8  14
ENDBRANCH   2   7
BRANCH   3  17
ATOM     17  C   UNL d   1       2.110   2.856   0.465  0.00  0.00     0.036 A 
ATOM     18  C   UNL d   1       1.131   1.869   0.585  0.00  0.00     0.029 A 
ATOM     19  C   UNL d   1      -0.184   2.131   0.185  0.00  0.00     0.002 A 
ATOM     20  C   UNL d   1      -0.529   3.385  -0.321  0.00  0.00     0.000 A 
ATOM     21  C   UNL d   1       0.431   4.390  -0.395  0.00  0.00     0.002 A 
ATOM     22  C   UNL d   1       1.741   4.129   0.011  0.00  0.00     0.029 A 
ENDBRANCH   3  17
TORSDOF 3
