REMARK  2 active torsions:
REMARK  status: ('A' for Active; 'I' for Inactive)
REMARK       I    between atoms: N_3  and  C_1 
REMARK       I    between atoms: N_6  and  C_1 
REMARK    1  A    between atoms: C_8  and  N_3 
REMARK    2  A    between atoms: C_13  and  N_6 
ROOT
ATOM      1  N   UNL d   1       1.733   7.622   0.344  0.00  0.00    -0.191 NA
ATOM      2  C   UNL d   1       1.481   6.490   0.327  0.00  0.00     0.099 C 
ATOM      3  C   UNL d   1       1.171   5.093   0.284  0.00  0.00     0.044 A 
ATOM      4  C   UNL d   1       0.556   2.348   0.148  0.00  0.00     0.036 A 
ATOM      5  C   UNL d   1       2.159   4.172  -0.057  0.00  0.00     0.025 A 
ATOM      6  C   UNL d   1      -0.124   4.644   0.561  0.00  0.00     0.025 A 
ATOM      7  C   UNL d   1       1.849   2.812  -0.128  0.00  0.00     0.031 A 
ATOM      8  C   UNL d   1      -0.432   3.278   0.487  0.00  0.00     0.031 A 
ENDROOT
BRANCH   4   9
ATOM      9  N   UNL d   1       0.201   0.981   0.060  0.00  0.00    -0.309 N 
ATOM     10  C   UNL d   1       1.109  -0.065   0.073  0.00  0.00     0.325 C 
ATOM     11  N   UNL d   1       0.525  -1.271  -0.280  0.00  0.00    -0.309 N 
ATOM     12  O   UNL d   1       2.297   0.075   0.348  0.00  0.00    -0.247 OA
ATOM     13  H   UNL d   1      -0.369  -1.218  -0.746  0.00  0.00     0.170 HD
ATOM     14  H   UNL d   1      -0.765   0.741   0.226  0.00  0.00     0.170 HD
BRANCH  11  15
ATOM     15  C   UNL d   1       1.209  -2.512  -0.349  0.00  0.00     0.038 A 
ATOM     16  C   UNL d   1       2.462  -2.724   0.234  0.00  0.00     0.054 A 
ATOM     17  C   UNL d   1       3.129  -3.942   0.090  0.00  0.00     0.042 A 
ATOM     18 CL   UNL d   1       4.691  -4.096   0.818  0.00  0.00    -0.084 Cl
ATOM     19  C   UNL d   1       2.547  -4.994  -0.625  0.00  0.00    -0.040 A 
ATOM     20  C   UNL d   1       1.273  -4.796  -1.178  0.00  0.00     0.011 A 
ATOM     21  C   UNL d   1       3.253  -6.308  -0.796  0.00  0.00     0.050 C 
ATOM     22  C   UNL d   1       0.608  -3.569  -1.038  0.00  0.00     0.030 A 
ENDBRANCH  11  15
ENDBRANCH   4   9
TORSDOF 2
