REMARK  5 active torsions:
REMARK  status: ('A' for Active; 'I' for Inactive)
REMARK    1  A    between atoms: C_13  and  C_5 
REMARK    2  A    between atoms: S_12  and  C_8 
REMARK    3  A    between atoms: O_18  and  C_9 
REMARK    4  A    between atoms: C_10  and  C_11 
REMARK    5  A    between atoms: C_11  and  S_12 
ROOT
ATOM      1  N   UNL d   1      -0.657   1.223  -0.075  0.00  0.00    -0.322 N 
ATOM      2  HN  UNL d   1      -1.123   2.129  -0.118  1.00  0.00     0.169 HD
ATOM      3  N   UNL d   1      -0.763  -1.141   0.051  0.00  0.00    -0.307 N 
ATOM      4  HN  UNL d   1      -1.300  -2.006   0.104  1.00  0.00     0.171 HD
ATOM      5  C   UNL d   1      -1.331   0.062  -0.005  0.00  0.00     0.120 A 
ATOM      6  N   UNL d   1       1.333  -0.061  -0.034  0.00  0.00    -0.302 N 
ATOM      7  HN  UNL d   1       2.351  -0.122  -0.044  1.00  0.00     0.171 HD
ATOM      8  C   UNL d   1       0.673   1.095  -0.084  0.00  0.00     0.149 A 
ATOM      9  C   UNL d   1       0.551  -1.115   0.032  0.00  0.00     0.224 A 
ENDROOT
BRANCH   8  10
ATOM     10  S   UNL d   1       1.745   2.515  -0.162  0.00  0.00    -0.089 SA
BRANCH  10  11
ATOM     11  C   UNL d   1       0.580   3.912  -0.214  0.00  0.00     0.124 C 
BRANCH  11  12
ATOM     12  C   UNL d   1       1.327   5.236  -0.159  0.00  0.00    -0.005 A 
ATOM     13  C   UNL d   1       1.750   5.897  -1.331  0.00  0.00     0.042 A 
ATOM     14 CL   UNL d   1       1.440   5.261  -2.910  0.00  0.00    -0.084 Cl
ATOM     15  C   UNL d   1       2.454   7.110  -1.273  0.00  0.00     0.024 A 
ATOM     16  C   UNL d   1       2.764   7.688  -0.046  0.00  0.00     0.003 A 
ATOM     17  C   UNL d   1       2.375   7.046   1.124  0.00  0.00     0.024 A 
ATOM     18  C   UNL d   1       1.670   5.835   1.071  0.00  0.00     0.042 A 
ATOM     19 CL   UNL d   1       1.255   5.116   2.590  0.00  0.00    -0.084 Cl
ENDBRANCH  11  12
ENDBRANCH  10  11
ENDBRANCH   8  10
BRANCH   9  20
ATOM     20  O   UNL d   1       1.198  -2.309   0.086  0.00  0.00    -0.332 OA
ATOM     21  H   UNL d   1       2.119  -2.000   0.059  0.00  0.00     0.221 HD
ENDBRANCH   9  20
BRANCH   5  22
ATOM     22  C   UNL d   1      -2.815   0.082   0.017  0.00  0.00     0.008 A 
ATOM     23  C   UNL d   1      -3.560  -1.119   0.100  0.00  0.00     0.017 A 
ATOM     24  C   UNL d   1      -4.960  -1.125   0.120  0.00  0.00     0.025 A 
ATOM     25  C   UNL d   1      -5.651   0.078   0.056  0.00  0.00     0.034 A 
ATOM     26  C   UNL d   1      -4.954   1.279  -0.026  0.00  0.00     0.025 A 
ATOM     27 CL   UNL d   1      -7.371   0.079   0.079  0.00  0.00    -0.084 Cl
ATOM     28  C   UNL d   1      -3.551   1.279  -0.045  0.00  0.00     0.017 A 
ENDBRANCH   5  22
TORSDOF 5
