REMARK  6 active torsions:
REMARK  status: ('A' for Active; 'I' for Inactive)
REMARK    1  A    between atoms: C_4  and  C_1 
REMARK    2  A    between atoms: C_2  and  C_11 
REMARK    3  A    between atoms: C_3  and  C_12 
REMARK    4  A    between atoms: N_25  and  C_3 
REMARK    5  A    between atoms: N_10  and  N_5 
REMARK       I    between atoms: C_7  and  N_10 
REMARK    6  A    between atoms: C_13  and  C_7 
ROOT
ATOM      1  C   UNL d   1      -0.378   4.783  -2.711  0.00  0.00     0.119 C 
ATOM      2  N   UNL d   1       0.114   5.943  -2.384  0.00  0.00    -0.286 N 
ATOM      3  HN  UNL d   1      -0.027   6.764  -2.972  1.00  0.00     0.188 HD
ENDROOT
BRANCH   2   4
ATOM      4  N   UNL d   1       0.825   6.014  -1.226  0.00  0.00    -0.265 N 
ATOM      5  C   UNL d   1       1.386   7.222  -0.848  0.00  0.00     0.270 C 
ATOM      6  O   UNL d   1       1.325   8.266  -1.491  0.00  0.00    -0.266 OA
ATOM      7  H   UNL d   1       0.878   5.178  -0.660  0.00  0.00     0.190 HD
BRANCH   5   8
ATOM      8  C   UNL d   1       2.160   7.209   0.426  0.00  0.00     0.034 A 
ATOM      9  C   UNL d   1       3.222   8.117   0.560  0.00  0.00     0.033 A 
ATOM     10  C   UNL d   1       4.011   8.136   1.721  0.00  0.00     0.048 A 
ATOM     11  C   UNL d   1       3.710   7.236   2.755  0.00  0.00     0.016 A 
ATOM     12  C   UNL d   1       2.640   6.348   2.638  0.00  0.00     0.002 A 
ATOM     13  C   UNL d   1       1.862   6.335   1.479  0.00  0.00     0.017 A 
BRANCH  10  14
ATOM     14  C   UNL d   1       5.167   9.095   1.867  0.00  0.00     0.417 C 
ATOM     15  F   UNL d   1       5.349   9.907   0.791  0.00  0.00    -0.166 F 
ATOM     16  F   UNL d   1       5.026   9.920   2.941  0.00  0.00    -0.166 F 
ATOM     17  F   UNL d   1       6.352   8.447   2.049  0.00  0.00    -0.166 F 
ENDBRANCH  10  14
ENDBRANCH   5   8
ENDBRANCH   2   4
BRANCH   1  18
ATOM     18  C   UNL d   1      -1.212   4.707  -3.966  0.00  0.00     0.071 A 
ATOM     19  C   UNL d   1      -1.496   5.847  -4.707  0.00  0.00     0.034 A 
ATOM     20  C   UNL d   1      -2.254   5.707  -5.866  0.00  0.00     0.020 A 
ATOM     21  C   UNL d   1      -2.705   4.439  -6.251  0.00  0.00     0.063 A 
ATOM     22  C   UNL d   1      -2.364   3.360  -5.443  0.00  0.00     0.104 A 
ATOM     23  N   UNL d   1      -1.623   3.454  -4.311  0.00  0.00    -0.362 N 
ATOM     24  HN  UNL d   1      -1.388   2.635  -3.751  1.00  0.00     0.165 HD
BRANCH  21  25
ATOM     25  C   UNL d   1      -3.523   4.250  -7.492  0.00  0.00     0.418 C 
ATOM     26  F   UNL d   1      -3.886   2.956  -7.712  0.00  0.00    -0.166 F 
ATOM     27  F   UNL d   1      -2.864   4.648  -8.615  0.00  0.00    -0.166 F 
ATOM     28  F   UNL d   1      -4.682   4.963  -7.466  0.00  0.00    -0.166 F 
ENDBRANCH  21  25
ENDBRANCH   1  18
BRANCH   1  29
ATOM     29  N   UNL d   1      -0.159   3.607  -2.010  0.00  0.00    -0.286 NA
ATOM     30  H   UNL d   1      -0.512   2.809  -2.544  0.00  0.00     0.125 HD
ATOM     31  H   UNL d   1       0.815   3.460  -1.783  0.00  0.00     0.125 HD
ENDBRANCH   1  29
TORSDOF 6
