REMARK  2 active torsions:
REMARK  status: ('A' for Active; 'I' for Inactive)
REMARK    1  A    between atoms: C_2  and  C_1 
REMARK       I    between atoms: N_3  and  C_1 
REMARK    2  A    between atoms: N_4  and  C_5 
ROOT
ATOM      1  C   UNL d   1       1.148  -0.138  -0.019  0.00  0.00     0.255 C 
ATOM      2  N   UNL d   1       0.230  -0.770   0.852  0.00  0.00    -0.348 N 
ATOM      3  C   UNL d   1      -1.879  -1.890   2.556  0.00  0.00     0.091 C 
ATOM      4  C   UNL d   1      -2.120  -1.567   1.079  0.00  0.00     0.045 C 
ATOM      5  C   UNL d   1      -0.740  -1.052   3.133  0.00  0.00     0.045 C 
ATOM      6  C   UNL d   1      -0.851  -1.536   0.233  0.00  0.00     0.128 C 
ATOM      7  C   UNL d   1       0.502  -1.052   2.263  0.00  0.00     0.128 C 
ATOM      8  O   UNL d   1       0.969  -0.048  -1.227  0.00  0.00    -0.267 OA
ENDROOT
BRANCH   1   9
ATOM      9  C   UNL d   1       2.409   0.420   0.546  0.00  0.00     0.053 A 
ATOM     10  C   UNL d   1       2.770   1.765   0.382  0.00  0.00     0.049 A 
ATOM     11 CL   UNL d   1       1.845   2.887  -0.547  0.00  0.00    -0.083 Cl
ATOM     12  C   UNL d   1       3.913   2.253   1.027  0.00  0.00     0.025 A 
ATOM     13  C   UNL d   1       4.683   1.418   1.841  0.00  0.00     0.002 A 
ATOM     14  C   UNL d   1       4.353   0.070   1.959  0.00  0.00     0.001 A 
ATOM     15  C   UNL d   1       3.256  -0.435   1.268  0.00  0.00     0.019 A 
ENDBRANCH   1   9
BRANCH   3  16
ATOM     16  N   UNL d   1      -1.761  -3.316   2.864  0.00  0.00    -0.362 N 
ATOM     17  C   UNL d   1      -0.807  -4.198   2.428  0.00  0.00     0.091 A 
ATOM     18  C   UNL d   1      -1.043  -5.422   3.016  0.00  0.00     0.019 A 
ATOM     19  C   UNL d   1      -2.188  -5.284   3.830  0.00  0.00     0.019 A 
ATOM     20  C   UNL d   1      -2.611  -3.979   3.719  0.00  0.00     0.091 A 
ENDBRANCH   3  16
TORSDOF 2
