REMARK  7 active torsions:
REMARK  status: ('A' for Active; 'I' for Inactive)
REMARK    1  A    between atoms: C_5  and  C_1 
REMARK       I    between atoms: C_2  and  N_3 
REMARK    2  A    between atoms: C_6  and  C_2 
REMARK    3  A    between atoms: N_3  and  C_4 
REMARK       I    between atoms: N_11  and  C_5 
REMARK    4  A    between atoms: N_7  and  C_19 
REMARK    5  A    between atoms: C_24  and  N_11 
REMARK    6  A    between atoms: C_19  and  C_20 
REMARK    7  A    between atoms: C_20  and  C_24 
ROOT
ATOM      1  C   UNL d   1       1.216  -0.541   0.593  0.00  0.00     0.058 C 
ATOM      2  C   UNL d   1       1.221  -1.210  -0.643  0.00  0.00     0.050 C 
ATOM      3  C   UNL d   1       0.102   0.189   1.013  0.00  0.00     0.019 C 
ATOM      4  C   UNL d   1       0.024  -1.333  -1.347  0.00  0.00     0.030 C 
ATOM      5  C   UNL d   1      -1.067   0.134   0.255  0.00  0.00     0.001 C 
ATOM      6  C   UNL d   1      -1.121  -0.670  -0.888  0.00  0.00     0.002 C 
ENDROOT
BRANCH   1   7
ATOM      7  C   UNL d   1       2.304  -0.826   1.569  0.00  0.00     0.253 C 
ATOM      8  O   UNL d   1       2.884   0.081   2.146  0.00  0.00    -0.268 OA
ATOM      9  N   UNL d   1       2.563  -2.179   1.721  0.00  0.00    -0.357 N 
ATOM     10  H   UNL d   1       2.061  -2.829   1.121  0.00  0.00     0.162 HD
BRANCH   9  11
ATOM     11  C   UNL d   1       3.743  -2.710   2.375  0.00  0.00     0.124 C 
BRANCH  11  12
ATOM     12  C   UNL d   1       3.457  -3.865   3.339  0.00  0.00     0.050 C 
BRANCH  12  13
ATOM     13  C   UNL d   1       2.773  -5.122   2.771  0.00  0.00     0.274 C 
BRANCH  13  14
ATOM     14  N   UNL d   1       3.403  -5.763   1.605  0.00  0.00     0.092 N 
ATOM     15  C   UNL d   1       4.717  -6.390   1.885  0.00  0.00     0.298 C 
ATOM     16  C   UNL d   1       4.676  -7.751   2.611  0.00  0.00     0.198 C 
ATOM     17  O   UNL d   1       3.786  -8.677   1.978  0.00  0.00    -0.388 OA
ATOM     18  C   UNL d   1       2.474  -8.114   1.872  0.00  0.00     0.198 C 
ATOM     19  C   UNL d   1       2.511  -6.816   1.046  0.00  0.00     0.298 C 
ENDBRANCH  13  14
ENDBRANCH  12  13
ENDBRANCH  11  12
ENDBRANCH   9  11
ENDBRANCH   1   7
BRANCH   2  20
ATOM     20  N   UNL d   1       2.455  -1.681  -1.152  0.00  0.00    -0.322 N 
ATOM     21  C   UNL d   1       2.632  -2.899  -1.778  0.00  0.00     0.256 C 
ATOM     22  O   UNL d   1       1.761  -3.738  -1.944  0.00  0.00    -0.267 OA
ATOM     23  H   UNL d   1       3.288  -1.251  -0.761  0.00  0.00     0.169 HD
BRANCH  21  24
ATOM     24  C   UNL d   1       4.043  -3.209  -2.140  0.00  0.00     0.032 A 
ATOM     25  C   UNL d   1       4.902  -2.240  -2.684  0.00  0.00     0.020 A 
ATOM     26  C   UNL d   1       6.195  -2.600  -3.069  0.00  0.00     0.043 A 
ATOM     27  C   UNL d   1       6.623  -3.915  -2.896  0.00  0.00     0.116 A 
ATOM     28  C   UNL d   1       5.797  -4.872  -2.334  0.00  0.00     0.043 A 
ATOM     29  F   UNL d   1       7.859  -4.258  -3.288  0.00  0.00    -0.206 F 
ATOM     30  C   UNL d   1       4.494  -4.522  -1.957  0.00  0.00     0.020 A 
ENDBRANCH  21  24
ENDBRANCH   2  20
TORSDOF 7
