REMARK  2 active torsions:
REMARK  status: ('A' for Active; 'I' for Inactive)
REMARK    1  A    between atoms: N_3  and  C_1 
REMARK       I    between atoms: C_5  and  N_3 
REMARK    2  A    between atoms: C_11  and  C_5 
ROOT
ATOM      1  C   UNL d   1      -1.227  -0.750  -0.570  0.00  0.00     0.100 C 
ATOM      2  C   UNL d   1       0.034  -1.103   0.279  0.00  0.00    -0.022 C 
ATOM      3  C   UNL d   1      -1.227   0.818  -0.572  0.00  0.00    -0.023 C 
ATOM      4  C   UNL d   1       0.017   1.131   0.326  0.00  0.00    -0.004 C 
ATOM      5  C   UNL d   1      -0.013  -0.009   1.354  0.00  0.00     0.016 C 
ATOM      6  C   UNL d   1       1.343  -0.723  -0.453  0.00  0.00     0.011 C 
ATOM      7  C   UNL d   1       1.337   0.810  -0.401  0.00  0.00     0.006 C 
ATOM      8  C   UNL d   1       0.028  -2.519   0.821  0.00  0.00     0.017 C 
ATOM      9  C   UNL d   1      -1.150   1.476  -1.959  0.00  0.00     0.017 C 
ATOM     10  C   UNL d   1      -2.509   1.353   0.107  0.00  0.00     0.017 C 
ENDROOT
BRANCH   1  11
ATOM     11  N   UNL d   1      -1.232  -1.381  -1.879  0.00  0.00    -0.355 N 
ATOM     12  C   UNL d   1      -2.395  -1.691  -2.556  0.00  0.00     0.222 C 
ATOM     13  O   UNL d   1      -3.504  -1.518  -2.057  0.00  0.00    -0.273 OA
ATOM     14  H   UNL d   1      -0.367  -1.436  -2.398  0.00  0.00     0.162 HD
BRANCH  12  15
ATOM     15  C   UNL d   1      -2.129  -2.264  -3.980  0.00  0.00     0.078 C 
ATOM     16  C   UNL d   1      -2.143  -1.247  -5.152  0.00  0.00     0.014 C 
ATOM     17  C   UNL d   1      -2.817  -2.329  -6.013  0.00  0.00     0.002 C 
ATOM     18  C   UNL d   1      -3.294  -2.988  -4.707  0.00  0.00     0.014 C 
ENDBRANCH  12  15
ENDBRANCH   1  11
TORSDOF 2
