REMARK  0 active torsions:
REMARK  status: ('A' for Active; 'I' for Inactive)
ROOT
ATOM      1  C   UNL d   1       2.533   0.003  -0.001  0.00  0.00     0.059 A 
ATOM      2  S   UNL d   1       1.736   1.494  -0.001  0.00  0.00    -0.081 SA
ATOM      3  C   UNL d   1       1.689  -1.086  -0.002  0.00  0.00    -0.026 A 
ATOM      4  C   UNL d   1       0.300  -0.650  -0.001  0.00  0.00    -0.010 A 
ATOM      5  C   UNL d   1       0.190   0.745  -0.001  0.00  0.00     0.017 A 
ATOM      6  C   UNL d   1      -0.904  -1.404  -0.001  0.00  0.00     0.037 A 
ATOM      7 BR   UNL d   1       4.413  -0.081  -0.001  0.00  0.00    -0.042 Br
ATOM      8  C   UNL d   1      -1.061   1.395  -0.000  0.00  0.00     0.021 A 
ATOM      9  C   UNL d   1      -2.144  -0.760   0.000  0.00  0.00     0.035 A 
ATOM     10  C   UNL d   1      -2.225   0.624   0.000  0.00  0.00     0.025 A 
ATOM     11  C   UNL d   1       2.087  -2.530  -0.003  0.00  0.00     0.051 C 
ATOM     12 CL   UNL d   1      -3.587  -1.698   0.002  0.00  0.00    -0.084 Cl
ENDROOT
TORSDOF 0
