REMARK  4 active torsions:
REMARK  status: ('A' for Active; 'I' for Inactive)
REMARK    1  A    between atoms: C_2  and  C_1 
REMARK    2  A    between atoms: C_3  and  C_1 
REMARK    3  A    between atoms: C_4  and  C_1 
REMARK    4  A    between atoms: O_7  and  C_1 
ROOT
ATOM      1  C   UNL d   1       0.839   0.094   0.010  0.00  0.00     0.140 C 
ENDROOT
BRANCH   1   2
ATOM      2  C   UNL d   1       0.595  -1.261  -0.713  0.00  0.00    -0.012 A 
ATOM      3  C   UNL d   1      -0.695  -1.754  -0.970  0.00  0.00     0.028 A 
ATOM      4  C   UNL d   1      -0.856  -2.983  -1.601  0.00  0.00     0.088 A 
ATOM      5  N   UNL d   1       0.165  -3.748  -2.032  0.00  0.00    -0.375 N 
ATOM      6  C   UNL d   1       1.401  -3.255  -1.837  0.00  0.00     0.088 A 
ATOM      7  HN  UNL d   1       0.009  -4.651  -2.481  1.00  0.00     0.164 HD
ATOM      8  C   UNL d   1       1.659  -2.047  -1.201  0.00  0.00     0.028 A 
ENDBRANCH   1   2
BRANCH   1   9
ATOM      9  C   UNL d   1       0.312   0.100   1.478  0.00  0.00    -0.015 A 
ATOM     10  C   UNL d   1       1.173   0.308   2.577  0.00  0.00     0.011 A 
ATOM     11  C   UNL d   1       0.686   0.411   3.885  0.00  0.00     0.001 A 
ATOM     12  C   UNL d   1      -0.677   0.312   4.134  0.00  0.00     0.000 A 
ATOM     13  C   UNL d   1      -1.555   0.121   3.074  0.00  0.00     0.001 A 
ATOM     14  C   UNL d   1      -1.068   0.026   1.766  0.00  0.00     0.011 A 
ENDBRANCH   1   9
BRANCH   1  15
ATOM     15  C   UNL d   1       0.390   1.328  -0.804  0.00  0.00    -0.015 A 
ATOM     16  C   UNL d   1      -0.056   2.509  -0.175  0.00  0.00     0.011 A 
ATOM     17  C   UNL d   1      -0.393   3.650  -0.913  0.00  0.00     0.001 A 
ATOM     18  C   UNL d   1      -0.265   3.649  -2.295  0.00  0.00     0.000 A 
ATOM     19  C   UNL d   1       0.201   2.508  -2.942  0.00  0.00     0.001 A 
ATOM     20  C   UNL d   1       0.529   1.364  -2.206  0.00  0.00     0.011 A 
ENDBRANCH   1  15
BRANCH   1  21
ATOM     21  O   UNL d   1       2.272   0.276   0.070  0.00  0.00    -0.376 OA
ATOM     22  H   UNL d   1       2.609  -0.462   0.602  0.00  0.00     0.211 HD
ENDBRANCH   1  21
TORSDOF 4
