REMARK  3 active torsions:
REMARK  status: ('A' for Active; 'I' for Inactive)
REMARK    1  A    between atoms: C_9  and  C_3 
REMARK    2  A    between atoms: C_8  and  C_4 
REMARK    3  A    between atoms: C_10  and  C_5 
ROOT
ATOM      1  N   UNL d   1      -1.333  -0.053  -0.013  0.00  0.00    -0.355 N 
ATOM      2  HN  UNL d   1      -2.353  -0.087  -0.019  1.00  0.00     0.166 HD
ATOM      3  C   UNL d   1      -0.681   1.137  -0.011  0.00  0.00     0.043 A 
ATOM      4  C   UNL d   1      -0.603  -1.198  -0.008  0.00  0.00     0.043 A 
ATOM      5  C   UNL d   1       1.486   0.039   0.005  0.00  0.00    -0.022 A 
ATOM      6  C   UNL d   1       0.712   1.206  -0.005  0.00  0.00     0.042 A 
ATOM      7  C   UNL d   1       0.792  -1.175  -0.001  0.00  0.00     0.042 A 
ENDROOT
BRANCH   3   8
ATOM      8  C   UNL d   1      -1.525   2.355  -0.041  0.00  0.00    -0.009 A 
ATOM      9  C   UNL d   1      -1.105   3.566   0.540  0.00  0.00     0.014 A 
ATOM     10  C   UNL d   1      -1.877   4.730   0.452  0.00  0.00     0.007 A 
ATOM     11  C   UNL d   1      -3.105   4.717  -0.211  0.00  0.00    -0.062 A 
ATOM     12  C   UNL d   1      -3.555   3.516  -0.768  0.00  0.00     0.007 A 
ATOM     13  C   UNL d   1      -3.908   5.978  -0.322  0.00  0.00     0.048 C 
ATOM     14  C   UNL d   1      -2.777   2.355  -0.680  0.00  0.00     0.014 A 
ENDBRANCH   3   8
BRANCH   4  15
ATOM     15  C   UNL d   1      -1.368  -2.464   0.032  0.00  0.00    -0.009 A 
ATOM     16  C   UNL d   1      -0.883  -3.649  -0.558  0.00  0.00     0.015 A 
ATOM     17  C   UNL d   1      -1.585  -4.856  -0.465  0.00  0.00     0.019 A 
ATOM     18  C   UNL d   1      -2.800  -4.899   0.213  0.00  0.00     0.006 A 
ATOM     19  C   UNL d   1      -3.318  -3.742   0.789  0.00  0.00     0.019 A 
ATOM     20  I   UNL d   1      -3.833  -6.693   0.371  0.00  0.00    -0.045 I 
ATOM     21  C   UNL d   1      -2.609  -2.538   0.693  0.00  0.00     0.015 A 
ENDBRANCH   4  15
BRANCH   5  22
ATOM     22  C   UNL d   1       2.967   0.093   0.039  0.00  0.00    -0.026 A 
ATOM     23  C   UNL d   1       3.683   1.108  -0.624  0.00  0.00     0.012 A 
ATOM     24  C   UNL d   1       5.078   1.175  -0.568  0.00  0.00     0.001 A 
ATOM     25  C   UNL d   1       5.794   0.217   0.142  0.00  0.00     0.000 A 
ATOM     26  C   UNL d   1       5.114  -0.805   0.797  0.00  0.00     0.001 A 
ATOM     27  C   UNL d   1       3.719  -0.862   0.749  0.00  0.00     0.012 A 
ENDBRANCH   5  22
TORSDOF 3
