REMARK  8 active torsions:
REMARK  status: ('A' for Active; 'I' for Inactive)
REMARK    1  A    between atoms: C_3  and  N_1 
REMARK       I    between atoms: C_2  and  N_5 
REMARK    2  A    between atoms: C_10  and  C_2 
REMARK    3  A    between atoms: C_14  and  C_3 
REMARK    4  A    between atoms: C_15  and  C_3 
REMARK    5  A    between atoms: C_4  and  C_16 
REMARK       I    between atoms: N_9  and  C_4 
REMARK    6  A    between atoms: N_5  and  N_9 
REMARK    7  A    between atoms: S_11  and  C_8 
REMARK    8  A    between atoms: C_16  and  S_11 
ROOT
ATOM      1  N   UNL d   1       0.412   0.848  -0.145  0.00  0.00     0.104 N 
ATOM      2  C   UNL d   1      -0.940   0.293   0.037  0.00  0.00     0.290 C 
ATOM      3  C   UNL d   1       1.012  -0.476   0.064  0.00  0.00     0.290 C 
ATOM      4  C   UNL d   1      -0.363  -1.119  -0.229  0.00  0.00     0.104 C 
ENDROOT
BRANCH   4   5
ATOM      5  S   UNL d   1      -0.490  -1.666  -1.991  0.00  0.00    -0.151 SA
BRANCH   5   6
ATOM      6  C   UNL d   1      -1.956  -2.711  -1.811  0.00  0.00     0.178 C 
BRANCH   6   7
ATOM      7  C   UNL d   1      -3.209  -1.870  -1.714  0.00  0.00     0.245 C 
ATOM      8  N   UNL d   1      -3.705  -1.451  -2.932  0.00  0.00    -0.267 N 
ATOM      9  H   UNL d   1      -3.099  -1.365  -3.752  0.00  0.00     0.190 HD
ATOM     10  O   UNL d   1      -3.756  -1.607  -0.643  0.00  0.00    -0.271 OA
BRANCH   8  11
ATOM     11  N   UNL d   1      -4.836  -0.633  -2.924  0.00  0.00    -0.263 N 
ATOM     12  C   UNL d   1      -5.007   0.280  -3.947  0.00  0.00     0.270 C 
ATOM     13  O   UNL d   1      -4.231   0.381  -4.893  0.00  0.00    -0.266 OA
ATOM     14  H   UNL d   1      -5.306  -0.527  -2.023  0.00  0.00     0.190 HD
BRANCH  12  15
ATOM     15  C   UNL d   1      -6.197   1.160  -3.825  0.00  0.00     0.033 A 
ATOM     16  C   UNL d   1      -6.147   2.452  -4.354  0.00  0.00     0.017 A 
ATOM     17  C   UNL d   1      -7.260   3.291  -4.255  0.00  0.00     0.007 A 
ATOM     18  C   UNL d   1      -8.438   2.842  -3.643  0.00  0.00    -0.062 A 
ATOM     19  C   UNL d   1      -8.487   1.542  -3.127  0.00  0.00     0.007 A 
ATOM     20  C   UNL d   1      -9.630   3.749  -3.550  0.00  0.00     0.048 C 
ATOM     21  C   UNL d   1      -7.375   0.702  -3.219  0.00  0.00     0.017 A 
ENDBRANCH  12  15
ENDBRANCH   8  11
ENDBRANCH   6   7
ENDBRANCH   5   6
ENDBRANCH   4   5
BRANCH   1  22
ATOM     22  C   UNL d   1       0.796   1.908   0.811  0.00  0.00     0.289 C 
BRANCH  22  23
ATOM     23  C   UNL d   1       0.850   1.585   2.317  0.00  0.00    -0.021 A 
ATOM     24  C   UNL d   1       2.012   1.114   2.954  0.00  0.00     0.010 A 
ATOM     25  C   UNL d   1       2.058   0.905   4.336  0.00  0.00     0.001 A 
ATOM     26  C   UNL d   1       0.935   1.154   5.115  0.00  0.00     0.000 A 
ATOM     27  C   UNL d   1      -0.235   1.605   4.511  0.00  0.00     0.001 A 
ATOM     28  C   UNL d   1      -0.277   1.820   3.128  0.00  0.00     0.010 A 
ENDBRANCH  22  23
BRANCH  22  29
ATOM     29  C   UNL d   1       2.046   2.658   0.309  0.00  0.00    -0.021 A 
ATOM     30  C   UNL d   1       2.018   4.055   0.161  0.00  0.00     0.010 A 
ATOM     31  C   UNL d   1       3.154   4.754  -0.258  0.00  0.00     0.001 A 
ATOM     32  C   UNL d   1       4.340   4.072  -0.525  0.00  0.00     0.000 A 
ATOM     33  C   UNL d   1       4.387   2.689  -0.391  0.00  0.00     0.001 A 
ATOM     34  C   UNL d   1       3.248   1.990   0.009  0.00  0.00     0.010 A 
ENDBRANCH  22  29
ENDBRANCH   1  22
TORSDOF 8
