REMARK  4 active torsions:
REMARK  status: ('A' for Active; 'I' for Inactive)
REMARK       I    between atoms: N_3  and  C_1 
REMARK       I    between atoms: N_7  and  C_1 
REMARK    1  A    between atoms: C_2  and  N_4 
REMARK    2  A    between atoms: C_6  and  O_15 
REMARK    3  A    between atoms: C_18  and  N_7 
REMARK    4  A    between atoms: O_15  and  C_22 
ROOT
ATOM      1  C   UNL d   1      -0.925   2.271   4.799  0.00  0.00     0.124 A 
ATOM      2  C   UNL d   1      -1.174   3.646   4.953  0.00  0.00     0.088 A 
ATOM      3  C   UNL d   1      -1.024   4.577   3.877  0.00  0.00     0.103 C 
ATOM      4  N   UNL d   1      -0.886   5.358   3.024  0.00  0.00    -0.191 NA
ATOM      5  N   UNL d   1      -1.173   1.411   5.816  0.00  0.00    -0.351 N 
ATOM      6  HN  UNL d   1      -1.004   0.411   5.702  1.00  0.00     0.166 HD
ATOM      7  C   UNL d   1      -1.653   4.127   6.178  0.00  0.00     0.028 A 
ATOM      8  C   UNL d   1      -1.649   1.900   6.984  0.00  0.00     0.090 A 
ATOM      9  C   UNL d   1      -1.901   3.241   7.216  0.00  0.00     0.019 A 
ENDROOT
BRANCH   1  10
ATOM     10  N   UNL d   1      -0.518   1.739   3.575  0.00  0.00    -0.363 N 
ATOM     11  C   UNL d   1      -0.734   0.294   3.374  0.00  0.00     0.144 C 
ATOM     12  C   UNL d   1      -0.671  -0.020   1.859  0.00  0.00     0.147 C 
ATOM     13  N   UNL d   1       0.515   0.552   1.184  0.00  0.00    -0.331 N 
ATOM     14  C   UNL d   1       1.129   0.084   0.025  0.00  0.00     0.323 C 
ATOM     15  C   UNL d   1       0.824   1.945   1.562  0.00  0.00     0.147 C 
ATOM     16  N   UNL d   1       0.684  -1.132  -0.438  0.00  0.00    -0.309 N 
ATOM     17  O   UNL d   1       2.016   0.740  -0.516  0.00  0.00    -0.247 OA
ATOM     18  H   UNL d   1      -0.136  -1.516  -0.006  0.00  0.00     0.170 HD
ATOM     19  C   UNL d   1       0.814   2.145   3.083  0.00  0.00     0.144 C 
BRANCH  16  20
ATOM     20  C   UNL d   1       1.147  -1.833  -1.574  0.00  0.00     0.036 A 
ATOM     21  C   UNL d   1       2.229  -1.433  -2.361  0.00  0.00     0.032 A 
ATOM     22  C   UNL d   1       2.576  -2.139  -3.522  0.00  0.00     0.039 A 
ATOM     23  C   UNL d   1       1.834  -3.249  -3.912  0.00  0.00     0.078 A 
ATOM     24  C   UNL d   1       0.803  -3.702  -3.087  0.00  0.00     0.039 A 
ATOM     25  C   UNL d   1       0.457  -2.996  -1.931  0.00  0.00     0.032 A 
BRANCH  23  26
ATOM     26  O   UNL d   1       2.020  -3.970  -5.054  0.00  0.00    -0.255 OA
BRANCH  26  27
ATOM     27  C   UNL d   1       2.575  -3.274  -6.160  0.00  0.00     0.530 C 
ATOM     28  F   UNL d   1       2.117  -2.006  -6.255  0.00  0.00    -0.144 F 
ATOM     29  F   UNL d   1       3.922  -3.260  -6.080  0.00  0.00    -0.144 F 
ATOM     30  F   UNL d   1       2.225  -3.924  -7.294  0.00  0.00    -0.144 F 
ENDBRANCH  26  27
ENDBRANCH  23  26
ENDBRANCH  16  20
ENDBRANCH   1  10
TORSDOF 4
