REMARK  3 active torsions:
REMARK  status: ('A' for Active; 'I' for Inactive)
REMARK    1  A    between atoms: C_2  and  S_1 
REMARK    2  A    between atoms: N_3  and  S_1 
REMARK    3  A    between atoms: C_5  and  N_4 
ROOT
ATOM      1  C   UNL d   1      -0.640  -4.870  -2.626  0.00  0.00     0.103 A 
ATOM      2  N   UNL d   1      -0.223  -6.148  -2.762  0.00  0.00    -0.351 N 
ATOM      3  HN  UNL d   1       0.107  -6.672  -1.950  1.00  0.00     0.166 HD
ATOM      4  N   UNL d   1      -0.665  -7.291  -7.429  0.00  0.00    -0.191 NA
ATOM      5  C   UNL d   1      -0.650  -6.752  -6.403  0.00  0.00     0.101 C 
ATOM      6  C   UNL d   1      -0.644  -6.081  -5.142  0.00  0.00     0.060 A 
ATOM      7  C   UNL d   1      -1.042  -4.158  -3.759  0.00  0.00     0.050 A 
ATOM      8  C   UNL d   1      -0.246  -6.729  -3.990  0.00  0.00     0.112 A 
ATOM      9  C   UNL d   1      -1.040  -4.758  -5.022  0.00  0.00     0.028 A 
ENDROOT
BRANCH   1  10
ATOM     10  N   UNL d   1      -0.655  -4.306  -1.368  0.00  0.00    -0.366 N 
ATOM     11  C   UNL d   1      -1.536  -3.196  -1.003  0.00  0.00     0.140 C 
ATOM     12  C   UNL d   1      -0.814  -1.849  -1.079  0.00  0.00     0.127 C 
ATOM     13  N   UNL d   1       0.349  -1.727  -0.126  0.00  0.00    -0.204 NA
ATOM     14  C   UNL d   1       1.454  -2.691  -0.458  0.00  0.00     0.109 C 
ATOM     15  C   UNL d   1       1.266  -4.067   0.183  0.00  0.00     0.035 C 
ATOM     16  C   UNL d   1       0.078  -4.919  -0.269  0.00  0.00     0.125 C 
BRANCH  13  17
ATOM     17  S   UNL d   1       0.915  -0.087  -0.069  0.00  0.00     0.250 S 
ATOM     18  O   UNL d   1       2.098  -0.020   0.758  0.00  0.00    -0.205 OA
ATOM     19  O   UNL d   1       0.914   0.423  -1.426  0.00  0.00    -0.205 OA
BRANCH  17  20
ATOM     20  C   UNL d   1      -0.306   0.895   0.782  0.00  0.00     0.115 A 
ATOM     21  S   UNL d   1      -0.601   0.472   2.414  0.00  0.00    -0.089 SA
ATOM     22  C   UNL d   1      -1.734   1.740   2.606  0.00  0.00     0.051 A 
ATOM     23  C   UNL d   1      -1.909   2.458   1.444  0.00  0.00     0.009 A 
ATOM     24  C   UNL d   1      -1.081   1.972   0.389  0.00  0.00     0.033 A 
ENDBRANCH  17  20
ENDBRANCH  13  17
ENDBRANCH   1  10
TORSDOF 3
