REMARK  4 active torsions:
REMARK  status: ('A' for Active; 'I' for Inactive)
REMARK    1  A    between atoms: C_2  and  S_1 
REMARK    2  A    between atoms: N_7  and  S_1 
REMARK    3  A    between atoms: C_3  and  C_6 
REMARK    4  A    between atoms: O_13  and  C_3 
ROOT
ATOM      1  C   UNL d   1       0.413   0.163   1.678  0.00  0.00     0.074 A 
ATOM      2  C   UNL d   1      -0.347   0.249   4.363  0.00  0.00     0.037 A 
ATOM      3  C   UNL d   1       0.181  -1.030   2.371  0.00  0.00     0.026 A 
ATOM      4  C   UNL d   1       0.278   1.398   2.316  0.00  0.00     0.026 A 
ATOM      5  C   UNL d   1      -0.108   1.438   3.658  0.00  0.00     0.020 A 
ATOM      6  C   UNL d   1      -0.209  -0.987   3.713  0.00  0.00     0.020 A 
ENDROOT
BRANCH   1   7
ATOM      7  S   UNL d   1       0.840   0.113  -0.039  0.00  0.00     0.239 S 
ATOM      8  O   UNL d   1       0.724  -1.247  -0.516  0.00  0.00    -0.206 OA
ATOM      9  O   UNL d   1       2.022   0.915  -0.243  0.00  0.00    -0.206 OA
BRANCH   7  10
ATOM     10  N   UNL d   1      -0.436   0.943  -0.745  0.00  0.00    -0.225 NA
ATOM     11  H   UNL d   1      -1.013   0.303  -1.293  0.00  0.00     0.136 HD
ATOM     12  H   UNL d   1      -0.080   1.735  -1.282  0.00  0.00     0.136 HD
ENDBRANCH   7  10
ENDBRANCH   1   7
BRANCH   2  13
ATOM     13  C   UNL d   1      -0.803   0.356   5.773  0.00  0.00     0.176 C 
ATOM     14  O   UNL d   1      -1.423   1.321   6.190  0.00  0.00    -0.646 OA
BRANCH  13  15
ATOM     15  O   UNL d   1      -0.450  -0.684   6.554  0.00  0.00    -0.773 OA
ATOM     16  H   UNL d   1       0.196  -1.301   6.166  0.00  0.00     0.167 HD
ENDBRANCH  13  15
ENDBRANCH   2  13
TORSDOF 4
