REMARK  5 active torsions:
REMARK  status: ('A' for Active; 'I' for Inactive)
REMARK    1  A    between atoms: C_6  and  N_1 
REMARK    2  A    between atoms: N_7  and  C_6 
REMARK    3  A    between atoms: C_14  and  N_7 
REMARK    4  A    between atoms: C_19  and  N_7 
REMARK    5  A    between atoms: C_16  and  C_19 
ROOT
ATOM      1  N   UNL d   1      -4.453   7.670   1.762  0.00  0.00    -0.197 NA
ATOM      2  C   UNL d   1      -3.970   6.618   1.689  0.00  0.00     0.060 C 
ATOM      3  C   UNL d   1      -3.391   5.272   1.579  0.00  0.00     0.154 C 
ENDROOT
BRANCH   3   4
ATOM      4  C   UNL d   1      -3.082   4.939   0.105  0.00  0.00     0.289 C 
BRANCH   4   5
ATOM      5  N   UNL d   1      -2.436   3.614  -0.117  0.00  0.00     0.111 N 
BRANCH   5   6
ATOM      6  C   UNL d   1      -3.420   2.557   0.203  0.00  0.00     0.406 C 
BRANCH   6   7
ATOM      7  N   UNL d   1      -2.825   1.288   0.533  0.00  0.00    -0.283 N 
ATOM      8  C   UNL d   1      -1.906   1.113   1.565  0.00  0.00     0.300 C 
ATOM      9  C   UNL d   1      -1.748  -0.419   1.717  0.00  0.00     0.252 C 
ATOM     10  O   UNL d   1      -1.377   1.926   2.294  0.00  0.00    -0.263 OA
ATOM     11  O   UNL d   1      -0.947  -1.018   2.396  0.00  0.00    -0.281 OA
ATOM     12  C   UNL d   1      -2.795  -1.002   0.884  0.00  0.00     0.048 A 
ATOM     13  C   UNL d   1      -3.420   0.047   0.211  0.00  0.00     0.054 A 
ATOM     14  C   UNL d   1      -3.205  -2.319   0.794  0.00  0.00     0.037 A 
ATOM     15  C   UNL d   1      -4.515  -0.210  -0.596  0.00  0.00     0.032 A 
ATOM     16  C   UNL d   1      -4.970  -1.533  -0.692  0.00  0.00     0.021 A 
ATOM     17  C   UNL d   1      -4.319  -2.573  -0.002  0.00  0.00     0.012 A 
ATOM     18 BR   UNL d   1      -4.995  -4.334  -0.130  0.00  0.00    -0.051 Br
ENDBRANCH   6   7
ENDBRANCH   5   6
BRANCH   5  19
ATOM     19  C   UNL d   1      -1.875   3.475  -1.504  0.00  0.00     0.225 C 
ATOM     20  C   UNL d   1      -0.899   2.281  -1.650  0.00  0.00     0.036 C 
ATOM     21  C   UNL d   1       0.378   2.468  -0.826  0.00  0.00     0.002 C 
ATOM     22  C   UNL d   1       1.118   3.742  -1.221  0.00  0.00     0.000 C 
ATOM     23  C   UNL d   1       0.201   4.962  -1.228  0.00  0.00     0.002 C 
ATOM     24  C   UNL d   1      -1.074   4.699  -2.034  0.00  0.00     0.036 C 
ENDBRANCH   5  19
ENDBRANCH   4   5
ENDBRANCH   3   4
TORSDOF 5
