REMARK  11 active torsions:
REMARK  status: ('A' for Active; 'I' for Inactive)
REMARK    1  A    between atoms: C_21  and  C_1 
REMARK    2  A    between atoms: C_7  and  N_10 
REMARK    3  A    between atoms: N_11  and  C_7 
REMARK    4  A    between atoms: C_8  and  C_23 
REMARK       I    between atoms: N_12  and  C_8 
REMARK    5  A    between atoms: C_9  and  C_14 
REMARK    6  A    between atoms: O_22  and  C_9 
REMARK    7  A    between atoms: N_10  and  N_12 
REMARK    8  A    between atoms: C_20  and  N_11 
REMARK    9  A    between atoms: S_19  and  C_21 
REMARK   10  A    between atoms: C_23  and  S_19 
REMARK   11  A    between atoms: C_31  and  O_22 
ROOT
ATOM      1  C   UNL d   1      -3.284   5.907  -0.039  0.00  0.00     0.245 C 
ATOM      2  N   UNL d   1      -2.618   6.394  -1.137  0.00  0.00    -0.267 N 
ATOM      3  O   UNL d   1      -3.717   6.631   0.859  0.00  0.00    -0.271 OA
ATOM      4  H   UNL d   1      -2.453   5.798  -1.955  0.00  0.00     0.190 HD
ENDROOT
BRANCH   2   5
ATOM      5  N   UNL d   1      -2.562   7.780  -1.336  0.00  0.00    -0.274 N 
ATOM      6  H   UNL d   1      -2.800   8.341  -0.516  0.00  0.00     0.189 HD
BRANCH   5   7
ATOM      7  C   UNL d   1      -1.690   8.336  -2.242  0.00  0.00     0.191 C 
ATOM      8  S   UNL d   1      -0.521   7.542  -3.123  0.00  0.00    -0.039 SA
BRANCH   7   9
ATOM      9  N   UNL d   1      -1.794   9.686  -2.414  0.00  0.00    -0.332 N 
ATOM     10  H   UNL d   1      -0.972  10.104  -2.837  0.00  0.00     0.168 HD
BRANCH   9  11
ATOM     11  C   UNL d   1      -2.976  10.408  -2.682  0.00  0.00     0.034 A 
ATOM     12  C   UNL d   1      -2.858  11.799  -2.725  0.00  0.00     0.030 A 
ATOM     13  C   UNL d   1      -3.938  12.589  -3.114  0.00  0.00     0.020 A 
ATOM     14  C   UNL d   1      -5.130  11.979  -3.510  0.00  0.00     0.039 A 
ATOM     15  C   UNL d   1      -5.261  10.590  -3.458  0.00  0.00     0.020 A 
ATOM     16  C   UNL d   1      -4.187   9.800  -3.028  0.00  0.00     0.030 A 
BRANCH  14  17
ATOM     17  C   UNL d   1      -6.253  12.849  -3.918  0.00  0.00     0.293 C 
ATOM     18  O   UNL d   1      -6.438  13.976  -3.462  0.00  0.00    -0.259 OA
BRANCH  17  19
ATOM     19  O   UNL d   1      -7.031  12.192  -4.810  0.00  0.00    -0.318 OA
BRANCH  19  20
ATOM     20  C   UNL d   1      -8.355  12.718  -4.948  0.00  0.00     0.174 C 
ATOM     21  C   UNL d   1      -9.212  12.030  -3.902  0.00  0.00     0.034 C 
ENDBRANCH  19  20
ENDBRANCH  17  19
ENDBRANCH  14  17
ENDBRANCH   9  11
ENDBRANCH   7   9
ENDBRANCH   5   7
ENDBRANCH   2   5
BRANCH   1  22
ATOM     22  C   UNL d   1      -3.576   4.405  -0.071  0.00  0.00     0.178 C 
BRANCH  22  23
ATOM     23  S   UNL d   1      -2.309   3.404  -0.938  0.00  0.00    -0.155 SA
BRANCH  23  24
ATOM     24  C   UNL d   1      -0.862   3.628   0.170  0.00  0.00     0.114 C 
BRANCH  24  25
ATOM     25  C   UNL d   1       0.358   2.814  -0.296  0.00  0.00    -0.036 C 
ATOM     26  C   UNL d   1       1.213   3.311  -1.320  0.00  0.00    -0.048 C 
ATOM     27  C   UNL d   1       2.215   2.488  -1.891  0.00  0.00    -0.049 C 
ATOM     28  C   UNL d   1       1.064   4.719  -1.829  0.00  0.00     0.049 C 
ATOM     29  C   UNL d   1       2.983   2.922  -3.124  0.00  0.00     0.049 C 
ATOM     30  C   UNL d   1       2.538   1.256  -1.278  0.00  0.00    -0.049 C 
ATOM     31  C   UNL d   1       1.780   0.795  -0.169  0.00  0.00    -0.049 C 
ATOM     32  C   UNL d   1       3.725   0.478  -1.818  0.00  0.00     0.049 C 
ATOM     33  C   UNL d   1       0.646   1.537   0.275  0.00  0.00    -0.048 C 
ATOM     34  C   UNL d   1       2.229  -0.484   0.502  0.00  0.00     0.049 C 
ATOM     35  C   UNL d   1      -0.258   1.024   1.376  0.00  0.00     0.049 C 
ENDBRANCH  24  25
ENDBRANCH  23  24
ENDBRANCH  22  23
ENDBRANCH   1  22
TORSDOF 11
