REMARK  7 active torsions:
REMARK  status: ('A' for Active; 'I' for Inactive)
REMARK    1  A    between atoms: C_2  and  N_1 
REMARK    2  A    between atoms: C_5  and  N_1 
REMARK    3  A    between atoms: C_6  and  N_1 
REMARK    4  A    between atoms: O_3  and  C_9 
REMARK    5  A    between atoms: O_4  and  C_10 
REMARK    6  A    between atoms: C_9  and  C_5 
REMARK    7  A    between atoms: C_10  and  C_6 
ROOT
ATOM      1  N   UNL d   1       0.919   0.029   0.076  0.00  0.00    -0.377 N 
ENDROOT
BRANCH   1   2
ATOM      2  C   UNL d   1       0.239   0.196   1.280  0.00  0.00     0.030 A 
ATOM      3  C   UNL d   1      -1.121  -0.136   1.417  0.00  0.00     0.029 A 
ATOM      4  C   UNL d   1      -1.831   0.068   2.609  0.00  0.00     0.002 A 
ATOM      5  C   UNL d   1      -1.192   0.607   3.715  0.00  0.00     0.000 A 
ATOM      6  C   UNL d   1       0.157   0.922   3.630  0.00  0.00     0.002 A 
ATOM      7  C   UNL d   1       0.859   0.708   2.434  0.00  0.00     0.029 A 
ENDBRANCH   1   2
BRANCH   1   8
ATOM      8  C   UNL d   1       0.189  -0.076  -1.199  0.00  0.00     0.149 C 
BRANCH   8   9
ATOM      9  C   UNL d   1      -0.454   1.257  -1.599  0.00  0.00     0.183 C 
BRANCH   9  10
ATOM     10  O   UNL d   1      -1.077   1.140  -2.876  0.00  0.00    -0.399 OA
ATOM     11  H   UNL d   1      -1.501   1.997  -3.056  0.00  0.00     0.209 HD
ENDBRANCH   9  10
ENDBRANCH   8   9
ENDBRANCH   1   8
BRANCH   1  12
ATOM     12  C   UNL d   1       2.379   0.186  -0.030  0.00  0.00     0.149 C 
BRANCH  12  13
ATOM     13  C   UNL d   1       3.108  -1.096   0.385  0.00  0.00     0.183 C 
BRANCH  13  14
ATOM     14  O   UNL d   1       4.519  -0.916   0.282  0.00  0.00    -0.399 OA
ATOM     15  H   UNL d   1       4.926  -1.755   0.559  0.00  0.00     0.209 HD
ENDBRANCH  13  14
ENDBRANCH  12  13
ENDBRANCH   1  12
TORSDOF 7
