REMARK  5 active torsions:
REMARK  status: ('A' for Active; 'I' for Inactive)
REMARK    1  A    between atoms: C_2  and  S_1 
REMARK    2  A    between atoms: N_4  and  S_1 
REMARK    3  A    between atoms: C_13  and  N_6 
REMARK    4  A    between atoms: C_16  and  C_13 
REMARK    5  A    between atoms: C_17  and  C_13 
ROOT
ATOM      1  N   UNL d   1       0.641   0.907  -0.751  0.00  0.00    -0.203 NA
ATOM      2  N   UNL d   1      -0.861   2.880   0.957  0.00  0.00     0.104 N 
ATOM      3  C   UNL d   1       1.107   2.308  -0.569  0.00  0.00     0.138 C 
ATOM      4  C   UNL d   1      -0.854   0.878  -0.674  0.00  0.00     0.138 C 
ATOM      5  C   UNL d   1       0.602   2.916   0.746  0.00  0.00     0.289 C 
ATOM      6  C   UNL d   1      -1.373   1.516   0.638  0.00  0.00     0.289 C 
ENDROOT
BRANCH   2   7
ATOM      7  C   UNL d   1      -1.633   3.959   0.276  0.00  0.00     0.289 C 
BRANCH   7   8
ATOM      8  C   UNL d   1      -3.109   3.926   0.703  0.00  0.00    -0.021 A 
ATOM      9  C   UNL d   1      -3.477   4.062   2.055  0.00  0.00     0.010 A 
ATOM     10  C   UNL d   1      -4.814   3.987   2.446  0.00  0.00     0.001 A 
ATOM     11  C   UNL d   1      -5.805   3.763   1.494  0.00  0.00     0.000 A 
ATOM     12  C   UNL d   1      -5.460   3.616   0.152  0.00  0.00     0.001 A 
ATOM     13  C   UNL d   1      -4.122   3.702  -0.244  0.00  0.00     0.010 A 
ENDBRANCH   7   8
BRANCH   7  14
ATOM     14  C   UNL d   1      -1.074   5.382   0.466  0.00  0.00    -0.021 A 
ATOM     15  C   UNL d   1      -1.189   6.317  -0.578  0.00  0.00     0.010 A 
ATOM     16  C   UNL d   1      -0.649   7.600  -0.456  0.00  0.00     0.001 A 
ATOM     17  C   UNL d   1       0.009   7.974   0.714  0.00  0.00     0.000 A 
ATOM     18  C   UNL d   1       0.094   7.080   1.776  0.00  0.00     0.001 A 
ATOM     19  C   UNL d   1      -0.463   5.803   1.662  0.00  0.00     0.010 A 
ENDBRANCH   7  14
ENDBRANCH   2   7
BRANCH   1  20
ATOM     20  S   UNL d   1       1.403  -0.314   0.171  0.00  0.00     0.250 S 
ATOM     21  O   UNL d   1       1.152  -0.064   1.575  0.00  0.00    -0.205 OA
ATOM     22  O   UNL d   1       1.073  -1.593  -0.417  0.00  0.00    -0.205 OA
BRANCH  20  23
ATOM     23  C   UNL d   1       3.167  -0.158   0.041  0.00  0.00     0.116 A 
ATOM     24  S   UNL d   1       3.825  -0.090  -1.537  0.00  0.00    -0.065 SA
ATOM     25  C   UNL d   1       5.375   0.203  -0.921  0.00  0.00     0.075 A 
ATOM     26 CL   UNL d   1       6.674   0.513  -2.002  0.00  0.00    -0.076 Cl
ATOM     27  C   UNL d   1       5.442   0.175   0.445  0.00  0.00     0.033 A 
ATOM     28  C   UNL d   1       4.153  -0.051   1.010  0.00  0.00     0.034 A 
ENDBRANCH  20  23
ENDBRANCH   1  20
TORSDOF 5
