REMARK  1 active torsions:
REMARK  status: ('A' for Active; 'I' for Inactive)
REMARK    1  A    between atoms: N_2  and  C_6 
ROOT
ATOM      1  S   UNL d   1       1.378   0.215  -0.006  0.00  0.00     0.197 S 
ATOM      2  C   UNL d   1      -0.367   0.325   0.006  0.00  0.00     0.076 A 
ATOM      3  C   UNL d   1      -1.116   1.489   0.008  0.00  0.00     0.060 A 
ATOM      4  C   UNL d   1       1.346  -1.525  -0.022  0.00  0.00     0.115 A 
ATOM      5  C   UNL d   1      -2.506   1.333  -0.001  0.00  0.00     0.104 A 
ATOM      6  C   UNL d   1       0.094  -2.010  -0.013  0.00  0.00     0.025 A 
ATOM      7  C   UNL d   1      -0.917  -0.957  -0.001  0.00  0.00    -0.014 A 
ATOM      8  O   UNL d   1       1.859   0.700   1.268  0.00  0.00    -0.218 OA
ATOM      9  O   UNL d   1       1.841   0.723  -1.279  0.00  0.00    -0.218 OA
ATOM     10  C   UNL d   1      -3.096   0.047  -0.008  0.00  0.00     0.037 A 
ATOM     11  C   UNL d   1      -2.295  -1.105  -0.006  0.00  0.00     0.015 A 
ENDROOT
BRANCH   5  12
ATOM     12  N   UNL d   1      -3.370   2.522  -0.012  0.00  0.00    -0.116 N 
ATOM     13  O   UNL d   1      -2.819   3.631  -0.012  0.00  0.00    -0.532 OA
ATOM     14  O   UNL d   1      -4.595   2.342  -0.021  0.00  0.00    -0.532 OA
ENDBRANCH   5  12
TORSDOF 1
