REMARK  2 active torsions:
REMARK  status: ('A' for Active; 'I' for Inactive)
REMARK    1  A    between atoms: C_7  and  C_2 
REMARK    2  A    between atoms: N_8  and  C_3 
ROOT
ATOM      1  C   UNL d   1      -0.338  -1.214   0.126  0.00  0.00     0.108 A 
ATOM      2  C   UNL d   1       0.949  -0.709  -0.025  0.00  0.00     0.058 A 
ATOM      3  C   UNL d   1      -1.345  -0.211  -0.103  0.00  0.00     0.132 A 
ATOM      4  N   UNL d   1      -0.875   1.010  -0.332  0.00  0.00    -0.311 N 
ATOM      5  HN  UNL d   1      -1.443   1.851  -0.434  1.00  0.00     0.176 HD
ATOM      6  S   UNL d   1       0.773   0.953  -0.424  0.00  0.00    -0.011 SA
ATOM      7  C   UNL d   1      -0.634  -2.572   0.455  0.00  0.00     0.104 C 
ATOM      8  N   UNL d   1      -0.869  -3.691   0.667  0.00  0.00    -0.191 NA
ENDROOT
BRANCH   2   9
ATOM      9  C   UNL d   1       2.266  -1.381   0.017  0.00  0.00     0.006 A 
ATOM     10  C   UNL d   1       3.420  -0.868   0.644  0.00  0.00     0.045 A 
ATOM     11 CL   UNL d   1       3.443   0.610   1.546  0.00  0.00    -0.083 Cl
ATOM     12  C   UNL d   1       4.632  -1.579   0.612  0.00  0.00     0.024 A 
ATOM     13  C   UNL d   1       4.712  -2.824  -0.005  0.00  0.00     0.002 A 
ATOM     14  C   UNL d   1       3.582  -3.362  -0.605  0.00  0.00     0.001 A 
ATOM     15  C   UNL d   1       2.383  -2.643  -0.608  0.00  0.00     0.014 A 
ENDBRANCH   2   9
BRANCH   3  16
ATOM     16  N   UNL d   1      -2.672  -0.531  -0.041  0.00  0.00    -0.362 N 
ATOM     17  C   UNL d   1      -3.635   0.476   0.444  0.00  0.00     0.150 C 
ATOM     18  C   UNL d   1      -4.913  -0.262   0.890  0.00  0.00     0.187 C 
ATOM     19  O   UNL d   1      -5.476  -1.049  -0.177  0.00  0.00    -0.388 OA
ATOM     20  C   UNL d   1      -4.519  -2.006  -0.663  0.00  0.00     0.187 C 
ATOM     21  C   UNL d   1      -3.248  -1.304  -1.162  0.00  0.00     0.150 C 
ENDBRANCH   3  16
TORSDOF 2
