REMARK  3 active torsions:
REMARK  status: ('A' for Active; 'I' for Inactive)
REMARK    1  A    between atoms: C_7  and  C_1 
REMARK    2  A    between atoms: C_14  and  N_2 
REMARK    3  A    between atoms: N_3  and  C_7 
ROOT
ATOM      1  C   UNL d   1       1.051  -0.561  -0.127  0.00  0.00     0.123 A 
ATOM      2  N   UNL d   1      -0.204  -0.710   0.378  0.00  0.00    -0.274 N 
ATOM      3  C   UNL d   1      -0.882   0.431  -0.036  0.00  0.00     0.199 A 
ATOM      4  N   UNL d   1       1.240   0.558  -0.787  0.00  0.00    -0.285 N 
ATOM      5  HN  UNL d   1       2.101   0.886  -1.225  1.00  0.00     0.188 HD
ATOM      6  N   UNL d   1       0.037   1.179  -0.759  0.00  0.00    -0.274 N 
ATOM      7  S   UNL d   1      -2.412   1.014   0.255  0.00  0.00    -0.039 SA
ATOM      8  H   UNL d   1      -0.120   2.088  -1.177  0.00  0.00     0.189 HD
ENDROOT
BRANCH   1   9
ATOM      9  C   UNL d   1       2.201  -1.556  -0.043  0.00  0.00     0.208 C 
BRANCH   9  10
ATOM     10  N   UNL d   1       1.874  -2.939  -0.449  0.00  0.00    -0.337 N 
ATOM     11  C   UNL d   1       1.030  -3.174  -1.560  0.00  0.00     0.052 A 
ATOM     12  C   UNL d   1       0.280  -4.366  -1.652  0.00  0.00     0.032 A 
ATOM     13  C   UNL d   1       0.927  -2.263  -2.628  0.00  0.00     0.031 A 
ATOM     14  C   UNL d   1      -0.592  -4.584  -2.730  0.00  0.00     0.021 A 
ATOM     15  S   UNL d   1       0.380  -5.640  -0.405  0.00  0.00    -0.086 SA
ATOM     16  C   UNL d   1      -0.706  -3.643  -3.749  0.00  0.00     0.002 A 
ATOM     17  C   UNL d   1       0.064  -2.488  -3.705  0.00  0.00     0.002 A 
ATOM     18  C   UNL d   1       1.992  -5.286   0.280  0.00  0.00     0.032 A 
ATOM     19  C   UNL d   1       2.551  -3.991   0.225  0.00  0.00     0.052 A 
ATOM     20  C   UNL d   1       2.679  -6.340   0.903  0.00  0.00     0.021 A 
ATOM     21  C   UNL d   1       3.823  -3.811   0.803  0.00  0.00     0.031 A 
ATOM     22  C   UNL d   1       4.508  -4.866   1.415  0.00  0.00     0.002 A 
ATOM     23  C   UNL d   1       3.936  -6.131   1.465  0.00  0.00     0.002 A 
ENDBRANCH   9  10
ENDBRANCH   1   9
BRANCH   2  24
ATOM     24  C   UNL d   1      -0.725  -1.772   1.160  0.00  0.00     0.043 A 
ATOM     25  C   UNL d   1       0.035  -2.377   2.169  0.00  0.00     0.032 A 
ATOM     26  C   UNL d   1      -0.483  -3.428   2.936  0.00  0.00     0.026 A 
ATOM     27  C   UNL d   1      -1.778  -3.880   2.711  0.00  0.00     0.034 A 
ATOM     28  C   UNL d   1      -2.558  -3.290   1.724  0.00  0.00     0.026 A 
ATOM     29 CL   UNL d   1      -2.418  -5.165   3.658  0.00  0.00    -0.084 Cl
ATOM     30  C   UNL d   1      -2.030  -2.249   0.952  0.00  0.00     0.032 A 
ENDBRANCH   2  24
TORSDOF 3
