REMARK  5 active torsions:
REMARK  status: ('A' for Active; 'I' for Inactive)
REMARK    1  A    between atoms: S_8  and  C_1 
REMARK    2  A    between atoms: C_6  and  C_14 
REMARK       I    between atoms: C_7  and  N_12 
REMARK       I    between atoms: N_17  and  C_7 
REMARK    3  A    between atoms: C_15  and  S_8 
REMARK    4  A    between atoms: N_12  and  C_16 
REMARK    5  A    between atoms: C_20  and  N_17 
ROOT
ATOM      1  C   UNL d   1       2.599   0.574  -2.585  0.00  0.00     0.096 A 
ATOM      2  C   UNL d   1       1.603   0.041  -3.412  0.00  0.00     0.085 A 
ATOM      3  N   UNL d   1       2.666   1.902  -2.310  0.00  0.00    -0.349 N 
ATOM      4  HN  UNL d   1       3.431   2.275  -1.748  1.00  0.00     0.166 HD
ATOM      5  C   UNL d   1       0.606   0.894  -3.937  0.00  0.00    -0.026 A 
ATOM      6  C   UNL d   1       0.620   2.263  -3.571  0.00  0.00    -0.002 A 
ATOM      7  C   UNL d   1       1.580  -1.362  -3.701  0.00  0.00     0.103 C 
ATOM      8  C   UNL d   1       1.704   2.726  -2.790  0.00  0.00     0.043 A 
ATOM      9  N   UNL d   1       1.548  -2.488  -3.961  0.00  0.00    -0.191 NA
ATOM     10  C   UNL d   1      -0.497   0.354  -4.823  0.00  0.00     0.050 C 
ATOM     11  C   UNL d   1      -0.402   3.176  -3.943  0.00  0.00     0.014 A 
ATOM     12  C   UNL d   1       1.756   4.086  -2.493  0.00  0.00     0.030 A 
ATOM     13  C   UNL d   1      -0.340   4.522  -3.596  0.00  0.00     0.001 A 
ATOM     14  C   UNL d   1       0.753   4.984  -2.885  0.00  0.00     0.002 A 
ENDROOT
BRANCH   1  15
ATOM     15  S   UNL d   1       3.716  -0.542  -1.689  0.00  0.00    -0.069 SA
BRANCH  15  16
ATOM     16  C   UNL d   1       5.274   0.310  -1.554  0.00  0.00     0.034 C 
ATOM     17  C   UNL d   1       6.460  -0.178  -2.139  0.00  0.00     0.053 C 
ATOM     18  C   UNL d   1       7.604   0.632  -2.154  0.00  0.00     0.031 C 
ATOM     19  C   UNL d   1       7.689   1.736  -1.313  0.00  0.00     0.002 C 
ATOM     20  C   UNL d   1       6.599   2.075  -0.520  0.00  0.00     0.002 C 
ATOM     21  C   UNL d   1       5.385   1.400  -0.679  0.00  0.00     0.021 C 
BRANCH  17  22
ATOM     22  N   UNL d   1       6.542  -1.528  -2.579  0.00  0.00    -0.307 N 
ATOM     23  C   UNL d   1       7.505  -2.477  -2.234  0.00  0.00     0.325 C 
ATOM     24  N   UNL d   1       8.538  -2.030  -1.448  0.00  0.00    -0.309 N 
ATOM     25  O   UNL d   1       7.341  -3.643  -2.585  0.00  0.00    -0.247 OA
ATOM     26  H   UNL d   1       8.495  -1.065  -1.183  0.00  0.00     0.170 HD
ATOM     27  H   UNL d   1       5.662  -1.989  -2.793  0.00  0.00     0.170 HD
BRANCH  24  28
ATOM     28  C   UNL d   1       9.591  -2.717  -0.819  0.00  0.00     0.037 A 
ATOM     29  C   UNL d   1       9.729  -4.103  -0.772  0.00  0.00     0.045 A 
ATOM     30  C   UNL d   1      10.782  -4.680  -0.032  0.00  0.00     0.050 A 
ATOM     31  C   UNL d   1      11.707  -3.850   0.627  0.00  0.00     0.016 A 
ATOM     32  C   UNL d   1      11.585  -2.468   0.560  0.00  0.00     0.003 A 
ATOM     33  C   UNL d   1      10.528  -1.909  -0.153  0.00  0.00     0.029 A 
BRANCH  30  34
ATOM     34  C   UNL d   1      10.926  -6.176   0.107  0.00  0.00     0.417 C 
ATOM     35  F   UNL d   1      10.017  -6.894  -0.605  0.00  0.00    -0.166 F 
ATOM     36  F   UNL d   1      12.152  -6.616  -0.295  0.00  0.00    -0.166 F 
ATOM     37  F   UNL d   1      10.796  -6.585   1.401  0.00  0.00    -0.166 F 
ENDBRANCH  30  34
ENDBRANCH  24  28
ENDBRANCH  17  22
ENDBRANCH  15  16
ENDBRANCH   1  15
TORSDOF 5
