REMARK  6 active torsions:
REMARK  status: ('A' for Active; 'I' for Inactive)
REMARK    1  A    between atoms: S_7  and  C_3 
REMARK    2  A    between atoms: C_17  and  S_7 
REMARK    3  A    between atoms: C_9  and  N_16 
REMARK    4  A    between atoms: N_18  and  C_9 
REMARK    5  A    between atoms: N_11  and  C_10 
REMARK    6  A    between atoms: N_16  and  N_11 
ROOT
ATOM      1  N   UNL d   1       1.484  -1.229   0.027  0.00  0.00    -0.329 N 
ATOM      2  HN  UNL d   1       1.593  -2.243   0.030  1.00  0.00     0.168 HD
ATOM      3  C   UNL d   1       2.467  -0.258   0.018  0.00  0.00     0.105 A 
ATOM      4  C   UNL d   1       1.942   1.034   0.024  0.00  0.00     0.091 A 
ATOM      5  C   UNL d   1       0.386  -0.531   0.029  0.00  0.00     0.156 A 
ATOM      6  N   UNL d   1       0.586   0.818   0.025  0.00  0.00    -0.298 N 
ATOM      7  S   UNL d   1      -1.307  -0.921   0.018  0.00  0.00    -0.064 SA
ATOM      8  C   UNL d   1       2.601   2.308   0.022  0.00  0.00     0.140 C 
ATOM      9  C   UNL d   1      -0.568   1.575   0.016  0.00  0.00     0.107 A 
ATOM     10  C   UNL d   1      -1.672   0.810   0.008  0.00  0.00     0.071 A 
ENDROOT
BRANCH   3  11
ATOM     11  S   UNL d   1       4.160  -0.704  -0.031  0.00  0.00    -0.070 SA
BRANCH  11  12
ATOM     12  C   UNL d   1       4.534  -0.850   1.706  0.00  0.00     0.007 A 
ATOM     13  C   UNL d   1       3.903  -1.805   2.511  0.00  0.00     0.020 A 
ATOM     14  C   UNL d   1       4.217  -1.901   3.870  0.00  0.00     0.025 A 
ATOM     15  C   UNL d   1       5.167  -1.044   4.424  0.00  0.00     0.034 A 
ATOM     16  C   UNL d   1       5.812  -0.100   3.628  0.00  0.00     0.025 A 
ATOM     17 CL   UNL d   1       5.548  -1.152   6.097  0.00  0.00    -0.084 Cl
ATOM     18  C   UNL d   1       5.500  -0.007   2.269  0.00  0.00     0.020 A 
ENDBRANCH  11  12
ENDBRANCH   3  11
BRANCH   8  19
ATOM     19  N   UNL d   1       1.896   3.391   0.027  0.00  0.00    -0.307 N 
ATOM     20  HN  UNL d   1       0.876   3.366   0.029  1.00  0.00     0.186 HD
BRANCH  19  21
ATOM     21  N   UNL d   1       2.585   4.568   0.032  0.00  0.00    -0.277 N 
ATOM     22  H   UNL d   1       3.601   4.585   0.030  0.00  0.00     0.189 HD
BRANCH  21  23
ATOM     23  C   UNL d   1       1.917   5.764   0.038  0.00  0.00     0.184 C 
ATOM     24  S   UNL d   1       2.700   7.225   0.047  0.00  0.00    -0.040 SA
BRANCH  23  25
ATOM     25  N   UNL d   1       0.565   5.676   0.038  0.00  0.00    -0.375 N 
ATOM     26  H   UNL d   1       0.164   4.750   0.011  0.00  0.00     0.158 HD
ATOM     27  H   UNL d   1      -0.023   6.496   0.030  0.00  0.00     0.158 HD
ENDBRANCH  23  25
ENDBRANCH  21  23
ENDBRANCH  19  21
ENDBRANCH   8  19
TORSDOF 6
