REMARK  8 active torsions:
REMARK  status: ('A' for Active; 'I' for Inactive)
REMARK    1  A    between atoms: C_3  and  N_1 
REMARK       I    between atoms: C_2  and  N_7 
REMARK       I    between atoms: N_5  and  C_2 
REMARK    2  A    between atoms: C_15  and  N_5 
REMARK    3  A    between atoms: N_7  and  C_14 
REMARK    4  A    between atoms: O_11  and  C_13 
REMARK    5  A    between atoms: C_16  and  O_11 
REMARK    6  A    between atoms: C_12  and  C_16 
REMARK    7  A    between atoms: C_14  and  C_12 
REMARK    8  A    between atoms: O_19  and  C_12 
ROOT
ATOM      1  C   UNL d   1      -2.517   5.874  -3.578  0.00  0.00     0.160 C 
ENDROOT
BRANCH   1   2
ATOM      2  C   UNL d   1      -1.600   4.668  -3.318  0.00  0.00     0.209 C 
BRANCH   2   3
ATOM      3  O   UNL d   1      -1.766   3.698  -4.363  0.00  0.00    -0.349 OA
BRANCH   3   4
ATOM      4  C   UNL d   1      -0.967   2.587  -4.289  0.00  0.00     0.069 A 
ATOM      5  C   UNL d   1      -1.077   1.710  -5.374  0.00  0.00     0.039 A 
ATOM      6  C   UNL d   1      -0.322   0.536  -5.425  0.00  0.00     0.039 A 
ATOM      7  C   UNL d   1       0.551   0.236  -4.373  0.00  0.00     0.103 A 
ATOM      8  C   UNL d   1       0.669   1.104  -3.281  0.00  0.00     0.039 A 
ATOM      9  C   UNL d   1      -0.092   2.277  -3.243  0.00  0.00     0.039 A 
BRANCH   7  10
ATOM     10  N   UNL d   1       1.350  -0.996  -4.413  0.00  0.00    -0.116 N 
ATOM     11  O   UNL d   1       2.120  -1.215  -3.466  0.00  0.00    -0.532 OA
ATOM     12  O   UNL d   1       1.208  -1.744  -5.389  0.00  0.00    -0.532 OA
ENDBRANCH   7  10
ENDBRANCH   3   4
ENDBRANCH   2   3
ENDBRANCH   1   2
BRANCH   1  13
ATOM     13  C   UNL d   1      -2.517   6.883  -2.417  0.00  0.00     0.158 C 
BRANCH  13  14
ATOM     14  N   UNL d   1      -1.225   7.536  -2.208  0.00  0.00    -0.340 N 
ATOM     15  C   UNL d   1      -0.310   7.005  -1.329  0.00  0.00     0.320 C 
ATOM     16  N   UNL d   1       0.785   7.816  -1.145  0.00  0.00    -0.309 N 
ATOM     17  O   UNL d   1      -0.504   5.909  -0.809  0.00  0.00    -0.247 OA
ATOM     18  H   UNL d   1       0.730   8.751  -1.523  0.00  0.00     0.170 HD
ATOM     19  H   UNL d   1      -1.148   8.508  -2.471  0.00  0.00     0.164 HD
BRANCH  16  20
ATOM     20  C   UNL d   1       1.858   7.560  -0.259  0.00  0.00     0.036 A 
ATOM     21  C   UNL d   1       2.104   6.303   0.301  0.00  0.00     0.029 A 
ATOM     22  C   UNL d   1       3.101   6.133   1.265  0.00  0.00     0.002 A 
ATOM     23  C   UNL d   1       3.876   7.216   1.664  0.00  0.00     0.000 A 
ATOM     24  C   UNL d   1       3.684   8.460   1.067  0.00  0.00     0.002 A 
ATOM     25  C   UNL d   1       2.688   8.630   0.098  0.00  0.00     0.029 A 
ENDBRANCH  16  20
ENDBRANCH  13  14
ENDBRANCH   1  13
BRANCH   1  26
ATOM     26  O   UNL d   1      -2.136   6.567  -4.777  0.00  0.00    -0.392 OA
ATOM     27  H   UNL d   1      -1.204   6.825  -4.661  0.00  0.00     0.210 HD
ENDBRANCH   1  26
TORSDOF 8
