REMARK  1 active torsions:
REMARK  status: ('A' for Active; 'I' for Inactive)
REMARK    1  A    between atoms: N_11  and  C_8 
ROOT
ATOM      1  C   UNL d   1      -0.978   0.705   0.005  0.00  0.00     0.147 A 
ATOM      2  C   UNL d   1      -0.954  -0.657   0.010  0.00  0.00     0.149 A 
ATOM      3  N   UNL d   1      -2.249   1.194   0.007  0.00  0.00    -0.307 N 
ATOM      4  HN  UNL d   1      -2.551   2.168   0.003  1.00  0.00     0.170 HD
ATOM      5  N   UNL d   1       0.182   1.439   0.004  0.00  0.00    -0.287 N 
ATOM      6  N   UNL d   1       1.392  -0.630   0.026  0.00  0.00    -0.269 N 
ATOM      7  C   UNL d   1       1.417   0.779   0.017  0.00  0.00     0.332 A 
ATOM      8  C   UNL d   1      -2.998   0.107   0.016  0.00  0.00     0.252 A 
ATOM      9  C   UNL d   1       0.240  -1.423   0.019  0.00  0.00     0.281 A 
ATOM     10  N   UNL d   1      -2.263  -1.048   0.013  0.00  0.00    -0.315 N 
ATOM     11  O   UNL d   1       2.475   1.413   0.023  0.00  0.00    -0.246 OA
ATOM     12  O   UNL d   1       0.234  -2.649   0.023  0.00  0.00    -0.265 OA
ATOM     13  C   UNL d   1       0.169   2.889   0.004  0.00  0.00     0.163 C 
ATOM     14  C   UNL d   1       2.657  -1.339   0.056  0.00  0.00     0.164 C 
ATOM     15  H   UNL d   1      -2.627  -1.995   0.020  0.00  0.00     0.169 HD
ENDROOT
BRANCH   8  16
ATOM     16  N   UNL d   1      -4.429   0.079   0.036  0.00  0.00    -0.079 N 
ATOM     17  O   UNL d   1      -4.950  -1.046   0.047  0.00  0.00    -0.529 OA
ATOM     18  O   UNL d   1      -5.029   1.160   0.043  0.00  0.00    -0.529 OA
ENDBRANCH   8  16
TORSDOF 1
