REMARK  5 active torsions:
REMARK  status: ('A' for Active; 'I' for Inactive)
REMARK    1  A    between atoms: C_3  and  C_1 
REMARK    2  A    between atoms: C_19  and  N_2 
REMARK    3  A    between atoms: C_16  and  C_6 
REMARK    4  A    between atoms: C_20  and  C_11 
REMARK    5  A    between atoms: C_12  and  C_17 
ROOT
ATOM      1  C   UNL d   1      -0.352  -2.762  -0.114  0.00  0.00     0.054 A 
ATOM      2  C   UNL d   1       0.043  -3.542   0.972  0.00  0.00     0.059 A 
ATOM      3  N   UNL d   1      -0.147  -4.892   0.985  0.00  0.00    -0.339 N 
ATOM      4  HN  UNL d   1       0.140  -5.448   1.791  1.00  0.00     0.167 HD
ATOM      5  C   UNL d   1      -0.723  -5.481  -0.086  0.00  0.00     0.133 A 
ATOM      6  N   UNL d   1      -1.121  -4.798  -1.172  0.00  0.00    -0.349 N 
ATOM      7  HN  UNL d   1      -1.564  -5.265  -1.964  1.00  0.00     0.166 HD
ATOM      8  C   UNL d   1      -0.908  -3.472  -1.166  0.00  0.00     0.107 A 
ENDROOT
BRANCH   1   9
ATOM      9  C   UNL d   1      -0.151  -1.322  -0.242  0.00  0.00     0.152 A 
ATOM     10  N   UNL d   1      -1.056  -0.394  -0.758  0.00  0.00    -0.224 N 
ATOM     11  N   UNL d   1      -0.389   0.759  -0.990  0.00  0.00     0.001 NA
ATOM     12  N   UNL d   1       0.820   0.591  -0.482  0.00  0.00    -0.007 NA
ATOM     13  N   UNL d   1       0.987  -0.686  -0.025  0.00  0.00    -0.269 N 
ATOM     14  HN  UNL d   1       1.828  -1.073   0.402  1.00  0.00     0.185 HD
BRANCH  10  15
ATOM     15  C   UNL d   1      -2.431  -0.526  -1.069  0.00  0.00     0.056 A 
ATOM     16  C   UNL d   1      -3.255  -1.409  -0.358  0.00  0.00     0.031 A 
ATOM     17  C   UNL d   1      -4.583  -1.587  -0.747  0.00  0.00     0.002 A 
ATOM     18  C   UNL d   1      -5.091  -0.888  -1.841  0.00  0.00     0.000 A 
ATOM     19  C   UNL d   1      -4.284   0.018  -2.528  0.00  0.00     0.002 A 
ATOM     20  C   UNL d   1      -2.961   0.219  -2.132  0.00  0.00     0.031 A 
ENDBRANCH  10  15
ENDBRANCH   1   9
BRANCH   2  21
ATOM     21  C   UNL d   1       0.709  -3.041   2.202  0.00  0.00    -0.008 A 
ATOM     22  C   UNL d   1       1.739  -3.799   2.801  0.00  0.00     0.029 A 
ATOM     23  C   UNL d   1       2.404  -3.374   3.966  0.00  0.00     0.048 A 
ATOM     24  C   UNL d   1       2.042  -2.150   4.540  0.00  0.00     0.016 A 
ATOM     25  C   UNL d   1       1.019  -1.389   3.980  0.00  0.00     0.002 A 
ATOM     26  C   UNL d   1       0.350  -1.841   2.838  0.00  0.00     0.014 A 
BRANCH  23  27
ATOM     27  C   UNL d   1       3.483  -4.213   4.601  0.00  0.00     0.417 C 
ATOM     28  F   UNL d   1       3.723  -5.385   3.949  0.00  0.00    -0.166 F 
ATOM     29  F   UNL d   1       4.681  -3.569   4.663  0.00  0.00    -0.166 F 
ATOM     30  F   UNL d   1       3.180  -4.560   5.884  0.00  0.00    -0.166 F 
ENDBRANCH  23  27
ENDBRANCH   2  21
BRANCH   5  31
ATOM     31  C   UNL d   1      -0.893  -6.956  -0.083  0.00  0.00     0.076 A 
ATOM     32  N   UNL d   1      -1.546  -7.511  -1.145  0.00  0.00    -0.363 N 
ATOM     33  C   UNL d   1      -1.688  -8.854  -1.179  0.00  0.00     0.088 A 
ATOM     34  HN  UNL d   1      -1.918  -6.927  -1.894  1.00  0.00     0.165 HD
ATOM     35  C   UNL d   1      -1.214  -9.700  -0.197  0.00  0.00     0.017 A 
ATOM     36  C   UNL d   1      -0.556  -9.138   0.889  0.00  0.00     0.004 A 
ATOM     37  C   UNL d   1      -0.395  -7.755   0.948  0.00  0.00     0.033 A 
ENDBRANCH   5  31
TORSDOF 5
