REMARK  4 active torsions:
REMARK  status: ('A' for Active; 'I' for Inactive)
REMARK    1  A    between atoms: N_10  and  C_3 
REMARK    2  A    between atoms: C_9  and  C_4 
REMARK    3  A    between atoms: N_5  and  N_10 
REMARK    4  A    between atoms: C_17  and  C_13 
ROOT
ATOM      1  N   UNL d   1       1.123   0.602  -0.050  0.00  0.00    -0.190 N 
ATOM      2  HN  UNL d   1       2.024   1.079  -0.070  1.00  0.00     0.184 HD
ATOM      3  C   UNL d   1      -0.031   1.296  -0.062  0.00  0.00     0.697 A 
ATOM      4  C   UNL d   1       1.050  -0.750  -0.009  0.00  0.00     0.062 A 
ATOM      5  N   UNL d   1      -1.242   0.714  -0.058  0.00  0.00    -0.200 N 
ATOM      6  HN  UNL d   1      -2.097   1.271  -0.073  1.00  0.00     0.183 HD
ATOM      7  C   UNL d   1      -0.165  -1.411  -0.009  0.00  0.00     0.048 A 
ATOM      8  C   UNL d   1      -1.286  -0.623  -0.032  0.00  0.00     0.108 A 
ENDROOT
BRANCH   3   9
ATOM      9  N   UNL d   1       0.080   2.700  -0.081  0.00  0.00    -0.132 N 
ATOM     10  H   UNL d   1       1.039   2.938   0.152  0.00  0.00     0.205 HD
BRANCH   9  11
ATOM     11  N   UNL d   1      -0.946   3.415   0.465  0.00  0.00    -0.297 N 
ATOM     12  C   UNL d   1      -0.802   4.701   0.437  0.00  0.00     0.119 C 
ATOM     13  HN  UNL d   1      -1.769   2.967   0.867  1.00  0.00     0.186 HD
BRANCH  12  14
ATOM     14  C   UNL d   1      -1.840   5.595   0.992  0.00  0.00    -0.019 A 
ATOM     15  C   UNL d   1      -2.983   5.064   1.600  0.00  0.00     0.013 A 
ATOM     16  C   UNL d   1      -3.958   5.919   2.115  0.00  0.00     0.001 A 
ATOM     17  C   UNL d   1      -3.793   7.301   2.021  0.00  0.00     0.000 A 
ATOM     18  C   UNL d   1      -2.652   7.830   1.414  0.00  0.00     0.001 A 
ATOM     19  C   UNL d   1      -1.672   6.979   0.898  0.00  0.00     0.013 A 
ENDBRANCH  12  14
ENDBRANCH   9  11
ENDBRANCH   3   9
BRANCH   4  20
ATOM     20  C   UNL d   1       2.337  -1.469   0.036  0.00  0.00     0.007 A 
ATOM     21  C   UNL d   1       3.493  -0.939  -0.540  0.00  0.00     0.101 A 
ATOM     22  N   UNL d   1       4.709  -1.546  -0.556  0.00  0.00    -0.374 N 
ATOM     23  C   UNL d   1       4.795  -2.749   0.045  0.00  0.00     0.087 A 
ATOM     24  HN  UNL d   1       5.517  -1.111  -1.001  1.00  0.00     0.164 HD
ATOM     25  C   UNL d   1       3.724  -3.371   0.660  0.00  0.00     0.018 A 
ATOM     26  C   UNL d   1       2.490  -2.721   0.655  0.00  0.00     0.016 A 
ENDBRANCH   4  20
TORSDOF 4
