REMARK  4 active torsions:
REMARK  status: ('A' for Active; 'I' for Inactive)
REMARK       I    between atoms: N_7  and  C_1 
REMARK    1  A    between atoms: O_12  and  C_1 
REMARK    2  A    between atoms: C_2  and  C_6 
REMARK    3  A    between atoms: N_3  and  N_7 
REMARK    4  A    between atoms: C_13  and  O_12 
ROOT
ATOM      1  N   UNL d   1       1.105   1.242  -2.108  0.00  0.00    -0.306 N 
ATOM      2  HN  UNL d   1       2.123   1.183  -2.143  1.00  0.00     0.186 HD
ATOM      3  C   UNL d   1       0.430   1.899  -2.995  0.00  0.00     0.126 C 
ENDROOT
BRANCH   1   4
ATOM      4  N   UNL d   1       0.384   0.633  -1.124  0.00  0.00    -0.246 N 
ATOM      5  C   UNL d   1       0.987  -0.066  -0.100  0.00  0.00     0.379 C 
ATOM      6  O   UNL d   1       0.338  -0.527   0.833  0.00  0.00    -0.237 OA
ATOM      7  H   UNL d   1      -0.618   0.757  -1.055  0.00  0.00     0.192 HD
BRANCH   5   8
ATOM      8  O   UNL d   1       2.335  -0.178  -0.246  0.00  0.00    -0.303 OA
BRANCH   8   9
ATOM      9  C   UNL d   1       3.030  -0.857   0.806  0.00  0.00     0.176 C 
ATOM     10  C   UNL d   1       2.975  -2.361   0.606  0.00  0.00     0.034 C 
ENDBRANCH   8   9
ENDBRANCH   5   8
ENDBRANCH   1   4
BRANCH   3  11
ATOM     11  C   UNL d   1       1.131   2.611  -4.035  0.00  0.00     0.021 A 
ATOM     12  S   UNL d   1       0.256   3.494  -5.207  0.00  0.00    -0.101 SA
ATOM     13  C   UNL d   1       1.695   4.035  -5.961  0.00  0.00     0.050 A 
ATOM     14  C   UNL d   1       2.821   3.540  -5.341  0.00  0.00     0.008 A 
ATOM     15  C   UNL d   1       2.493   2.710  -4.232  0.00  0.00     0.021 A 
ENDBRANCH   3  11
TORSDOF 4
