REMARK  4 active torsions:
REMARK  status: ('A' for Active; 'I' for Inactive)
REMARK    1  A    between atoms: C_10  and  C_2 
REMARK       I    between atoms: N_14  and  C_10 
REMARK    2  A    between atoms: C_15  and  N_14 
REMARK    3  A    between atoms: C_17  and  C_15 
REMARK    4  A    between atoms: C_16  and  C_17 
ROOT
ATOM      1  C   UNL d   1      -3.593  -1.363  -0.020  0.00  0.00     0.251 C 
ATOM      2  O   UNL d   1      -3.592  -2.587   0.019  0.00  0.00    -0.268 OA
ATOM      3  N   UNL d   1      -4.752  -0.612  -0.070  0.00  0.00    -0.357 N 
ATOM      4  H   UNL d   1      -4.713   0.384   0.097  0.00  0.00     0.162 HD
ENDROOT
BRANCH   1   5
ATOM      5  C   UNL d   1      -2.294  -0.628   0.025  0.00  0.00     0.034 A 
ATOM      6  C   UNL d   1      -1.220  -1.292   0.664  0.00  0.00     0.051 A 
ATOM      7  C   UNL d   1      -0.000  -0.593   0.653  0.00  0.00     0.086 A 
ATOM      8  C   UNL d   1       0.146   0.712   0.026  0.00  0.00     0.085 A 
ATOM      9  N   UNL d   1       1.184  -0.946   1.166  0.00  0.00    -0.240 N 
ATOM     10  N   UNL d   1       1.412   1.111   0.175  0.00  0.00    -0.240 N 
ATOM     11  C   UNL d   1      -0.927   1.362  -0.613  0.00  0.00     0.035 A 
ATOM     12  O   UNL d   1       2.049   0.096   0.870  0.00  0.00    -0.156 OA
ATOM     13  HN  UNL d   1       1.825   1.984  -0.154  1.00  0.00     0.197 HD
ATOM     14  C   UNL d   1      -2.146   0.648  -0.595  0.00  0.00     0.019 A 
ATOM     15  HN  UNL d   1       1.405  -1.804   1.670  1.00  0.00     0.197 HD
ENDBRANCH   1   5
BRANCH   3  16
ATOM     16  C   UNL d   1      -6.047  -1.280  -0.039  0.00  0.00     0.127 C 
BRANCH  16  17
ATOM     17  C   UNL d   1      -7.215  -0.294  -0.048  0.00  0.00     0.058 C 
BRANCH  17  18
ATOM     18  C   UNL d   1      -8.562  -0.975  -0.080  0.00  0.00    -0.057 A 
ATOM     19  C   UNL d   1      -9.225  -1.311   1.109  0.00  0.00     0.007 A 
ATOM     20  C   UNL d   1     -10.484  -1.916   1.073  0.00  0.00     0.001 A 
ATOM     21  C   UNL d   1     -11.089  -2.199  -0.150  0.00  0.00     0.000 A 
ATOM     22  C   UNL d   1     -10.432  -1.886  -1.338  0.00  0.00     0.001 A 
ATOM     23  C   UNL d   1      -9.174  -1.281  -1.304  0.00  0.00     0.007 A 
ENDBRANCH  17  18
ENDBRANCH  16  17
ENDBRANCH   3  16
TORSDOF 4
