REMARK  7 active torsions:
REMARK  status: ('A' for Active; 'I' for Inactive)
REMARK    1  A    between atoms: O_4  and  C_1 
REMARK    2  A    between atoms: N_10  and  C_1 
REMARK    3  A    between atoms: C_2  and  C_3 
REMARK       I    between atoms: N_6  and  C_2 
REMARK    4  A    between atoms: C_5  and  O_4 
REMARK    5  A    between atoms: C_11  and  N_6 
REMARK    6  A    between atoms: C_20  and  N_10 
REMARK    7  A    between atoms: C_21  and  N_10 
ROOT
ATOM      1  C   UNL d   1       1.459  -2.934  -0.899  0.00  0.00     0.066 A 
ATOM      2  C   UNL d   1       0.656  -1.931  -1.458  0.00  0.00     0.094 A 
ATOM      3  C   UNL d   1       1.817  -4.044  -1.682  0.00  0.00     0.020 A 
ATOM      4  C   UNL d   1       0.252  -2.012  -2.796  0.00  0.00     0.038 A 
ATOM      5  C   UNL d   1       1.387  -4.135  -3.010  0.00  0.00     0.001 A 
ATOM      6  C   UNL d   1       0.605  -3.123  -3.563  0.00  0.00     0.003 A 
ENDROOT
BRANCH   1   7
ATOM      7  C   UNL d   1       1.907  -2.845   0.511  0.00  0.00     0.259 C 
ATOM      8  N   UNL d   1       3.239  -3.176   0.732  0.00  0.00    -0.323 N 
ATOM      9  H   UNL d   1       3.796  -3.397  -0.085  0.00  0.00     0.169 HD
ATOM     10  O   UNL d   1       1.107  -2.477   1.362  0.00  0.00    -0.267 OA
BRANCH   8  11
ATOM     11  C   UNL d   1       3.940  -3.070   1.954  0.00  0.00     0.036 A 
ATOM     12  C   UNL d   1       3.334  -2.741   3.170  0.00  0.00     0.055 A 
ATOM     13  C   UNL d   1       4.104  -2.545   4.323  0.00  0.00     0.058 A 
ATOM     14 CL   UNL d   1       3.278  -2.099   5.776  0.00  0.00    -0.082 Cl
ATOM     15  C   UNL d   1       5.492  -2.695   4.271  0.00  0.00     0.055 A 
ATOM     16  C   UNL d   1       6.099  -3.074   3.072  0.00  0.00     0.028 A 
ATOM     17 CL   UNL d   1       6.510  -2.414   5.637  0.00  0.00    -0.083 Cl
ATOM     18  C   UNL d   1       5.326  -3.267   1.922  0.00  0.00     0.031 A 
ENDBRANCH   8  11
ENDBRANCH   1   7
BRANCH   2  19
ATOM     19  O   UNL d   1       0.390  -0.748  -0.700  0.00  0.00    -0.283 OA
BRANCH  19  20
ATOM     20  C   UNL d   1      -0.758   0.059  -0.746  0.00  0.00     0.217 C 
ATOM     21  S   UNL d   1      -2.276  -0.564  -1.067  0.00  0.00    -0.033 SA
BRANCH  20  22
ATOM     22  N   UNL d   1      -0.456   1.397  -0.505  0.00  0.00    -0.353 N 
BRANCH  22  23
ATOM     23  C   UNL d   1      -1.062   2.433  -1.347  0.00  0.00     0.121 C 
ATOM     24  C   UNL d   1      -0.232   3.705  -1.449  0.00  0.00     0.026 C 
ENDBRANCH  22  23
BRANCH  22  25
ATOM     25  C   UNL d   1      -0.052   1.751   0.862  0.00  0.00     0.121 C 
ATOM     26  C   UNL d   1      -1.230   2.168   1.736  0.00  0.00     0.026 C 
ENDBRANCH  22  25
ENDBRANCH  20  22
ENDBRANCH  19  20
ENDBRANCH   2  19
TORSDOF 7
