REMARK  3 active torsions:
REMARK  status: ('A' for Active; 'I' for Inactive)
REMARK    1  A    between atoms: C_7  and  C_1 
REMARK    2  A    between atoms: C_10  and  C_2 
REMARK    3  A    between atoms: N_6  and  C_7 
ROOT
ATOM      1  C   UNL d   1       1.023   0.788   0.104  0.00  0.00     0.016 A 
ATOM      2  C   UNL d   1       1.106  -0.644   0.200  0.00  0.00     0.067 A 
ATOM      3  N   UNL d   1      -0.126  -1.187   0.206  0.00  0.00    -0.300 N 
ATOM      4  HN  UNL d   1      -0.369  -2.177   0.248  1.00  0.00     0.187 HD
ATOM      5  N   UNL d   1      -0.961  -0.146   0.146  0.00  0.00    -0.311 N 
ATOM      6  C   UNL d   1      -0.334   1.056   0.093  0.00  0.00     0.118 A 
ATOM      7  H   UNL d   1      -1.958  -0.333   0.137  0.00  0.00     0.186 HD
ENDROOT
BRANCH   1   8
ATOM      8  C   UNL d   1       2.111   1.810   0.007  0.00  0.00     0.315 C 
BRANCH   8   9
ATOM      9  N   UNL d   1       2.985   1.546  -1.142  0.00  0.00     0.096 N 
ATOM     10  C   UNL d   1       2.286   1.689  -2.433  0.00  0.00     0.303 C 
ATOM     11  C   UNL d   1       3.231   1.461  -3.635  0.00  0.00     0.302 C 
ATOM     12  N   UNL d   1       4.438   2.310  -3.645  0.00  0.00     0.087 N 
ATOM     13  C   UNL d   1       5.100   2.209  -2.329  0.00  0.00     0.302 C 
ATOM     14  C   UNL d   1       4.122   3.693  -3.990  0.00  0.00     0.310 C 
ATOM     15  C   UNL d   1       4.171   2.421  -1.110  0.00  0.00     0.303 C 
ENDBRANCH   8   9
ENDBRANCH   1   8
BRANCH   2  16
ATOM     16  C   UNL d   1       2.292  -1.511   0.252  0.00  0.00    -0.007 A 
ATOM     17  C   UNL d   1       3.452  -1.122   0.936  0.00  0.00     0.014 A 
ATOM     18  C   UNL d   1       4.582  -1.944   0.955  0.00  0.00     0.001 A 
ATOM     19  C   UNL d   1       4.560  -3.177   0.310  0.00  0.00     0.000 A 
ATOM     20  C   UNL d   1       3.405  -3.592  -0.349  0.00  0.00     0.001 A 
ATOM     21  C   UNL d   1       2.279  -2.766  -0.378  0.00  0.00     0.014 A 
ENDBRANCH   2  16
TORSDOF 3
