REMARK  4 active torsions:
REMARK  status: ('A' for Active; 'I' for Inactive)
REMARK    1  A    between atoms: C_8  and  C_1 
REMARK    2  A    between atoms: C_13  and  C_2 
REMARK    3  A    between atoms: C_10  and  N_5 
REMARK    4  A    between atoms: N_7  and  C_8 
ROOT
ATOM      1  C   UNL d   1       2.026   1.399   0.287  0.00  0.00     0.315 C 
ENDROOT
BRANCH   1   2
ATOM      2  N   UNL d   1       3.337   1.000  -0.236  0.00  0.00     0.096 N 
ATOM      3  C   UNL d   1       4.097   0.197   0.752  0.00  0.00     0.292 C 
ATOM      4  C   UNL d   1       3.677  -1.291   0.915  0.00  0.00     0.153 C 
ATOM      5  N   UNL d   1       3.564  -1.942  -0.397  0.00  0.00    -0.378 N 
ATOM      6  C   UNL d   1       2.770  -1.209  -1.395  0.00  0.00     0.153 C 
ATOM      7  C   UNL d   1       3.281   0.243  -1.509  0.00  0.00     0.292 C 
BRANCH   5   8
ATOM      8  C   UNL d   1       3.888  -3.274  -0.582  0.00  0.00     0.030 A 
ATOM      9  C   UNL d   1       4.369  -3.725  -1.825  0.00  0.00     0.032 A 
ATOM     10  C   UNL d   1       4.788  -5.045  -2.021  0.00  0.00     0.044 A 
ATOM     11  C   UNL d   1       4.723  -5.942  -0.968  0.00  0.00     0.116 A 
ATOM     12  C   UNL d   1       4.238  -5.544   0.268  0.00  0.00     0.044 A 
ATOM     13  F   UNL d   1       5.143  -7.202  -1.144  0.00  0.00    -0.206 F 
ATOM     14  C   UNL d   1       3.825  -4.218   0.456  0.00  0.00     0.032 A 
ENDBRANCH   5   8
ENDBRANCH   1   2
BRANCH   1  15
ATOM     15  C   UNL d   1       1.283   2.280  -0.673  0.00  0.00     0.016 A 
ATOM     16  C   UNL d   1       1.685   3.502  -1.320  0.00  0.00     0.067 A 
ATOM     17  N   UNL d   1       0.734   3.917  -2.178  0.00  0.00    -0.300 N 
ATOM     18  N   UNL d   1      -0.270   3.051  -2.024  0.00  0.00    -0.311 N 
ATOM     19  HN  UNL d   1       0.773   4.718  -2.809  1.00  0.00     0.187 HD
ATOM     20  C   UNL d   1      -0.007   2.068  -1.124  0.00  0.00     0.118 A 
ATOM     21  H   UNL d   1      -1.114   3.197  -2.567  0.00  0.00     0.186 HD
BRANCH  16  22
ATOM     22  C   UNL d   1       2.913   4.294  -1.156  0.00  0.00    -0.007 A 
ATOM     23  C   UNL d   1       3.501   4.939  -2.250  0.00  0.00     0.014 A 
ATOM     24  C   UNL d   1       4.641   5.731  -2.079  0.00  0.00     0.001 A 
ATOM     25  C   UNL d   1       5.202   5.886  -0.813  0.00  0.00     0.000 A 
ATOM     26  C   UNL d   1       4.622   5.255   0.283  0.00  0.00     0.001 A 
ATOM     27  C   UNL d   1       3.479   4.469   0.113  0.00  0.00     0.014 A 
ENDBRANCH  16  22
ENDBRANCH   1  15
TORSDOF 4
