REMARK  8 active torsions:
REMARK  status: ('A' for Active; 'I' for Inactive)
REMARK    1  A    between atoms: C_2  and  C_1 
REMARK    2  A    between atoms: O_6  and  C_1 
REMARK    3  A    between atoms: N_3  and  O_6 
REMARK    4  A    between atoms: C_7  and  C_5 
REMARK    5  A    between atoms: N_14  and  C_5 
REMARK    6  A    between atoms: O_15  and  C_16 
REMARK    7  A    between atoms: C_19  and  O_15 
REMARK    8  A    between atoms: C_18  and  C_19 
ROOT
ATOM      1  C   UNL d   1      -1.046  -2.952  -2.089  0.00  0.00     0.004 A 
ATOM      2  C   UNL d   1       0.084  -3.577  -1.550  0.00  0.00     0.017 A 
ATOM      3  C   UNL d   1      -1.525  -3.348  -3.342  0.00  0.00     0.017 A 
ATOM      4  C   UNL d   1       0.264  -4.965  -3.532  0.00  0.00     0.069 A 
ATOM      5  C   UNL d   1      -0.878  -4.358  -4.057  0.00  0.00     0.037 A 
ATOM      6  C   UNL d   1       0.726  -4.590  -2.268  0.00  0.00     0.037 A 
ENDROOT
BRANCH   1   7
ATOM      7  C   UNL d   1      -1.737  -1.853  -1.346  0.00  0.00     0.109 C 
ATOM      8  N   UNL d   1      -1.041  -1.146  -0.506  0.00  0.00    -0.246 N 
ATOM      9  HN  UNL d   1      -0.055  -1.303  -0.296  1.00  0.00     0.196 HD
BRANCH   8  10
ATOM     10  O   UNL d   1      -1.829  -0.135   0.075  0.00  0.00    -0.194 OA
BRANCH  10  11
ATOM     11  C   UNL d   1      -1.062   0.682   0.873  0.00  0.00     0.336 C 
ATOM     12  O   UNL d   1       0.142   0.537   1.083  0.00  0.00    -0.258 OA
BRANCH  11  13
ATOM     13  C   UNL d   1      -1.902   1.811   1.471  0.00  0.00     0.278 C 
ATOM     14 CL   UNL d   1      -3.637   1.726   1.028  0.00  0.00    -0.073 Cl
ATOM     15 CL   UNL d   1      -1.776   1.727   3.253  0.00  0.00    -0.073 Cl
ATOM     16 CL   UNL d   1      -1.246   3.372   0.896  0.00  0.00    -0.073 Cl
ENDBRANCH  11  13
ENDBRANCH  10  11
ENDBRANCH   8  10
BRANCH   7  17
ATOM     17  N   UNL d   1      -3.078  -1.646  -1.587  0.00  0.00    -0.286 NA
ATOM     18  H   UNL d   1      -3.528  -1.072  -0.883  0.00  0.00     0.125 HD
ATOM     19  H   UNL d   1      -3.617  -2.479  -1.801  0.00  0.00     0.125 HD
ENDBRANCH   7  17
ENDBRANCH   1   7
BRANCH   4  20
ATOM     20  O   UNL d   1       0.997  -5.929  -4.167  0.00  0.00    -0.347 OA
BRANCH  20  21
ATOM     21  C   UNL d   1       0.881  -5.954  -5.590  0.00  0.00     0.214 C 
BRANCH  21  22
ATOM     22  C   UNL d   1       2.083  -6.671  -6.148  0.00  0.00    -0.034 A 
ATOM     23  C   UNL d   1       2.025  -8.035  -6.461  0.00  0.00     0.011 A 
ATOM     24  C   UNL d   1       3.153  -8.694  -6.955  0.00  0.00     0.024 A 
ATOM     25  C   UNL d   1       4.345  -7.992  -7.130  0.00  0.00     0.034 A 
ATOM     26  C   UNL d   1       4.418  -6.636  -6.818  0.00  0.00     0.024 A 
ATOM     27 CL   UNL d   1       5.737  -8.807  -7.726  0.00  0.00    -0.084 Cl
ATOM     28  C   UNL d   1       3.291  -5.978  -6.324  0.00  0.00     0.011 A 
ENDBRANCH  21  22
ENDBRANCH  20  21
ENDBRANCH   4  20
TORSDOF 8
