REMARK  2 active torsions:
REMARK  status: ('A' for Active; 'I' for Inactive)
REMARK    1  A    between atoms: C_2  and  S_1 
REMARK    2  A    between atoms: N_4  and  S_1 
ROOT
ATOM      1  C   UNL d   1       0.484  -0.572  -1.809  0.00  0.00     0.103 A 
ATOM      2  C   UNL d   1       1.343  -1.341  -2.618  0.00  0.00     0.052 A 
ATOM      3  C   UNL d   1      -0.688  -0.045  -2.358  0.00  0.00     0.059 A 
ATOM      4  C   UNL d   1      -0.979  -0.276  -3.712  0.00  0.00     0.051 A 
ATOM      5  C   UNL d   1       1.035  -1.585  -3.959  0.00  0.00     0.057 A 
ATOM      6  C   UNL d   1      -0.122  -1.035  -4.513  0.00  0.00     0.057 A 
ATOM      7 CL   UNL d   1      -1.878   0.847  -1.486  0.00  0.00    -0.083 Cl
ATOM      8 CL   UNL d   1       2.121  -2.570  -4.870  0.00  0.00    -0.083 Cl
ATOM      9 CL   UNL d   1      -0.551  -1.251  -6.171  0.00  0.00    -0.082 Cl
ENDROOT
BRANCH   1  10
ATOM     10  S   UNL d   1       1.056  -0.198  -0.158  0.00  0.00     0.262 S 
ATOM     11  O   UNL d   1       0.484   1.061   0.265  0.00  0.00    -0.200 OA
ATOM     12  O   UNL d   1       2.495  -0.360  -0.182  0.00  0.00    -0.200 OA
BRANCH  10  13
ATOM     13  N   UNL d   1       0.417  -1.451   0.809  0.00  0.00    -0.307 N 
ATOM     14  C   UNL d   1      -1.046  -1.422   1.051  0.00  0.00     0.135 C 
ATOM     15  C   UNL d   1      -1.426  -2.374   2.183  0.00  0.00     0.021 C 
ATOM     16  C   UNL d   1      -0.903  -3.781   1.921  0.00  0.00     0.003 C 
ATOM     17  C   UNL d   1       0.606  -3.739   1.721  0.00  0.00     0.021 C 
ATOM     18  C   UNL d   1       0.972  -2.806   0.572  0.00  0.00     0.135 C 
ENDBRANCH  10  13
ENDBRANCH   1  10
TORSDOF 2
