REMARK  4 active torsions:
REMARK  status: ('A' for Active; 'I' for Inactive)
REMARK       I    between atoms: N_2  and  C_4 
REMARK    1  A    between atoms: C_5  and  N_2 
REMARK    2  A    between atoms: C_4  and  C_3 
REMARK    3  A    between atoms: N_15  and  C_5 
REMARK    4  A    between atoms: C_18  and  N_15 
ROOT
ATOM      1  N   UNL d   1      -3.781  -2.728   0.018  0.00  0.00    -0.299 N 
ATOM      2  C   UNL d   1      -3.845  -1.374   0.306  0.00  0.00     0.257 C 
ATOM      3  O   UNL d   1      -2.881  -0.621   0.310  0.00  0.00    -0.267 OA
ATOM      4  H   UNL d   1      -4.578  -3.125  -0.455  0.00  0.00     0.171 HD
ENDROOT
BRANCH   2   5
ATOM      5  C   UNL d   1      -5.214  -0.819   0.607  0.00  0.00     0.034 A 
ATOM      6  C   UNL d   1      -5.258   0.544   0.990  0.00  0.00     0.051 A 
ATOM      7  C   UNL d   1      -6.527   1.027   1.363  0.00  0.00     0.086 A 
ATOM      8  C   UNL d   1      -7.716   0.192   1.337  0.00  0.00     0.085 A 
ATOM      9  N   UNL d   1      -6.879   2.242   1.792  0.00  0.00    -0.240 N 
ATOM     10  N   UNL d   1      -8.755   0.922   1.749  0.00  0.00    -0.240 N 
ATOM     11  C   UNL d   1      -7.678  -1.157   0.935  0.00  0.00     0.035 A 
ATOM     12  O   UNL d   1      -8.244   2.177   2.033  0.00  0.00    -0.156 OA
ATOM     13  HN  UNL d   1      -9.725   0.618   1.837  1.00  0.00     0.197 HD
ATOM     14  C   UNL d   1      -6.394  -1.630   0.585  0.00  0.00     0.019 A 
ATOM     15  HN  UNL d   1      -6.270   3.051   1.916  1.00  0.00     0.197 HD
ENDBRANCH   2   5
BRANCH   1  16
ATOM     16  C   UNL d   1      -2.693  -3.527  -0.117  0.00  0.00     0.179 C 
ATOM     17  S   UNL d   1      -2.819  -4.826  -1.172  0.00  0.00    -0.040 SA
BRANCH  16  18
ATOM     18  N   UNL d   1      -1.528  -3.363   0.544  0.00  0.00    -0.333 N 
ATOM     19  H   UNL d   1      -0.789  -3.908   0.112  0.00  0.00     0.168 HD
BRANCH  18  20
ATOM     20  C   UNL d   1      -1.296  -3.132   1.924  0.00  0.00     0.034 A 
ATOM     21  C   UNL d   1      -0.068  -3.598   2.425  0.00  0.00     0.029 A 
ATOM     22  C   UNL d   1       0.226  -3.539   3.790  0.00  0.00     0.002 A 
ATOM     23  C   UNL d   1      -0.688  -2.973   4.672  0.00  0.00     0.000 A 
ATOM     24  C   UNL d   1      -1.893  -2.477   4.185  0.00  0.00     0.002 A 
ATOM     25  C   UNL d   1      -2.203  -2.575   2.822  0.00  0.00     0.029 A 
ENDBRANCH  18  20
ENDBRANCH  16  18
ENDBRANCH   1  16
TORSDOF 4
