REMARK  4 active torsions:
REMARK  status: ('A' for Active; 'I' for Inactive)
REMARK    1  A    between atoms: N_7  and  C_1 
REMARK    2  A    between atoms: N_8  and  C_2 
REMARK    3  A    between atoms: S_6  and  C_3 
REMARK    4  A    between atoms: N_13  and  S_6 
ROOT
ATOM      1  C   UNL d   1       1.513   0.738   0.066  0.00  0.00     0.138 A 
ATOM      2  C   UNL d   1       0.249   1.309  -0.016  0.00  0.00     0.107 A 
ATOM      3  C   UNL d   1       0.217  -1.190   0.003  0.00  0.00     0.119 A 
ATOM      4  C   UNL d   1       1.498  -0.688   0.049  0.00  0.00     0.071 A 
ATOM      5  S   UNL d   1      -0.947   0.056  -0.028  0.00  0.00    -0.057 SA
ENDROOT
BRANCH   2   6
ATOM      6  N   UNL d   1      -0.074   2.639  -0.076  0.00  0.00    -0.369 N 
ATOM      7  C   UNL d   1      -1.336   3.173   0.467  0.00  0.00     0.149 C 
ATOM      8  C   UNL d   1      -1.113   4.636   0.900  0.00  0.00     0.187 C 
ATOM      9  O   UNL d   1      -0.612   5.442  -0.181  0.00  0.00    -0.388 OA
ATOM     10  C   UNL d   1       0.636   4.913  -0.663  0.00  0.00     0.187 C 
ATOM     11  C   UNL d   1       0.457   3.476  -1.173  0.00  0.00     0.149 C 
ENDBRANCH   2   6
BRANCH   1  12
ATOM     12  N   UNL d   1       2.724   1.501   0.159  0.00  0.00    -0.113 N 
ATOM     13  O   UNL d   1       2.832   2.294   1.103  0.00  0.00    -0.532 OA
ATOM     14  O   UNL d   1       3.574   1.284  -0.714  0.00  0.00    -0.532 OA
ENDBRANCH   1  12
BRANCH   3  15
ATOM     15  S   UNL d   1      -0.396  -2.856  -0.036  0.00  0.00     0.246 S 
ATOM     16  O   UNL d   1       0.786  -3.668  -0.193  0.00  0.00    -0.206 OA
ATOM     17  O   UNL d   1      -1.297  -2.970   1.085  0.00  0.00    -0.206 OA
BRANCH  15  18
ATOM     18  N   UNL d   1      -1.292  -3.016  -1.441  0.00  0.00    -0.225 NA
ATOM     19  H   UNL d   1      -0.727  -2.955  -2.286  0.00  0.00     0.136 HD
ATOM     20  H   UNL d   1      -2.148  -2.467  -1.430  0.00  0.00     0.136 HD
ENDBRANCH  15  18
ENDBRANCH   3  15
TORSDOF 4
