REMARK  4 active torsions:
REMARK  status: ('A' for Active; 'I' for Inactive)
REMARK    1  A    between atoms: C_8  and  N_1 
REMARK    2  A    between atoms: C_6  and  C_9 
REMARK    3  A    between atoms: O_14  and  C_6 
REMARK    4  A    between atoms: C_13  and  C_8 
ROOT
ATOM      1  C   UNL d   1       2.143  -2.397   0.042  0.00  0.00     0.168 C 
ENDROOT
BRANCH   1   2
ATOM      2  N   UNL d   1       1.616  -1.218  -0.626  0.00  0.00    -0.337 N 
ATOM      3  C   UNL d   1       1.328  -1.137  -1.961  0.00  0.00     0.184 A 
ATOM      4  N   UNL d   1       0.897   0.057  -2.298  0.00  0.00    -0.350 N 
ATOM      5  C   UNL d   1       0.894   0.779  -1.130  0.00  0.00     0.060 A 
ATOM      6  HN  UNL d   1       0.625   0.379  -3.226  1.00  0.00     0.166 HD
ATOM      7  C   UNL d   1       1.316  -0.003  -0.056  0.00  0.00     0.062 A 
ATOM      8  C   UNL d   1       0.535   2.118  -0.912  0.00  0.00     0.032 A 
ATOM      9  C   UNL d   1       1.378   0.492   1.253  0.00  0.00     0.032 A 
ATOM     10  C   UNL d   1       1.014   1.830   1.452  0.00  0.00     0.002 A 
ATOM     11  C   UNL d   1       0.602   2.633   0.388  0.00  0.00     0.002 A 
ENDBRANCH   1   2
BRANCH   1  12
ATOM     12  C   UNL d   1       3.653  -2.392   0.033  0.00  0.00    -0.040 A 
ATOM     13  C   UNL d   1       4.364  -1.742   1.052  0.00  0.00     0.010 A 
ATOM     14  C   UNL d   1       5.752  -1.613   0.980  0.00  0.00     0.018 A 
ATOM     15  C   UNL d   1       6.455  -2.147  -0.105  0.00  0.00     0.039 A 
ATOM     16  C   UNL d   1       5.761  -2.845  -1.101  0.00  0.00     0.018 A 
ATOM     17  C   UNL d   1       4.368  -2.962  -1.033  0.00  0.00     0.010 A 
BRANCH  15  18
ATOM     18  C   UNL d   1       7.914  -1.882  -0.185  0.00  0.00     0.292 C 
ATOM     19  O   UNL d   1       8.464  -0.983   0.430  0.00  0.00    -0.259 OA
BRANCH  18  20
ATOM     20  O   UNL d   1       8.521  -2.772  -1.009  0.00  0.00    -0.323 OA
ATOM     21  C   UNL d   1       9.927  -2.554  -1.143  0.00  0.00     0.213 C 
ENDBRANCH  18  20
ENDBRANCH  15  18
ENDBRANCH   1  12
TORSDOF 4
