REMARK  9 active torsions:
REMARK  status: ('A' for Active; 'I' for Inactive)
REMARK    1  A    between atoms: C_2  and  C_1 
REMARK    2  A    between atoms: S_4  and  C_2 
REMARK    3  A    between atoms: S_5  and  C_2 
REMARK    4  A    between atoms: C_13  and  S_4 
REMARK    5  A    between atoms: C_14  and  S_5 
REMARK    6  A    between atoms: C_6  and  C_13 
REMARK    7  A    between atoms: O_16  and  C_6 
REMARK    8  A    between atoms: C_7  and  C_14 
REMARK    9  A    between atoms: O_15  and  C_7 
ROOT
ATOM      1  C   UNL d   1      -0.061   2.734  -0.026  0.00  0.00     0.149 C 
ENDROOT
BRANCH   1   2
ATOM      2  C   UNL d   1       0.234   1.250  -0.026  0.00  0.00     0.006 A 
ATOM      3  S   UNL d   1      -0.945   0.163  -0.656  0.00  0.00    -0.104 SA
ATOM      4  C   UNL d   1       0.030  -1.201  -0.328  0.00  0.00     0.050 A 
ATOM      5  C   UNL d   1       1.234  -0.851   0.237  0.00  0.00     0.008 A 
ATOM      6  C   UNL d   1       1.342   0.555   0.434  0.00  0.00     0.017 A 
ENDBRANCH   1   2
BRANCH   1   7
ATOM      7  S   UNL d   1      -0.877   3.142   1.591  0.00  0.00    -0.138 SA
BRANCH   7   8
ATOM      8  C   UNL d   1      -1.268   4.908   1.359  0.00  0.00     0.185 C 
BRANCH   8   9
ATOM      9  C   UNL d   1      -2.161   5.156   0.167  0.00  0.00     0.149 C 
ATOM     10  O   UNL d   1      -2.048   6.127  -0.565  0.00  0.00    -0.649 OA
BRANCH   9  11
ATOM     11  O   UNL d   1      -3.135   4.231   0.001  0.00  0.00    -0.776 OA
ATOM     12  H   UNL d   1      -3.086   3.513   0.669  0.00  0.00     0.167 HD
ENDBRANCH   9  11
ENDBRANCH   8   9
ENDBRANCH   7   8
ENDBRANCH   1   7
BRANCH   1  13
ATOM     13  S   UNL d   1       1.457   3.756  -0.233  0.00  0.00    -0.138 SA
BRANCH  13  14
ATOM     14  C   UNL d   1       2.000   3.186  -1.875  0.00  0.00     0.185 C 
BRANCH  14  15
ATOM     15  C   UNL d   1       1.010   3.555  -2.950  0.00  0.00     0.149 C 
ATOM     16  O   UNL d   1       0.552   2.757  -3.754  0.00  0.00    -0.649 OA
BRANCH  15  17
ATOM     17  O   UNL d   1       0.685   4.868  -2.970  0.00  0.00    -0.776 OA
ATOM     18  H   UNL d   1       1.090   5.383  -2.243  0.00  0.00     0.167 HD
ENDBRANCH  15  17
ENDBRANCH  14  15
ENDBRANCH  13  14
ENDBRANCH   1  13
TORSDOF 9
