REMARK  6 active torsions:
REMARK  status: ('A' for Active; 'I' for Inactive)
REMARK    1  A    between atoms: N_6  and  C_1 
REMARK    2  A    between atoms: N_8  and  C_1 
REMARK    3  A    between atoms: C_2  and  N_7 
REMARK    4  A    between atoms: C_5  and  C_9 
REMARK    5  A    between atoms: C_11  and  N_8 
REMARK    6  A    between atoms: N_10  and  C_12 
ROOT
ATOM      1  N   UNL d   1       0.673   1.558  -0.117  0.00  0.00    -0.355 N 
ATOM      2  N   UNL d   1       0.116   4.270  -0.908  0.00  0.00    -0.214 N 
ATOM      3  C   UNL d   1      -0.441   2.339   0.480  0.00  0.00     0.145 C 
ATOM      4  C   UNL d   1       1.694   2.407  -0.779  0.00  0.00     0.145 C 
ATOM      5  C   UNL d   1      -0.992   3.470  -0.406  0.00  0.00     0.161 C 
ATOM      6  C   UNL d   1       1.112   3.523  -1.667  0.00  0.00     0.161 C 
ENDROOT
BRANCH   1   7
ATOM      7  C   UNL d   1       1.081   0.390   0.547  0.00  0.00     0.174 C 
ATOM      8  S   UNL d   1       2.673  -0.082   0.814  0.00  0.00    -0.041 SA
BRANCH   7   9
ATOM      9  N   UNL d   1       0.121  -0.384   1.132  0.00  0.00    -0.332 N 
ATOM     10  H   UNL d   1       0.420  -0.949   1.923  0.00  0.00     0.168 HD
BRANCH   9  11
ATOM     11  C   UNL d   1      -1.161  -0.747   0.667  0.00  0.00     0.055 A 
ATOM     12  C   UNL d   1      -2.075  -1.284   1.613  0.00  0.00     0.037 A 
ATOM     13  C   UNL d   1      -3.321  -1.714   1.135  0.00  0.00     0.026 A 
ATOM     14  C   UNL d   1      -3.645  -1.623  -0.225  0.00  0.00     0.002 A 
ATOM     15  C   UNL d   1      -2.732  -1.104  -1.135  0.00  0.00     0.002 A 
ATOM     16  C   UNL d   1      -1.490  -0.659  -0.691  0.00  0.00     0.031 A 
BRANCH  12  17
ATOM     17  N   UNL d   1      -1.710  -1.366   2.970  0.00  0.00    -0.278 NA
ATOM     18  C   UNL d   1      -2.390  -2.356   3.831  0.00  0.00     0.122 C 
ATOM     19  C   UNL d   1      -1.594  -2.493   5.141  0.00  0.00     0.182 C 
ATOM     20  O   UNL d   1      -1.477  -1.230   5.821  0.00  0.00    -0.389 OA
ATOM     21  C   UNL d   1      -0.835  -0.258   4.975  0.00  0.00     0.182 C 
ATOM     22  C   UNL d   1      -1.618  -0.056   3.666  0.00  0.00     0.122 C 
ENDBRANCH  12  17
ENDBRANCH   9  11
ENDBRANCH   7   9
ENDBRANCH   1   7
BRANCH   2  23
ATOM     23  C   UNL d   1      -0.009   5.625  -1.044  0.00  0.00     0.680 A 
ATOM     24  N   UNL d   1       1.033   6.327  -1.516  0.00  0.00    -0.186 N 
ATOM     25  C   UNL d   1       0.955   7.683  -1.535  0.00  0.00     0.133 A 
ATOM     26  HN  UNL d   1       1.869   5.850  -1.854  1.00  0.00     0.184 HD
ATOM     27  C   UNL d   1      -0.176   8.353  -1.110  0.00  0.00     0.052 A 
ATOM     28  C   UNL d   1      -1.202   7.563  -0.667  0.00  0.00     0.108 A 
ATOM     29  N   UNL d   1      -1.135   6.222  -0.621  0.00  0.00    -0.202 N 
ATOM     30  HN  UNL d   1      -1.919   5.671  -0.274  1.00  0.00     0.183 HD
BRANCH  25  31
ATOM     31  C   UNL d   1       2.145   8.493  -2.012  0.00  0.00     0.433 C 
ATOM     32  F   UNL d   1       3.218   7.748  -2.402  0.00  0.00    -0.165 F 
ATOM     33  F   UNL d   1       1.839   9.290  -3.077  0.00  0.00    -0.165 F 
ATOM     34  F   UNL d   1       2.614   9.342  -1.051  0.00  0.00    -0.165 F 
ENDBRANCH  25  31
ENDBRANCH   2  23
TORSDOF 6
