REMARK  7 active torsions:
REMARK  status: ('A' for Active; 'I' for Inactive)
REMARK    1  A    between atoms: C_8  and  C_1 
REMARK    2  A    between atoms: C_7  and  C_2 
REMARK    3  A    between atoms: C_9  and  C_3 
REMARK    4  A    between atoms: O_13  and  C_7 
REMARK    5  A    between atoms: O_14  and  C_8 
REMARK    6  A    between atoms: C_21  and  O_13 
REMARK    7  A    between atoms: C_20  and  O_14 
ROOT
ATOM      1  C   UNL d   1      -1.293  -0.994   0.096  0.00  0.00     0.052 C 
ATOM      2  C   UNL d   1       1.276  -0.983   0.087  0.00  0.00     0.052 C 
ATOM      3  C   UNL d   1      -0.005  -1.811  -0.138  0.00  0.00     0.102 C 
ATOM      4  C   UNL d   1      -1.247   0.362   0.101  0.00  0.00     0.018 C 
ATOM      5  C   UNL d   1       1.209   0.371   0.125  0.00  0.00     0.018 C 
ATOM      6  N   UNL d   1      -0.020   1.002   0.024  0.00  0.00    -0.362 N 
ATOM      7  C   UNL d   1      -2.429   1.299   0.144  0.00  0.00     0.069 C 
ATOM      8  C   UNL d   1       2.404   1.287   0.239  0.00  0.00     0.069 C 
ATOM      9  H   UNL d   1      -0.026   2.015   0.123  0.00  0.00     0.165 HD
ENDROOT
BRANCH   3  10
ATOM     10  C   UNL d   1      -0.007  -2.415  -1.558  0.00  0.00    -0.023 A 
ATOM     11  C   UNL d   1      -0.076  -3.798  -1.810  0.00  0.00     0.041 A 
ATOM     12 CL   UNL d   1      -0.130  -4.983  -0.551  0.00  0.00    -0.084 Cl
ATOM     13  C   UNL d   1      -0.084  -4.282  -3.125  0.00  0.00     0.024 A 
ATOM     14  C   UNL d   1      -0.019  -3.404  -4.206  0.00  0.00     0.002 A 
ATOM     15  C   UNL d   1       0.052  -2.036  -3.979  0.00  0.00     0.001 A 
ATOM     16  C   UNL d   1       0.054  -1.547  -2.672  0.00  0.00     0.010 A 
ENDBRANCH   3  10
BRANCH   2  17
ATOM     17  C   UNL d   1       2.580  -1.692   0.215  0.00  0.00     0.292 C 
ATOM     18  O   UNL d   1       3.666  -1.146   0.359  0.00  0.00    -0.259 OA
BRANCH  17  19
ATOM     19  O   UNL d   1       2.413  -3.032   0.104  0.00  0.00    -0.318 OA
BRANCH  19  20
ATOM     20  C   UNL d   1       3.609  -3.796  -0.105  0.00  0.00     0.174 C 
ATOM     21  C   UNL d   1       3.901  -3.848  -1.595  0.00  0.00     0.034 C 
ENDBRANCH  19  20
ENDBRANCH  17  19
ENDBRANCH   2  17
BRANCH   1  22
ATOM     22  C   UNL d   1      -2.519  -1.814   0.300  0.00  0.00     0.292 C 
ATOM     23  O   UNL d   1      -2.660  -2.944  -0.141  0.00  0.00    -0.259 OA
BRANCH  22  24
ATOM     24  O   UNL d   1      -3.414  -1.187   1.104  0.00  0.00    -0.318 OA
BRANCH  24  25
ATOM     25  C   UNL d   1      -4.630  -1.906   1.367  0.00  0.00     0.174 C 
ATOM     26  C   UNL d   1      -5.574  -1.841   0.178  0.00  0.00     0.034 C 
ENDBRANCH  24  25
ENDBRANCH  22  24
ENDBRANCH   1  22
TORSDOF 7
