REMARK  3 active torsions:
REMARK  status: ('A' for Active; 'I' for Inactive)
REMARK    1  A    between atoms: C_2  and  C_1 
REMARK       I    between atoms: N_6  and  C_2 
REMARK    2  A    between atoms: C_5  and  C_10 
REMARK    3  A    between atoms: C_11  and  N_6 
ROOT
ATOM      1  C   UNL d   1      -3.282   0.365   0.143  0.00  0.00     0.259 C 
ATOM      2  N   UNL d   1      -3.718   1.609  -0.258  0.00  0.00    -0.309 N 
ATOM      3  O   UNL d   1      -3.970  -0.608   0.426  0.00  0.00    -0.267 OA
ATOM      4  H   UNL d   1      -3.039   2.326  -0.450  0.00  0.00     0.170 HD
ENDROOT
BRANCH   1   5
ATOM      5  C   UNL d   1      -1.801   0.183   0.175  0.00  0.00     0.054 A 
ATOM      6  C   UNL d   1      -0.874   1.105   0.667  0.00  0.00     0.021 A 
ATOM      7  N   UNL d   1       0.470   0.885   0.601  0.00  0.00    -0.355 N 
ATOM      8  C   UNL d   1      -1.248   2.407   1.310  0.00  0.00     0.069 C 
ATOM      9  C   UNL d   1       0.932  -0.295   0.092  0.00  0.00     0.117 A 
ATOM     10  HN  UNL d   1       1.125   1.595   0.930  1.00  0.00     0.166 HD
ATOM     11  C   UNL d   1       0.059  -1.277  -0.368  0.00  0.00     0.035 A 
ATOM     12  C   UNL d   1      -1.312  -1.032  -0.326  0.00  0.00     0.021 A 
BRANCH   9  13
ATOM     13  C   UNL d   1       2.434  -0.553   0.024  0.00  0.00     0.432 C 
ATOM     14  F   UNL d   1       3.204   0.477   0.475  0.00  0.00    -0.165 F 
ATOM     15  F   UNL d   1       2.809  -1.645   0.752  0.00  0.00    -0.165 F 
ATOM     16  F   UNL d   1       2.859  -0.802  -1.250  0.00  0.00    -0.165 F 
ENDBRANCH   9  13
ENDBRANCH   1   5
BRANCH   2  17
ATOM     17  C   UNL d   1      -5.037   1.938  -0.607  0.00  0.00     0.108 A 
ATOM     18  N   UNL d   1      -5.979   0.987  -0.725  0.00  0.00    -0.342 N 
ATOM     19  C   UNL d   1      -7.181   1.317  -1.229  0.00  0.00     0.043 A 
ATOM     20  HN  UNL d   1      -5.785   0.028  -0.435  1.00  0.00     0.167 HD
ATOM     21  C   UNL d   1      -8.139   0.329  -1.417  0.00  0.00     0.030 A 
ATOM     22  C   UNL d   1      -7.504   2.633  -1.613  0.00  0.00    -0.009 A 
ATOM     23  C   UNL d   1      -9.380   0.609  -1.999  0.00  0.00     0.002 A 
ATOM     24  C   UNL d   1      -9.684   1.908  -2.393  0.00  0.00     0.001 A 
ATOM     25  C   UNL d   1      -8.752   2.924  -2.190  0.00  0.00     0.013 A 
ATOM     26  C   UNL d   1      -6.537   3.622  -1.419  0.00  0.00     0.017 A 
ATOM     27  C   UNL d   1      -5.287   3.269  -0.921  0.00  0.00     0.049 A 
ENDBRANCH   2  17
TORSDOF 3
