REMARK  4 active torsions:
REMARK  status: ('A' for Active; 'I' for Inactive)
REMARK    1  A    between atoms: C_2  and  N_1 
REMARK       I    between atoms: C_3  and  N_5 
REMARK       I    between atoms: N_8  and  C_3 
REMARK    2  A    between atoms: N_5  and  C_4 
REMARK    3  A    between atoms: C_7  and  C_11 
REMARK    4  A    between atoms: C_11  and  N_8 
ROOT
ATOM      1  C   UNL d   1       2.612  -1.415  -0.922  0.00  0.00     0.299 C 
ATOM      2  N   UNL d   1       2.174  -1.005  -2.155  0.00  0.00    -0.311 N 
ATOM      3  N   UNL d   1       2.638  -0.380  -0.013  0.00  0.00    -0.240 NA
ATOM      4  O   UNL d   1       3.046  -2.512  -0.601  0.00  0.00    -0.254 OA
ATOM      5  H   UNL d   1       2.079   0.004  -2.211  0.00  0.00     0.170 HD
ATOM      6  H   UNL d   1       3.422  -0.585   0.593  0.00  0.00     0.132 HD
ENDROOT
BRANCH   2   7
ATOM      7  C   UNL d   1       2.152  -1.771  -3.348  0.00  0.00     0.069 A 
ATOM      8  C   UNL d   1       2.021  -1.163  -4.608  0.00  0.00     0.129 A 
ATOM      9  C   UNL d   1       2.041  -1.886  -5.811  0.00  0.00     0.038 A 
ATOM     10  C   UNL d   1       2.179  -3.268  -5.764  0.00  0.00     0.003 A 
ATOM     11  C   UNL d   1       2.279  -3.907  -4.530  0.00  0.00     0.002 A 
ATOM     12  C   UNL d   1       2.262  -3.168  -3.337  0.00  0.00     0.032 A 
BRANCH   8  13
ATOM     13  N   UNL d   1       1.883   0.271  -4.713  0.00  0.00    -0.113 N 
ATOM     14  O   UNL d   1       2.896   0.952  -4.518  0.00  0.00    -0.532 OA
ATOM     15  O   UNL d   1       0.755   0.705  -4.978  0.00  0.00    -0.532 OA
ENDBRANCH   8  13
ENDBRANCH   2   7
BRANCH   3  16
ATOM     16  C   UNL d   1       1.476  -0.225   0.849  0.00  0.00     0.138 C 
BRANCH  16  17
ATOM     17  C   UNL d   1       0.495   0.800   0.358  0.00  0.00    -0.006 A 
ATOM     18  C   UNL d   1       0.515   2.101   0.873  0.00  0.00     0.123 A 
ATOM     19  F   UNL d   1       1.431   2.444   1.790  0.00  0.00    -0.206 F 
ATOM     20  C   UNL d   1      -0.418   3.054   0.474  0.00  0.00     0.043 A 
ATOM     21  C   UNL d   1      -1.390   2.716  -0.465  0.00  0.00     0.003 A 
ATOM     22  C   UNL d   1      -1.417   1.428  -1.002  0.00  0.00     0.001 A 
ATOM     23  C   UNL d   1      -0.482   0.474  -0.592  0.00  0.00     0.011 A 
ENDBRANCH  16  17
ENDBRANCH   3  16
TORSDOF 4
