REMARK  7 active torsions:
REMARK  status: ('A' for Active; 'I' for Inactive)
REMARK    1  A    between atoms: C_2  and  C_1 
REMARK       I    between atoms: N_6  and  C_1 
REMARK    2  A    between atoms: O_13  and  C_3 
REMARK    3  A    between atoms: O_15  and  C_4 
REMARK    4  A    between atoms: O_14  and  C_5 
REMARK    5  A    between atoms: C_9  and  N_6 
REMARK    6  A    between atoms: C_11  and  C_9 
REMARK    7  A    between atoms: C_12  and  C_11 
ROOT
ATOM      1  C   UNL d   1       2.340  -0.274  -0.234  0.00  0.00     0.037 A 
ATOM      2  C   UNL d   1       5.120  -0.708  -0.533  0.00  0.00     0.135 A 
ATOM      3  C   UNL d   1       4.436  -1.247   0.577  0.00  0.00     0.105 A 
ATOM      4  C   UNL d   1       4.385   0.045  -1.480  0.00  0.00     0.105 A 
ATOM      5  C   UNL d   1       3.053  -1.036   0.701  0.00  0.00     0.057 A 
ATOM      6  C   UNL d   1       3.017   0.295  -1.310  0.00  0.00     0.057 A 
ENDROOT
BRANCH   1   7
ATOM      7  C   UNL d   1       0.860  -0.197  -0.089  0.00  0.00     0.252 C 
ATOM      8  N   UNL d   1       0.234   0.937  -0.552  0.00  0.00    -0.348 N 
ATOM      9  H   UNL d   1       0.815   1.707  -0.857  0.00  0.00     0.163 HD
ATOM     10  O   UNL d   1       0.274  -1.137   0.447  0.00  0.00    -0.268 OA
BRANCH   8  11
ATOM     11  C   UNL d   1      -1.228   1.158  -0.553  0.00  0.00     0.026 C 
ATOM     12  C   UNL d   1      -1.501   2.519  -1.222  0.00  0.00     0.038 C 
ATOM     13  C   UNL d   1      -1.894   0.100  -1.472  0.00  0.00     0.038 C 
BRANCH  11  14
ATOM     14  C   UNL d   1      -1.901   1.047   0.863  0.00  0.00     0.038 C 
BRANCH  14  15
ATOM     15  C   UNL d   1      -1.488   1.943   2.077  0.00  0.00    -0.049 C 
ATOM     16  C   UNL d   1      -1.813   3.430   1.870  0.00  0.00     0.014 C 
ATOM     17  C   UNL d   1      -2.311   1.490   3.312  0.00  0.00     0.014 C 
ATOM     18  C   UNL d   1      -0.006   1.785   2.440  0.00  0.00     0.014 C 
ENDBRANCH  14  15
ENDBRANCH  11  14
ENDBRANCH   8  11
ENDBRANCH   1   7
BRANCH   3  19
ATOM     19  O   UNL d   1       5.150  -1.972   1.495  0.00  0.00    -0.353 OA
ATOM     20  C   UNL d   1       4.496  -2.400   2.682  0.00  0.00     0.210 C 
ENDBRANCH   3  19
BRANCH   4  21
ATOM     21  O   UNL d   1       4.916   0.618  -2.614  0.00  0.00    -0.353 OA
ATOM     22  C   UNL d   1       5.741  -0.256  -3.385  0.00  0.00     0.210 C 
ENDBRANCH   4  21
BRANCH   2  23
ATOM     23  O   UNL d   1       6.465  -0.800  -0.790  0.00  0.00    -0.351 OA
ATOM     24  C   UNL d   1       7.275  -1.696  -0.046  0.00  0.00     0.210 C 
ENDBRANCH   2  23
TORSDOF 7
