REMARK  5 active torsions:
REMARK  status: ('A' for Active; 'I' for Inactive)
REMARK    1  A    between atoms: C_6  and  N_1 
REMARK    2  A    between atoms: C_4  and  S_11 
REMARK    3  A    between atoms: O_18  and  C_5 
REMARK    4  A    between atoms: S_11  and  C_16 
REMARK    5  A    between atoms: C_16  and  C_17 
ROOT
ATOM      1  S   UNL d   1      -1.096  -1.662   6.157  0.00  0.00    -0.089 SA
ENDROOT
BRANCH   1   2
ATOM      2  C   UNL d   1      -2.351  -2.119   7.324  0.00  0.00     0.146 A 
ATOM      3  N   UNL d   1      -1.999  -2.057   8.618  0.00  0.00    -0.318 N 
ATOM      4  C   UNL d   1      -2.974  -2.332   9.487  0.00  0.00     0.142 A 
ATOM      5  HN  UNL d   1      -1.053  -1.817   8.916  1.00  0.00     0.170 HD
ATOM      6  C   UNL d   1      -4.260  -2.660   9.164  0.00  0.00     0.073 A 
ATOM      7  C   UNL d   1      -4.509  -2.712   7.817  0.00  0.00     0.094 A 
ATOM      8  N   UNL d   1      -3.577  -2.449   6.879  0.00  0.00    -0.347 N 
ATOM      9  HN  UNL d   1      -3.790  -2.498   5.883  1.00  0.00     0.167 HD
BRANCH   4  10
ATOM     10  O   UNL d   1      -2.598  -2.254  10.789  0.00  0.00    -0.346 OA
ATOM     11  H   UNL d   1      -1.659  -2.007  10.692  0.00  0.00     0.219 HD
ENDBRANCH   4  10
ENDBRANCH   1   2
BRANCH   1  12
ATOM     12  C   UNL d   1      -1.969  -1.980   4.591  0.00  0.00     0.121 C 
BRANCH  12  13
ATOM     13  C   UNL d   1      -1.169  -1.517   3.390  0.00  0.00    -0.048 A 
ATOM     14  C   UNL d   1       0.102  -2.052   3.114  0.00  0.00     0.010 A 
ATOM     15  C   UNL d   1       0.835  -1.619   2.008  0.00  0.00     0.036 A 
ATOM     16  C   UNL d   1       0.290  -0.655   1.152  0.00  0.00     0.102 A 
ATOM     17  C   UNL d   1      -0.982  -0.126   1.397  0.00  0.00     0.036 A 
ATOM     18  C   UNL d   1      -1.704  -0.558   2.513  0.00  0.00     0.010 A 
BRANCH  16  19
ATOM     19  N   UNL d   1       1.058  -0.199  -0.013  0.00  0.00    -0.116 N 
ATOM     20  O   UNL d   1       0.529   0.637  -0.759  0.00  0.00    -0.532 OA
ATOM     21  O   UNL d   1       2.189  -0.675  -0.182  0.00  0.00    -0.532 OA
ENDBRANCH  16  19
ENDBRANCH  12  13
ENDBRANCH   1  12
TORSDOF 5
