REMARK  6 active torsions:
REMARK  status: ('A' for Active; 'I' for Inactive)
REMARK    1  A    between atoms: C_2  and  S_1 
REMARK    2  A    between atoms: N_3  and  S_1 
REMARK    3  A    between atoms: C_11  and  N_3 
REMARK    4  A    between atoms: O_12  and  C_5 
REMARK    5  A    between atoms: O_13  and  C_8 
REMARK    6  A    between atoms: C_14  and  C_11 
ROOT
ATOM      1  S   UNL d   1       0.923  -0.045   0.016  0.00  0.00     0.259 S 
ATOM      2  O   UNL d   1       1.143  -1.203  -0.829  0.00  0.00    -0.201 OA
ATOM      3  O   UNL d   1       1.911   0.998   0.155  0.00  0.00    -0.201 OA
ENDROOT
BRANCH   1   4
ATOM      4  C   UNL d   1       0.508  -0.623   1.637  0.00  0.00     0.082 A 
ATOM      5  C   UNL d   1       0.612  -1.986   1.929  0.00  0.00     0.065 A 
ATOM      6  C   UNL d   1       0.306  -2.467   3.210  0.00  0.00     0.102 A 
ATOM      7  C   UNL d   1      -0.112  -1.553   4.197  0.00  0.00     0.101 A 
ATOM      8  C   UNL d   1      -0.217  -0.188   3.880  0.00  0.00     0.041 A 
ATOM      9  C   UNL d   1       0.101   0.284   2.610  0.00  0.00     0.028 A 
BRANCH   6  10
ATOM     10  O   UNL d   1       0.398  -3.792   3.540  0.00  0.00    -0.353 OA
ATOM     11  C   UNL d   1       0.791  -4.714   2.529  0.00  0.00     0.210 C 
ENDBRANCH   6  10
BRANCH   7  12
ATOM     12  O   UNL d   1      -0.460  -1.797   5.500  0.00  0.00    -0.353 OA
ATOM     13  C   UNL d   1      -0.301  -3.108   6.019  0.00  0.00     0.210 C 
ENDBRANCH   7  12
ENDBRANCH   1   4
BRANCH   1  14
ATOM     14  N   UNL d   1      -0.528   0.616  -0.507  0.00  0.00    -0.311 N 
ATOM     15  H   UNL d   1      -0.898   0.133  -1.325  0.00  0.00     0.172 HD
BRANCH  14  16
ATOM     16  C   UNL d   1      -0.630   2.075  -0.501  0.00  0.00     0.170 C 
BRANCH  16  17
ATOM     17  C   UNL d   1      -1.843   2.557  -1.254  0.00  0.00    -0.040 A 
ATOM     18  C   UNL d   1      -2.923   3.133  -0.571  0.00  0.00     0.009 A 
ATOM     19  C   UNL d   1      -4.023   3.622  -1.275  0.00  0.00     0.001 A 
ATOM     20  C   UNL d   1      -4.060   3.528  -2.665  0.00  0.00     0.000 A 
ATOM     21  C   UNL d   1      -3.000   2.942  -3.354  0.00  0.00     0.001 A 
ATOM     22  C   UNL d   1      -1.895   2.458  -2.653  0.00  0.00     0.009 A 
ENDBRANCH  16  17
ENDBRANCH  14  16
ENDBRANCH   1  14
TORSDOF 6
