REMARK  5 active torsions:
REMARK  status: ('A' for Active; 'I' for Inactive)
REMARK    1  A    between atoms: C_5  and  C_1 
REMARK       I    between atoms: N_10  and  C_5 
REMARK    2  A    between atoms: C_13  and  N_10 
REMARK    3  A    between atoms: C_16  and  C_11 
REMARK    4  A    between atoms: C_15  and  C_13 
REMARK    5  A    between atoms: C_14  and  C_15 
ROOT
ATOM      1  C   UNL d   1      -2.449   0.011  -0.045  0.00  0.00     0.102 A 
ATOM      2  N   UNL d   1      -1.607  -1.081   0.042  0.00  0.00    -0.351 N 
ATOM      3  C   UNL d   1      -1.639   1.131   0.028  0.00  0.00     0.049 A 
ATOM      4  C   UNL d   1      -0.293   0.707   0.169  0.00  0.00    -0.007 A 
ATOM      5  C   UNL d   1      -0.295  -0.684   0.175  0.00  0.00     0.043 A 
ATOM      6  C   UNL d   1       0.932   1.391   0.293  0.00  0.00     0.021 A 
ATOM      7  C   UNL d   1       0.879  -1.435   0.302  0.00  0.00     0.031 A 
ATOM      8  C   UNL d   1       2.128   0.664   0.413  0.00  0.00    -0.058 A 
ATOM      9  C   UNL d   1       2.088  -0.734   0.424  0.00  0.00     0.009 A 
ATOM     10  H   UNL d   1      -1.929  -2.038   0.013  0.00  0.00     0.166 HD
ENDROOT
BRANCH   1  11
ATOM     11  C   UNL d   1      -3.880  -0.135  -0.188  0.00  0.00     0.268 C 
ATOM     12  O   UNL d   1      -4.426  -1.234  -0.245  0.00  0.00    -0.266 OA
ATOM     13  N   UNL d   1      -4.582   1.047  -0.246  0.00  0.00    -0.355 N 
ATOM     14  H   UNL d   1      -4.099   1.908  -0.038  0.00  0.00     0.162 HD
BRANCH  13  15
ATOM     15  C   UNL d   1      -6.030   1.065  -0.282  0.00  0.00     0.127 C 
BRANCH  15  16
ATOM     16  C   UNL d   1      -6.608   2.483  -0.355  0.00  0.00     0.058 C 
BRANCH  16  17
ATOM     17  C   UNL d   1      -6.349   3.335   0.869  0.00  0.00    -0.057 A 
ATOM     18  C   UNL d   1      -5.712   4.578   0.748  0.00  0.00     0.007 A 
ATOM     19  C   UNL d   1      -5.509   5.386   1.869  0.00  0.00     0.001 A 
ATOM     20  C   UNL d   1      -5.942   4.963   3.123  0.00  0.00     0.000 A 
ATOM     21  C   UNL d   1      -6.581   3.733   3.257  0.00  0.00     0.001 A 
ATOM     22  C   UNL d   1      -6.787   2.925   2.137  0.00  0.00     0.007 A 
ENDBRANCH  16  17
ENDBRANCH  15  16
ENDBRANCH  13  15
ENDBRANCH   1  11
BRANCH   8  23
ATOM     23  C   UNL d   1       3.434   1.406   0.550  0.00  0.00     0.034 C 
ATOM     24  C   UNL d   1       3.760   1.733   1.999  0.00  0.00     0.010 C 
ENDBRANCH   8  23
TORSDOF 5
