REMARK  6 active torsions:
REMARK  status: ('A' for Active; 'I' for Inactive)
REMARK    1  A    between atoms: C_8  and  C_1 
REMARK    2  A    between atoms: S_9  and  C_2 
REMARK    3  A    between atoms: S_11  and  C_3 
REMARK    4  A    between atoms: O_16  and  C_8 
REMARK    5  A    between atoms: C_14  and  S_9 
REMARK    6  A    between atoms: C_25  and  O_16 
ROOT
ATOM      1  C   UNL d   1       3.090   1.362   0.110  0.00  0.00     0.090 A 
ATOM      2  C   UNL d   1       1.720   1.718   0.088  0.00  0.00     0.037 A 
ATOM      3  C   UNL d   1       3.412   0.004   0.057  0.00  0.00     0.087 A 
ATOM      4  C   UNL d   1       0.721   0.694  -0.010  0.00  0.00     0.011 A 
ATOM      5  N   UNL d   1       2.462  -0.960   0.034  0.00  0.00    -0.349 N 
ATOM      6  HN  UNL d   1       2.738  -1.942   0.031  1.00  0.00     0.166 HD
ATOM      7  C   UNL d   1       1.173  -0.635   0.014  0.00  0.00     0.044 A 
ATOM      8  C   UNL d   1      -0.683   0.898  -0.126  0.00  0.00     0.039 A 
ATOM      9  C   UNL d   1       0.268  -1.687   0.008  0.00  0.00     0.032 A 
ATOM     10  C   UNL d   1      -1.576  -0.171  -0.144  0.00  0.00     0.035 A 
ATOM     11  C   UNL d   1      -1.104  -1.471  -0.059  0.00  0.00     0.026 A 
ATOM     12 CL   UNL d   1      -3.266   0.119  -0.265  0.00  0.00    -0.084 Cl
ENDROOT
BRANCH   2  13
ATOM     13  S   UNL d   1       1.178   3.445   0.130  0.00  0.00    -0.088 SA
BRANCH  13  14
ATOM     14  C   UNL d   1       1.031   3.799   1.873  0.00  0.00     0.005 A 
ATOM     15  C   UNL d   1       1.833   4.799   2.429  0.00  0.00     0.019 A 
ATOM     16  C   UNL d   1       1.627   5.227   3.748  0.00  0.00     0.008 A 
ATOM     17  C   UNL d   1       0.608   4.666   4.522  0.00  0.00    -0.062 A 
ATOM     18  C   UNL d   1      -0.176   3.647   3.977  0.00  0.00     0.008 A 
ATOM     19  C   UNL d   1       0.349   5.179   5.911  0.00  0.00     0.048 C 
ATOM     20  C   UNL d   1       0.032   3.220   2.659  0.00  0.00     0.019 A 
ENDBRANCH  13  14
ENDBRANCH   2  13
BRANCH   1  21
ATOM     21  C   UNL d   1       4.172   2.356   0.280  0.00  0.00     0.297 C 
ATOM     22  O   UNL d   1       5.047   2.251   1.123  0.00  0.00    -0.259 OA
BRANCH  21  23
ATOM     23  O   UNL d   1       4.049   3.379  -0.605  0.00  0.00    -0.318 OA
BRANCH  23  24
ATOM     24  C   UNL d   1       4.945   4.486  -0.405  0.00  0.00     0.174 C 
ATOM     25  C   UNL d   1       6.032   4.444  -1.458  0.00  0.00     0.034 C 
ENDBRANCH  23  24
ENDBRANCH  21  23
ENDBRANCH   1  21
BRANCH   3  26
ATOM     26  S   UNL d   1       5.083  -0.644  -0.063  0.00  0.00    -0.116 SA
ATOM     27  C   UNL d   1       4.759  -2.436  -0.077  0.00  0.00     0.097 C 
ENDBRANCH   3  26
TORSDOF 6
