REMARK  4 active torsions:
REMARK  status: ('A' for Active; 'I' for Inactive)
REMARK    1  A    between atoms: C_11  and  C_2 
REMARK    2  A    between atoms: C_14  and  C_10 
REMARK    3  A    between atoms: C_13  and  C_12 
REMARK    4  A    between atoms: O_23  and  C_20 
ROOT
ATOM      1  N   UNL d   1       0.302   0.626   0.065  0.00  0.00    -0.235 N 
ATOM      2  C   UNL d   1      -0.813   1.452   0.049  0.00  0.00     0.144 A 
ATOM      3  C   UNL d   1       0.149  -0.763   0.067  0.00  0.00     0.130 A 
ATOM      4  N   UNL d   1       1.609   0.964   0.064  0.00  0.00    -0.291 N 
ATOM      5  HN  UNL d   1       1.994   1.908   0.082  1.00  0.00     0.187 HD
ATOM      6  N   UNL d   1      -1.073  -1.371   0.077  0.00  0.00    -0.340 N 
ATOM      7  HN  UNL d   1      -1.164  -2.386   0.082  1.00  0.00     0.167 HD
ATOM      8  C   UNL d   1      -2.046   0.902   0.042  0.00  0.00     0.067 A 
ATOM      9  C   UNL d   1       1.417  -1.289   0.047  0.00  0.00     0.082 A 
ATOM     10  C   UNL d   1       2.299  -0.184   0.036  0.00  0.00     0.062 A 
ATOM     11  C   UNL d   1      -2.119  -0.593   0.079  0.00  0.00     0.046 A 
ENDROOT
BRANCH  11  12
ATOM     12  C   UNL d   1      -3.481  -1.204   0.089  0.00  0.00    -0.009 A 
ATOM     13  C   UNL d   1      -4.580  -0.570   0.681  0.00  0.00     0.016 A 
ATOM     14  C   UNL d   1      -5.845  -1.169   0.651  0.00  0.00     0.037 A 
ATOM     15  C   UNL d   1      -6.017  -2.414   0.045  0.00  0.00     0.068 A 
ATOM     16  C   UNL d   1      -4.922  -3.051  -0.538  0.00  0.00     0.037 A 
ATOM     17  C   UNL d   1      -3.657  -2.459  -0.506  0.00  0.00     0.016 A 
BRANCH  15  18
ATOM     18  O   UNL d   1      -7.207  -3.077  -0.069  0.00  0.00    -0.356 OA
ATOM     19  C   UNL d   1      -8.161  -2.816   0.955  0.00  0.00     0.210 C 
ENDBRANCH  15  18
ENDBRANCH  11  12
BRANCH   2  20
ATOM     20  C   UNL d   1      -0.627   2.923   0.019  0.00  0.00     0.434 C 
ATOM     21  F   UNL d   1       0.644   3.384  -0.006  0.00  0.00    -0.165 F 
ATOM     22  F   UNL d   1      -1.250   3.462  -1.067  0.00  0.00    -0.165 F 
ATOM     23  F   UNL d   1      -1.221   3.498   1.103  0.00  0.00    -0.165 F 
ENDBRANCH   2  20
BRANCH  10  24
ATOM     24  C   UNL d   1       3.767  -0.187  -0.004  0.00  0.00    -0.008 A 
ATOM     25  C   UNL d   1       4.480   1.023   0.007  0.00  0.00     0.014 A 
ATOM     26  C   UNL d   1       5.877   1.034  -0.038  0.00  0.00     0.001 A 
ATOM     27  C   UNL d   1       6.580  -0.167  -0.095  0.00  0.00     0.000 A 
ATOM     28  C   UNL d   1       5.888  -1.375  -0.107  0.00  0.00     0.001 A 
ATOM     29  C   UNL d   1       4.491  -1.387  -0.062  0.00  0.00     0.014 A 
ENDBRANCH  10  24
TORSDOF 4
