REMARK  3 active torsions:
REMARK  status: ('A' for Active; 'I' for Inactive)
REMARK    1  A    between atoms: C_11  and  C_2 
REMARK       I    between atoms: C_5  and  N_15 
REMARK    2  A    between atoms: C_12  and  C_5 
REMARK       I    between atoms: N_16  and  C_11 
REMARK    3  A    between atoms: N_15  and  N_16 
ROOT
ATOM      1  C   UNL d   1      -3.465  -1.510  -0.008  0.00  0.00     0.270 C 
ATOM      2  N   UNL d   1      -3.453  -2.893   0.018  0.00  0.00    -0.263 N 
ATOM      3  O   UNL d   1      -4.521  -0.883  -0.002  0.00  0.00    -0.266 OA
ATOM      4  H   UNL d   1      -2.633  -3.491   0.028  0.00  0.00     0.190 HD
ENDROOT
BRANCH   1   5
ATOM      5  C   UNL d   1      -2.156  -0.775  -0.025  0.00  0.00     0.036 A 
ATOM      6  C   UNL d   1      -0.914  -1.444  -0.006  0.00  0.00     0.051 A 
ATOM      7  C   UNL d   1       0.216  -0.597  -0.007  0.00  0.00     0.086 A 
ATOM      8  C   UNL d   1       0.115   0.856  -0.027  0.00  0.00     0.085 A 
ATOM      9  N   UNL d   1       1.514  -0.923   0.014  0.00  0.00    -0.240 N 
ATOM     10  N   UNL d   1       1.351   1.366  -0.021  0.00  0.00    -0.240 N 
ATOM     11  C   UNL d   1      -1.122   1.519  -0.051  0.00  0.00     0.035 A 
ATOM     12  O   UNL d   1       2.207   0.278   0.005  0.00  0.00    -0.156 OA
ATOM     13  HN  UNL d   1       1.610   2.352  -0.032  1.00  0.00     0.197 HD
ATOM     14  C   UNL d   1      -2.239   0.657  -0.047  0.00  0.00     0.019 A 
ATOM     15  HN  UNL d   1       1.913  -1.862   0.033  1.00  0.00     0.197 HD
ENDBRANCH   1   5
BRANCH   2  16
ATOM     16  N   UNL d   1      -4.694  -3.548   0.095  0.00  0.00    -0.263 N 
ATOM     17  C   UNL d   1      -4.799  -4.886  -0.244  0.00  0.00     0.277 C 
ATOM     18  O   UNL d   1      -3.812  -5.514  -0.633  0.00  0.00    -0.265 OA
ATOM     19  H   UNL d   1      -5.514  -2.967   0.265  0.00  0.00     0.190 HD
BRANCH  17  20
ATOM     20  C   UNL d   1      -6.120  -5.489  -0.094  0.00  0.00     0.074 A 
ATOM     21  S   UNL d   1      -7.413  -4.678   0.692  0.00  0.00    -0.097 SA
ATOM     22  C   UNL d   1      -8.456  -6.023   0.528  0.00  0.00     0.050 A 
ATOM     23  C   UNL d   1      -7.851  -7.066  -0.135  0.00  0.00     0.009 A 
ATOM     24  C   UNL d   1      -6.506  -6.757  -0.494  0.00  0.00     0.025 A 
ENDBRANCH  17  20
ENDBRANCH   2  16
TORSDOF 3
