REMARK  4 active torsions:
REMARK  status: ('A' for Active; 'I' for Inactive)
REMARK    1  A    between atoms: C_3  and  C_1 
REMARK    2  A    between atoms: C_19  and  N_7 
REMARK    3  A    between atoms: C_21  and  C_8 
REMARK    4  A    between atoms: N_22  and  C_9 
ROOT
ATOM      1  C   UNL d   1      -1.790   2.856   1.235  0.00  0.00     0.081 C 
ATOM      2  C   UNL d   1      -1.135   2.540  -0.100  0.00  0.00     0.109 C 
ATOM      3  C   UNL d   1      -0.543   3.773  -0.746  0.00  0.00     0.031 C 
ATOM      4  C   UNL d   1      -2.283   4.099   1.434  0.00  0.00     0.138 C 
ATOM      5  C   UNL d   1      -1.136   4.957  -0.497  0.00  0.00     0.066 C 
ATOM      6  O   UNL d   1      -2.130   5.086   0.465  0.00  0.00    -0.301 OA
ATOM      7  C   UNL d   1       0.576   3.761  -1.731  0.00  0.00     0.159 C 
ATOM      8  C   UNL d   1      -1.997   1.836   2.211  0.00  0.00     0.100 C 
ATOM      9  N   UNL d   1      -2.221   1.026   3.009  0.00  0.00    -0.191 NA
ATOM     10  C   UNL d   1      -0.869   6.243  -1.233  0.00  0.00     0.075 C 
ATOM     11  C   UNL d   1      -0.057   6.057  -2.530  0.00  0.00    -0.035 C 
ATOM     12  C   UNL d   1       1.104   5.101  -2.225  0.00  0.00     0.092 C 
ATOM     13  O   UNL d   1       1.096   2.714  -2.102  0.00  0.00    -0.293 OA
ATOM     14  C   UNL d   1       0.473   7.425  -2.991  0.00  0.00     0.015 C 
ATOM     15  C   UNL d   1      -0.925   5.480  -3.671  0.00  0.00     0.015 C 
ENDROOT
BRANCH   2  16
ATOM     16  C   UNL d   1      -0.399   1.226  -0.164  0.00  0.00     0.002 A 
ATOM     17  C   UNL d   1       0.683   0.659   0.585  0.00  0.00     0.067 A 
ATOM     18  N   UNL d   1       0.841  -0.645   0.287  0.00  0.00    -0.293 N 
ATOM     19  N   UNL d   1      -0.065  -0.920  -0.681  0.00  0.00    -0.267 N 
ATOM     20  HN  UNL d   1       1.508  -1.294   0.705  1.00  0.00     0.187 HD
ATOM     21  C   UNL d   1      -0.799   0.194  -0.994  0.00  0.00     0.127 A 
BRANCH  17  22
ATOM     22  C   UNL d   1       1.505   1.286   1.627  0.00  0.00    -0.007 A 
ATOM     23  C   UNL d   1       1.996   2.588   1.476  0.00  0.00     0.014 A 
ATOM     24  C   UNL d   1       2.736   3.201   2.491  0.00  0.00     0.001 A 
ATOM     25  C   UNL d   1       3.018   2.506   3.663  0.00  0.00     0.000 A 
ATOM     26  C   UNL d   1       2.573   1.194   3.813  0.00  0.00     0.001 A 
ATOM     27  C   UNL d   1       1.821   0.587   2.801  0.00  0.00     0.014 A 
ENDBRANCH  17  22
BRANCH  19  28
ATOM     28  C   UNL d   1      -0.236  -2.227  -1.224  0.00  0.00     0.056 A 
ATOM     29  C   UNL d   1      -1.129  -2.454  -2.287  0.00  0.00     0.031 A 
ATOM     30  C   UNL d   1      -1.296  -3.738  -2.812  0.00  0.00     0.002 A 
ATOM     31  C   UNL d   1      -0.582  -4.807  -2.278  0.00  0.00     0.000 A 
ATOM     32  C   UNL d   1       0.299  -4.593  -1.219  0.00  0.00     0.002 A 
ATOM     33  C   UNL d   1       0.477  -3.309  -0.692  0.00  0.00     0.031 A 
ENDBRANCH  19  28
ENDBRANCH   2  16
BRANCH   4  34
ATOM     34  N   UNL d   1      -2.996   4.524   2.528  0.00  0.00    -0.282 NA
ATOM     35  H   UNL d   1      -3.435   3.792   3.084  0.00  0.00     0.126 HD
ATOM     36  H   UNL d   1      -3.631   5.286   2.303  0.00  0.00     0.126 HD
ENDBRANCH   4  34
TORSDOF 4
