REMARK  4 active torsions:
REMARK  status: ('A' for Active; 'I' for Inactive)
REMARK    1  A    between atoms: C_7  and  C_1 
REMARK    2  A    between atoms: O_5  and  C_2 
REMARK    3  A    between atoms: C_10  and  O_5 
REMARK    4  A    between atoms: O_11  and  N_8 
ROOT
ATOM      1  C   UNL d   1       0.888  -0.275  -0.793  0.00  0.00     0.056 A 
ATOM      2  C   UNL d   1       1.206   0.875  -0.097  0.00  0.00     0.095 A 
ATOM      3  S   UNL d   1      -0.641  -0.893  -0.311  0.00  0.00    -0.098 SA
ATOM      4  C   UNL d   1       0.221   1.199   0.887  0.00  0.00     0.046 A 
ATOM      5  C   UNL d   1      -0.849   0.333   0.857  0.00  0.00     0.053 A 
ENDROOT
BRANCH   2   6
ATOM      6  O   UNL d   1       2.362   1.550  -0.335  0.00  0.00    -0.309 OA
BRANCH   6   7
ATOM      7  C   UNL d   1       2.473   2.886  -0.029  0.00  0.00     0.076 A 
ATOM      8  C   UNL d   1       3.611   3.303   0.659  0.00  0.00     0.037 A 
ATOM      9  C   UNL d   1       3.766   4.650   0.993  0.00  0.00     0.003 A 
ATOM     10  C   UNL d   1       2.789   5.577   0.625  0.00  0.00     0.000 A 
ATOM     11  C   UNL d   1       1.667   5.163  -0.092  0.00  0.00     0.003 A 
ATOM     12  C   UNL d   1       1.515   3.820  -0.434  0.00  0.00     0.037 A 
ENDBRANCH   6   7
ENDBRANCH   2   6
BRANCH   1  13
ATOM     13  C   UNL d   1       1.603  -0.988  -1.823  0.00  0.00     0.135 C 
ATOM     14  N   UNL d   1       2.767  -0.612  -2.251  0.00  0.00    -0.279 N 
ATOM     15  HN  UNL d   1       3.284   0.202  -1.919  1.00  0.00     0.193 HD
BRANCH  14  16
ATOM     16  O   UNL d   1       3.203  -1.503  -3.241  0.00  0.00    -0.290 OA
ATOM     17  H   UNL d   1       4.072  -1.134  -3.484  0.00  0.00     0.244 HD
ENDBRANCH  14  16
ENDBRANCH   1  13
TORSDOF 4
