REMARK  2 active torsions:
REMARK  status: ('A' for Active; 'I' for Inactive)
REMARK    1  A    between atoms: N_7  and  C_1 
REMARK       I    between atoms: C_6  and  N_8 
REMARK    2  A    between atoms: C_9  and  C_6 
ROOT
ATOM      1  C   UNL d   1       0.074   1.683  -0.190  0.00  0.00     0.290 C 
ATOM      2  C   UNL d   1      -1.043   0.654  -0.350  0.00  0.00    -0.009 C 
ATOM      3  C   UNL d   1       1.303   0.771  -0.184  0.00  0.00    -0.009 A 
ATOM      4  C   UNL d   1      -0.537  -0.649  -0.154  0.00  0.00    -0.017 C 
ATOM      5  C   UNL d   1       0.906  -0.581  -0.098  0.00  0.00    -0.017 A 
ATOM      6  C   UNL d   1      -2.368   0.834  -0.720  0.00  0.00     0.010 C 
ATOM      7  C   UNL d   1       2.640   1.139  -0.203  0.00  0.00     0.010 A 
ATOM      8  C   UNL d   1      -1.391  -1.740  -0.105  0.00  0.00     0.013 C 
ATOM      9  C   UNL d   1       1.859  -1.584  -0.038  0.00  0.00     0.013 A 
ATOM     10  C   UNL d   1       3.597   0.128  -0.138  0.00  0.00     0.001 A 
ATOM     11  C   UNL d   1      -3.233  -0.261  -0.668  0.00  0.00     0.001 C 
ATOM     12  C   UNL d   1       3.209  -1.221  -0.056  0.00  0.00     0.001 A 
ATOM     13  C   UNL d   1      -2.755  -1.532  -0.322  0.00  0.00     0.001 C 
ENDROOT
BRANCH   1  14
ATOM     14  N   UNL d   1       0.075   2.539   1.014  0.00  0.00     0.105 N 
ATOM     15  C   UNL d   1       0.151   1.885   2.330  0.00  0.00     0.293 C 
ATOM     16  C   UNL d   1      -1.181   1.397   2.921  0.00  0.00     0.156 C 
ATOM     17  N   UNL d   1      -2.309   2.338   2.807  0.00  0.00    -0.348 N 
ATOM     18  C   UNL d   1      -3.440   1.963   3.539  0.00  0.00     0.227 C 
ATOM     19  C   UNL d   1      -2.309   3.180   1.613  0.00  0.00     0.156 C 
ATOM     20  O   UNL d   1      -3.297   1.255   4.543  0.00  0.00    -0.273 OA
ATOM     21  C   UNL d   1      -0.932   3.593   1.063  0.00  0.00     0.293 C 
BRANCH  18  22
ATOM     22  C   UNL d   1      -4.894   2.347   3.094  0.00  0.00     0.030 C 
ATOM     23  C   UNL d   1      -5.227   1.766   1.710  0.00  0.00     0.025 C 
ATOM     24  C   UNL d   1      -5.882   1.661   4.076  0.00  0.00     0.025 C 
ATOM     25  C   UNL d   1      -5.210   3.845   3.158  0.00  0.00     0.025 C 
ENDBRANCH  18  22
ENDBRANCH   1  14
TORSDOF 2
