REMARK  3 active torsions:
REMARK  status: ('A' for Active; 'I' for Inactive)
REMARK    1  A    between atoms: C_13  and  C_6 
REMARK    2  A    between atoms: C_10  and  O_12 
REMARK    3  A    between atoms: O_12  and  C_13 
ROOT
ATOM      1  C   UNL d   1       1.050   0.570  -0.823  0.00  0.00     0.301 A 
ATOM      2  N   UNL d   1       0.598  -1.716   0.708  0.00  0.00    -0.337 N 
ATOM      3  HN  UNL d   1       0.467  -2.570   1.250  1.00  0.00     0.168 HD
ATOM      4  O   UNL d   1       1.949  -0.443  -0.750  0.00  0.00    -0.259 OA
ATOM      5  C   UNL d   1      -0.200   0.432  -0.064  0.00  0.00     0.066 A 
ATOM      6  C   UNL d   1       1.674  -1.518   0.019  0.00  0.00     0.152 A 
ATOM      7  C   UNL d   1      -0.372  -0.722   0.682  0.00  0.00     0.050 A 
ATOM      8  O   UNL d   1       1.257   1.568  -1.503  0.00  0.00    -0.259 OA
ATOM      9  C   UNL d   1      -1.188   1.423  -0.086  0.00  0.00     0.020 A 
ATOM     10  C   UNL d   1      -1.546  -0.894   1.420  0.00  0.00     0.030 A 
ATOM     11  C   UNL d   1      -2.361   1.245   0.649  0.00  0.00     0.001 A 
ATOM     12  C   UNL d   1      -2.539   0.086   1.404  0.00  0.00     0.002 A 
ENDROOT
BRANCH   6  13
ATOM     13  C   UNL d   1       2.751  -2.586   0.003  0.00  0.00     0.260 C 
BRANCH  13  14
ATOM     14  O   UNL d   1       4.073  -2.096  -0.157  0.00  0.00    -0.342 OA
BRANCH  14  15
ATOM     15  C   UNL d   1       5.063  -3.049  -0.083  0.00  0.00     0.091 A 
ATOM     16  C   UNL d   1       6.226  -2.860  -0.850  0.00  0.00     0.069 A 
ATOM     17  C   UNL d   1       7.277  -3.782  -0.795  0.00  0.00     0.050 A 
ATOM     18 CL   UNL d   1       6.398  -1.498  -1.900  0.00  0.00    -0.081 Cl
ATOM     19  C   UNL d   1       7.177  -4.891   0.039  0.00  0.00     0.035 A 
ATOM     20  C   UNL d   1       6.044  -5.082   0.822  0.00  0.00     0.026 A 
ATOM     21 CL   UNL d   1       8.463  -6.030   0.117  0.00  0.00    -0.084 Cl
ATOM     22  C   UNL d   1       4.995  -4.162   0.767  0.00  0.00     0.040 A 
ENDBRANCH  14  15
ENDBRANCH  13  14
ENDBRANCH   6  13
TORSDOF 3
