REMARK  7 active torsions:
REMARK  status: ('A' for Active; 'I' for Inactive)
REMARK    1  A    between atoms: C_6  and  N_1 
REMARK    2  A    between atoms: C_11  and  C_6 
REMARK    3  A    between atoms: C_7  and  O_12 
REMARK    4  A    between atoms: C_17  and  C_7 
REMARK    5  A    between atoms: O_12  and  N_8 
REMARK    6  A    between atoms: C_10  and  C_11 
REMARK    7  A    between atoms: N_18  and  C_10 
ROOT
ATOM      1  N   UNL d   1       3.228  -4.799   0.481  0.00  0.00    -0.245 N 
ATOM      2  HN  UNL d   1       3.571  -5.631   0.962  1.00  0.00     0.196 HD
ATOM      3  C   UNL d   1       3.995  -3.927  -0.096  0.00  0.00     0.097 C 
ENDROOT
BRANCH   3   4
ATOM      4  C   UNL d   1       5.505  -4.140  -0.029  0.00  0.00     0.098 C 
BRANCH   4   5
ATOM      5  C   UNL d   1       5.897  -5.615  -0.020  0.00  0.00     0.142 C 
BRANCH   5   6
ATOM      6  N   UNL d   1       7.328  -5.809   0.066  0.00  0.00    -0.290 N 
ATOM      7  C   UNL d   1       8.205  -5.917  -0.996  0.00  0.00     0.372 A 
ATOM      8  O   UNL d   1       9.518  -6.130  -0.545  0.00  0.00    -0.259 OA
ATOM      9  O   UNL d   1       7.916  -5.836  -2.182  0.00  0.00    -0.237 OA
ATOM     10  C   UNL d   1       9.366  -6.135   0.833  0.00  0.00     0.107 A 
ATOM     11  C   UNL d   1       8.058  -5.935   1.225  0.00  0.00     0.073 A 
ATOM     12  C   UNL d   1      10.377  -6.318   1.749  0.00  0.00     0.040 A 
ATOM     13  C   UNL d   1       7.685  -5.902   2.552  0.00  0.00     0.039 A 
ATOM     14  C   UNL d   1       8.692  -6.082   3.514  0.00  0.00    -0.060 A 
ATOM     15  C   UNL d   1      10.031  -6.290   3.106  0.00  0.00     0.009 A 
ATOM     16  C   UNL d   1       8.361  -6.060   4.979  0.00  0.00     0.048 C 
ENDBRANCH   5   6
ENDBRANCH   4   5
ENDBRANCH   3   4
BRANCH   3  17
ATOM     17  N   UNL d   1       3.556  -2.783  -0.714  0.00  0.00    -0.387 N 
ATOM     18  H   UNL d   1       2.606  -2.514  -0.487  0.00  0.00     0.157 HD
ATOM     19  H   UNL d   1       4.205  -2.010  -0.797  0.00  0.00     0.157 HD
ENDBRANCH   3  17
BRANCH   1  20
ATOM     20  O   UNL d   1       1.862  -4.461   0.365  0.00  0.00    -0.193 OA
BRANCH  20  21
ATOM     21  C   UNL d   1       1.095  -5.448   0.924  0.00  0.00     0.315 C 
ATOM     22  O   UNL d   1       1.473  -6.502   1.418  0.00  0.00    -0.257 OA
BRANCH  21  23
ATOM     23  C   UNL d   1      -0.344  -5.086   0.838  0.00  0.00     0.041 A 
ATOM     24  C   UNL d   1      -0.778  -3.754   0.789  0.00  0.00     0.017 A 
ATOM     25  C   UNL d   1      -2.145  -3.464   0.771  0.00  0.00     0.001 A 
ATOM     26  C   UNL d   1      -3.082  -4.497   0.798  0.00  0.00     0.000 A 
ATOM     27  C   UNL d   1      -2.657  -5.824   0.839  0.00  0.00     0.001 A 
ATOM     28  C   UNL d   1      -1.292  -6.119   0.864  0.00  0.00     0.017 A 
ENDBRANCH  21  23
ENDBRANCH  20  21
ENDBRANCH   1  20
TORSDOF 7
