REMARK  3 active torsions:
REMARK  status: ('A' for Active; 'I' for Inactive)
REMARK    1  A    between atoms: N_3  and  C_1 
REMARK    2  A    between atoms: C_11  and  N_3 
REMARK    3  A    between atoms: C_17  and  C_12 
ROOT
ATOM      1  C   UNL d   1      -0.807  -0.985  -0.267  0.00  0.00     0.109 C 
ATOM      2  C   UNL d   1      -1.047  -1.258  -1.707  0.00  0.00     0.085 C 
ATOM      3  N   UNL d   1      -1.221  -1.461  -2.843  0.00  0.00    -0.195 NA
ATOM      4  C   UNL d   1       0.003   1.352  -0.245  0.00  0.00    -0.044 C 
ATOM      5  C   UNL d   1       0.737  -1.013   0.016  0.00  0.00     0.020 C 
ATOM      6  C   UNL d   1      -1.189   0.462   0.135  0.00  0.00     0.050 C 
ATOM      7  C   UNL d   1       1.215   0.460   0.064  0.00  0.00     0.016 C 
ATOM      8  C   UNL d   1       0.025   2.633   0.600  0.00  0.00     0.015 C 
ATOM      9  C   UNL d   1      -0.033   1.768  -1.725  0.00  0.00     0.015 C 
ATOM     10  C   UNL d   1       1.591  -1.812  -0.978  0.00  0.00     0.013 C 
ENDROOT
BRANCH   1  11
ATOM     11  N   UNL d   1      -1.527  -1.944   0.635  0.00  0.00    -0.271 NA
ATOM     12  H   UNL d   1      -1.147  -1.916   1.579  0.00  0.00     0.129 HD
BRANCH  11  13
ATOM     13  C   UNL d   1      -2.938  -1.948   0.685  0.00  0.00     0.009 A 
ATOM     14  C   UNL d   1      -3.756  -1.711  -0.423  0.00  0.00     0.024 A 
ATOM     15  C   UNL d   1      -5.150  -1.714  -0.344  0.00  0.00     0.010 A 
ATOM     16  C   UNL d   1      -5.790  -2.001   0.858  0.00  0.00    -0.045 A 
ATOM     17  C   UNL d   1      -4.997  -2.317   1.966  0.00  0.00     0.010 A 
ATOM     18  C   UNL d   1      -3.594  -2.310   1.874  0.00  0.00     0.024 A 
BRANCH  16  19
ATOM     19  C   UNL d   1      -7.294  -1.921   0.933  0.00  0.00     0.162 C 
ATOM     20  C   UNL d   1      -7.763  -0.576   1.302  0.00  0.00     0.063 C 
ATOM     21  N   UNL d   1      -8.146   0.482   1.586  0.00  0.00    -0.197 NA
ENDBRANCH  16  19
ENDBRANCH  11  13
ENDBRANCH   1  11
TORSDOF 3
