REMARK  6 active torsions:
REMARK  status: ('A' for Active; 'I' for Inactive)
REMARK    1  A    between atoms: C_16  and  N_1 
REMARK    2  A    between atoms: C_23  and  N_5 
REMARK    3  A    between atoms: C_11  and  C_7 
REMARK       I    between atoms: N_17  and  C_11 
REMARK    4  A    between atoms: C_13  and  C_15 
REMARK       I    between atoms: C_15  and  N_18 
REMARK    5  A    between atoms: C_26  and  C_16 
REMARK    6  A    between atoms: N_18  and  N_17 
ROOT
ATOM      1  N   UNL d   1      -0.709   1.177  -0.103  0.00  0.00    -0.261 N 
ATOM      2  C   UNL d   1      -1.404  -0.024  -0.252  0.00  0.00     0.332 C 
ATOM      3  C   UNL d   1       1.423   0.006  -0.083  0.00  0.00     0.082 C 
ATOM      4  C   UNL d   1       0.672   1.280  -0.004  0.00  0.00     0.266 C 
ATOM      5  N   UNL d   1      -0.639  -1.188  -0.106  0.00  0.00    -0.304 N 
ATOM      6  C   UNL d   1       2.842  -0.009  -0.099  0.00  0.00     0.091 A 
ATOM      7  C   UNL d   1       4.968  -0.126  -0.794  0.00  0.00     0.110 A 
ATOM      8  N   UNL d   1       3.620  -0.120  -1.165  0.00  0.00    -0.345 N 
ATOM      9  HN  UNL d   1       3.282  -0.191  -2.124  1.00  0.00     0.167 HD
ATOM     10  C   UNL d   1       0.741  -1.143  -0.101  0.00  0.00     0.116 C 
ATOM     11  S   UNL d   1       3.698   0.029   1.408  0.00  0.00    -0.081 SA
ATOM     12  C   UNL d   1       5.182  -0.071   0.570  0.00  0.00     0.087 A 
ATOM     13  O   UNL d   1      -2.610  -0.067  -0.498  0.00  0.00    -0.246 OA
ATOM     14  O   UNL d   1       1.270   2.346   0.135  0.00  0.00    -0.267 OA
ENDROOT
BRANCH   7  15
ATOM     15  C   UNL d   1       6.063  -0.188  -1.764  0.00  0.00     0.287 C 
ATOM     16  N   UNL d   1       5.669  -0.234  -3.086  0.00  0.00    -0.262 N 
ATOM     17  H   UNL d   1       4.690  -0.191  -3.364  0.00  0.00     0.190 HD
ATOM     18  O   UNL d   1       7.251  -0.186  -1.431  0.00  0.00    -0.264 OA
BRANCH  16  19
ATOM     19  N   UNL d   1       6.659  -0.206  -4.076  0.00  0.00    -0.263 N 
ATOM     20  C   UNL d   1       6.374  -0.641  -5.352  0.00  0.00     0.271 C 
ATOM     21  O   UNL d   1       5.274  -1.069  -5.690  0.00  0.00    -0.266 OA
ATOM     22  H   UNL d   1       7.595   0.063  -3.776  0.00  0.00     0.190 HD
BRANCH  20  23
ATOM     23  C   UNL d   1       7.503  -0.621  -6.325  0.00  0.00     0.055 A 
ATOM     24  C   UNL d   1       8.449   0.411  -6.412  0.00  0.00     0.049 A 
ATOM     25 CL   UNL d   1       8.406   1.829  -5.425  0.00  0.00    -0.083 Cl
ATOM     26  C   UNL d   1       9.474   0.344  -7.366  0.00  0.00     0.025 A 
ATOM     27  C   UNL d   1       9.559  -0.740  -8.240  0.00  0.00     0.002 A 
ATOM     28  C   UNL d   1       8.616  -1.761  -8.170  0.00  0.00     0.001 A 
ATOM     29  C   UNL d   1       7.590  -1.701  -7.222  0.00  0.00     0.019 A 
ENDBRANCH  20  23
ENDBRANCH  16  19
ENDBRANCH   7  15
BRANCH   1  30
ATOM     30  C   UNL d   1      -1.493   2.407  -0.044  0.00  0.00     0.175 C 
BRANCH  30  31
ATOM     31  C   UNL d   1      -2.090   2.629   1.333  0.00  0.00    -0.040 A 
ATOM     32  C   UNL d   1      -1.377   3.313   2.327  0.00  0.00     0.009 A 
ATOM     33  C   UNL d   1      -1.911   3.451   3.612  0.00  0.00     0.001 A 
ATOM     34  C   UNL d   1      -3.155   2.902   3.917  0.00  0.00     0.000 A 
ATOM     35  C   UNL d   1      -3.877   2.230   2.935  0.00  0.00     0.001 A 
ATOM     36  C   UNL d   1      -3.351   2.100   1.651  0.00  0.00     0.009 A 
ENDBRANCH  30  31
ENDBRANCH   1  30
BRANCH   5  37
ATOM     37  C   UNL d   1      -1.343  -2.491  -0.100  0.00  0.00     0.086 C 
ATOM     38  C   UNL d   1      -1.300  -3.153  -1.476  0.00  0.00     0.032 C 
ATOM     39  C   UNL d   1      -0.850  -3.449   0.993  0.00  0.00     0.032 C 
ENDBRANCH   5  37
TORSDOF 6
