REMARK  4 active torsions:
REMARK  status: ('A' for Active; 'I' for Inactive)
REMARK    1  A    between atoms: C_7  and  C_1 
REMARK    2  A    between atoms: C_6  and  N_2 
REMARK    3  A    between atoms: O_19  and  C_5 
REMARK    4  A    between atoms: C_12  and  C_8 
ROOT
ATOM      1  N   UNL d   1      -0.977   4.574   0.155  0.00  0.00    -0.364 N 
ATOM      2  HN  UNL d   1      -0.144   3.985   0.143  1.00  0.00     0.165 HD
ATOM      3  C   UNL d   1      -2.168   4.059   0.184  0.00  0.00     0.102 C 
ENDROOT
BRANCH   1   4
ATOM      4  C   UNL d   1      -0.882   5.985   0.141  0.00  0.00     0.054 A 
ATOM      5  C   UNL d   1      -1.589   6.744   1.091  0.00  0.00     0.046 A 
ATOM      6  C   UNL d   1      -1.543   8.141   1.093  0.00  0.00     0.011 A 
ATOM      7  C   UNL d   1      -0.716   8.790   0.167  0.00  0.00     0.017 A 
ATOM      8  C   UNL d   1       0.033   8.053  -0.755  0.00  0.00     0.027 A 
ATOM      9  C   UNL d   1      -0.054   6.659  -0.772  0.00  0.00     0.060 A 
ATOM     10 CL   UNL d   1       0.880   5.798  -1.944  0.00  0.00    -0.082 Cl
BRANCH   6  11
ATOM     11  C   UNL d   1      -2.343   8.978   2.038  0.00  0.00     0.155 C 
ATOM     12  O   UNL d   1      -2.159  10.196   2.055  0.00  0.00    -0.293 OA
ATOM     13  C   UNL d   1      -3.385   8.365   2.942  0.00  0.00     0.096 C 
ENDBRANCH   6  11
ENDBRANCH   1   4
BRANCH   3  14
ATOM     14  C   UNL d   1      -2.399   2.604   0.250  0.00  0.00     0.015 A 
ATOM     15  C   UNL d   1      -3.669   2.120   0.584  0.00  0.00     0.094 A 
ATOM     16  C   UNL d   1      -3.890   0.740   0.638  0.00  0.00     0.046 A 
ATOM     17 BR   UNL d   1      -5.597   0.052   1.091  0.00  0.00    -0.048 Br
ATOM     18  C   UNL d   1      -2.854  -0.153   0.363  0.00  0.00     0.041 A 
ATOM     19  C   UNL d   1      -1.590   0.343   0.040  0.00  0.00     0.013 A 
ATOM     20  C   UNL d   1      -1.353   1.716  -0.016  0.00  0.00     0.034 A 
ATOM     21 BR   UNL d   1      -0.185  -0.866  -0.331  0.00  0.00    -0.051 Br
BRANCH  15  22
ATOM     22  O   UNL d   1      -4.674   3.005   0.874  0.00  0.00    -0.358 OA
ATOM     23  H   UNL d   1      -5.471   2.489   1.105  0.00  0.00     0.217 HD
ENDBRANCH  15  22
ENDBRANCH   3  14
TORSDOF 4
