REMARK  2 active torsions:
REMARK  status: ('A' for Active; 'I' for Inactive)
REMARK    1  A    between atoms: C_6  and  N_1 
REMARK    2  A    between atoms: N_7  and  C_6 
ROOT
ATOM      1  N   UNL d   1      -4.563   2.693   0.790  0.00  0.00    -0.294 N 
ATOM      2  C   UNL d   1      -4.869   2.013   1.957  0.00  0.00     0.300 A 
ATOM      3  C   UNL d   1      -6.443   3.781   1.573  0.00  0.00     0.048 A 
ATOM      4  C   UNL d   1      -5.516   3.699   0.534  0.00  0.00     0.053 A 
ATOM      5  C   UNL d   1      -6.135   2.710   2.519  0.00  0.00     0.252 A 
ATOM      6  C   UNL d   1      -5.595   4.578  -0.531  0.00  0.00     0.032 A 
ATOM      7  C   UNL d   1      -7.411   4.764   1.652  0.00  0.00     0.037 A 
ATOM      8  O   UNL d   1      -4.293   1.085   2.486  0.00  0.00    -0.263 OA
ATOM      9  O   UNL d   1      -6.738   2.439   3.527  0.00  0.00    -0.281 OA
ATOM     10  C   UNL d   1      -7.447   5.689   0.611  0.00  0.00     0.012 A 
ATOM     11  C   UNL d   1      -6.569   5.586  -0.485  0.00  0.00     0.021 A 
ATOM     12 BR   UNL d   1      -8.663   7.135   0.693  0.00  0.00    -0.051 Br
ENDROOT
BRANCH   1  13
ATOM     13  C   UNL d   1      -3.357   2.457   0.028  0.00  0.00     0.253 C 
BRANCH  13  14
ATOM     14  N   UNL d   1      -2.595   3.691  -0.075  0.00  0.00    -0.392 N 
ATOM     15  C   UNL d   1      -2.015   4.179   1.175  0.00  0.00     0.157 C 
ATOM     16  C   UNL d   1      -0.612   4.739   1.118  0.00  0.00    -0.034 A 
ATOM     17  C   UNL d   1      -0.093   5.399   2.246  0.00  0.00     0.009 A 
ATOM     18  C   UNL d   1       0.215   4.551   0.004  0.00  0.00    -0.049 A 
ATOM     19  C   UNL d   1       1.232   5.835   2.275  0.00  0.00     0.001 A 
ATOM     20  C   UNL d   1       2.060   5.609   1.179  0.00  0.00     0.001 A 
ATOM     21  C   UNL d   1       1.553   4.973   0.047  0.00  0.00     0.008 A 
ATOM     22  C   UNL d   1      -0.318   3.848  -1.210  0.00  0.00     0.058 C 
ATOM     23  C   UNL d   1      -1.846   3.902  -1.302  0.00  0.00     0.123 C 
ENDBRANCH  13  14
ENDBRANCH   1  13
TORSDOF 2
