REMARK  2 active torsions:
REMARK  status: ('A' for Active; 'I' for Inactive)
REMARK    1  A    between atoms: C_6  and  C_4 
REMARK    2  A    between atoms: O_9  and  C_6 
ROOT
ATOM      1  C   UNL d   1       0.704  -0.540  -0.016  0.00  0.00    -0.002 A 
ATOM      2  C   UNL d   1       1.167   0.804   0.004  0.00  0.00    -0.042 A 
ATOM      3  C   UNL d   1      -0.757  -0.502   0.013  0.00  0.00    -0.018 A 
ATOM      4  C   UNL d   1       1.647  -1.565  -0.057  0.00  0.00     0.049 A 
ATOM      5  C   UNL d   1      -1.178   0.851   0.009  0.00  0.00    -0.043 A 
ATOM      6  C   UNL d   1       0.010   1.779   0.000  0.00  0.00     0.078 A 
ATOM      7  C   UNL d   1       2.516   1.135   0.006  0.00  0.00     0.008 A 
ATOM      8  C   UNL d   1       3.020  -1.232  -0.076  0.00  0.00     0.019 A 
ATOM      9  C   UNL d   1      -1.717  -1.498   0.049  0.00  0.00     0.013 A 
ATOM     10  C   UNL d   1      -2.515   1.215   0.012  0.00  0.00     0.008 A 
ATOM     11  C   UNL d   1       3.446   0.104  -0.032  0.00  0.00     0.002 A 
ATOM     12  C   UNL d   1      -3.073  -1.142   0.051  0.00  0.00     0.001 A 
ATOM     13  C   UNL d   1      -3.471   0.202   0.029  0.00  0.00     0.001 A 
ENDROOT
BRANCH   4  14
ATOM     14  C   UNL d   1       1.290  -2.997  -0.155  0.00  0.00     0.177 C 
ATOM     15  O   UNL d   1       0.499  -3.455  -0.958  0.00  0.00    -0.646 OA
BRANCH  14  16
ATOM     16  O   UNL d   1       1.976  -3.762   0.726  0.00  0.00    -0.773 OA
ATOM     17  H   UNL d   1       2.522  -3.264   1.362  0.00  0.00     0.167 HD
ENDBRANCH  14  16
ENDBRANCH   4  14
TORSDOF 2
