REMARK  7 active torsions:
REMARK  status: ('A' for Active; 'I' for Inactive)
REMARK    1  A    between atoms: N_2  and  S_1 
REMARK    2  A    between atoms: C_5  and  S_1 
REMARK    3  A    between atoms: C_3  and  N_10 
REMARK    4  A    between atoms: N_9  and  C_3 
REMARK       I    between atoms: C_4  and  N_6 
REMARK    5  A    between atoms: C_15  and  C_4 
REMARK    6  A    between atoms: N_6  and  N_9 
REMARK    7  A    between atoms: N_10  and  C_18 
ROOT
ATOM      1  N   UNL d   1      -1.322  -0.261  -5.556  0.00  0.00    -0.332 N 
ATOM      2  H   UNL d   1      -1.829  -1.119  -5.726  0.00  0.00     0.168 HD
ENDROOT
BRANCH   1   3
ATOM      3  C   UNL d   1      -0.761   0.287  -6.691  0.00  0.00     0.191 C 
ATOM      4  S   UNL d   1       0.747   1.012  -6.839  0.00  0.00    -0.039 SA
BRANCH   3   5
ATOM      5  N   UNL d   1      -1.510   0.247  -7.836  0.00  0.00    -0.273 N 
ATOM      6  H   UNL d   1      -1.015   0.595  -8.665  0.00  0.00     0.189 HD
BRANCH   5   7
ATOM      7  N   UNL d   1      -2.489  -0.724  -8.155  0.00  0.00    -0.264 N 
ATOM      8  C   UNL d   1      -2.611  -0.904  -9.538  0.00  0.00     0.270 C 
ATOM      9  O   UNL d   1      -1.792  -0.434 -10.328  0.00  0.00    -0.266 OA
ATOM     10  H   UNL d   1      -3.336  -0.713  -7.595  0.00  0.00     0.190 HD
BRANCH   8  11
ATOM     11  C   UNL d   1      -3.799  -1.611 -10.065  0.00  0.00     0.036 A 
ATOM     12  C   UNL d   1      -4.275  -1.244 -11.328  0.00  0.00     0.034 A 
ATOM     13  C   UNL d   1      -5.348  -1.939 -11.850  0.00  0.00     0.088 A 
ATOM     14  N   UNL d   1      -5.954  -2.957 -11.206  0.00  0.00    -0.375 N 
ATOM     15  C   UNL d   1      -5.462  -3.304  -9.997  0.00  0.00     0.088 A 
ATOM     16  HN  UNL d   1      -6.752  -3.444 -11.615  1.00  0.00     0.164 HD
ATOM     17  C   UNL d   1      -4.397  -2.665  -9.382  0.00  0.00     0.034 A 
ENDBRANCH   8  11
ENDBRANCH   5   7
ENDBRANCH   3   5
ENDBRANCH   1   3
BRANCH   1  18
ATOM     18  C   UNL d   1      -0.853  -0.045  -4.231  0.00  0.00     0.034 A 
ATOM     19  C   UNL d   1      -0.462   1.228  -3.790  0.00  0.00     0.031 A 
ATOM     20  C   UNL d   1       0.091   1.413  -2.519  0.00  0.00     0.027 A 
ATOM     21  C   UNL d   1       0.284   0.314  -1.685  0.00  0.00     0.079 A 
ATOM     22  C   UNL d   1      -0.198  -0.943  -2.072  0.00  0.00     0.027 A 
ATOM     23  C   UNL d   1      -0.791  -1.114  -3.334  0.00  0.00     0.031 A 
BRANCH  21  24
ATOM     24  S   UNL d   1       1.064   0.530  -0.087  0.00  0.00     0.260 S 
ATOM     25  O   UNL d   1       0.439   1.683   0.527  0.00  0.00    -0.200 OA
ATOM     26  O   UNL d   1       1.056  -0.758   0.565  0.00  0.00    -0.200 OA
BRANCH  24  27
ATOM     27  N   UNL d   1       2.700   0.923  -0.434  0.00  0.00    -0.307 N 
ATOM     28  C   UNL d   1       2.963   2.299  -0.925  0.00  0.00     0.135 C 
ATOM     29  C   UNL d   1       4.454   2.619  -0.894  0.00  0.00     0.021 C 
ATOM     30  C   UNL d   1       5.242   1.585  -1.685  0.00  0.00     0.003 C 
ATOM     31  C   UNL d   1       4.980   0.200  -1.107  0.00  0.00     0.021 C 
ATOM     32  C   UNL d   1       3.488  -0.135  -1.115  0.00  0.00     0.135 C 
ENDBRANCH  24  27
ENDBRANCH  21  24
ENDBRANCH   1  18
TORSDOF 7
