REMARK  0 active torsions:
REMARK  status: ('A' for Active; 'I' for Inactive)
ROOT
ATOM      1  N   UNL d   1      -2.410   1.362  -0.004  0.00  0.00    -0.289 N 
ATOM      2  N   UNL d   1      -3.615  -0.666  -0.003  0.00  0.00    -0.270 N 
ATOM      3  C   UNL d   1      -3.639   0.723  -0.004  0.00  0.00     0.332 A 
ATOM      4  C   UNL d   1      -1.186   0.662  -0.002  0.00  0.00     0.127 A 
ATOM      5  C   UNL d   1      -1.192  -0.717   0.000  0.00  0.00     0.077 A 
ATOM      6  C   UNL d   1      -2.464  -1.435  -0.000  0.00  0.00     0.265 A 
ATOM      7  N   UNL d   1      -0.024   1.369  -0.002  0.00  0.00    -0.341 N 
ATOM      8  HN  UNL d   1      -0.042   2.389  -0.003  1.00  0.00     0.167 HD
ATOM      9  C   UNL d   1       0.016  -1.412   0.002  0.00  0.00     0.034 A 
ATOM     10  C   UNL d   1       1.152   0.707  -0.000  0.00  0.00     0.045 A 
ATOM     11  C   UNL d   1       1.217  -0.702   0.001  0.00  0.00    -0.008 A 
ATOM     12  O   UNL d   1      -4.698   1.352  -0.006  0.00  0.00    -0.246 OA
ATOM     13  C   UNL d   1       2.348   1.413  -0.001  0.00  0.00     0.054 A 
ATOM     14  O   UNL d   1      -2.456  -2.664   0.000  0.00  0.00    -0.267 OA
ATOM     15  C   UNL d   1      -2.353   2.817  -0.007  0.00  0.00     0.163 C 
ATOM     16  C   UNL d   1      -4.872  -1.394  -0.006  0.00  0.00     0.164 C 
ATOM     17  C   UNL d   1       2.453  -1.368   0.002  0.00  0.00     0.015 A 
ATOM     18  C   UNL d   1       3.578   0.751   0.000  0.00  0.00     0.036 A 
ATOM     19  C   UNL d   1       3.637  -0.638   0.001  0.00  0.00     0.025 A 
ATOM     20 CL   UNL d   1       5.040   1.660  -0.001  0.00  0.00    -0.084 Cl
ENDROOT
TORSDOF 0
