REMARK  5 active torsions:
REMARK  status: ('A' for Active; 'I' for Inactive)
REMARK    1  A    between atoms: C_7  and  C_1 
REMARK    2  A    between atoms: C_8  and  C_2 
REMARK    3  A    between atoms: C_9  and  C_5 
REMARK    4  A    between atoms: O_12  and  C_7 
REMARK    5  A    between atoms: C_16  and  O_12 
ROOT
ATOM      1  C   UNL d   1      -1.438  -0.349   0.107  0.00  0.00     0.108 A 
ATOM      2  C   UNL d   1      -0.898   0.923   0.046  0.00  0.00     0.162 A 
ATOM      3  N   UNL d   1       0.827  -0.505  -0.025  0.00  0.00    -0.259 N 
ATOM      4  HN  UNL d   1       1.778  -0.870  -0.060  1.00  0.00     0.195 HD
ATOM      5  C   UNL d   1      -0.306  -1.222   0.038  0.00  0.00     0.084 A 
ATOM      6  O   UNL d   1       0.456   0.814  -0.033  0.00  0.00    -0.233 OA
ENDROOT
BRANCH   5   7
ATOM      7  C   UNL d   1      -0.247  -2.686  -0.010  0.00  0.00    -0.006 A 
ATOM      8  C   UNL d   1       0.816  -3.367   0.601  0.00  0.00     0.014 A 
ATOM      9  C   UNL d   1       0.909  -4.760   0.530  0.00  0.00     0.001 A 
ATOM     10  C   UNL d   1      -0.062  -5.488  -0.156  0.00  0.00     0.000 A 
ATOM     11  C   UNL d   1      -1.120  -4.826  -0.772  0.00  0.00     0.001 A 
ATOM     12  C   UNL d   1      -1.210  -3.432  -0.706  0.00  0.00     0.014 A 
ENDBRANCH   5   7
BRANCH   1  13
ATOM     13  C   UNL d   1      -2.829  -0.713   0.247  0.00  0.00     0.298 C 
ATOM     14  O   UNL d   1      -3.203  -1.640   0.952  0.00  0.00    -0.259 OA
BRANCH  13  15
ATOM     15  O   UNL d   1      -3.646   0.011  -0.565  0.00  0.00    -0.318 OA
BRANCH  15  16
ATOM     16  C   UNL d   1      -5.029  -0.374  -0.563  0.00  0.00     0.174 C 
ATOM     17  C   UNL d   1      -5.256  -1.443  -1.617  0.00  0.00     0.034 C 
ENDBRANCH  15  16
ENDBRANCH  13  15
ENDBRANCH   1  13
BRANCH   2  18
ATOM     18  C   UNL d   1      -1.453   2.256   0.097  0.00  0.00     0.182 C 
ATOM     19  O   UNL d   1      -2.658   2.490   0.186  0.00  0.00    -0.291 OA
ATOM     20  C   UNL d   1      -0.470   3.404   0.023  0.00  0.00     0.099 C 
ENDBRANCH   2  18
TORSDOF 5
