REMARK  7 active torsions:
REMARK  status: ('A' for Active; 'I' for Inactive)
REMARK    1  A    between atoms: N_2  and  C_1 
REMARK    2  A    between atoms: C_5  and  C_4 
REMARK    3  A    between atoms: N_22  and  C_5 
REMARK    4  A    between atoms: O_11  and  N_6 
REMARK    5  A    between atoms: C_10  and  O_11 
REMARK    6  A    between atoms: C_14  and  C_10 
REMARK    7  A    between atoms: C_15  and  C_16 
ROOT
ATOM      1  C   UNL d   1      -4.994   0.237  -1.310  0.00  0.00     0.116 C 
ATOM      2  N   UNL d   1      -4.964  -0.730  -0.437  0.00  0.00    -0.245 N 
ATOM      3  HN  UNL d   1      -5.312  -0.645   0.518  1.00  0.00     0.196 HD
ENDROOT
BRANCH   2   4
ATOM      4  O   UNL d   1      -4.394  -1.907  -0.966  0.00  0.00    -0.193 OA
BRANCH   4   5
ATOM      5  C   UNL d   1      -3.760  -2.586   0.035  0.00  0.00     0.315 C 
ATOM      6  O   UNL d   1      -3.009  -2.100   0.869  0.00  0.00    -0.257 OA
BRANCH   5   7
ATOM      7  C   UNL d   1      -4.089  -4.037  -0.033  0.00  0.00     0.041 A 
ATOM      8  C   UNL d   1      -3.420  -4.920   0.820  0.00  0.00     0.018 A 
ATOM      9  C   UNL d   1      -3.742  -6.284   0.826  0.00  0.00     0.009 A 
ATOM     10  C   UNL d   1      -4.739  -6.808  -0.020  0.00  0.00    -0.051 A 
ATOM     11  C   UNL d   1      -5.406  -5.902  -0.862  0.00  0.00     0.009 A 
ATOM     12  C   UNL d   1      -5.088  -4.537  -0.872  0.00  0.00     0.018 A 
BRANCH  10  13
ATOM     13  C   UNL d   1      -5.060  -8.316  -0.015  0.00  0.00    -0.024 C 
ATOM     14  C   UNL d   1      -6.168  -8.716  -1.016  0.00  0.00     0.019 C 
ATOM     15  C   UNL d   1      -3.793  -9.112  -0.397  0.00  0.00     0.019 C 
ATOM     16  C   UNL d   1      -5.532  -8.765   1.385  0.00  0.00     0.019 C 
ENDBRANCH  10  13
ENDBRANCH   5   7
ENDBRANCH   4   5
ENDBRANCH   2   4
BRANCH   1  17
ATOM     17  C   UNL d   1      -5.706   1.442  -0.882  0.00  0.00     0.047 A 
ATOM     18  S   UNL d   1      -5.769   2.828  -1.895  0.00  0.00    -0.063 SA
ATOM     19  C   UNL d   1      -6.735   3.677  -0.785  0.00  0.00     0.144 A 
ATOM     20  C   UNL d   1      -7.013   2.947   0.348  0.00  0.00     0.045 A 
ATOM     21  C   UNL d   1      -6.413   1.653   0.291  0.00  0.00     0.025 A 
BRANCH  19  22
ATOM     22  N   UNL d   1      -7.176   5.018  -1.070  0.00  0.00    -0.108 N 
ATOM     23  O   UNL d   1      -7.869   5.564  -0.199  0.00  0.00    -0.531 OA
ATOM     24  O   UNL d   1      -6.845   5.529  -2.145  0.00  0.00    -0.531 OA
ENDBRANCH  19  22
ENDBRANCH   1  17
BRANCH   1  25
ATOM     25  N   UNL d   1      -4.389   0.132  -2.541  0.00  0.00    -0.286 NA
ATOM     26  H   UNL d   1      -4.091   1.015  -2.942  0.00  0.00     0.125 HD
ATOM     27  H   UNL d   1      -3.661  -0.573  -2.554  0.00  0.00     0.125 HD
ENDBRANCH   1  25
TORSDOF 7
