REMARK  2 active torsions:
REMARK  status: ('A' for Active; 'I' for Inactive)
REMARK       I    between atoms: C_7  and  N_4 
REMARK       I    between atoms: N_14  and  C_7 
REMARK    1  A    between atoms: C_20  and  N_14 
REMARK    2  A    between atoms: C_15  and  C_20 
ROOT
ATOM      1  C   UNL d   1      -0.796  -0.453   0.119  0.00  0.00    -0.005 A 
ATOM      2  C   UNL d   1      -1.171   0.875   0.105  0.00  0.00     0.020 A 
ATOM      3  N   UNL d   1      -0.054   1.655   0.081  0.00  0.00    -0.358 N 
ATOM      4  N   UNL d   1      -3.166  -1.077   0.280  0.00  0.00    -0.330 N 
ATOM      5  C   UNL d   1       0.628  -0.480   0.060  0.00  0.00     0.003 A 
ATOM      6  C   UNL d   1      -1.780  -1.585   0.158  0.00  0.00     0.169 C 
ATOM      7  C   UNL d   1      -4.080  -1.947   0.842  0.00  0.00     0.318 C 
ATOM      8  C   UNL d   1       1.065   0.851   0.038  0.00  0.00     0.043 A 
ATOM      9  C   UNL d   1      -2.577   1.349   0.112  0.00  0.00     0.077 C 
ATOM     10  C   UNL d   1      -3.463   0.198  -0.410  0.00  0.00     0.134 C 
ATOM     11  C   UNL d   1       1.593  -1.505   0.017  0.00  0.00     0.056 A 
ATOM     12  O   UNL d   1      -3.757  -3.071   1.224  0.00  0.00    -0.247 OA
ATOM     13  C   UNL d   1       2.420   1.204  -0.023  0.00  0.00     0.033 A 
ATOM     14  N   UNL d   1      -5.361  -1.489   0.989  0.00  0.00    -0.340 N 
ATOM     15  C   UNL d   1       2.942  -1.157  -0.048  0.00  0.00     0.117 A 
ATOM     16  C   UNL d   1       3.357   0.170  -0.067  0.00  0.00     0.044 A 
ATOM     17  F   UNL d   1       3.866  -2.127  -0.099  0.00  0.00    -0.206 F 
ATOM     18  H   UNL d   1      -0.036   2.666   0.080  0.00  0.00     0.166 HD
ATOM     19  H   UNL d   1      -5.656  -0.634   0.564  0.00  0.00     0.164 HD
ENDROOT
BRANCH  14  20
ATOM     20  C   UNL d   1      -6.399  -2.305   1.574  0.00  0.00     0.150 C 
BRANCH  20  21
ATOM     21  C   UNL d   1      -6.975  -1.552   2.732  0.00  0.00    -0.018 C 
ATOM     22  C   UNL d   1      -8.266  -1.215   2.860  0.00  0.00     0.008 C 
ENDBRANCH  20  21
ENDBRANCH  14  20
TORSDOF 2
