REMARK  5 active torsions:
REMARK  status: ('A' for Active; 'I' for Inactive)
REMARK    1  A    between atoms: C_2  and  C_1 
REMARK       I    between atoms: N_4  and  C_1 
REMARK    2  A    between atoms: C_17  and  N_4 
REMARK    3  A    between atoms: O_18  and  C_8 
REMARK    4  A    between atoms: C_11  and  C_19 
REMARK    5  A    between atoms: C_19  and  C_17 
ROOT
ATOM      1  C   UNL d   1       1.105  -0.098   0.144  0.00  0.00     0.251 C 
ATOM      2  O   UNL d   1       0.430  -0.832  -0.567  0.00  0.00    -0.268 OA
ATOM      3  N   UNL d   1       2.484  -0.065   0.120  0.00  0.00    -0.357 N 
ATOM      4  H   UNL d   1       2.953   0.740   0.513  0.00  0.00     0.162 HD
ENDROOT
BRANCH   3   5
ATOM      5  C   UNL d   1       3.235  -0.936  -0.769  0.00  0.00     0.127 C 
BRANCH   5   6
ATOM      6  C   UNL d   1       4.742  -0.769  -0.578  0.00  0.00     0.058 C 
BRANCH   6   7
ATOM      7  C   UNL d   1       5.552  -1.680  -1.464  0.00  0.00    -0.057 A 
ATOM      8  C   UNL d   1       5.914  -1.278  -2.757  0.00  0.00     0.010 A 
ATOM      9  C   UNL d   1       6.679  -2.116  -3.570  0.00  0.00     0.037 A 
ATOM     10  C   UNL d   1       7.081  -3.357  -3.095  0.00  0.00     0.065 A 
ATOM     11  C   UNL d   1       6.720  -3.783  -1.821  0.00  0.00     0.037 A 
ATOM     12  C   UNL d   1       5.954  -2.945  -1.008  0.00  0.00     0.010 A 
BRANCH  10  13
ATOM     13  O   UNL d   1       7.840  -4.138  -3.917  0.00  0.00    -0.361 OA
ATOM     14  H   UNL d   1       8.067  -4.955  -3.445  0.00  0.00     0.217 HD
ENDBRANCH  10  13
ENDBRANCH   6   7
ENDBRANCH   5   6
ENDBRANCH   3   5
BRANCH   1  15
ATOM     15  C   UNL d   1       0.444   0.846   1.090  0.00  0.00     0.032 A 
ATOM     16  C   UNL d   1       1.063   1.241   2.283  0.00  0.00     0.018 A 
ATOM     17  C   UNL d   1       0.403   2.104   3.164  0.00  0.00     0.025 A 
ATOM     18  C   UNL d   1      -0.876   2.567   2.855  0.00  0.00     0.034 A 
ATOM     19  C   UNL d   1      -1.505   2.169   1.675  0.00  0.00     0.025 A 
ATOM     20 CL   UNL d   1      -1.685   3.623   3.944  0.00  0.00    -0.084 Cl
ATOM     21  C   UNL d   1      -0.848   1.305   0.795  0.00  0.00     0.018 A 
ENDBRANCH   1  15
TORSDOF 5
