REMARK  5 active torsions:
REMARK  status: ('A' for Active; 'I' for Inactive)
REMARK    1  A    between atoms: C_4  and  C_1 
REMARK    2  A    between atoms: O_14  and  C_3 
REMARK    3  A    between atoms: C_12  and  N_5 
REMARK    4  A    between atoms: C_16  and  C_15 
REMARK    5  A    between atoms: C_22  and  C_16 
ROOT
ATOM      1  C   UNL d   1       0.458   5.642   0.075  0.00  0.00     0.031 A 
ATOM      2  C   UNL d   1       0.045   8.440   0.213  0.00  0.00    -0.054 A 
ATOM      3  C   UNL d   1      -0.500   6.188   0.938  0.00  0.00     0.030 A 
ATOM      4  C   UNL d   1       1.211   6.516  -0.714  0.00  0.00     0.030 A 
ATOM      5  C   UNL d   1      -0.719   7.565   0.996  0.00  0.00     0.010 A 
ATOM      6  C   UNL d   1       1.008   7.899  -0.651  0.00  0.00     0.010 A 
ENDROOT
BRANCH   1   7
ATOM      7  N   UNL d   1       0.761   4.268   0.035  0.00  0.00    -0.365 N 
ATOM      8  C   UNL d   1      -0.211   3.415   0.135  0.00  0.00     0.102 C 
ATOM      9  HN  UNL d   1       1.725   3.950  -0.070  1.00  0.00     0.165 HD
BRANCH   8  10
ATOM     10  C   UNL d   1       0.032   1.958   0.185  0.00  0.00     0.016 A 
ATOM     11  C   UNL d   1      -1.022   1.082   0.465  0.00  0.00     0.099 A 
ATOM     12  C   UNL d   1      -0.781  -0.294   0.535  0.00  0.00     0.069 A 
ATOM     13 CL   UNL d   1      -2.070  -1.386   0.888  0.00  0.00    -0.081 Cl
ATOM     14  C   UNL d   1       0.501  -0.800   0.328  0.00  0.00     0.050 A 
ATOM     15  C   UNL d   1       1.546   0.080   0.052  0.00  0.00     0.036 A 
ATOM     16  C   UNL d   1       1.322   1.454  -0.020  0.00  0.00     0.039 A 
ATOM     17 CL   UNL d   1       3.132  -0.540  -0.195  0.00  0.00    -0.084 Cl
BRANCH  11  18
ATOM     18  O   UNL d   1      -2.280   1.580   0.687  0.00  0.00    -0.358 OA
ATOM     19  H   UNL d   1      -2.871   0.826   0.877  0.00  0.00     0.217 HD
ENDBRANCH  11  18
ENDBRANCH   8  10
ENDBRANCH   1   7
BRANCH   2  20
ATOM     20  C   UNL d   1      -0.178   9.931   0.302  0.00  0.00     0.077 C 
BRANCH  20  21
ATOM     21  C   UNL d   1      -1.190  10.448  -0.688  0.00  0.00    -0.051 A 
ATOM     22  C   UNL d   1      -2.546  10.526  -0.357  0.00  0.00     0.024 A 
ATOM     23  C   UNL d   1      -3.441  10.979  -1.315  0.00  0.00     0.088 A 
ATOM     24  N   UNL d   1      -3.083  11.354  -2.561  0.00  0.00    -0.375 N 
ATOM     25  C   UNL d   1      -1.770  11.267  -2.862  0.00  0.00     0.088 A 
ATOM     26  HN  UNL d   1      -3.768  11.686  -3.239  1.00  0.00     0.164 HD
ATOM     27  C   UNL d   1      -0.800  10.827  -1.975  0.00  0.00     0.024 A 
ENDBRANCH  20  21
ENDBRANCH   2  20
TORSDOF 5
