REMARK  8 active torsions:
REMARK  status: ('A' for Active; 'I' for Inactive)
REMARK    1  A    between atoms: N_3  and  C_1 
REMARK    2  A    between atoms: N_6  and  C_1 
REMARK    3  A    between atoms: C_2  and  O_9 
REMARK    4  A    between atoms: C_8  and  N_3 
REMARK    5  A    between atoms: C_16  and  N_6 
REMARK    6  A    between atoms: O_9  and  C_17 
REMARK    7  A    between atoms: O_11  and  C_19 
REMARK    8  A    between atoms: C_20  and  O_11 
ROOT
ATOM      1  C   UNL d   1      -1.145  -0.007   1.222  0.00  0.00     0.034 A 
ATOM      2  C   UNL d   1      -3.933   0.025   1.462  0.00  0.00     0.076 A 
ATOM      3  C   UNL d   1      -1.931  -0.870   0.453  0.00  0.00     0.032 A 
ATOM      4  C   UNL d   1      -1.758   0.798   2.186  0.00  0.00     0.032 A 
ATOM      5  C   UNL d   1      -3.148   0.813   2.308  0.00  0.00     0.039 A 
ATOM      6  C   UNL d   1      -3.323  -0.854   0.570  0.00  0.00     0.039 A 
ENDROOT
BRANCH   1   7
ATOM      7  N   UNL d   1       0.259   0.045   1.116  0.00  0.00    -0.333 N 
ATOM      8  H   UNL d   1       0.734   0.542   1.863  0.00  0.00     0.168 HD
BRANCH   7   9
ATOM      9  C   UNL d   1       1.053  -0.086  -0.025  0.00  0.00     0.176 C 
ATOM     10  S   UNL d   1       0.528   0.034  -1.614  0.00  0.00    -0.041 SA
BRANCH   9  11
ATOM     11  N   UNL d   1       2.366  -0.337   0.380  0.00  0.00    -0.333 N 
ATOM     12  H   UNL d   1       2.410  -0.971   1.169  0.00  0.00     0.168 HD
BRANCH  11  13
ATOM     13  C   UNL d   1       3.556  -0.187  -0.362  0.00  0.00     0.036 A 
ATOM     14  C   UNL d   1       4.599  -1.089  -0.118  0.00  0.00     0.056 A 
ATOM     15  C   UNL d   1       5.798  -0.975  -0.826  0.00  0.00     0.074 A 
ATOM     16 CL   UNL d   1       7.048  -2.128  -0.556  0.00  0.00    -0.081 Cl
ATOM     17  C   UNL d   1       5.971   0.055  -1.742  0.00  0.00     0.138 A 
ATOM     18  C   UNL d   1       4.956   0.983  -1.960  0.00  0.00     0.046 A 
ATOM     19  F   UNL d   1       7.118   0.185  -2.424  0.00  0.00    -0.204 F 
ATOM     20  C   UNL d   1       3.751   0.861  -1.266  0.00  0.00     0.032 A 
ENDBRANCH  11  13
ENDBRANCH   9  11
ENDBRANCH   7   9
ENDBRANCH   1   7
BRANCH   2  21
ATOM     21  O   UNL d   1      -5.311   0.045   1.475  0.00  0.00    -0.311 OA
BRANCH  21  22
ATOM     22  C   UNL d   1      -5.921   1.274   1.607  0.00  0.00     0.076 A 
ATOM     23  C   UNL d   1      -5.477   2.419   0.942  0.00  0.00     0.040 A 
ATOM     24  C   UNL d   1      -6.091   3.645   1.191  0.00  0.00     0.040 A 
ATOM     25  C   UNL d   1      -7.185   3.726   2.054  0.00  0.00     0.078 A 
ATOM     26  C   UNL d   1      -7.656   2.574   2.685  0.00  0.00     0.040 A 
ATOM     27  C   UNL d   1      -7.034   1.343   2.446  0.00  0.00     0.040 A 
BRANCH  25  28
ATOM     28  O   UNL d   1      -7.646   4.987   2.280  0.00  0.00    -0.255 OA
BRANCH  28  29
ATOM     29  C   UNL d   1      -9.050   5.186   2.351  0.00  0.00     0.530 C 
ATOM     30  F   UNL d   1      -9.779   4.082   2.085  0.00  0.00    -0.144 F 
ATOM     31  F   UNL d   1      -9.372   5.634   3.583  0.00  0.00    -0.144 F 
ATOM     32  F   UNL d   1      -9.390   6.138   1.454  0.00  0.00    -0.144 F 
ENDBRANCH  28  29
ENDBRANCH  25  28
ENDBRANCH  21  22
ENDBRANCH   2  21
TORSDOF 8
