REMARK  2 active torsions:
REMARK  status: ('A' for Active; 'I' for Inactive)
REMARK    1  A    between atoms: N_6  and  N_1 
REMARK    2  A    between atoms: C_7  and  N_3 
ROOT
ATOM      1  N   UNL d   1       0.966   0.025  -0.130  0.00  0.00    -0.244 N 
ATOM      2  HN  UNL d   1       0.457  -0.853  -0.233  1.00  0.00     0.208 HD
ATOM      3  N   UNL d   1       0.423   1.140  -0.241  0.00  0.00    -0.285 N 
ATOM      4  HN  UNL d   1       0.935   2.022  -0.221  1.00  0.00     0.188 HD
ENDROOT
BRANCH   3   5
ATOM      5  C   UNL d   1      -0.983   1.053  -0.397  0.00  0.00     0.072 A 
ATOM      6  C   UNL d   1      -1.792   2.143  -0.017  0.00  0.00     0.083 A 
ATOM      7  C   UNL d   1      -3.188   2.073  -0.162  0.00  0.00     0.058 A 
ATOM      8 CL   UNL d   1      -1.044   3.573   0.633  0.00  0.00    -0.080 Cl
ATOM      9 CL   UNL d   1      -4.239   3.371   0.293  0.00  0.00    -0.082 Cl
ATOM     10  C   UNL d   1      -3.786   0.926  -0.691  0.00  0.00     0.026 A 
ATOM     11  C   UNL d   1      -3.000  -0.150  -1.086  0.00  0.00     0.004 A 
ATOM     12  C   UNL d   1      -1.614  -0.082  -0.946  0.00  0.00     0.033 A 
ENDBRANCH   3   5
BRANCH   1  13
ATOM     13  N   UNL d   1       2.298   0.081   0.141  0.00  0.00    -0.309 N 
ATOM     14  C   UNL d   1       3.113   1.292   0.058  0.00  0.00     0.170 C 
ATOM     15  C   UNL d   1       4.059   1.210  -1.144  0.00  0.00     0.189 C 
ATOM     16  O   UNL d   1       4.843   0.003  -1.108  0.00  0.00    -0.388 OA
ATOM     17  C   UNL d   1       3.992  -1.157  -1.131  0.00  0.00     0.189 C 
ATOM     18  C   UNL d   1       3.039  -1.171   0.068  0.00  0.00     0.170 C 
ENDBRANCH   1  13
TORSDOF 2
