REMARK  4 active torsions:
REMARK  status: ('A' for Active; 'I' for Inactive)
REMARK    1  A    between atoms: C_9  and  C_1 
REMARK    2  A    between atoms: N_7  and  C_2 
REMARK    3  A    between atoms: C_16  and  C_3 
REMARK       I    between atoms: C_12  and  N_7 
REMARK    4  A    between atoms: C_8  and  C_12 
ROOT
ATOM      1  C   UNL d   1       1.558   0.722   0.133  0.00  0.00     0.147 A 
ATOM      2  C   UNL d   1       0.177  -1.042   0.159  0.00  0.00     0.138 A 
ATOM      3  C   UNL d   1       1.522  -0.710   0.051  0.00  0.00     0.053 A 
ATOM      4  N   UNL d   1       0.316   1.215   0.298  0.00  0.00    -0.292 N 
ATOM      5  HN  UNL d   1       0.044   2.196   0.356  1.00  0.00     0.187 HD
ATOM      6  N   UNL d   1      -0.491   0.142   0.370  0.00  0.00    -0.280 N 
ATOM      7  C   UNL d   1      -1.908   0.408   0.444  0.00  0.00     0.179 C 
ENDROOT
BRANCH   2   8
ATOM      8  N   UNL d   1      -0.303  -2.338   0.013  0.00  0.00    -0.306 N 
ATOM      9  C   UNL d   1      -1.287  -2.934   0.856  0.00  0.00     0.275 C 
ATOM     10  O   UNL d   1      -1.823  -2.345   1.780  0.00  0.00    -0.266 OA
ATOM     11  H   UNL d   1       0.219  -2.975  -0.586  0.00  0.00     0.170 HD
BRANCH   9  12
ATOM     12  C   UNL d   1      -1.402  -4.346   0.532  0.00  0.00     0.125 A 
ATOM     13  N   UNL d   1      -0.838  -4.852  -0.582  0.00  0.00    -0.256 N 
ATOM     14  O   UNL d   1      -1.056  -6.216  -0.536  0.00  0.00    -0.242 OA
ATOM     15  HN  UNL d   1      -0.349  -4.334  -1.312  1.00  0.00     0.195 HD
ATOM     16  C   UNL d   1      -1.720  -6.532   0.609  0.00  0.00     0.075 A 
ATOM     17  C   UNL d   1      -1.999  -5.381   1.302  0.00  0.00     0.071 A 
ATOM     18  C   UNL d   1      -1.950  -7.970   0.853  0.00  0.00     0.079 C 
ENDBRANCH   9  12
ENDBRANCH   2   8
BRANCH   3  19
ATOM     19  C   UNL d   1       2.621  -1.674   0.031  0.00  0.00    -0.020 A 
ATOM     20  C   UNL d   1       3.735  -1.488  -0.797  0.00  0.00     0.012 A 
ATOM     21  C   UNL d   1       4.864  -2.303  -0.662  0.00  0.00     0.001 A 
ATOM     22  C   UNL d   1       4.872  -3.346   0.262  0.00  0.00     0.000 A 
ATOM     23  C   UNL d   1       3.749  -3.584   1.045  0.00  0.00     0.001 A 
ATOM     24  C   UNL d   1       2.636  -2.746   0.941  0.00  0.00     0.012 A 
ENDBRANCH   3  19
BRANCH   1  25
ATOM     25  C   UNL d   1       2.742   1.661   0.061  0.00  0.00     0.434 C 
ATOM     26  F   UNL d   1       3.939   1.043   0.228  0.00  0.00    -0.165 F 
ATOM     27  F   UNL d   1       2.801   2.285  -1.147  0.00  0.00    -0.165 F 
ATOM     28  F   UNL d   1       2.688   2.635   1.008  0.00  0.00    -0.165 F 
ENDBRANCH   1  25
TORSDOF 4
