REMARK  4 active torsions:
REMARK  status: ('A' for Active; 'I' for Inactive)
REMARK    1  A    between atoms: C_7  and  C_1 
REMARK    2  A    between atoms: C_4  and  O_8 
REMARK    3  A    between atoms: O_8  and  C_9 
REMARK    4  A    between atoms: C_9  and  C_10 
ROOT
ATOM      1  C   UNL d   1       3.559   0.325   0.477  0.00  0.00     0.025 C 
ATOM      2  C   UNL d   1       4.389   1.250  -0.032  0.00  0.00     0.084 C 
ENDROOT
BRANCH   2   3
ATOM      3  C   UNL d   1       5.862   1.251   0.172  0.00  0.00     0.288 C 
ATOM      4  O   UNL d   1       6.591   2.087  -0.334  0.00  0.00    -0.260 OA
BRANCH   3   5
ATOM      5  O   UNL d   1       6.227   0.254   1.055  0.00  0.00    -0.272 OA
BRANCH   5   6
ATOM      6  C   UNL d   1       7.409   0.513   1.764  0.00  0.00     0.122 A 
ATOM      7  C   UNL d   1       7.455   1.548   2.709  0.00  0.00     0.069 A 
ATOM      8 CL   UNL d   1       6.109   2.590   3.009  0.00  0.00    -0.081 Cl
ATOM      9  C   UNL d   1       8.593   1.720   3.499  0.00  0.00     0.027 A 
ATOM     10  C   UNL d   1       9.670   0.843   3.376  0.00  0.00     0.003 A 
ATOM     11  C   UNL d   1       9.617  -0.203   2.453  0.00  0.00     0.027 A 
ATOM     12  C   UNL d   1       8.488  -0.368   1.643  0.00  0.00     0.069 A 
ATOM     13 CL   UNL d   1       8.451  -1.697   0.542  0.00  0.00    -0.081 Cl
ENDBRANCH   5   6
ENDBRANCH   3   5
ENDBRANCH   2   3
BRANCH   1  14
ATOM     14  C   UNL d   1       2.140   0.382   0.314  0.00  0.00     0.012 A 
ATOM     15  S   UNL d   1       1.187  -0.186   1.635  0.00  0.00    -0.089 SA
ATOM     16  C   UNL d   1      -0.298   0.136   0.847  0.00  0.00     0.016 A 
ATOM     17  C   UNL d   1      -1.597  -0.079   1.355  0.00  0.00     0.019 A 
ATOM     18  C   UNL d   1      -0.087   0.656  -0.427  0.00  0.00    -0.012 A 
ATOM     19  C   UNL d   1      -2.700   0.240   0.559  0.00  0.00     0.001 A 
ATOM     20  C   UNL d   1      -2.521   0.755  -0.715  0.00  0.00     0.001 A 
ATOM     21  C   UNL d   1      -1.231   0.962  -1.212  0.00  0.00     0.013 A 
ATOM     22  C   UNL d   1       1.328   0.785  -0.741  0.00  0.00    -0.033 A 
ATOM     23  C   UNL d   1       1.780   1.278  -2.082  0.00  0.00     0.050 C 
ENDBRANCH   1  14
TORSDOF 4
