REMARK  4 active torsions:
REMARK  status: ('A' for Active; 'I' for Inactive)
REMARK    1  A    between atoms: C_7  and  C_3 
REMARK    2  A    between atoms: C_15  and  C_4 
REMARK    3  A    between atoms: O_16  and  C_15 
REMARK    4  A    between atoms: C_17  and  O_16 
ROOT
ATOM      1  N   UNL d   1       1.466  -0.600  -0.031  0.00  0.00    -0.351 N 
ATOM      2  HN  UNL d   1       2.358  -1.092  -0.069  1.00  0.00     0.166 HD
ATOM      3  C   UNL d   1       1.319   0.779  -0.014  0.00  0.00     0.049 A 
ATOM      4  C   UNL d   1       0.282  -1.181   0.011  0.00  0.00     0.075 A 
ATOM      5  S   UNL d   1      -1.063  -0.109   0.086  0.00  0.00    -0.084 SA
ATOM      6  C   UNL d   1       0.011   1.221   0.054  0.00  0.00     0.082 A 
ENDROOT
BRANCH   3   7
ATOM      7  C   UNL d   1       2.475   1.669  -0.056  0.00  0.00    -0.006 A 
ATOM      8  C   UNL d   1       2.382   2.958  -0.598  0.00  0.00     0.053 A 
ATOM      9  C   UNL d   1       3.497   3.793  -0.632  0.00  0.00     0.103 A 
ATOM     10  O   UNL d   1       3.313   5.032  -1.194  0.00  0.00    -0.346 OA
ATOM     11  C   UNL d   1       4.715   3.361  -0.104  0.00  0.00     0.102 A 
ATOM     12  C   UNL d   1       4.565   5.658  -1.491  0.00  0.00     0.202 C 
ATOM     13  C   UNL d   1       5.528   5.519  -0.323  0.00  0.00     0.202 C 
ATOM     14  O   UNL d   1       5.841   4.143  -0.080  0.00  0.00    -0.346 OA
ATOM     15  C   UNL d   1       4.828   2.076   0.419  0.00  0.00     0.040 A 
ATOM     16  C   UNL d   1       3.711   1.232   0.442  0.00  0.00     0.017 A 
ENDBRANCH   3   7
BRANCH   4  17
ATOM     17  C   UNL d   1       0.045  -2.660  -0.047  0.00  0.00     0.240 C 
BRANCH  17  18
ATOM     18  O   UNL d   1       0.027  -3.142   1.300  0.00  0.00    -0.345 OA
BRANCH  18  19
ATOM     19  C   UNL d   1      -0.124  -4.494   1.438  0.00  0.00     0.069 A 
ATOM     20  C   UNL d   1       0.434  -5.045   2.595  0.00  0.00     0.038 A 
ATOM     21  C   UNL d   1       0.326  -6.414   2.850  0.00  0.00     0.026 A 
ATOM     22  C   UNL d   1      -0.356  -7.231   1.953  0.00  0.00     0.034 A 
ATOM     23  C   UNL d   1      -0.934  -6.688   0.807  0.00  0.00     0.026 A 
ATOM     24 CL   UNL d   1      -0.497  -8.917   2.261  0.00  0.00    -0.084 Cl
ATOM     25  C   UNL d   1      -0.820  -5.319   0.550  0.00  0.00     0.038 A 
ENDBRANCH  18  19
ENDBRANCH  17  18
ENDBRANCH   4  17
TORSDOF 4
