REMARK  9 active torsions:
REMARK  status: ('A' for Active; 'I' for Inactive)
REMARK    1  A    between atoms: C_8  and  C_1 
REMARK    2  A    between atoms: C_3  and  C_2 
REMARK    3  A    between atoms: N_26  and  C_2 
REMARK    4  A    between atoms: N_4  and  O_11 
REMARK    5  A    between atoms: C_6  and  C_22 
REMARK    6  A    between atoms: C_7  and  C_12 
REMARK    7  A    between atoms: O_11  and  C_7 
REMARK    8  A    between atoms: O_21  and  C_14 
REMARK    9  A    between atoms: C_22  and  O_21 
ROOT
ATOM      1  C   UNL d   1      -0.058  -4.924   5.820  0.00  0.00     0.110 C 
ATOM      2  N   UNL d   1       0.339  -4.289   4.760  0.00  0.00    -0.246 N 
ATOM      3  HN  UNL d   1       0.815  -4.740   3.978  1.00  0.00     0.196 HD
ENDROOT
BRANCH   1   4
ATOM      4  C   UNL d   1       0.172  -6.401   5.863  0.00  0.00     0.019 A 
ATOM      5  C   UNL d   1       1.198  -6.985   5.132  0.00  0.00     0.105 A 
ATOM      6  N   UNL d   1       1.480  -8.316   5.152  0.00  0.00    -0.346 N 
ATOM      7  C   UNL d   1       0.693  -9.112   5.902  0.00  0.00     0.142 A 
ATOM      8  HN  UNL d   1       2.260  -8.698   4.617  1.00  0.00     0.167 HD
ATOM      9  C   UNL d   1      -0.367  -8.619   6.652  0.00  0.00     0.057 A 
ATOM     10  C   UNL d   1      -0.630  -7.245   6.632  0.00  0.00     0.020 A 
BRANCH   7  11
ATOM     11  O   UNL d   1       1.095 -10.418   5.913  0.00  0.00    -0.327 OA
BRANCH  11  12
ATOM     12  C   UNL d   1       0.048 -11.391   5.959  0.00  0.00     0.294 C 
BRANCH  12  13
ATOM     13  C   UNL d   1       0.588 -12.808   5.775  0.00  0.00     0.408 C 
ATOM     14  F   UNL d   1       1.921 -12.855   5.579  0.00  0.00    -0.169 F 
ATOM     15  F   UNL d   1       0.316 -13.562   6.870  0.00  0.00    -0.169 F 
ATOM     16  F   UNL d   1      -0.004 -13.418   4.721  0.00  0.00    -0.169 F 
ENDBRANCH  12  13
ENDBRANCH  11  12
ENDBRANCH   7  11
ENDBRANCH   1   4
BRANCH   1  17
ATOM     17  N   UNL d   1      -0.662  -4.316   6.897  0.00  0.00    -0.286 NA
ATOM     18  H   UNL d   1      -0.536  -3.310   6.891  0.00  0.00     0.125 HD
ATOM     19  H   UNL d   1      -0.448  -4.717   7.805  0.00  0.00     0.125 HD
ENDBRANCH   1  17
BRANCH   2  20
ATOM     20  O   UNL d   1       0.043  -2.905   4.801  0.00  0.00    -0.193 OA
BRANCH  20  21
ATOM     21  C   UNL d   1       0.460  -2.334   3.628  0.00  0.00     0.315 C 
ATOM     22  O   UNL d   1       1.045  -2.885   2.705  0.00  0.00    -0.257 OA
BRANCH  21  23
ATOM     23  C   UNL d   1       0.123  -0.878   3.570  0.00  0.00     0.042 A 
ATOM     24  C   UNL d   1      -0.596  -0.202   4.567  0.00  0.00     0.034 A 
ATOM     25  C   UNL d   1      -0.881   1.173   4.435  0.00  0.00     0.048 A 
ATOM     26  C   UNL d   1      -0.433   1.861   3.295  0.00  0.00     0.016 A 
ATOM     27  C   UNL d   1       0.278   1.195   2.301  0.00  0.00     0.002 A 
ATOM     28  C   UNL d   1       0.551  -0.166   2.438  0.00  0.00     0.018 A 
BRANCH  25  29
ATOM     29  C   UNL d   1      -1.659   1.925   5.490  0.00  0.00     0.417 C 
ATOM     30  F   UNL d   1      -2.080   1.136   6.516  0.00  0.00    -0.166 F 
ATOM     31  F   UNL d   1      -2.777   2.518   4.989  0.00  0.00    -0.166 F 
ATOM     32  F   UNL d   1      -0.929   2.923   6.061  0.00  0.00    -0.166 F 
ENDBRANCH  25  29
ENDBRANCH  21  23
ENDBRANCH  20  21
ENDBRANCH   2  20
TORSDOF 9
