REMARK  4 active torsions:
REMARK  status: ('A' for Active; 'I' for Inactive)
REMARK    1  A    between atoms: C_2  and  C_1 
REMARK       I    between atoms: N_8  and  C_1 
REMARK    2  A    between atoms: C_9  and  C_5 
REMARK    3  A    between atoms: C_13  and  N_8 
REMARK    4  A    between atoms: O_14  and  C_9 
ROOT
ATOM      1  C   UNL d   1      -0.048  -1.535   0.403  0.00  0.00     0.100 C 
ATOM      2  C   UNL d   1      -0.890  -2.191  -0.724  0.00  0.00     0.022 C 
ATOM      3  C   UNL d   1       0.247  -3.931   0.102  0.00  0.00     0.023 C 
ATOM      4  C   UNL d   1       0.811  -2.740   0.923  0.00  0.00     0.107 C 
ATOM      5  C   UNL d   1       0.010  -2.709  -1.823  0.00  0.00    -0.025 C 
ATOM      6  C   UNL d   1       0.698  -3.749  -1.328  0.00  0.00    -0.025 C 
ATOM      7  C   UNL d   1      -1.226  -3.533  -0.065  0.00  0.00     0.018 C 
ENDROOT
BRANCH   1   8
ATOM      8  C   UNL d   1       0.766  -0.325  -0.045  0.00  0.00     0.227 C 
ATOM      9  N   UNL d   1       1.571   0.181   0.965  0.00  0.00    -0.327 N 
ATOM     10  H   UNL d   1       1.511  -0.270   1.875  0.00  0.00     0.169 HD
ATOM     11  O   UNL d   1       0.634   0.155  -1.166  0.00  0.00    -0.273 OA
BRANCH   9  12
ATOM     12  C   UNL d   1       2.443   1.291   0.886  0.00  0.00     0.034 A 
ATOM     13  C   UNL d   1       2.603   2.086  -0.252  0.00  0.00     0.029 A 
ATOM     14  C   UNL d   1       3.493   3.167  -0.251  0.00  0.00     0.002 A 
ATOM     15  C   UNL d   1       4.237   3.461   0.888  0.00  0.00     0.000 A 
ATOM     16  C   UNL d   1       4.087   2.677   2.029  0.00  0.00     0.002 A 
ATOM     17  C   UNL d   1       3.192   1.602   2.029  0.00  0.00     0.029 A 
ENDBRANCH   9  12
ENDBRANCH   1   8
BRANCH   4  18
ATOM     18  C   UNL d   1       0.622  -2.885   2.418  0.00  0.00     0.264 C 
ATOM     19  O   UNL d   1       0.660  -1.925   3.181  0.00  0.00    -0.265 OA
BRANCH  18  20
ATOM     20  O   UNL d   1       0.448  -4.176   2.794  0.00  0.00    -0.326 OA
ATOM     21  C   UNL d   1       0.190  -4.380   4.184  0.00  0.00     0.213 C 
ENDBRANCH  18  20
ENDBRANCH   4  18
TORSDOF 4
