REMARK  4 active torsions:
REMARK  status: ('A' for Active; 'I' for Inactive)
REMARK    1  A    between atoms: C_8  and  C_1 
REMARK    2  A    between atoms: C_17  and  C_16 
REMARK    3  A    between atoms: O_20  and  C_16 
REMARK    4  A    between atoms: O_21  and  C_17 
ROOT
ATOM      1  C   UNL d   2       2.872   2.013  -2.363  0.00  0.00     0.243 C 
ATOM      2  O   UNL d   2       3.843   1.575  -1.787  0.00  0.00    -0.642 OA
ENDROOT
BRANCH   1   3
ATOM      3  C   UNL d   2       1.909   1.185  -3.275  0.00  0.00     0.243 C 
ATOM      4  O   UNL d   2       0.985   1.641  -3.921  0.00  0.00    -0.642 OA
BRANCH   3   5
ATOM      5  O   UNL d   2       2.148  -0.129  -3.228  0.00  0.00    -0.769 OA
ATOM      6  H   UNL d   2       1.450  -0.534  -3.784  0.00  0.00     0.168 HD
ENDBRANCH   3   5
ENDBRANCH   1   3
BRANCH   1   7
ATOM      7  O   UNL d   2       2.478   3.288  -2.229  0.00  0.00    -0.769 OA
ATOM      8  H   UNL d   2       3.127   3.691  -1.623  0.00  0.00     0.168 HD
ENDBRANCH   1   7
TORSDOF 4
