REMARK  8 active torsions:
REMARK  status: ('A' for Active; 'I' for Inactive)
REMARK    1  A    between atoms: C_5  and  N_1 
REMARK    2  A    between atoms: S_2  and  C_8 
REMARK    3  A    between atoms: N_19  and  S_2 
REMARK    4  A    between atoms: C_7  and  C_14 
REMARK    5  A    between atoms: C_28  and  N_19 
REMARK    6  A    between atoms: C_20  and  N_27 
REMARK    7  A    between atoms: N_27  and  C_34 
REMARK    8  A    between atoms: C_34  and  C_28 
ROOT
ATOM      1  S   UNL d   1       6.507  -4.391   0.381  0.00  0.00     0.258 S 
ATOM      2  O   UNL d   1       7.133  -4.387  -0.923  0.00  0.00    -0.201 OA
ATOM      3  O   UNL d   1       7.244  -4.091   1.584  0.00  0.00    -0.201 OA
ENDROOT
BRANCH   1   4
ATOM      4  C   UNL d   1       5.094  -3.323   0.277  0.00  0.00     0.081 A 
ATOM      5  C   UNL d   1       4.918  -2.300   1.211  0.00  0.00     0.027 A 
ATOM      6  C   UNL d   1       3.816  -1.449   1.102  0.00  0.00     0.033 A 
ATOM      7  C   UNL d   1       2.869  -1.624   0.080  0.00  0.00     0.067 A 
ATOM      8  C   UNL d   1       3.072  -2.650  -0.864  0.00  0.00     0.062 A 
ATOM      9  C   UNL d   1       4.185  -3.493  -0.769  0.00  0.00     0.051 A 
ATOM     10 CL   UNL d   1       2.078  -2.819  -2.272  0.00  0.00    -0.082 Cl
BRANCH   7  11
ATOM     11  N   UNL d   1       1.750  -0.758   0.021  0.00  0.00    -0.250 N 
ATOM     12  C   UNL d   1       1.844   0.608   0.073  0.00  0.00     0.232 C 
ATOM     13  C   UNL d   1       0.472   1.197  -0.094  0.00  0.00     0.123 C 
ATOM     14  O   UNL d   1       2.856   1.290   0.171  0.00  0.00    -0.273 OA
ATOM     15  C   UNL d   1      -0.469  -0.000   0.031  0.00  0.00     0.050 C 
ATOM     16  C   UNL d   1       0.450  -1.204   0.037  0.00  0.00     0.240 C 
ATOM     17  C   UNL d   1      -1.508  -0.094  -1.085  0.00  0.00     0.020 C 
ATOM     18  C   UNL d   1      -1.334   0.065   1.294  0.00  0.00     0.020 C 
ATOM     19  O   UNL d   1       0.057  -2.359   0.136  0.00  0.00    -0.272 OA
ATOM     20  C   UNL d   1      -2.667   0.783  -0.628  0.00  0.00     0.001 C 
ATOM     21  C   UNL d   1      -2.562   0.877   0.892  0.00  0.00     0.001 C 
ENDBRANCH   7  11
ENDBRANCH   1   4
BRANCH   1  22
ATOM     22  N   UNL d   1       5.822  -5.920   0.561  0.00  0.00    -0.314 N 
ATOM     23  H   UNL d   1       6.215  -6.577  -0.110  0.00  0.00     0.172 HD
BRANCH  22  24
ATOM     24  C   UNL d   1       5.553  -6.442   1.917  0.00  0.00     0.147 C 
BRANCH  24  25
ATOM     25  C   UNL d   1       4.560  -5.581   2.706  0.00  0.00     0.114 C 
BRANCH  25  26
ATOM     26  N   UNL d   1       4.347  -6.106   4.057  0.00  0.00    -0.277 NA
ATOM     27  H   UNL d   1       5.225  -6.205   4.563  0.00  0.00     0.129 HD
BRANCH  26  28
ATOM     28  C   UNL d   1       3.503  -5.274   4.828  0.00  0.00     0.080 A 
ATOM     29  N   UNL d   1       2.892  -4.209   4.268  0.00  0.00    -0.343 N 
ATOM     30  C   UNL d   1       2.076  -3.430   5.035  0.00  0.00     0.117 A 
ATOM     31  HN  UNL d   1       3.040  -3.989   3.283  1.00  0.00     0.167 HD
ATOM     32  C   UNL d   1       1.852  -3.709   6.382  0.00  0.00     0.034 A 
ATOM     33  C   UNL d   1       2.474  -4.812   6.950  0.00  0.00     0.005 A 
ATOM     34  C   UNL d   1       3.300  -5.609   6.162  0.00  0.00     0.042 A 
BRANCH  30  35
ATOM     35  C   UNL d   1       1.396  -2.216   4.420  0.00  0.00     0.432 C 
ATOM     36  F   UNL d   1       1.634  -2.037   3.090  0.00  0.00    -0.165 F 
ATOM     37  F   UNL d   1       0.038  -2.243   4.552  0.00  0.00    -0.165 F 
ATOM     38  F   UNL d   1       1.791  -1.049   5.015  0.00  0.00    -0.165 F 
ENDBRANCH  30  35
ENDBRANCH  26  28
ENDBRANCH  25  26
ENDBRANCH  24  25
ENDBRANCH  22  24
ENDBRANCH   1  22
TORSDOF 8
