REMARK  6 active torsions:
REMARK  status: ('A' for Active; 'I' for Inactive)
REMARK    1  A    between atoms: C_16  and  N_1 
REMARK    2  A    between atoms: C_8  and  C_2 
REMARK    3  A    between atoms: S_9  and  C_5 
REMARK    4  A    between atoms: C_22  and  S_9 
REMARK    5  A    between atoms: C_18  and  C_16 
REMARK    6  A    between atoms: C_20  and  C_22 
ROOT
ATOM      1  N   UNL d   1      -0.257  -1.250   0.014  0.00  0.00    -0.307 N 
ATOM      2  C   UNL d   1       0.965  -0.610  -0.157  0.00  0.00     0.135 A 
ATOM      3  N   UNL d   1       0.734   0.696  -0.183  0.00  0.00    -0.283 N 
ATOM      4  HN  UNL d   1       1.449   1.420  -0.248  1.00  0.00     0.188 HD
ATOM      5  C   UNL d   1      -1.196  -0.247   0.001  0.00  0.00     0.163 A 
ATOM      6  N   UNL d   1      -0.614   0.919  -0.111  0.00  0.00    -0.278 N 
ATOM      7  HN  UNL d   1      -1.078   1.827  -0.138  1.00  0.00     0.189 HD
ENDROOT
BRANCH   2   8
ATOM      8  C   UNL d   1       2.317  -1.183  -0.262  0.00  0.00     0.011 A 
ATOM      9  C   UNL d   1       2.596  -2.404  -0.883  0.00  0.00     0.029 A 
ATOM     10  C   UNL d   1       3.918  -2.876  -1.013  0.00  0.00    -0.009 A 
ATOM     11  C   UNL d   1       4.194  -4.106  -1.627  0.00  0.00     0.015 A 
ATOM     12  C   UNL d   1       5.004  -2.114  -0.544  0.00  0.00     0.042 A 
ATOM     13  C   UNL d   1       5.510  -4.526  -1.774  0.00  0.00     0.018 A 
ATOM     14  C   UNL d   1       6.507  -3.700  -1.292  0.00  0.00     0.088 A 
ATOM     15  N   UNL d   1       6.280  -2.520  -0.680  0.00  0.00    -0.365 N 
ATOM     16  HN  UNL d   1       7.052  -1.952  -0.331  1.00  0.00     0.165 HD
ATOM     17  C   UNL d   1       4.724  -0.904   0.069  0.00  0.00     0.031 A 
ATOM     18  C   UNL d   1       3.407  -0.435   0.209  0.00  0.00     0.017 A 
ENDBRANCH   2   8
BRANCH   1  19
ATOM     19  C   UNL d   1      -0.537  -2.676   0.083  0.00  0.00     0.159 C 
BRANCH  19  20
ATOM     20  C   UNL d   1       0.018  -3.436   1.258  0.00  0.00    -0.017 C 
ATOM     21  C   UNL d   1       0.686  -2.976   2.324  0.00  0.00     0.008 C 
ENDBRANCH  19  20
ENDBRANCH   1  19
BRANCH   5  22
ATOM     22  S   UNL d   1      -2.909  -0.481   0.094  0.00  0.00    -0.085 SA
BRANCH  22  23
ATOM     23  C   UNL d   1      -3.447   0.557  -1.295  0.00  0.00     0.160 C 
BRANCH  23  24
ATOM     24  C   UNL d   1      -3.044  -0.021  -2.642  0.00  0.00     0.132 C 
ATOM     25  O   UNL d   1      -2.751  -1.205  -2.820  0.00  0.00    -0.298 OA
ATOM     26  C   UNL d   1      -3.088   0.940  -3.805  0.00  0.00     0.091 C 
ENDBRANCH  23  24
ENDBRANCH  22  23
ENDBRANCH   5  22
TORSDOF 6
