REMARK  4 active torsions:
REMARK  status: ('A' for Active; 'I' for Inactive)
REMARK    1  A    between atoms: C_5  and  C_1 
REMARK    2  A    between atoms: C_11  and  C_2 
REMARK    3  A    between atoms: C_8  and  N_14 
REMARK    4  A    between atoms: N_14  and  N_9 
ROOT
ATOM      1  C   UNL d   1      -1.323  -0.864   0.221  0.00  0.00     0.082 A 
ATOM      2  C   UNL d   1       0.009  -1.337   0.003  0.00  0.00     0.041 A 
ATOM      3  N   UNL d   1      -1.300   0.447   0.517  0.00  0.00    -0.259 N 
ATOM      4  HN  UNL d   1      -2.102   1.031   0.755  1.00  0.00     0.195 HD
ATOM      5  O   UNL d   1       0.012   0.848   0.438  0.00  0.00    -0.241 OA
ATOM      6  C   UNL d   1       0.798  -0.215   0.141  0.00  0.00     0.086 A 
ATOM      7  C   UNL d   1       2.240   0.071   0.018  0.00  0.00     0.080 C 
ENDROOT
BRANCH   2   8
ATOM      8  C   UNL d   1       0.519  -2.653  -0.289  0.00  0.00     0.118 C 
ATOM      9  N   UNL d   1      -0.275  -3.577  -0.729  0.00  0.00    -0.327 N 
ATOM     10  HN  UNL d   1      -1.264  -3.423  -0.925  1.00  0.00     0.180 HD
BRANCH   9  11
ATOM     11  N   UNL d   1       0.351  -4.778  -0.903  0.00  0.00    -0.203 NA
ATOM     12  H   UNL d   1       0.421  -5.317  -0.027  0.00  0.00     0.153 HD
BRANCH  11  13
ATOM     13  C   UNL d   1      -0.204  -5.634  -1.900  0.00  0.00     0.071 A 
ATOM     14  C   UNL d   1      -0.573  -5.195  -3.190  0.00  0.00     0.058 A 
ATOM     15 CL   UNL d   1      -0.395  -3.556  -3.724  0.00  0.00    -0.082 Cl
ATOM     16  C   UNL d   1      -1.062  -6.099  -4.142  0.00  0.00     0.026 A 
ATOM     17  C   UNL d   1      -1.171  -7.455  -3.845  0.00  0.00     0.003 A 
ATOM     18  C   UNL d   1      -0.778  -7.920  -2.594  0.00  0.00     0.026 A 
ATOM     19  C   UNL d   1      -0.295  -7.022  -1.639  0.00  0.00     0.058 A 
ATOM     20 CL   UNL d   1       0.178  -7.659  -0.099  0.00  0.00    -0.082 Cl
ENDBRANCH  11  13
ENDBRANCH   9  11
ENDBRANCH   2   8
BRANCH   1  21
ATOM     21  C   UNL d   1      -2.595  -1.594   0.187  0.00  0.00     0.037 A 
ATOM     22  C   UNL d   1      -2.806  -2.745   0.971  0.00  0.00     0.048 A 
ATOM     23 CL   UNL d   1      -1.680  -3.291   2.176  0.00  0.00    -0.083 Cl
ATOM     24  C   UNL d   1      -3.991  -3.487   0.862  0.00  0.00     0.025 A 
ATOM     25  C   UNL d   1      -5.019  -3.057   0.030  0.00  0.00     0.003 A 
ATOM     26  C   UNL d   1      -4.863  -1.883  -0.697  0.00  0.00     0.025 A 
ATOM     27  C   UNL d   1      -3.659  -1.163  -0.636  0.00  0.00     0.048 A 
ATOM     28 CL   UNL d   1      -3.577   0.249  -1.641  0.00  0.00    -0.083 Cl
ENDBRANCH   1  21
TORSDOF 4
