REMARK  2 active torsions:
REMARK  status: ('A' for Active; 'I' for Inactive)
REMARK    1  A    between atoms: C_3  and  C_1 
REMARK    2  A    between atoms: O_10  and  C_3 
ROOT
ATOM      1  C   UNL d   1       0.637   1.788  -0.017  0.00  0.00     0.056 A 
ATOM      2  C   UNL d   1       0.490   0.387  -0.023  0.00  0.00     0.038 A 
ATOM      3  C   UNL d   1      -0.815  -0.216  -0.018  0.00  0.00    -0.007 A 
ATOM      4  C   UNL d   1      -0.513   2.588   0.007  0.00  0.00     0.020 A 
ATOM      5  C   UNL d   1      -1.949   0.633   0.003  0.00  0.00    -0.025 A 
ATOM      6  C   UNL d   1      -1.784   2.019   0.014  0.00  0.00     0.013 A 
ATOM      7 BR   UNL d   1       2.032  -0.752   0.013  0.00  0.00    -0.049 Br
ATOM      8  C   UNL d   1      -1.072  -1.614  -0.025  0.00  0.00     0.013 A 
ATOM      9  C   UNL d   1      -3.249   0.097   0.022  0.00  0.00     0.012 A 
ATOM     10  C   UNL d   1      -2.370  -2.136  -0.005  0.00  0.00     0.001 A 
ATOM     11  C   UNL d   1      -3.460  -1.280   0.019  0.00  0.00     0.001 A 
ENDROOT
BRANCH   1  12
ATOM     12  C   UNL d   1       1.918   2.552   0.018  0.00  0.00     0.177 C 
ATOM     13  O   UNL d   1       1.992   3.655   0.541  0.00  0.00    -0.646 OA
BRANCH  12  14
ATOM     14  O   UNL d   1       2.958   2.021  -0.654  0.00  0.00    -0.773 OA
ATOM     15  H   UNL d   1       2.809   1.126  -1.014  0.00  0.00     0.167 HD
ENDBRANCH  12  14
ENDBRANCH   1  12
TORSDOF 2
