REMARK  0 active torsions:
REMARK  status: ('A' for Active; 'I' for Inactive)
REMARK       I    between atoms: C_6  and  N_3 
REMARK       I    between atoms: N_14  and  C_6 
ROOT
ATOM      1  C   UNL d   1       2.028   0.038  -0.055  0.00  0.00     0.041 A 
ATOM      2  C   UNL d   1       3.469   0.023  -0.133  0.00  0.00     0.080 C 
ATOM      3  N   UNL d   1       4.326  -0.934   0.417  0.00  0.00    -0.205 N 
ATOM      4  S   UNL d   1       1.148  -1.408  -0.323  0.00  0.00    -0.087 SA
ATOM      5  C   UNL d   1       1.177   1.128   0.089  0.00  0.00    -0.031 A 
ATOM      6  C   UNL d   1       4.069  -1.981   1.346  0.00  0.00     0.341 C 
ATOM      7  C   UNL d   1      -0.223   0.730   0.049  0.00  0.00    -0.012 A 
ATOM      8  N   UNL d   1       5.609  -0.794  -0.076  0.00  0.00    -0.301 N 
ATOM      9  HN  UNL d   1       6.404  -1.417   0.063  1.00  0.00     0.186 HD
ATOM     10  C   UNL d   1      -0.366  -0.648  -0.108  0.00  0.00     0.016 A 
ATOM     11  C   UNL d   1       4.284   0.886  -0.845  0.00  0.00     0.052 C 
ATOM     12  C   UNL d   1       5.572   0.339  -0.773  0.00  0.00     0.110 C 
ATOM     13  O   UNL d   1       3.046  -2.025   2.011  0.00  0.00    -0.245 OA
ATOM     14  N   UNL d   1       5.095  -2.904   1.337  0.00  0.00    -0.346 N 
ATOM     15  C   UNL d   1       1.596   2.557   0.265  0.00  0.00     0.050 C 
ATOM     16  C   UNL d   1      -1.410   1.502   0.148  0.00  0.00     0.013 A 
ATOM     17  C   UNL d   1      -1.629  -1.273  -0.113  0.00  0.00     0.019 A 
ATOM     18  C   UNL d   1       4.927  -4.201   1.928  0.00  0.00     0.151 C 
ATOM     19  C   UNL d   1      -2.668   0.891   0.124  0.00  0.00     0.001 A 
ATOM     20  C   UNL d   1      -2.774  -0.487   0.008  0.00  0.00     0.001 A 
ATOM     21  H   UNL d   1       5.840  -2.731   0.664  0.00  0.00     0.163 HD
ENDROOT
TORSDOF 0
