REMARK  4 active torsions:
REMARK  status: ('A' for Active; 'I' for Inactive)
REMARK    1  A    between atoms: N_6  and  S_1 
REMARK    2  A    between atoms: C_10  and  S_1 
REMARK    3  A    between atoms: C_2  and  C_11 
REMARK    4  A    between atoms: C_11  and  N_6 
ROOT
ATOM      1  N   UNL d   1       0.500  -0.550  -1.403  0.00  0.00    -0.211 NA
ATOM      2  H   UNL d   1      -0.485  -0.810  -1.382  0.00  0.00     0.140 HD
ENDROOT
BRANCH   1   3
ATOM      3  S   UNL d   1       1.022   0.052   0.091  0.00  0.00     0.241 S 
ATOM      4  O   UNL d   1       2.413   0.414  -0.042  0.00  0.00    -0.206 OA
ATOM      5  O   UNL d   1       0.551  -0.852   1.110  0.00  0.00    -0.206 OA
BRANCH   3   6
ATOM      6  C   UNL d   1       0.067   1.549   0.247  0.00  0.00     0.074 A 
ATOM      7  C   UNL d   1      -1.331   1.469   0.286  0.00  0.00     0.025 A 
ATOM      8  C   UNL d   1      -2.083   2.643   0.343  0.00  0.00     0.002 A 
ATOM      9  C   UNL d   1      -1.442   3.882   0.382  0.00  0.00     0.000 A 
ATOM     10  C   UNL d   1      -0.048   3.954   0.377  0.00  0.00     0.002 A 
ATOM     11  C   UNL d   1       0.712   2.786   0.311  0.00  0.00     0.025 A 
ENDBRANCH   3   6
ENDBRANCH   1   3
BRANCH   1  12
ATOM     12  C   UNL d   1       0.936   0.204  -2.577  0.00  0.00     0.144 C 
BRANCH  12  13
ATOM     13  C   UNL d   1       0.395  -0.440  -3.824  0.00  0.00    -0.026 A 
ATOM     14  C   UNL d   1       1.064  -1.462  -4.615  0.00  0.00    -0.009 A 
ATOM     15  C   UNL d   1       0.355  -1.753  -5.788  0.00  0.00     0.015 A 
ATOM     16  C   UNL d   1       2.286  -2.157  -4.404  0.00  0.00     0.037 A 
ATOM     17  C   UNL d   1       0.830  -2.676  -6.743  0.00  0.00     0.021 A 
ATOM     18  S   UNL d   1      -1.107  -0.854  -5.881  0.00  0.00    -0.101 SA
ATOM     19  C   UNL d   1       2.034  -3.339  -6.507  0.00  0.00     0.025 A 
ATOM     20  C   UNL d   1       2.748  -3.085  -5.346  0.00  0.00     0.035 A 
ATOM     21 CL   UNL d   1       4.226  -3.922  -5.062  0.00  0.00    -0.084 Cl
ATOM     22  C   UNL d   1      -0.801  -0.064  -4.407  0.00  0.00     0.059 A 
ENDBRANCH  12  13
ENDBRANCH   1  12
TORSDOF 4
