REMARK  4 active torsions:
REMARK  status: ('A' for Active; 'I' for Inactive)
REMARK       I    between atoms: N_2  and  C_1 
REMARK    1  A    between atoms: C_5  and  C_1 
REMARK    2  A    between atoms: N_3  and  N_2 
REMARK    3  A    between atoms: C_4  and  N_3 
REMARK    4  A    between atoms: C_16  and  C_13 
ROOT
ATOM      1  C   UNL d   1       1.022  -0.089   0.000  0.00  0.00     0.266 C 
ATOM      2  N   UNL d   1       2.121   0.550  -0.550  0.00  0.00    -0.283 N 
ATOM      3  O   UNL d   1       0.730  -1.250  -0.277  0.00  0.00    -0.266 OA
ATOM      4  H   UNL d   1       2.289   1.549  -0.499  0.00  0.00     0.184 HD
ENDROOT
BRANCH   2   5
ATOM      5  N   UNL d   1       2.872  -0.146  -1.509  0.00  0.00    -0.200 NA
ATOM      6  H   UNL d   1       2.618  -1.141  -1.508  0.00  0.00     0.153 HD
BRANCH   5   7
ATOM      7  C   UNL d   1       4.273   0.059  -1.407  0.00  0.00     0.066 A 
ATOM      8  C   UNL d   1       4.858   1.269  -0.988  0.00  0.00     0.139 A 
ATOM      9  F   UNL d   1       4.087   2.282  -0.554  0.00  0.00    -0.204 F 
ATOM     10  C   UNL d   1       6.237   1.466  -1.014  0.00  0.00     0.044 A 
ATOM     11  C   UNL d   1       7.073   0.459  -1.488  0.00  0.00     0.003 A 
ATOM     12  C   UNL d   1       6.520  -0.739  -1.935  0.00  0.00     0.002 A 
ATOM     13  C   UNL d   1       5.133  -0.931  -1.908  0.00  0.00     0.028 A 
ENDBRANCH   5   7
ENDBRANCH   2   5
BRANCH   1  14
ATOM     14  C   UNL d   1       0.191   0.703   0.961  0.00  0.00     0.033 A 
ATOM     15  C   UNL d   1       0.582   1.959   1.444  0.00  0.00     0.017 A 
ATOM     16  C   UNL d   1      -0.233   2.659   2.339  0.00  0.00     0.008 A 
ATOM     17  C   UNL d   1      -1.449   2.118   2.772  0.00  0.00    -0.059 A 
ATOM     18  C   UNL d   1      -1.827   0.850   2.315  0.00  0.00     0.008 A 
ATOM     19  C   UNL d   1      -1.016   0.151   1.413  0.00  0.00     0.017 A 
BRANCH  17  20
ATOM     20  C   UNL d   1      -2.327   2.892   3.724  0.00  0.00     0.034 C 
ATOM     21  C   UNL d   1      -1.986   2.621   5.181  0.00  0.00     0.010 C 
ENDBRANCH  17  20
ENDBRANCH   1  14
TORSDOF 4
