REMARK  3 active torsions:
REMARK  status: ('A' for Active; 'I' for Inactive)
REMARK    1  A    between atoms: C_3  and  C_14 
REMARK       I    between atoms: C_8  and  N_13 
REMARK       I    between atoms: N_16  and  C_8 
REMARK    2  A    between atoms: N_13  and  C_11 
REMARK    3  A    between atoms: C_19  and  N_16 
ROOT
ATOM      1  C   UNL d   1      -4.712  -0.581   0.146  0.00  0.00     0.325 C 
ATOM      2  N   UNL d   1      -3.478  -1.214   0.150  0.00  0.00    -0.309 N 
ATOM      3  N   UNL d   1      -4.579   0.797   0.084  0.00  0.00    -0.309 N 
ATOM      4  O   UNL d   1      -5.789  -1.161   0.167  0.00  0.00    -0.247 OA
ATOM      5  H   UNL d   1      -2.666  -0.616   0.171  0.00  0.00     0.170 HD
ATOM      6  H   UNL d   1      -3.723   1.196   0.437  0.00  0.00     0.170 HD
ENDROOT
BRANCH   2   7
ATOM      7  C   UNL d   1      -3.246  -2.607  -0.002  0.00  0.00     0.038 A 
ATOM      8  C   UNL d   1      -4.296  -3.534  -0.173  0.00  0.00     0.063 A 
ATOM      9  C   UNL d   1      -3.902  -4.865  -0.405  0.00  0.00     0.087 A 
ATOM     10  C   UNL d   1      -2.509  -5.268  -0.443  0.00  0.00     0.085 A 
ATOM     11  N   UNL d   1      -4.659  -5.946  -0.632  0.00  0.00    -0.239 N 
ATOM     12  N   UNL d   1      -2.455  -6.582  -0.695  0.00  0.00    -0.240 N 
ATOM     13  C   UNL d   1      -1.461  -4.354  -0.242  0.00  0.00     0.036 A 
ATOM     14  O   UNL d   1      -3.773  -6.994  -0.816  0.00  0.00    -0.156 OA
ATOM     15  HN  UNL d   1      -1.619  -7.159  -0.780  1.00  0.00     0.197 HD
ATOM     16  C   UNL d   1      -1.878  -3.021  -0.027  0.00  0.00     0.032 A 
ATOM     17  HN  UNL d   1      -5.678  -5.989  -0.662  1.00  0.00     0.197 HD
ENDBRANCH   2   7
BRANCH   3  18
ATOM     18  C   UNL d   1      -5.613   1.705  -0.248  0.00  0.00     0.037 A 
ATOM     19  C   UNL d   1      -6.816   1.307  -0.841  0.00  0.00     0.045 A 
ATOM     20  C   UNL d   1      -7.801   2.242  -1.197  0.00  0.00     0.050 A 
ATOM     21  C   UNL d   1      -7.566   3.600  -0.945  0.00  0.00     0.016 A 
ATOM     22  C   UNL d   1      -6.368   4.010  -0.361  0.00  0.00     0.003 A 
ATOM     23  C   UNL d   1      -5.392   3.067  -0.021  0.00  0.00     0.029 A 
BRANCH  20  24
ATOM     24  C   UNL d   1      -9.082   1.802  -1.862  0.00  0.00     0.417 C 
ATOM     25  F   UNL d   1      -9.189   0.454  -2.023  0.00  0.00    -0.166 F 
ATOM     26  F   UNL d   1     -10.190   2.184  -1.168  0.00  0.00    -0.166 F 
ATOM     27  F   UNL d   1      -9.223   2.335  -3.108  0.00  0.00    -0.166 F 
ENDBRANCH  20  24
ENDBRANCH   3  18
TORSDOF 3
