REMARK  7 active torsions:
REMARK  status: ('A' for Active; 'I' for Inactive)
REMARK    1  A    between atoms: C_4  and  C_1 
REMARK    2  A    between atoms: C_2  and  C_6 
REMARK    3  A    between atoms: C_3  and  C_7 
REMARK    4  A    between atoms: O_16  and  C_4 
REMARK    5  A    between atoms: C_8  and  C_9 
REMARK    6  A    between atoms: N_26  and  C_9 
REMARK    7  A    between atoms: N_10  and  O_16 
ROOT
ATOM      1  C   UNL d   1       0.943   4.930  -0.007  0.00  0.00     0.109 C 
ATOM      2  N   UNL d   1       0.354   3.805   0.266  0.00  0.00    -0.246 N 
ATOM      3  HN  UNL d   1      -0.630   3.723   0.520  1.00  0.00     0.196 HD
ENDROOT
BRANCH   1   4
ATOM      4  C   UNL d   1       0.089   6.160  -0.017  0.00  0.00     0.005 A 
ATOM      5  C   UNL d   1      -1.038   6.231   0.811  0.00  0.00     0.031 A 
ATOM      6  C   UNL d   1      -1.901   7.336   0.753  0.00  0.00     0.049 A 
ATOM      7  C   UNL d   1      -1.619   8.370  -0.156  0.00  0.00     0.032 A 
ATOM      8  C   UNL d   1      -0.500   8.307  -1.004  0.00  0.00     0.049 A 
ATOM      9  C   UNL d   1       0.362   7.200  -0.914  0.00  0.00     0.031 A 
BRANCH   6  10
ATOM     10  C   UNL d   1      -3.130   7.380   1.631  0.00  0.00     0.417 C 
ATOM     11  F   UNL d   1      -3.890   8.495   1.436  0.00  0.00    -0.166 F 
ATOM     12  F   UNL d   1      -3.960   6.323   1.422  0.00  0.00    -0.166 F 
ATOM     13  F   UNL d   1      -2.823   7.366   2.957  0.00  0.00    -0.166 F 
ENDBRANCH   6  10
BRANCH   8  14
ATOM     14  C   UNL d   1      -0.244   9.383  -2.034  0.00  0.00     0.417 C 
ATOM     15  F   UNL d   1      -1.200  10.353  -2.056  0.00  0.00    -0.166 F 
ATOM     16  F   UNL d   1       0.938  10.026  -1.831  0.00  0.00    -0.166 F 
ATOM     17  F   UNL d   1      -0.190   8.885  -3.300  0.00  0.00    -0.166 F 
ENDBRANCH   8  14
ENDBRANCH   1   4
BRANCH   1  18
ATOM     18  N   UNL d   1       2.282   5.051  -0.296  0.00  0.00    -0.286 NA
ATOM     19  H   UNL d   1       2.732   5.899   0.033  0.00  0.00     0.125 HD
ATOM     20  H   UNL d   1       2.811   4.220  -0.049  0.00  0.00     0.125 HD
ENDBRANCH   1  18
BRANCH   2  21
ATOM     21  O   UNL d   1       1.240   2.709   0.170  0.00  0.00    -0.193 OA
BRANCH  21  22
ATOM     22  C   UNL d   1       0.552   1.525   0.362  0.00  0.00     0.322 C 
ATOM     23  O   UNL d   1      -0.637   1.435   0.655  0.00  0.00    -0.257 OA
BRANCH  22  24
ATOM     24  C   UNL d   1       1.425   0.372   0.183  0.00  0.00     0.082 A 
ATOM     25  S   UNL d   1       3.061   0.504  -0.304  0.00  0.00    -0.095 SA
ATOM     26  C   UNL d   1       3.288  -1.189  -0.253  0.00  0.00     0.057 A 
ATOM     27  C   UNL d   1       2.150  -1.871   0.130  0.00  0.00    -0.054 A 
ATOM     28  C   UNL d   1       1.073  -0.956   0.364  0.00  0.00     0.032 A 
ATOM     29  C   UNL d   1       2.061  -3.354   0.275  0.00  0.00     0.048 C 
ENDBRANCH  22  24
ENDBRANCH  21  22
ENDBRANCH   2  21
TORSDOF 7
