REMARK  3 active torsions:
REMARK  status: ('A' for Active; 'I' for Inactive)
REMARK    1  A    between atoms: C_3  and  C_1 
REMARK    2  A    between atoms: N_2  and  C_5 
REMARK    3  A    between atoms: N_4  and  C_8 
ROOT
ATOM      1  N   UNL d   1      -0.431   5.316  -0.928  0.00  0.00    -0.367 N 
ATOM      2  C   UNL d   1      -1.348   8.011  -0.732  0.00  0.00     0.091 C 
ATOM      3  C   UNL d   1       0.044   7.666  -1.284  0.00  0.00     0.045 C 
ATOM      4  C   UNL d   1      -1.977   6.866   0.076  0.00  0.00     0.045 C 
ATOM      5  C   UNL d   1      -1.847   5.510  -0.616  0.00  0.00     0.126 C 
ATOM      6  C   UNL d   1       0.115   6.272  -1.897  0.00  0.00     0.126 C 
ENDROOT
BRANCH   1   7
ATOM      7  C   UNL d   1      -0.032   3.993  -1.144  0.00  0.00     0.102 A 
ATOM      8  C   UNL d   1       1.325   3.688  -1.031  0.00  0.00     0.049 A 
ATOM      9  C   UNL d   1       1.767   2.383  -1.208  0.00  0.00     0.021 A 
ATOM     10  C   UNL d   1       0.843   1.383  -1.497  0.00  0.00     0.063 A 
ATOM     11  C   UNL d   1      -0.490   1.755  -1.568  0.00  0.00     0.106 A 
ATOM     12  N   UNL d   1      -0.939   3.024  -1.393  0.00  0.00    -0.352 N 
ATOM     13  HN  UNL d   1      -1.934   3.240  -1.448  1.00  0.00     0.166 HD
BRANCH  10  14
ATOM     14  C   UNL d   1       1.282  -0.028  -1.720  0.00  0.00     0.418 C 
ATOM     15  F   UNL d   1       0.266  -0.880  -2.026  0.00  0.00    -0.166 F 
ATOM     16  F   UNL d   1       1.902  -0.559  -0.630  0.00  0.00    -0.166 F 
ATOM     17  F   UNL d   1       2.177  -0.133  -2.742  0.00  0.00    -0.166 F 
ENDBRANCH  10  14
ENDBRANCH   1   7
BRANCH   2  18
ATOM     18  N   UNL d   1      -2.256   8.560  -1.740  0.00  0.00    -0.362 N 
ATOM     19  C   UNL d   1      -2.708   7.952  -2.881  0.00  0.00     0.091 A 
ATOM     20  C   UNL d   1      -3.554   8.822  -3.528  0.00  0.00     0.019 A 
ATOM     21  C   UNL d   1      -3.626  10.001  -2.756  0.00  0.00     0.019 A 
ATOM     22  C   UNL d   1      -2.813   9.815  -1.656  0.00  0.00     0.091 A 
ENDBRANCH   2  18
TORSDOF 3
