REMARK  1 active torsions:
REMARK  status: ('A' for Active; 'I' for Inactive)
REMARK    1  A    between atoms: C_6  and  N_1 
ROOT
ATOM      1  N   UNL d   1       0.041  -1.657  -0.010  0.00  0.00    -0.341 N 
ATOM      2  C   UNL d   1       1.167  -0.846   0.005  0.00  0.00     0.046 A 
ATOM      3  C   UNL d   1      -1.111  -0.879   0.027  0.00  0.00     0.046 A 
ATOM      4  C   UNL d   1      -0.707   0.457   0.011  0.00  0.00     0.003 A 
ATOM      5  C   UNL d   1       0.718   0.479   0.002  0.00  0.00     0.003 A 
ATOM      6  C   UNL d   1      -2.475  -1.225   0.065  0.00  0.00     0.030 A 
ATOM      7  C   UNL d   1       2.544  -1.139   0.012  0.00  0.00     0.030 A 
ATOM      8  C   UNL d   1      -1.688   1.473   0.011  0.00  0.00     0.014 A 
ATOM      9  C   UNL d   1       1.664   1.530  -0.004  0.00  0.00     0.014 A 
ATOM     10  C   UNL d   1       3.460  -0.082   0.006  0.00  0.00     0.002 A 
ATOM     11  C   UNL d   1      -3.428  -0.201   0.070  0.00  0.00     0.002 A 
ATOM     12  C   UNL d   1       3.029   1.238  -0.004  0.00  0.00     0.001 A 
ATOM     13  C   UNL d   1      -3.042   1.134   0.038  0.00  0.00     0.001 A 
ENDROOT
BRANCH   1  14
ATOM     14  C   UNL d   1       0.032  -3.121  -0.085  0.00  0.00     0.082 C 
ATOM     15  C   UNL d   1       0.665  -3.657  -1.371  0.00  0.00     0.032 C 
ATOM     16  C   UNL d   1       0.604  -3.788   1.166  0.00  0.00     0.032 C 
ENDBRANCH   1  14
TORSDOF 1
