REMARK  3 active torsions:
REMARK  status: ('A' for Active; 'I' for Inactive)
REMARK    1  A    between atoms: C_5  and  C_1 
REMARK    2  A    between atoms: C_17  and  C_12 
REMARK    3  A    between atoms: C_18  and  C_15 
ROOT
ATOM      1  C   UNL d   1      -2.322   0.036   0.010  0.00  0.00     0.086 A 
ATOM      2  N   UNL d   1      -1.570  -1.114   0.051  0.00  0.00    -0.339 N 
ATOM      3  HN  UNL d   1      -1.908  -2.076   0.092  1.00  0.00     0.167 HD
ATOM      4  C   UNL d   1      -0.318  -0.705   0.025  0.00  0.00     0.112 A 
ATOM      5  N   UNL d   1      -0.237   0.682  -0.021  0.00  0.00    -0.317 N 
ATOM      6  C   UNL d   1      -1.524   1.156  -0.040  0.00  0.00     0.130 A 
ATOM      7  C   UNL d   1       0.908  -1.427   0.044  0.00  0.00     0.056 A 
ATOM      8  C   UNL d   1       0.965   1.381  -0.029  0.00  0.00     0.098 A 
ATOM      9  C   UNL d   1       2.091  -0.769   0.026  0.00  0.00    -0.054 A 
ATOM     10  C   UNL d   1       2.121   0.696   0.000  0.00  0.00     0.025 A 
ENDROOT
BRANCH   1  11
ATOM     11  C   UNL d   1      -3.801   0.050   0.027  0.00  0.00     0.129 A 
ATOM     12  C   UNL d   1      -4.617  -1.051   0.113  0.00  0.00     0.074 A 
ATOM     13  C   UNL d   1      -5.940  -0.537   0.111  0.00  0.00     0.068 A 
ATOM     14  N   UNL d   1      -5.913   0.804   0.025  0.00  0.00    -0.260 N 
ATOM     15  O   UNL d   1      -4.580   1.163  -0.030  0.00  0.00    -0.235 OA
ATOM     16  HN  UNL d   1      -6.716   1.432   0.006  1.00  0.00     0.195 HD
BRANCH  13  17
ATOM     17  C   UNL d   1      -7.197  -1.278   0.199  0.00  0.00    -0.007 A 
ATOM     18  C   UNL d   1      -8.346  -0.668   0.725  0.00  0.00     0.014 A 
ATOM     19  C   UNL d   1      -9.547  -1.374   0.827  0.00  0.00     0.001 A 
ATOM     20  C   UNL d   1      -9.615  -2.698   0.400  0.00  0.00     0.000 A 
ATOM     21  C   UNL d   1      -8.484  -3.316  -0.130  0.00  0.00     0.001 A 
ATOM     22  C   UNL d   1      -7.280  -2.612  -0.228  0.00  0.00     0.014 A 
ENDBRANCH  13  17
ENDBRANCH   1  11
BRANCH   9  23
ATOM     23  C   UNL d   1       3.412  -1.500   0.073  0.00  0.00     0.034 C 
ATOM     24  C   UNL d   1       4.260  -1.303  -1.177  0.00  0.00     0.010 C 
ENDBRANCH   9  23
TORSDOF 3
