REMARK  4 active torsions:
REMARK  status: ('A' for Active; 'I' for Inactive)
REMARK    1  A    between atoms: C_7  and  C_6 
REMARK       I    between atoms: N_10  and  C_7 
REMARK    2  A    between atoms: C_17  and  N_10 
REMARK    3  A    between atoms: O_16  and  C_18 
REMARK    4  A    between atoms: C_18  and  C_17 
ROOT
ATOM      1  C   UNL d   1      -0.673   0.830   0.011  0.00  0.00     0.005 A 
ATOM      2  C   UNL d   1      -1.161  -0.496  -0.049  0.00  0.00     0.027 A 
ATOM      3  C   UNL d   1      -0.014  -1.421  -0.056  0.00  0.00     0.194 A 
ATOM      4  C   UNL d   1       0.789   0.764  -0.004  0.00  0.00    -0.010 A 
ATOM      5  C   UNL d   1       1.194  -0.585  -0.032  0.00  0.00     0.026 A 
ATOM      6  C   UNL d   1      -1.616   1.858   0.064  0.00  0.00     0.044 A 
ATOM      7  O   UNL d   1      -0.062  -2.633  -0.084  0.00  0.00    -0.287 OA
ATOM      8  C   UNL d   1      -2.499  -0.848  -0.085  0.00  0.00     0.016 A 
ATOM      9  C   UNL d   1       1.781   1.731  -0.029  0.00  0.00     0.013 A 
ATOM     10  C   UNL d   1       2.511  -1.010  -0.059  0.00  0.00     0.016 A 
ATOM     11  C   UNL d   1      -2.991   1.519   0.022  0.00  0.00     0.018 A 
ATOM     12  C   UNL d   1      -3.425   0.183  -0.060  0.00  0.00     0.002 A 
ATOM     13  C   UNL d   1       3.130   1.332  -0.051  0.00  0.00     0.001 A 
ATOM     14  C   UNL d   1       3.492  -0.026  -0.063  0.00  0.00     0.001 A 
ENDROOT
BRANCH   6  15
ATOM     15  C   UNL d   1      -1.262   3.287   0.287  0.00  0.00     0.252 C 
ATOM     16  O   UNL d   1      -0.334   3.594   1.026  0.00  0.00    -0.268 OA
ATOM     17  N   UNL d   1      -2.058   4.224  -0.336  0.00  0.00    -0.355 N 
ATOM     18  H   UNL d   1      -2.693   3.947  -1.075  0.00  0.00     0.162 HD
BRANCH  17  19
ATOM     19  C   UNL d   1      -1.797   5.651  -0.211  0.00  0.00     0.148 C 
BRANCH  19  20
ATOM     20  C   UNL d   1      -0.889   6.154  -1.331  0.00  0.00     0.183 C 
BRANCH  20  21
ATOM     21  O   UNL d   1      -1.577   6.060  -2.579  0.00  0.00    -0.399 OA
ATOM     22  H   UNL d   1      -0.965   6.389  -3.260  0.00  0.00     0.209 HD
ENDBRANCH  20  21
ENDBRANCH  19  20
ENDBRANCH  17  19
ENDBRANCH   6  15
TORSDOF 4
