REMARK  2 active torsions:
REMARK  status: ('A' for Active; 'I' for Inactive)
REMARK    1  A    between atoms: N_7  and  C_1 
REMARK    2  A    between atoms: C_9  and  C_5 
ROOT
ATOM      1  C   UNL d   1      -1.250  -1.501  -0.055  0.00  0.00     0.025 A 
ATOM      2  N   UNL d   1      -1.191   1.317  -0.089  0.00  0.00    -0.354 N 
ATOM      3  HN  UNL d   1      -1.169   2.336  -0.114  1.00  0.00     0.166 HD
ATOM      4  C   UNL d   1      -2.424  -0.738  -0.092  0.00  0.00     0.056 A 
ATOM      5  C   UNL d   1      -2.373   0.653  -0.094  0.00  0.00     0.061 A 
ATOM      6  C   UNL d   1      -0.012  -0.800  -0.016  0.00  0.00     0.012 A 
ATOM      7  C   UNL d   1      -0.050   0.612  -0.050  0.00  0.00     0.044 A 
ATOM      8  C   UNL d   1       1.253  -1.433   0.084  0.00  0.00     0.015 A 
ATOM      9  C   UNL d   1       1.145   1.320  -0.030  0.00  0.00     0.030 A 
ATOM     10  C   UNL d   1       2.439  -0.701   0.095  0.00  0.00     0.001 A 
ATOM     11  C   UNL d   1       2.385   0.682   0.033  0.00  0.00     0.002 A 
ENDROOT
BRANCH   5  12
ATOM     12  C   UNL d   1      -3.609   1.476  -0.090  0.00  0.00     0.059 A 
ATOM     13  N   UNL d   1      -4.794   0.800  -0.074  0.00  0.00    -0.364 N 
ATOM     14  C   UNL d   1      -5.938   1.518  -0.058  0.00  0.00     0.088 A 
ATOM     15  HN  UNL d   1      -4.815  -0.220  -0.073  1.00  0.00     0.165 HD
ATOM     16  C   UNL d   1      -5.979   2.899  -0.062  0.00  0.00     0.017 A 
ATOM     17  C   UNL d   1      -4.774   3.588  -0.078  0.00  0.00     0.004 A 
ATOM     18  C   UNL d   1      -3.577   2.872  -0.091  0.00  0.00     0.032 A 
ENDBRANCH   5  12
BRANCH   1  19
ATOM     19  N   UNL d   1      -1.291  -2.918  -0.033  0.00  0.00    -0.283 NA
ATOM     20  C   UNL d   1      -2.507  -3.536   0.527  0.00  0.00     0.095 C 
ATOM     21  C   UNL d   1      -2.243  -5.012   0.812  0.00  0.00     0.015 C 
ATOM     22  C   UNL d   1      -1.747  -5.739  -0.437  0.00  0.00     0.002 C 
ATOM     23  C   UNL d   1      -0.559  -5.009  -1.062  0.00  0.00     0.015 C 
ATOM     24  C   UNL d   1      -0.879  -3.533  -1.311  0.00  0.00     0.095 C 
ENDBRANCH   1  19
TORSDOF 2
