REMARK  3 active torsions:
REMARK  status: ('A' for Active; 'I' for Inactive)
REMARK    1  A    between atoms: C_8  and  C_1 
REMARK    2  A    between atoms: N_9  and  C_3 
REMARK    3  A    between atoms: C_10  and  N_9 
ROOT
ATOM      1  C   UNL d   1      -0.899   1.022   0.018  0.00  0.00     0.104 A 
ATOM      2  S   UNL d   1      -1.516  -0.564  -0.260  0.00  0.00    -0.033 SA
ATOM      3  C   UNL d   1       0.038  -1.187   0.169  0.00  0.00     0.166 A 
ATOM      4  N   UNL d   1       0.354   1.027   0.424  0.00  0.00    -0.291 N 
ATOM      5  HN  UNL d   1       0.875   1.876   0.644  1.00  0.00     0.187 HD
ATOM      6  N   UNL d   1       0.883  -0.241   0.519  0.00  0.00    -0.279 N 
ATOM      7  HN  UNL d   1       1.836  -0.428   0.831  1.00  0.00     0.189 HD
ENDROOT
BRANCH   3   8
ATOM      8  N   UNL d   1       0.273  -2.522   0.142  0.00  0.00    -0.335 N 
ATOM      9  H   UNL d   1      -0.485  -3.129  -0.138  0.00  0.00     0.168 HD
BRANCH   8  10
ATOM     10  C   UNL d   1       1.542  -3.125   0.015  0.00  0.00     0.040 A 
ATOM     11  C   UNL d   1       1.793  -4.390   0.585  0.00  0.00    -0.034 A 
ATOM     12  C   UNL d   1       3.065  -4.979   0.436  0.00  0.00     0.032 A 
ATOM     13  C   UNL d   1       0.779  -5.140   1.407  0.00  0.00     0.050 C 
ATOM     14  C   UNL d   1       4.074  -4.325  -0.269  0.00  0.00     0.034 A 
ATOM     15  C   UNL d   1       3.840  -3.076  -0.825  0.00  0.00     0.026 A 
ATOM     16 CL   UNL d   1       5.615  -5.069  -0.445  0.00  0.00    -0.084 Cl
ATOM     17  C   UNL d   1       2.587  -2.480  -0.676  0.00  0.00     0.032 A 
ENDBRANCH   8  10
ENDBRANCH   3   8
BRANCH   1  18
ATOM     18  C   UNL d   1      -1.725   2.219  -0.199  0.00  0.00     0.021 A 
ATOM     19  C   UNL d   1      -1.726   3.302   0.699  0.00  0.00     0.047 A 
ATOM     20 CL   UNL d   1      -0.824   3.301   2.177  0.00  0.00    -0.083 Cl
ATOM     21  C   UNL d   1      -2.504   4.441   0.445  0.00  0.00     0.025 A 
ATOM     22  C   UNL d   1      -3.291   4.518  -0.701  0.00  0.00     0.002 A 
ATOM     23  C   UNL d   1      -3.301   3.460  -1.603  0.00  0.00     0.001 A 
ATOM     24  C   UNL d   1      -2.522   2.325  -1.358  0.00  0.00     0.016 A 
ENDBRANCH   1  18
TORSDOF 3
