REMARK  4 active torsions:
REMARK  status: ('A' for Active; 'I' for Inactive)
REMARK    1  A    between atoms: N_4  and  C_1 
REMARK    2  A    between atoms: N_6  and  C_1 
REMARK       I    between atoms: C_2  and  N_4 
REMARK    3  A    between atoms: C_5  and  C_2 
REMARK    4  A    between atoms: C_13  and  N_6 
ROOT
ATOM      1  C   UNL d   1       0.121  -1.852   0.261  0.00  0.00     0.119 C 
ATOM      2  C   UNL d   1       0.426  -0.567   0.585  0.00  0.00     0.163 C 
ATOM      3  C   UNL d   1      -0.399   0.257   1.402  0.00  0.00     0.114 C 
ATOM      4  C   UNL d   1       1.724  -0.052   0.297  0.00  0.00     0.114 C 
ATOM      5  N   UNL d   1       2.783   0.324   0.013  0.00  0.00    -0.190 NA
ATOM      6  N   UNL d   1      -0.983   0.924   2.156  0.00  0.00    -0.190 NA
ENDROOT
BRANCH   1   7
ATOM      7  N   UNL d   1      -1.149  -2.405   0.368  0.00  0.00    -0.311 N 
ATOM      8  C   UNL d   1      -2.371  -1.778   0.174  0.00  0.00     0.258 C 
ATOM      9  O   UNL d   1      -2.496  -0.594  -0.117  0.00  0.00    -0.267 OA
ATOM     10  H   UNL d   1      -1.147  -3.416   0.271  0.00  0.00     0.170 HD
BRANCH   8  11
ATOM     11  C   UNL d   1      -3.576  -2.663   0.140  0.00  0.00     0.054 A 
ATOM     12  C   UNL d   1      -3.726  -3.838   0.889  0.00  0.00     0.049 A 
ATOM     13 CL   UNL d   1      -2.620  -4.324   2.125  0.00  0.00    -0.083 Cl
ATOM     14  C   UNL d   1      -4.834  -4.669   0.674  0.00  0.00     0.025 A 
ATOM     15  C   UNL d   1      -5.812  -4.322  -0.259  0.00  0.00     0.002 A 
ATOM     16  C   UNL d   1      -5.708  -3.122  -0.955  0.00  0.00     0.001 A 
ATOM     17  C   UNL d   1      -4.601  -2.295  -0.753  0.00  0.00     0.019 A 
ENDBRANCH   8  11
ENDBRANCH   1   7
BRANCH   1  18
ATOM     18  N   UNL d   1       1.086  -2.767  -0.193  0.00  0.00    -0.243 NA
ATOM     19  H   UNL d   1       1.759  -2.343  -0.838  0.00  0.00     0.135 HD
BRANCH  18  20
ATOM     20  C   UNL d   1       1.835  -3.587   0.707  0.00  0.00     0.014 A 
ATOM     21  C   UNL d   1       1.552  -3.679   2.078  0.00  0.00     0.025 A 
ATOM     22  C   UNL d   1       2.291  -4.530   2.909  0.00  0.00     0.025 A 
ATOM     23  C   UNL d   1       3.298  -5.325   2.369  0.00  0.00     0.034 A 
ATOM     24  C   UNL d   1       3.579  -5.268   1.008  0.00  0.00     0.025 A 
ATOM     25 CL   UNL d   1       4.184  -6.391   3.386  0.00  0.00    -0.084 Cl
ATOM     26  C   UNL d   1       2.848  -4.406   0.181  0.00  0.00     0.025 A 
ENDBRANCH  18  20
ENDBRANCH   1  18
TORSDOF 4
