REMARK  4 active torsions:
REMARK  status: ('A' for Active; 'I' for Inactive)
REMARK    1  A    between atoms: C_10  and  N_5 
REMARK    2  A    between atoms: C_13  and  C_10 
REMARK    3  A    between atoms: C_12  and  C_13 
REMARK    4  A    between atoms: O_15  and  C_14 
ROOT
ATOM      1  N   UNL d   1       1.182   0.321   0.745  0.00  0.00    -0.274 N 
ATOM      2  C   UNL d   1       0.734  -0.944   0.453  0.00  0.00     0.329 A 
ATOM      3  C   UNL d   1      -1.028   1.269   0.682  0.00  0.00     0.128 A 
ATOM      4  C   UNL d   1       0.415   1.440   0.922  0.00  0.00     0.271 A 
ATOM      5  N   UNL d   1      -0.642  -1.059   0.255  0.00  0.00    -0.308 N 
ATOM      6  C   UNL d   1      -1.471   0.047   0.364  0.00  0.00     0.124 A 
ATOM      7  C   UNL d   1      -1.922   2.367   0.802  0.00  0.00     0.106 C 
ATOM      8  N   UNL d   1      -2.723   3.202   0.881  0.00  0.00    -0.191 NA
ATOM      9  O   UNL d   1       1.520  -1.884   0.388  0.00  0.00    -0.246 OA
ATOM     10  O   UNL d   1       0.901   2.511   1.265  0.00  0.00    -0.266 OA
ATOM     11  H   UNL d   1       2.173   0.417   0.912  0.00  0.00     0.173 HD
ENDROOT
BRANCH   5  12
ATOM     12  C   UNL d   1      -1.165  -2.414  -0.038  0.00  0.00     0.138 C 
BRANCH  12  13
ATOM     13  C   UNL d   1      -2.685  -2.503  -0.251  0.00  0.00     0.062 C 
BRANCH  13  14
ATOM     14  C   UNL d   1      -3.376  -3.813  -0.530  0.00  0.00    -0.023 A 
ATOM     15  C   UNL d   1      -4.770  -3.899  -0.745  0.00  0.00     0.074 A 
ATOM     16  C   UNL d   1      -5.349  -5.151  -1.010  0.00  0.00     0.037 A 
ATOM     17  C   UNL d   1      -4.588  -6.315  -1.060  0.00  0.00     0.003 A 
ATOM     18  C   UNL d   1      -3.221  -6.240  -0.845  0.00  0.00     0.001 A 
ATOM     19  C   UNL d   1      -2.622  -5.005  -0.581  0.00  0.00     0.010 A 
BRANCH  15  20
ATOM     20  O   UNL d   1      -5.732  -2.928  -0.754  0.00  0.00    -0.355 OA
ATOM     21  C   UNL d   1      -5.479  -1.573  -0.444  0.00  0.00     0.210 C 
ENDBRANCH  15  20
ENDBRANCH  13  14
ENDBRANCH  12  13
ENDBRANCH   5  12
TORSDOF 4
