REMARK  2 active torsions:
REMARK  status: ('A' for Active; 'I' for Inactive)
REMARK    1  A    between atoms: N_5  and  C_6 
REMARK    2  A    between atoms: O_16  and  C_9 
ROOT
ATOM      1  C   UNL d   1       0.889   1.112  -0.060  0.00  0.00     0.065 A 
ATOM      2  C   UNL d   1       1.138  -0.266  -0.048  0.00  0.00     0.065 A 
ATOM      3  C   UNL d   1      -0.504   1.581  -0.232  0.00  0.00     0.196 C 
ATOM      4  C   UNL d   1       0.016  -1.228  -0.126  0.00  0.00     0.197 C 
ATOM      5  C   UNL d   1       1.981   1.984   0.044  0.00  0.00     0.118 A 
ATOM      6  C   UNL d   1      -1.619   0.628  -0.043  0.00  0.00     0.029 A 
ATOM      7  C   UNL d   1      -1.366  -0.739  -0.031  0.00  0.00     0.029 A 
ATOM      8  C   UNL d   1       2.457  -0.743   0.050  0.00  0.00     0.081 A 
ATOM      9  C   UNL d   1       3.299   1.508   0.153  0.00  0.00     0.040 A 
ATOM     10  O   UNL d   1       0.254  -2.426  -0.231  0.00  0.00    -0.286 OA
ATOM     11  O   UNL d   1      -0.740   2.727  -0.582  0.00  0.00    -0.286 OA
ATOM     12  C   UNL d   1       3.531   0.138   0.152  0.00  0.00     0.040 A 
ATOM     13  C   UNL d   1      -2.932   1.095   0.085  0.00  0.00     0.016 A 
ATOM     14  C   UNL d   1      -2.421  -1.652   0.076  0.00  0.00     0.016 A 
ATOM     15  C   UNL d   1      -3.984   0.185   0.213  0.00  0.00     0.001 A 
ATOM     16  C   UNL d   1      -3.731  -1.186   0.198  0.00  0.00     0.001 A 
ENDROOT
BRANCH   5  17
ATOM     17  N   UNL d   1       1.811   3.422   0.114  0.00  0.00    -0.115 N 
ATOM     18  O   UNL d   1       1.250   3.865   1.126  0.00  0.00    -0.532 OA
ATOM     19  O   UNL d   1       2.352   4.092  -0.772  0.00  0.00    -0.532 OA
ENDBRANCH   5  17
BRANCH   8  20
ATOM     20  O   UNL d   1       2.775  -2.074   0.057  0.00  0.00    -0.360 OA
ATOM     21  H   UNL d   1       1.949  -2.596  -0.070  0.00  0.00     0.217 HD
ENDBRANCH   8  20
TORSDOF 2
