REMARK  5 active torsions:
REMARK  status: ('A' for Active; 'I' for Inactive)
REMARK    1  A    between atoms: C_4  and  C_3 
REMARK    2  A    between atoms: S_9  and  C_5 
REMARK    3  A    between atoms: C_15  and  S_9 
REMARK    4  A    between atoms: C_10  and  C_15 
REMARK    5  A    between atoms: O_16  and  C_10 
ROOT
ATOM      1  N   UNL d   1      -1.134   1.332   0.071  0.00  0.00    -0.352 N 
ATOM      2  HN  UNL d   1      -1.149   2.352   0.097  1.00  0.00     0.166 HD
ATOM      3  C   UNL d   1      -2.296   0.630   0.046  0.00  0.00     0.118 A 
ATOM      4  C   UNL d   1      -1.089  -1.456   0.043  0.00  0.00     0.015 A 
ATOM      5  C   UNL d   1      -2.303  -0.758   0.030  0.00  0.00     0.053 A 
ATOM      6  C   UNL d   1       0.033   0.674   0.060  0.00  0.00     0.044 A 
ATOM      7  C   UNL d   1       0.134  -0.734   0.040  0.00  0.00     0.007 A 
ATOM      8  C   UNL d   1       1.430  -1.307  -0.011  0.00  0.00     0.015 A 
ATOM      9  C   UNL d   1       1.189   1.444   0.051  0.00  0.00     0.030 A 
ATOM     10  C   UNL d   1       2.579  -0.514  -0.007  0.00  0.00     0.001 A 
ATOM     11  C   UNL d   1       2.458   0.867   0.023  0.00  0.00     0.002 A 
ENDROOT
BRANCH   4  12
ATOM     12  S   UNL d   1      -1.248  -3.248  -0.071  0.00  0.00    -0.118 SA
BRANCH  12  13
ATOM     13  C   UNL d   1      -0.484  -3.829   1.484  0.00  0.00     0.189 C 
BRANCH  13  14
ATOM     14  C   UNL d   1      -1.153  -3.299   2.729  0.00  0.00     0.149 C 
ATOM     15  O   UNL d   1      -0.561  -3.140   3.788  0.00  0.00    -0.649 OA
BRANCH  14  16
ATOM     16  O   UNL d   1      -2.487  -3.102   2.620  0.00  0.00    -0.776 OA
ATOM     17  H   UNL d   1      -2.808  -3.299   1.717  0.00  0.00     0.167 HD
ENDBRANCH  14  16
ENDBRANCH  13  14
ENDBRANCH  12  13
ENDBRANCH   4  12
BRANCH   3  18
ATOM     18  C   UNL d   1      -3.623   1.374   0.015  0.00  0.00     0.432 C 
ATOM     19  F   UNL d   1      -3.515   2.732   0.020  0.00  0.00    -0.165 F 
ATOM     20  F   UNL d   1      -4.361   1.064  -1.092  0.00  0.00    -0.165 F 
ATOM     21  F   UNL d   1      -4.419   1.058   1.079  0.00  0.00    -0.165 F 
ENDBRANCH   3  18
TORSDOF 5
