REMARK  4 active torsions:
REMARK  status: ('A' for Active; 'I' for Inactive)
REMARK    1  A    between atoms: C_7  and  C_1 
REMARK    2  A    between atoms: C_10  and  N_4 
REMARK    3  A    between atoms: O_14  and  C_7 
REMARK    4  A    between atoms: C_15  and  C_10 
ROOT
ATOM      1  C   UNL d   1      -0.761   1.274  -0.008  0.00  0.00     0.108 A 
ATOM      2  C   UNL d   1      -1.533  -0.003  -0.002  0.00  0.00     0.229 A 
ATOM      3  C   UNL d   1      -0.731  -1.250   0.099  0.00  0.00     0.182 A 
ATOM      4  N   UNL d   1       1.319  -0.001  -0.014  0.00  0.00    -0.358 N 
ATOM      5  C   UNL d   1       0.586   1.188  -0.029  0.00  0.00     0.112 A 
ATOM      6  C   UNL d   1       0.604  -1.188   0.083  0.00  0.00     0.137 A 
ATOM      7  O   UNL d   1      -2.753  -0.053  -0.109  0.00  0.00    -0.284 OA
ATOM      8  F   UNL d   1      -1.397  -2.417   0.174  0.00  0.00    -0.200 F 
ENDROOT
BRANCH   4   9
ATOM      9  C   UNL d   1       2.796   0.003  -0.051  0.00  0.00     0.166 C 
BRANCH   9  10
ATOM     10  C   UNL d   1       3.373   0.079   1.341  0.00  0.00    -0.037 A 
ATOM     11  C   UNL d   1       3.665  -1.084   2.063  0.00  0.00     0.026 A 
ATOM     12  C   UNL d   1       4.146  -0.961   3.357  0.00  0.00     0.088 A 
ATOM     13  N   UNL d   1       4.358   0.222   3.970  0.00  0.00    -0.375 N 
ATOM     14  C   UNL d   1       4.075   1.333   3.258  0.00  0.00     0.088 A 
ATOM     15  HN  UNL d   1       4.714   0.275   4.924  1.00  0.00     0.164 HD
ATOM     16  C   UNL d   1       3.591   1.314   1.960  0.00  0.00     0.026 A 
ENDBRANCH   9  10
ENDBRANCH   4   9
BRANCH   1  17
ATOM     17  C   UNL d   1      -1.365   2.620   0.004  0.00  0.00     0.298 C 
ATOM     18  O   UNL d   1      -0.763   3.636  -0.319  0.00  0.00    -0.259 OA
BRANCH  17  19
ATOM     19  O   UNL d   1      -2.635   2.580   0.468  0.00  0.00    -0.322 OA
ATOM     20  C   UNL d   1      -3.308   3.839   0.497  0.00  0.00     0.213 C 
ENDBRANCH  17  19
ENDBRANCH   1  17
TORSDOF 4
