REMARK  3 active torsions:
REMARK  status: ('A' for Active; 'I' for Inactive)
REMARK    1  A    between atoms: N_2  and  C_1 
REMARK       I    between atoms: C_3  and  N_2 
REMARK    2  A    between atoms: C_8  and  C_3 
REMARK    3  A    between atoms: C_9  and  C_8 
ROOT
ATOM      1  N   UNL d   1       1.275  -2.916  -1.378  0.00  0.00    -0.307 N 
ATOM      2  C   UNL d   1       1.299  -3.112  -0.001  0.00  0.00     0.227 C 
ATOM      3  O   UNL d   1       1.186  -2.236   0.853  0.00  0.00    -0.273 OA
ATOM      4  H   UNL d   1       1.368  -3.727  -1.971  0.00  0.00     0.171 HD
ENDROOT
BRANCH   2   5
ATOM      5  C   UNL d   1       1.471  -4.569   0.400  0.00  0.00     0.141 C 
BRANCH   5   6
ATOM      6  C   UNL d   1       2.916  -4.980   0.547  0.00  0.00    -0.050 A 
ATOM      7  C   UNL d   1       3.777  -4.278   1.405  0.00  0.00     0.007 A 
ATOM      8  C   UNL d   1       5.110  -4.667   1.550  0.00  0.00     0.001 A 
ATOM      9  C   UNL d   1       5.594  -5.770   0.850  0.00  0.00     0.000 A 
ATOM     10  C   UNL d   1       4.744  -6.488   0.012  0.00  0.00     0.001 A 
ATOM     11  C   UNL d   1       3.411  -6.098  -0.137  0.00  0.00     0.007 A 
ENDBRANCH   5   6
ENDBRANCH   2   5
BRANCH   1  12
ATOM     12  C   UNL d   1       1.202  -1.760  -2.107  0.00  0.00     0.142 C 
ATOM     13  N   UNL d   1       1.183  -1.834  -3.395  0.00  0.00    -0.370 N 
ATOM     14  C   UNL d   1       1.190  -0.461  -3.953  0.00  0.00     0.132 C 
ATOM     15  HN  UNL d   1       1.167  -2.696  -3.940  1.00  0.00     0.161 HD
ATOM     16  C   UNL d   1       0.628   0.524  -2.941  0.00  0.00     0.102 C 
ATOM     17  S   UNL d   1       1.122  -0.198  -1.372  0.00  0.00    -0.092 SA
ENDBRANCH   1  12
TORSDOF 3
