REMARK  8 active torsions:
REMARK  status: ('A' for Active; 'I' for Inactive)
REMARK    1  A    between atoms: N_6  and  C_1 
REMARK    2  A    between atoms: N_9  and  C_1 
REMARK    3  A    between atoms: N_2  and  N_6 
REMARK    4  A    between atoms: C_18  and  N_9 
REMARK    5  A    between atoms: C_12  and  C_11 
REMARK    6  A    between atoms: C_16  and  C_18 
REMARK    7  A    between atoms: C_19  and  C_16 
REMARK    8  A    between atoms: O_17  and  C_19 
ROOT
ATOM      1  N   UNL d   1       1.070   0.337  -2.158  0.00  0.00    -0.309 N 
ATOM      2  HN  UNL d   1       2.087   0.295  -2.087  1.00  0.00     0.186 HD
ATOM      3  C   UNL d   1       0.467   0.461  -3.295  0.00  0.00     0.118 C 
ENDROOT
BRANCH   1   4
ATOM      4  N   UNL d   1       0.264   0.265  -1.059  0.00  0.00    -0.277 N 
ATOM      5  H   UNL d   1      -0.747   0.333  -1.139  0.00  0.00     0.189 HD
BRANCH   4   6
ATOM      6  C   UNL d   1       0.806   0.007   0.185  0.00  0.00     0.186 C 
ATOM      7  S   UNL d   1      -0.182  -0.143   1.515  0.00  0.00    -0.040 SA
BRANCH   6   8
ATOM      8  N   UNL d   1       2.171  -0.123   0.143  0.00  0.00    -0.366 N 
ATOM      9  H   UNL d   1       2.513   0.016  -0.804  0.00  0.00     0.161 HD
BRANCH   8  10
ATOM     10  C   UNL d   1       3.033  -0.792   1.100  0.00  0.00     0.124 C 
BRANCH  10  11
ATOM     11  C   UNL d   1       2.856  -2.309   1.089  0.00  0.00     0.046 C 
BRANCH  11  12
ATOM     12  C   UNL d   1       3.110  -2.928  -0.281  0.00  0.00     0.168 C 
BRANCH  12  13
ATOM     13  O   UNL d   1       2.917  -4.340  -0.179  0.00  0.00    -0.396 OA
ATOM     14  C   UNL d   1       3.085  -4.984  -1.434  0.00  0.00     0.201 C 
ENDBRANCH  12  13
ENDBRANCH  11  12
ENDBRANCH  10  11
ENDBRANCH   8  10
ENDBRANCH   6   8
ENDBRANCH   4   6
ENDBRANCH   1   4
BRANCH   3  15
ATOM     15  C   UNL d   1       1.244   0.590  -4.542  0.00  0.00    -0.018 A 
ATOM     16  C   UNL d   1       2.644   0.560  -4.505  0.00  0.00     0.038 A 
ATOM     17  C   UNL d   1       3.380   0.726  -5.679  0.00  0.00     0.056 A 
ATOM     18 CL   UNL d   1       5.103   0.688  -5.560  0.00  0.00    -0.083 Cl
ATOM     19  C   UNL d   1       2.716   0.920  -6.896  0.00  0.00     0.055 A 
ATOM     20  C   UNL d   1       1.314   0.935  -6.930  0.00  0.00     0.026 A 
ATOM     21 CL   UNL d   1       3.558   1.156  -8.384  0.00  0.00    -0.083 Cl
ATOM     22  C   UNL d   1       0.577   0.768  -5.754  0.00  0.00     0.014 A 
ENDBRANCH   3  15
TORSDOF 8
