REMARK  2 active torsions:
REMARK  status: ('A' for Active; 'I' for Inactive)
REMARK    1  A    between atoms: N_10  and  C_2 
REMARK    2  A    between atoms: C_19  and  N_13 
ROOT
ATOM      1  N   UNL d   1       0.052   0.684  -1.225  0.00  0.00    -0.068 N 
ATOM      2  C   UNL d   1       0.110   1.485  -0.043  0.00  0.00     0.152 A 
ATOM      3  C   UNL d   1      -0.041  -0.723  -1.163  0.00  0.00     0.706 A 
ATOM      4  C   UNL d   1       0.062   0.820   1.128  0.00  0.00     0.011 A 
ATOM      5  N   UNL d   1      -0.053  -1.403   0.023  0.00  0.00    -0.193 N 
ATOM      6  HN  UNL d   1      -0.103  -2.421   0.070  1.00  0.00     0.184 HD
ATOM      7  N   UNL d   1      -0.095  -1.211  -2.382  0.00  0.00    -0.184 N 
ATOM      8  HN  UNL d   1      -0.163  -2.188  -2.668  1.00  0.00     0.185 HD
ATOM      9  C   UNL d   1       0.002  -0.663   1.080  0.00  0.00     0.036 A 
ATOM     10  N   UNL d   1       0.050   1.060  -2.539  0.00  0.00    -0.273 N 
ATOM     11  HN  UNL d   1       0.103   1.998  -2.936  1.00  0.00     0.189 HD
ATOM     12  C   UNL d   1      -0.038  -0.108  -3.169  0.00  0.00     0.215 A 
ATOM     13  C   UNL d   1       0.153   1.251   2.547  0.00  0.00     0.045 A 
ATOM     14  C   UNL d   1       0.045  -1.247   2.455  0.00  0.00     0.058 A 
ATOM     15  C   UNL d   1       0.093  -0.034   3.382  0.00  0.00     0.011 A 
ENDROOT
BRANCH   2  16
ATOM     16  N   UNL d   1       0.244   2.890  -0.117  0.00  0.00    -0.362 N 
ATOM     17  C   UNL d   1       0.943   3.561  -1.251  0.00  0.00     0.144 C 
ATOM     18  C   UNL d   1       1.589   4.895  -0.793  0.00  0.00     0.143 C 
ATOM     19  N   UNL d   1       0.613   5.771  -0.108  0.00  0.00    -0.378 N 
ATOM     20  C   UNL d   1      -0.162   5.099   0.951  0.00  0.00     0.143 C 
ATOM     21  C   UNL d   1      -0.797   3.786   0.451  0.00  0.00     0.144 C 
BRANCH  19  22
ATOM     22  C   UNL d   1       0.138   6.896  -0.762  0.00  0.00     0.030 A 
ATOM     23  C   UNL d   1       1.037   7.814  -1.332  0.00  0.00     0.029 A 
ATOM     24  C   UNL d   1       0.602   8.998  -1.938  0.00  0.00     0.002 A 
ATOM     25  C   UNL d   1      -0.755   9.290  -1.996  0.00  0.00     0.000 A 
ATOM     26  C   UNL d   1      -1.670   8.395  -1.454  0.00  0.00     0.002 A 
ATOM     27  C   UNL d   1      -1.225   7.215  -0.844  0.00  0.00     0.029 A 
ENDBRANCH  19  22
ENDBRANCH   2  16
TORSDOF 2
