REMARK  3 active torsions:
REMARK  status: ('A' for Active; 'I' for Inactive)
REMARK    1  A    between atoms: C_4  and  C_1 
REMARK       I    between atoms: N_7  and  C_4 
REMARK    2  A    between atoms: N_10  and  N_7 
REMARK    3  A    between atoms: C_14  and  N_10 
ROOT
ATOM      1  C   UNL d   1      -2.497  -0.931   0.873  0.00  0.00     0.284 C 
ATOM      2  N   UNL d   1      -3.829  -0.721   0.541  0.00  0.00    -0.281 N 
ATOM      3  O   UNL d   1      -1.614  -0.108   0.638  0.00  0.00    -0.265 OA
ATOM      4  H   UNL d   1      -4.444  -1.530   0.491  0.00  0.00     0.184 HD
ENDROOT
BRANCH   2   5
ATOM      5  N   UNL d   1      -4.115   0.342  -0.334  0.00  0.00    -0.203 NA
ATOM      6  H   UNL d   1      -3.316   0.980  -0.437  0.00  0.00     0.153 HD
BRANCH   5   7
ATOM      7  C   UNL d   1      -5.311   1.055  -0.075  0.00  0.00     0.028 A 
ATOM      8  C   UNL d   1      -6.320   0.604   0.785  0.00  0.00     0.032 A 
ATOM      9  C   UNL d   1      -7.546   1.287   0.914  0.00  0.00    -0.054 A 
ATOM     10  C   UNL d   1      -8.581   0.761   1.871  0.00  0.00     0.049 C 
ATOM     11  C   UNL d   1      -7.787   2.432   0.132  0.00  0.00    -0.056 A 
ATOM     12  C   UNL d   1      -6.782   2.886  -0.731  0.00  0.00     0.009 A 
ATOM     13  C   UNL d   1      -9.100   3.162   0.190  0.00  0.00     0.049 C 
ATOM     14  C   UNL d   1      -5.566   2.204  -0.834  0.00  0.00     0.026 A 
ENDBRANCH   5   7
ENDBRANCH   2   5
BRANCH   1  15
ATOM     15  C   UNL d   1      -2.226  -2.223   1.504  0.00  0.00     0.126 A 
ATOM     16  N   UNL d   1      -3.197  -3.108   1.788  0.00  0.00    -0.256 N 
ATOM     17  O   UNL d   1      -2.568  -4.180   2.400  0.00  0.00    -0.242 OA
ATOM     18  HN  UNL d   1      -4.194  -3.011   1.592  1.00  0.00     0.195 HD
ATOM     19  C   UNL d   1      -1.231  -3.943   2.468  0.00  0.00     0.075 A 
ATOM     20  C   UNL d   1      -0.959  -2.724   1.901  0.00  0.00     0.071 A 
ATOM     21  C   UNL d   1      -0.407  -4.982   3.111  0.00  0.00     0.079 C 
ENDBRANCH   1  15
TORSDOF 3
