REMARK  6 active torsions:
REMARK  status: ('A' for Active; 'I' for Inactive)
REMARK    1  A    between atoms: C_5  and  N_1 
REMARK    2  A    between atoms: C_3  and  C_2 
REMARK       I    between atoms: N_7  and  C_3 
REMARK       I    between atoms: C_4  and  N_8 
REMARK    3  A    between atoms: C_6  and  C_4 
REMARK    4  A    between atoms: C_15  and  N_7 
REMARK    5  A    between atoms: N_8  and  C_14 
REMARK    6  A    between atoms: O_17  and  C_11 
ROOT
ATOM      1  C   UNL d   1      -0.154  -7.111  -2.250  0.00  0.00     0.035 A 
ATOM      2  C   UNL d   1       1.463  -5.248  -0.858  0.00  0.00     0.035 A 
ATOM      3  C   UNL d   1       1.354  -6.562  -0.407  0.00  0.00     0.032 A 
ATOM      4  C   UNL d   1       0.780  -4.880  -2.019  0.00  0.00     0.032 A 
ATOM      5  C   UNL d   1       0.543  -7.484  -1.093  0.00  0.00     0.032 A 
ATOM      6  C   UNL d   1      -0.015  -5.803  -2.711  0.00  0.00     0.032 A 
ENDROOT
BRANCH   2   7
ATOM      7  N   UNL d   1       2.168  -4.223  -0.187  0.00  0.00    -0.323 N 
ATOM      8  C   UNL d   1       2.999  -4.346   0.907  0.00  0.00     0.258 C 
ATOM      9  O   UNL d   1       3.382  -5.404   1.397  0.00  0.00    -0.267 OA
ATOM     10  H   UNL d   1       1.991  -3.296  -0.567  0.00  0.00     0.169 HD
BRANCH   8  11
ATOM     11  C   UNL d   1       3.403  -3.083   1.601  0.00  0.00     0.065 A 
ATOM     12  C   UNL d   1       3.727  -1.856   1.011  0.00  0.00     0.118 A 
ATOM     13  C   UNL d   1       4.036  -0.718   1.777  0.00  0.00     0.037 A 
ATOM     14  C   UNL d   1       4.051  -0.809   3.166  0.00  0.00     0.002 A 
ATOM     15  C   UNL d   1       3.783  -2.031   3.779  0.00  0.00     0.001 A 
ATOM     16  C   UNL d   1       3.465  -3.154   3.005  0.00  0.00     0.020 A 
BRANCH  12  17
ATOM     17  N   UNL d   1       3.808  -1.702  -0.421  0.00  0.00    -0.115 N 
ATOM     18  O   UNL d   1       2.740  -1.744  -1.046  0.00  0.00    -0.532 OA
ATOM     19  O   UNL d   1       4.926  -1.494  -0.905  0.00  0.00    -0.532 OA
ENDBRANCH  12  17
ENDBRANCH   8  11
ENDBRANCH   2   7
BRANCH   1  20
ATOM     20  N   UNL d   1      -0.994  -8.073  -2.861  0.00  0.00    -0.323 N 
ATOM     21  C   UNL d   1      -1.672  -7.925  -4.061  0.00  0.00     0.259 C 
ATOM     22  O   UNL d   1      -1.519  -7.006  -4.864  0.00  0.00    -0.267 OA
ATOM     23  H   UNL d   1      -1.050  -8.968  -2.397  0.00  0.00     0.169 HD
BRANCH  21  24
ATOM     24  C   UNL d   1      -2.640  -8.993  -4.442  0.00  0.00     0.065 A 
ATOM     25  C   UNL d   1      -2.987  -9.159  -5.796  0.00  0.00     0.081 A 
ATOM     26  C   UNL d   1      -3.918 -10.119  -6.186  0.00  0.00     0.037 A 
ATOM     27  C   UNL d   1      -4.535 -10.917  -5.226  0.00  0.00     0.003 A 
ATOM     28  C   UNL d   1      -4.218 -10.754  -3.878  0.00  0.00     0.001 A 
ATOM     29  C   UNL d   1      -3.277  -9.795  -3.483  0.00  0.00     0.020 A 
BRANCH  25  30
ATOM     30  O   UNL d   1      -2.457  -8.397  -6.806  0.00  0.00    -0.360 OA
ATOM     31  H   UNL d   1      -1.969  -7.650  -6.390  0.00  0.00     0.217 HD
ENDBRANCH  25  30
ENDBRANCH  21  24
ENDBRANCH   1  20
TORSDOF 6
