REMARK  4 active torsions:
REMARK  status: ('A' for Active; 'I' for Inactive)
REMARK       I    between atoms: C_5  and  N_1 
REMARK    1  A    between atoms: C_11  and  C_5 
REMARK    2  A    between atoms: N_7  and  C_10 
REMARK    3  A    between atoms: C_14  and  N_8 
REMARK    4  A    between atoms: O_25  and  C_22 
ROOT
ATOM      1  N   UNL d   1       1.010   0.504   0.147  0.00  0.00    -0.280 N 
ATOM      2  C   UNL d   1       0.616  -0.850   0.268  0.00  0.00     0.155 C 
ATOM      3  S   UNL d   1      -1.139  -0.887   0.422  0.00  0.00    -0.057 SA
ATOM      4  C   UNL d   1       0.057   1.205  -0.789  0.00  0.00     0.068 C 
ATOM      5  C   UNL d   1       2.307   0.867   0.526  0.00  0.00     0.260 C 
ATOM      6  C   UNL d   1      -1.312   0.643  -0.367  0.00  0.00     0.005 C 
ATOM      7  N   UNL d   1       1.401  -1.872   0.185  0.00  0.00    -0.336 N 
ATOM      8  HN  UNL d   1       2.407  -1.711   0.151  1.00  0.00     0.168 HD
ATOM      9  O   UNL d   1       3.193   0.078   0.855  0.00  0.00    -0.267 OA
ATOM     10  C   UNL d   1      -2.521   1.214  -0.424  0.00  0.00     0.029 C 
ATOM     11  C   UNL d   1      -0.019   2.739  -0.849  0.00  0.00     0.044 C 
ATOM     12  C   UNL d   1       0.405   0.764  -2.237  0.00  0.00     0.044 C 
ENDROOT
BRANCH   5  13
ATOM     13  C   UNL d   1       2.707   2.292   0.673  0.00  0.00     0.032 C 
ATOM     14  C   UNL d   1       1.882   3.235   1.296  0.00  0.00     0.019 C 
ATOM     15  C   UNL d   1       2.251   4.585   1.337  0.00  0.00     0.037 C 
ATOM     16  C   UNL d   1       3.520   4.968   0.885  0.00  0.00     0.102 C 
ATOM     17  C   UNL d   1       4.421   4.007   0.412  0.00  0.00     0.037 C 
ATOM     18  C   UNL d   1       4.007   2.674   0.299  0.00  0.00     0.019 C 
BRANCH  16  19
ATOM     19  N   UNL d   1       3.904   6.384   0.913  0.00  0.00    -0.116 N 
ATOM     20  O   UNL d   1       3.009   7.216   1.123  0.00  0.00    -0.532 OA
ATOM     21  O   UNL d   1       5.093   6.663   0.710  0.00  0.00    -0.532 OA
ENDBRANCH  16  19
ENDBRANCH   5  13
BRANCH   7  22
ATOM     22  C   UNL d   1       0.928  -3.204   0.139  0.00  0.00     0.036 A 
ATOM     23  C   UNL d   1      -0.064  -3.620  -0.764  0.00  0.00     0.066 A 
ATOM     24  C   UNL d   1      -0.573  -4.920  -0.745  0.00  0.00     0.070 A 
ATOM     25  C   UNL d   1       0.012  -5.866   0.093  0.00  0.00     0.037 A 
ATOM     26  C   UNL d   1       1.075  -5.502   0.922  0.00  0.00     0.005 A 
ATOM     27  C   UNL d   1       1.518  -4.173   0.951  0.00  0.00     0.029 A 
BRANCH  24  28
ATOM     28  O   UNL d   1      -1.626  -5.368  -1.500  0.00  0.00    -0.356 OA
ATOM     29  C   UNL d   1      -2.433  -4.364  -2.108  0.00  0.00     0.210 C 
ENDBRANCH  24  28
ENDBRANCH   7  22
TORSDOF 4
