REMARK  8 active torsions:
REMARK  status: ('A' for Active; 'I' for Inactive)
REMARK       I    between atoms: N_4  and  C_1 
REMARK    1  A    between atoms: C_5  and  C_1 
REMARK    2  A    between atoms: C_2  and  C_5 
REMARK    3  A    between atoms: C_6  and  C_2 
REMARK    4  A    between atoms: C_11  and  C_2 
REMARK    5  A    between atoms: C_3  and  C_6 
REMARK    6  A    between atoms: O_15  and  C_3 
REMARK    7  A    between atoms: C_14  and  N_4 
REMARK    8  A    between atoms: N_8  and  C_7 
ROOT
ATOM      1  C   UNL d   1       1.166  -0.132  -0.094  0.00  0.00     0.222 C 
ATOM      2  N   UNL d   1       2.533   0.011  -0.294  0.00  0.00    -0.327 N 
ATOM      3  O   UNL d   1       0.612  -0.940   0.643  0.00  0.00    -0.273 OA
ATOM      4  H   UNL d   1       2.829   0.654  -1.020  0.00  0.00     0.169 HD
ENDROOT
BRANCH   1   5
ATOM      5  C   UNL d   1       0.375   0.844  -0.943  0.00  0.00     0.113 C 
BRANCH   5   6
ATOM      6  C   UNL d   1      -1.151   0.831  -0.696  0.00  0.00     0.037 C 
BRANCH   6   7
ATOM      7  C   UNL d   1      -1.599   1.167   0.741  0.00  0.00     0.119 C 
BRANCH   7   8
ATOM      8  C   UNL d   1      -1.294   2.585   1.155  0.00  0.00     0.140 C 
ATOM      9  O   UNL d   1      -0.166   3.062   1.178  0.00  0.00    -0.650 OA
BRANCH   8  10
ATOM     10  O   UNL d   1      -2.381   3.302   1.514  0.00  0.00    -0.776 OA
ATOM     11  H   UNL d   1      -3.225   2.829   1.411  0.00  0.00     0.167 HD
ENDBRANCH   8  10
ENDBRANCH   7   8
ENDBRANCH   6   7
BRANCH   6  12
ATOM     12  C   UNL d   1      -1.902   1.722  -1.687  0.00  0.00    -0.053 A 
ATOM     13  C   UNL d   1      -3.199   1.374  -2.098  0.00  0.00     0.007 A 
ATOM     14  C   UNL d   1      -3.913   2.200  -2.970  0.00  0.00     0.001 A 
ATOM     15  C   UNL d   1      -3.342   3.378  -3.446  0.00  0.00     0.000 A 
ATOM     16  C   UNL d   1      -2.062   3.739  -3.043  0.00  0.00     0.001 A 
ATOM     17  C   UNL d   1      -1.353   2.924  -2.163  0.00  0.00     0.007 A 
ENDBRANCH   6  12
ENDBRANCH   5   6
ENDBRANCH   1   5
BRANCH   2  18
ATOM     18  C   UNL d   1       3.565  -0.638   0.414  0.00  0.00     0.034 A 
ATOM     19  C   UNL d   1       3.335  -1.471   1.508  0.00  0.00     0.032 A 
ATOM     20  C   UNL d   1       4.399  -2.065   2.194  0.00  0.00     0.031 A 
ATOM     21  C   UNL d   1       5.728  -1.854   1.816  0.00  0.00     0.029 A 
ATOM     22  C   UNL d   1       5.946  -1.011   0.715  0.00  0.00     0.031 A 
ATOM     23  C   UNL d   1       4.886  -0.408   0.023  0.00  0.00     0.032 A 
BRANCH  21  24
ATOM     24  N   UNL d   1       6.818  -2.397   2.510  0.00  0.00    -0.390 N 
ATOM     25  C   UNL d   1       6.595  -2.844   3.885  0.00  0.00     0.149 C 
ATOM     26  C   UNL d   1       7.647  -3.308   1.715  0.00  0.00     0.149 C 
ENDBRANCH  21  24
ENDBRANCH   2  18
TORSDOF 8
