REMARK  7 active torsions:
REMARK  status: ('A' for Active; 'I' for Inactive)
REMARK    1  A    between atoms: C_11  and  N_1 
REMARK    2  A    between atoms: N_18  and  C_2 
REMARK    3  A    between atoms: C_8  and  C_4 
REMARK    4  A    between atoms: N_7  and  C_10 
REMARK    5  A    between atoms: C_23  and  C_11 
REMARK    6  A    between atoms: O_24  and  C_14 
REMARK    7  A    between atoms: O_25  and  C_20 
ROOT
ATOM      1  N   UNL d   1       2.349  -0.561  -0.123  0.00  0.00    -0.295 N 
ATOM      2  C   UNL d   1       2.289   0.831  -0.249  0.00  0.00     0.116 C 
ATOM      3  C   UNL d   1       1.228  -1.362   0.089  0.00  0.00     0.260 C 
ATOM      4  C   UNL d   1       1.097   1.478  -0.089  0.00  0.00     0.029 C 
ATOM      5  C   UNL d   1      -0.097  -0.702   0.062  0.00  0.00     0.046 A 
ATOM      6  C   UNL d   1      -0.156   0.687  -0.002  0.00  0.00    -0.005 A 
ATOM      7  C   UNL d   1      -1.258  -1.490   0.079  0.00  0.00     0.054 A 
ATOM      8  C   UNL d   1      -2.504  -0.865   0.020  0.00  0.00     0.103 A 
ATOM      9  C   UNL d   1      -1.421   1.296  -0.040  0.00  0.00     0.016 A 
ATOM     10  O   UNL d   1       1.262  -2.571   0.280  0.00  0.00    -0.267 OA
ATOM     11  C   UNL d   1      -2.592   0.529  -0.037  0.00  0.00     0.037 A 
ENDROOT
BRANCH   4  12
ATOM     12  C   UNL d   1       1.109   2.965  -0.050  0.00  0.00    -0.018 A 
ATOM     13  C   UNL d   1       0.984   3.716  -1.224  0.00  0.00     0.052 A 
ATOM     14  C   UNL d   1       1.127   5.109  -1.193  0.00  0.00     0.102 A 
ATOM     15  C   UNL d   1       1.359   5.760   0.038  0.00  0.00     0.101 A 
ATOM     16  C   UNL d   1       1.433   5.008   1.214  0.00  0.00     0.040 A 
ATOM     17  C   UNL d   1       1.315   3.618   1.170  0.00  0.00     0.015 A 
BRANCH  14  18
ATOM     18  O   UNL d   1       1.081   5.912  -2.307  0.00  0.00    -0.353 OA
ATOM     19  C   UNL d   1       0.924   5.277  -3.569  0.00  0.00     0.210 C 
ENDBRANCH  14  18
BRANCH  15  20
ATOM     20  O   UNL d   1       1.515   7.124  -0.015  0.00  0.00    -0.353 OA
ATOM     21  C   UNL d   1       1.801   7.802   1.201  0.00  0.00     0.210 C 
ENDBRANCH  15  20
ENDBRANCH   4  12
BRANCH   2  22
ATOM     22  N   UNL d   1       3.435   1.541  -0.524  0.00  0.00    -0.385 N 
ATOM     23  H   UNL d   1       4.279   1.052  -0.777  0.00  0.00     0.157 HD
ATOM     24  H   UNL d   1       3.524   2.486  -0.169  0.00  0.00     0.157 HD
ENDBRANCH   2  22
BRANCH   1  25
ATOM     25  C   UNL d   1       3.647  -1.263  -0.091  0.00  0.00     0.172 C 
BRANCH  25  26
ATOM     26  C   UNL d   1       4.173  -1.600  -1.470  0.00  0.00    -0.040 A 
ATOM     27  C   UNL d   1       5.446  -1.174  -1.876  0.00  0.00     0.009 A 
ATOM     28  C   UNL d   1       5.879  -1.391  -3.186  0.00  0.00     0.001 A 
ATOM     29  C   UNL d   1       5.056  -2.057  -4.093  0.00  0.00     0.000 A 
ATOM     30  C   UNL d   1       3.824  -2.554  -3.678  0.00  0.00     0.001 A 
ATOM     31  C   UNL d   1       3.392  -2.339  -2.370  0.00  0.00     0.009 A 
ENDBRANCH  25  26
ENDBRANCH   1  25
BRANCH   8  32
ATOM     32  N   UNL d   1      -3.728  -1.676   0.001  0.00  0.00    -0.116 N 
ATOM     33  O   UNL d   1      -3.606  -2.908   0.044  0.00  0.00    -0.532 OA
ATOM     34  O   UNL d   1      -4.811  -1.078  -0.062  0.00  0.00    -0.532 OA
ENDBRANCH   8  32
TORSDOF 7
