REMARK  4 active torsions:
REMARK  status: ('A' for Active; 'I' for Inactive)
REMARK    1  A    between atoms: C_12  and  C_1 
REMARK    2  A    between atoms: O_15  and  C_3 
REMARK    3  A    between atoms: C_4  and  N_11 
REMARK    4  A    between atoms: N_11  and  N_6 
ROOT
ATOM      1  C   UNL d   1      -0.059   2.037   0.010  0.00  0.00     0.017 A 
ATOM      2  C   UNL d   1      -0.966  -0.202   0.006  0.00  0.00     0.069 A 
ATOM      3  C   UNL d   1      -1.165   1.185   0.006  0.00  0.00     0.099 A 
ATOM      4  C   UNL d   1       0.322  -0.738   0.010  0.00  0.00     0.050 A 
ATOM      5  C   UNL d   1       1.236   1.500   0.013  0.00  0.00     0.039 A 
ATOM      6  C   UNL d   1       1.418   0.120   0.013  0.00  0.00     0.036 A 
ATOM      7 CL   UNL d   1      -2.317  -1.275   0.001  0.00  0.00    -0.081 Cl
ATOM      8 CL   UNL d   1       3.012  -0.526   0.016  0.00  0.00    -0.084 Cl
ENDROOT
BRANCH   1   9
ATOM      9  C   UNL d   1      -0.224   3.507   0.012  0.00  0.00     0.121 C 
ATOM     10  N   UNL d   1       0.824   4.271   0.016  0.00  0.00    -0.309 N 
ATOM     11  HN  UNL d   1       1.769   3.888   0.018  1.00  0.00     0.186 HD
BRANCH  10  12
ATOM     12  N   UNL d   1       0.593   5.613   0.019  0.00  0.00    -0.277 N 
ATOM     13  H   UNL d   1      -0.354   5.980   0.018  0.00  0.00     0.189 HD
BRANCH  12  14
ATOM     14  C   UNL d   1       1.642   6.494   0.023  0.00  0.00     0.184 C 
ATOM     15  S   UNL d   1       1.433   8.138   0.027  0.00  0.00    -0.040 SA
ATOM     16  N   UNL d   1       2.874   5.926   0.024  0.00  0.00    -0.375 N 
ATOM     17  H   UNL d   1       2.910   4.915   0.019  0.00  0.00     0.158 HD
ATOM     18  H   UNL d   1       3.717   6.478   0.025  0.00  0.00     0.158 HD
ENDBRANCH  12  14
ENDBRANCH  10  12
ENDBRANCH   1   9
BRANCH   3  19
ATOM     19  O   UNL d   1      -2.429   1.710   0.002  0.00  0.00    -0.358 OA
ATOM     20  H   UNL d   1      -3.062   0.964  -0.003  0.00  0.00     0.217 HD
ENDBRANCH   3  19
TORSDOF 4
