REMARK  7 active torsions:
REMARK  status: ('A' for Active; 'I' for Inactive)
REMARK    1  A    between atoms: N_11  and  C_1 
REMARK    2  A    between atoms: S_13  and  C_1 
REMARK    3  A    between atoms: C_2  and  C_15 
REMARK    4  A    between atoms: C_10  and  N_3 
REMARK    5  A    between atoms: C_15  and  S_13 
REMARK    6  A    between atoms: O_21  and  C_16 
REMARK    7  A    between atoms: O_22  and  C_18 
ROOT
ATOM      1  C   UNL d   1       1.037   0.278   0.244  0.00  0.00     0.143 C 
ATOM      2  N   UNL d   1       0.435   1.077  -0.579  0.00  0.00    -0.335 N 
ATOM      3  HN  UNL d   1      -0.583   1.037  -0.628  1.00  0.00     0.168 HD
ENDROOT
BRANCH   1   4
ATOM      4  N   UNL d   1       2.372   0.119   0.569  0.00  0.00    -0.358 N 
ATOM      5  C   UNL d   1       3.081  -1.120   0.207  0.00  0.00     0.151 C 
ATOM      6  C   UNL d   1       4.176  -1.420   1.239  0.00  0.00     0.187 C 
ATOM      7  O   UNL d   1       5.075  -0.308   1.387  0.00  0.00    -0.388 OA
ATOM      8  C   UNL d   1       4.353   0.861   1.811  0.00  0.00     0.187 C 
ATOM      9  C   UNL d   1       3.277   1.252   0.786  0.00  0.00     0.151 C 
ENDBRANCH   1   4
BRANCH   1  10
ATOM     10  S   UNL d   1      -0.010  -0.768   1.238  0.00  0.00    -0.089 SA
BRANCH  10  11
ATOM     11  C   UNL d   1      -1.424  -1.041   0.118  0.00  0.00     0.122 C 
BRANCH  11  12
ATOM     12  C   UNL d   1      -2.465  -1.999   0.719  0.00  0.00    -0.035 C 
ATOM     13  C   UNL d   1      -3.725  -1.509   1.169  0.00  0.00    -0.048 C 
ATOM     14  C   UNL d   1      -4.575  -2.340   1.949  0.00  0.00    -0.049 C 
ATOM     15  C   UNL d   1      -4.183  -0.106   0.836  0.00  0.00     0.049 C 
ATOM     16  C   UNL d   1      -5.824  -1.787   2.606  0.00  0.00     0.049 C 
ATOM     17  C   UNL d   1      -4.272  -3.716   2.112  0.00  0.00    -0.049 C 
ATOM     18  C   UNL d   1      -3.088  -4.248   1.546  0.00  0.00    -0.049 C 
ATOM     19  C   UNL d   1      -5.230  -4.585   2.903  0.00  0.00     0.049 C 
ATOM     20  C   UNL d   1      -2.175  -3.388   0.870  0.00  0.00    -0.048 C 
ATOM     21  C   UNL d   1      -2.813  -5.731   1.688  0.00  0.00     0.049 C 
ATOM     22  C   UNL d   1      -0.902  -3.989   0.307  0.00  0.00     0.049 C 
ENDBRANCH  11  12
ENDBRANCH  10  11
ENDBRANCH   1  10
BRANCH   2  23
ATOM     23  C   UNL d   1       1.103   1.996  -1.411  0.00  0.00     0.070 A 
ATOM     24  C   UNL d   1       2.163   1.602  -2.242  0.00  0.00     0.071 A 
ATOM     25  C   UNL d   1       2.869   2.509  -3.050  0.00  0.00     0.092 A 
ATOM     26  C   UNL d   1       2.424   3.832  -3.109  0.00  0.00     0.070 A 
ATOM     27  C   UNL d   1       1.321   4.231  -2.339  0.00  0.00     0.065 A 
ATOM     28 CL   UNL d   1       3.088   5.053  -4.136  0.00  0.00    -0.081 Cl
ATOM     29  C   UNL d   1       0.658   3.330  -1.494  0.00  0.00     0.096 A 
BRANCH  25  30
ATOM     30  O   UNL d   1       3.912   1.908  -3.702  0.00  0.00    -0.354 OA
ATOM     31  C   UNL d   1       5.007   2.699  -4.139  0.00  0.00     0.210 C 
ENDBRANCH  25  30
BRANCH  29  32
ATOM     32  O   UNL d   1      -0.432   3.669  -0.727  0.00  0.00    -0.354 OA
ATOM     33  C   UNL d   1      -1.043   4.929  -0.976  0.00  0.00     0.210 C 
ENDBRANCH  29  32
ENDBRANCH   2  23
TORSDOF 7
