REMARK  5 active torsions:
REMARK  status: ('A' for Active; 'I' for Inactive)
REMARK    1  A    between atoms: C_3  and  C_1 
REMARK    2  A    between atoms: C_2  and  C_13 
REMARK       I    between atoms: N_12  and  C_3 
REMARK    3  A    between atoms: O_17  and  C_5 
REMARK    4  A    between atoms: N_7  and  N_12 
REMARK    5  A    between atoms: N_16  and  C_10 
ROOT
ATOM      1  N   UNL d   1       5.093   0.414   0.222  0.00  0.00    -0.308 N 
ATOM      2  HN  UNL d   1       5.408  -0.206   0.969  1.00  0.00     0.186 HD
ATOM      3  C   UNL d   1       5.929   1.120  -0.466  0.00  0.00     0.121 C 
ENDROOT
BRANCH   1   4
ATOM      4  N   UNL d   1       3.776   0.534  -0.091  0.00  0.00    -0.266 N 
ATOM      5  C   UNL d   1       2.862  -0.266   0.570  0.00  0.00     0.271 C 
ATOM      6  O   UNL d   1       3.133  -1.095   1.433  0.00  0.00    -0.266 OA
ATOM      7  H   UNL d   1       3.458   1.218  -0.773  0.00  0.00     0.190 HD
BRANCH   5   8
ATOM      8  C   UNL d   1       1.454  -0.128   0.129  0.00  0.00     0.054 A 
ATOM      9  C   UNL d   1       0.801   1.104  -0.082  0.00  0.00     0.023 A 
ATOM     10  C   UNL d   1      -0.508   1.053  -0.601  0.00  0.00     0.024 A 
ATOM     11  C   UNL d   1      -1.161  -0.161  -0.846  0.00  0.00     0.002 A 
ATOM     12  C   UNL d   1      -0.514  -1.363  -0.594  0.00  0.00     0.001 A 
ATOM     13  C   UNL d   1       0.789  -1.346  -0.108  0.00  0.00     0.019 A 
BRANCH   9  14
ATOM     14  N   UNL d   1       1.372   2.381   0.114  0.00  0.00    -0.296 NA
ATOM     15  C   UNL d   1       2.051   2.622   1.390  0.00  0.00     0.113 C 
ATOM     16  H   UNL d   1       0.678   3.110  -0.047  0.00  0.00     0.127 HD
ENDBRANCH   9  14
ENDBRANCH   5   8
ENDBRANCH   1   4
BRANCH   3  17
ATOM     17  C   UNL d   1       7.379   1.007  -0.196  0.00  0.00     0.017 A 
ATOM     18  C   UNL d   1       8.308   1.655  -1.010  0.00  0.00     0.099 A 
ATOM     19  C   UNL d   1       9.677   1.500  -0.756  0.00  0.00     0.069 A 
ATOM     20 CL   UNL d   1      10.842   2.279  -1.762  0.00  0.00    -0.081 Cl
ATOM     21  C   UNL d   1      10.119   0.711   0.306  0.00  0.00     0.050 A 
ATOM     22  C   UNL d   1       9.185   0.075   1.119  0.00  0.00     0.036 A 
ATOM     23  C   UNL d   1       7.821   0.215   0.875  0.00  0.00     0.039 A 
ATOM     24 CL   UNL d   1       9.723  -0.898   2.431  0.00  0.00    -0.084 Cl
BRANCH  18  25
ATOM     25  O   UNL d   1       7.875   2.428  -2.057  0.00  0.00    -0.358 OA
ATOM     26  H   UNL d   1       8.665   2.776  -2.514  0.00  0.00     0.217 HD
ENDBRANCH  18  25
ENDBRANCH   3  17
TORSDOF 5
