REMARK  2 active torsions:
REMARK  status: ('A' for Active; 'I' for Inactive)
REMARK       I    between atoms: N_2  and  C_1 
REMARK    1  A    between atoms: C_4  and  C_1 
REMARK    2  A    between atoms: C_3  and  N_2 
ROOT
ATOM      1  C   UNL d   1       1.147   0.075  -0.100  0.00  0.00     0.259 C 
ATOM      2  N   UNL d   1       2.508  -0.081  -0.223  0.00  0.00    -0.303 N 
ATOM      3  O   UNL d   1       0.550   1.053   0.328  0.00  0.00    -0.267 OA
ATOM      4  H   UNL d   1       2.899  -0.904  -0.656  0.00  0.00     0.171 HD
ENDROOT
BRANCH   1   5
ATOM      5  C   UNL d   1       0.334  -1.050  -0.644  0.00  0.00     0.054 A 
ATOM      6  C   UNL d   1       0.640  -2.407  -0.468  0.00  0.00     0.049 A 
ATOM      7 CL   UNL d   1       1.982  -2.966   0.467  0.00  0.00    -0.083 Cl
ATOM      8  C   UNL d   1      -0.179  -3.387  -1.042  0.00  0.00     0.025 A 
ATOM      9  C   UNL d   1      -1.305  -3.024  -1.783  0.00  0.00     0.002 A 
ATOM     10  C   UNL d   1      -1.625  -1.679  -1.945  0.00  0.00     0.001 A 
ATOM     11  C   UNL d   1      -0.813  -0.696  -1.375  0.00  0.00     0.019 A 
ENDBRANCH   1   5
BRANCH   2  12
ATOM     12  C   UNL d   1       3.402   0.854   0.213  0.00  0.00     0.151 A 
ATOM     13  N   UNL d   1       3.202   1.958   0.882  0.00  0.00    -0.346 N 
ATOM     14  C   UNL d   1       4.410   2.599   1.077  0.00  0.00     0.097 A 
ATOM     15  HN  UNL d   1       2.296   2.294   1.210  1.00  0.00     0.167 HD
ATOM     16  C   UNL d   1       5.510   1.972   0.531  0.00  0.00     0.070 A 
ATOM     17  S   UNL d   1       5.022   0.499  -0.203  0.00  0.00    -0.064 SA
ENDBRANCH   2  12
TORSDOF 2
