REMARK  5 active torsions:
REMARK  status: ('A' for Active; 'I' for Inactive)
REMARK    1  A    between atoms: N_4  and  C_1 
REMARK    2  A    between atoms: N_9  and  C_1 
REMARK    3  A    between atoms: C_3  and  N_4 
REMARK    4  A    between atoms: N_5  and  N_9 
REMARK    5  A    between atoms: C_7  and  C_12 
ROOT
ATOM      1  C   UNL d   1       1.347  -0.296  -0.021  0.00  0.00     0.191 C 
ATOM      2  S   UNL d   1       0.719  -0.789  -1.493  0.00  0.00    -0.039 SA
ENDROOT
BRANCH   1   3
ATOM      3  N   UNL d   1       0.660   0.090   1.107  0.00  0.00    -0.332 N 
ATOM      4  H   UNL d   1       1.192   0.728   1.690  0.00  0.00     0.168 HD
BRANCH   3   5
ATOM      5  C   UNL d   1      -0.649  -0.261   1.505  0.00  0.00     0.042 A 
ATOM      6  C   UNL d   1      -1.437   0.609   2.285  0.00  0.00    -0.013 A 
ATOM      7  C   UNL d   1      -2.696   0.149   2.736  0.00  0.00     0.042 A 
ATOM      8  C   UNL d   1      -1.003   2.014   2.613  0.00  0.00     0.052 C 
ATOM      9 CL   UNL d   1      -3.734   1.134   3.711  0.00  0.00    -0.084 Cl
ATOM     10  C   UNL d   1      -3.163  -1.130   2.416  0.00  0.00     0.024 A 
ATOM     11  C   UNL d   1      -2.380  -1.978   1.648  0.00  0.00     0.004 A 
ATOM     12  C   UNL d   1      -1.131  -1.549   1.208  0.00  0.00     0.030 A 
ENDBRANCH   3   5
ENDBRANCH   1   3
BRANCH   1  13
ATOM     13  N   UNL d   1       2.717  -0.236   0.090  0.00  0.00    -0.276 N 
ATOM     14  H   UNL d   1       3.247  -0.550  -0.718  0.00  0.00     0.189 HD
BRANCH  13  15
ATOM     15  N   UNL d   1       3.365   0.175   1.220  0.00  0.00    -0.309 N 
ATOM     16  C   UNL d   1       4.647  -0.049   1.182  0.00  0.00     0.120 C 
ATOM     17  HN  UNL d   1       2.894   0.612   2.012  1.00  0.00     0.186 HD
BRANCH  16  18
ATOM     18  C   UNL d   1       5.569   0.388   2.252  0.00  0.00     0.002 A 
ATOM     19  C   UNL d   1       6.948   0.138   2.178  0.00  0.00     0.045 A 
ATOM     20 CL   UNL d   1       7.676  -0.769   0.899  0.00  0.00    -0.083 Cl
ATOM     21  C   UNL d   1       7.801   0.636   3.169  0.00  0.00     0.024 A 
ATOM     22  C   UNL d   1       7.286   1.375   4.234  0.00  0.00     0.002 A 
ATOM     23  C   UNL d   1       5.915   1.605   4.323  0.00  0.00     0.001 A 
ATOM     24  C   UNL d   1       5.057   1.113   3.337  0.00  0.00     0.014 A 
ENDBRANCH  16  18
ENDBRANCH  13  15
ENDBRANCH   1  13
TORSDOF 5
