REMARK  3 active torsions:
REMARK  status: ('A' for Active; 'I' for Inactive)
REMARK    1  A    between atoms: C_2  and  C_1 
REMARK       I    between atoms: N_9  and  C_2 
REMARK    2  A    between atoms: C_5  and  N_9 
REMARK    3  A    between atoms: C_14  and  C_6 
ROOT
ATOM      1  C   UNL d   1       1.627   4.287  -1.278  0.00  0.00     0.259 C 
ATOM      2  N   UNL d   1       0.944   3.772  -0.193  0.00  0.00    -0.307 N 
ATOM      3  O   UNL d   1       1.173   5.100  -2.071  0.00  0.00    -0.267 OA
ATOM      4  H   UNL d   1       1.392   3.103   0.409  0.00  0.00     0.170 HD
ENDROOT
BRANCH   2   5
ATOM      5  C   UNL d   1      -0.397   4.022   0.056  0.00  0.00     0.131 A 
ATOM      6  C   UNL d   1      -1.152   3.365   1.057  0.00  0.00     0.086 A 
ATOM      7  C   UNL d   1      -2.453   3.758   0.831  0.00  0.00     0.087 A 
ATOM      8  O   UNL d   1      -2.450   4.697  -0.154  0.00  0.00    -0.240 OA
ATOM      9  N   UNL d   1      -1.172   4.862  -0.632  0.00  0.00    -0.245 N 
ATOM     10  HN  UNL d   1      -0.875   5.502  -1.369  1.00  0.00     0.196 HD
BRANCH   7  11
ATOM     11  C   UNL d   1      -3.804   3.328   1.331  0.00  0.00     0.000 C 
ATOM     12  C   UNL d   1      -3.670   2.246   2.417  0.00  0.00     0.021 C 
ATOM     13  C   UNL d   1      -4.575   4.523   1.915  0.00  0.00     0.021 C 
ATOM     14  C   UNL d   1      -4.601   2.739   0.149  0.00  0.00     0.021 C 
ENDBRANCH   7  11
ENDBRANCH   2   5
BRANCH   1  15
ATOM     15  C   UNL d   1       2.989   3.764  -1.440  0.00  0.00     0.064 A 
ATOM     16  C   UNL d   1       3.869   4.156  -2.442  0.00  0.00     0.065 A 
ATOM     17  O   UNL d   1       5.060   3.508  -2.316  0.00  0.00    -0.319 OA
ATOM     18  C   UNL d   1       3.802   5.096  -3.585  0.00  0.00     0.077 C 
ATOM     19  C   UNL d   1       4.965   2.682  -1.246  0.00  0.00     0.050 A 
ATOM     20  C   UNL d   1       3.709   2.780  -0.686  0.00  0.00     0.051 A 
ATOM     21  C   UNL d   1       6.175   1.897  -0.931  0.00  0.00     0.076 C 
ENDBRANCH   1  15
TORSDOF 3
