REMARK  9 active torsions:
REMARK  status: ('A' for Active; 'I' for Inactive)
REMARK    1  A    between atoms: C_3  and  C_1 
REMARK       I    between atoms: N_9  and  C_1 
REMARK    2  A    between atoms: C_2  and  C_4 
REMARK    3  A    between atoms: O_14  and  C_2 
REMARK       I    between atoms: C_5  and  N_11 
REMARK    4  A    between atoms: C_10  and  C_5 
REMARK    5  A    between atoms: C_21  and  N_9 
REMARK    6  A    between atoms: C_12  and  C_10 
REMARK    7  A    between atoms: N_11  and  C_20 
REMARK    8  A    between atoms: O_19  and  C_13 
REMARK    9  A    between atoms: C_20  and  C_21 
ROOT
ATOM      1  C   UNL d   1       6.952  -1.947   0.672  0.00  0.00     0.221 C 
ATOM      2  O   UNL d   1       7.540  -1.060   0.057  0.00  0.00    -0.273 OA
ATOM      3  N   UNL d   1       5.598  -1.917   0.922  0.00  0.00    -0.359 N 
ATOM      4  H   UNL d   1       5.136  -2.755   1.249  0.00  0.00     0.162 HD
ENDROOT
BRANCH   3   5
ATOM      5  C   UNL d   1       4.759  -0.838   0.429  0.00  0.00     0.142 C 
BRANCH   5   6
ATOM      6  C   UNL d   1       4.304  -1.060  -1.019  0.00  0.00     0.142 C 
BRANCH   6   7
ATOM      7  N   UNL d   1       3.516  -2.270  -1.214  0.00  0.00    -0.356 N 
ATOM      8  C   UNL d   1       2.252  -2.409  -0.701  0.00  0.00     0.241 C 
ATOM      9  O   UNL d   1       1.714  -1.608   0.052  0.00  0.00    -0.269 OA
ATOM     10  H   UNL d   1       3.870  -2.947  -1.878  0.00  0.00     0.162 HD
BRANCH   8  11
ATOM     11  C   UNL d   1       1.578  -3.648  -1.146  0.00  0.00     0.080 C 
ATOM     12  C   UNL d   1       0.353  -3.937  -0.677  0.00  0.00     0.086 C 
BRANCH  12  13
ATOM     13  C   UNL d   1      -0.301  -5.174  -1.131  0.00  0.00     0.165 C 
ATOM     14  O   UNL d   1       0.193  -5.965  -1.915  0.00  0.00    -0.647 OA
BRANCH  13  15
ATOM     15  O   UNL d   1      -1.515  -5.346  -0.573  0.00  0.00    -0.773 OA
ATOM     16  H   UNL d   1      -1.805  -4.644   0.038  0.00  0.00     0.167 HD
ENDBRANCH  13  15
ENDBRANCH  12  13
ENDBRANCH   8  11
ENDBRANCH   6   7
ENDBRANCH   5   6
ENDBRANCH   3   5
BRANCH   1  17
ATOM     17  C   UNL d   1       7.665  -3.170   1.220  0.00  0.00     0.141 C 
BRANCH  17  18
ATOM     18  C   UNL d   1       7.800  -4.291   0.218  0.00  0.00    -0.049 A 
ATOM     19  C   UNL d   1       8.480  -4.088  -0.993  0.00  0.00     0.010 A 
ATOM     20  C   UNL d   1       8.671  -5.144  -1.884  0.00  0.00     0.037 A 
ATOM     21  C   UNL d   1       8.191  -6.408  -1.567  0.00  0.00     0.065 A 
ATOM     22  C   UNL d   1       7.501  -6.630  -0.381  0.00  0.00     0.037 A 
ATOM     23  C   UNL d   1       7.305  -5.571   0.510  0.00  0.00     0.010 A 
BRANCH  21  24
ATOM     24  O   UNL d   1       8.430  -7.419  -2.450  0.00  0.00    -0.361 OA
ATOM     25  H   UNL d   1       8.123  -8.252  -2.058  0.00  0.00     0.217 HD
ENDBRANCH  21  24
ENDBRANCH  17  18
ENDBRANCH   1  17
TORSDOF 9
