REMARK  1 active torsions:
REMARK  status: ('A' for Active; 'I' for Inactive)
REMARK    1  A    between atoms: C_2  and  N_1 
ROOT
ATOM      1  N   UNL d   1       2.325  -0.081   0.063  0.00  0.00    -0.072 N 
ATOM      2  C   UNL d   1       1.736   1.183   0.069  0.00  0.00     0.280 A 
ATOM      3  C   UNL d   1       1.656  -1.303  -0.016  0.00  0.00     0.280 A 
ATOM      4  C   UNL d   1       0.253   1.210   0.022  0.00  0.00     0.045 A 
ATOM      5  C   UNL d   1       0.174  -1.235   0.016  0.00  0.00     0.045 A 
ATOM      6  C   UNL d   1      -0.467   0.009   0.019  0.00  0.00     0.006 A 
ATOM      7  O   UNL d   1       2.188  -2.408  -0.109  0.00  0.00    -0.266 OA
ATOM      8  O   UNL d   1       2.326   2.261   0.021  0.00  0.00    -0.266 OA
ATOM      9  C   UNL d   1      -1.883   0.056   0.014  0.00  0.00    -0.024 A 
ATOM     10  C   UNL d   1      -0.571  -2.422   0.040  0.00  0.00     0.018 A 
ATOM     11  C   UNL d   1      -0.413   2.443  -0.024  0.00  0.00     0.018 A 
ATOM     12  C   UNL d   1      -1.804   2.485  -0.053  0.00  0.00     0.002 A 
ATOM     13  C   UNL d   1      -1.963  -2.374   0.062  0.00  0.00     0.002 A 
ATOM     14  C   UNL d   1      -2.614  -1.141   0.044  0.00  0.00     0.012 A 
ATOM     15  C   UNL d   1      -2.535   1.299  -0.024  0.00  0.00     0.012 A 
ENDROOT
BRANCH   1  16
ATOM     16  C   UNL d   1       3.704  -0.118   0.238  0.00  0.00     0.697 A 
ATOM     17  N   UNL d   1       4.347   0.423   1.255  0.00  0.00    -0.189 N 
ATOM     18  C   UNL d   1       5.672   0.129   1.069  0.00  0.00     0.076 A 
ATOM     19  HN  UNL d   1       3.939   0.954   2.025  1.00  0.00     0.184 HD
ATOM     20  C   UNL d   1       6.777   0.430   1.879  0.00  0.00     0.032 A 
ATOM     21  C   UNL d   1       5.866  -0.557  -0.123  0.00  0.00     0.078 A 
ATOM     22  C   UNL d   1       8.055   0.053   1.445  0.00  0.00     0.002 A 
ATOM     23  C   UNL d   1       8.229  -0.603   0.225  0.00  0.00     0.002 A 
ATOM     24  C   UNL d   1       7.135  -0.926  -0.587  0.00  0.00     0.032 A 
ATOM     25  N   UNL d   1       4.594  -0.720  -0.630  0.00  0.00    -0.185 N 
ATOM     26  C   UNL d   1       4.316  -1.298  -1.922  0.00  0.00     0.175 C 
ENDBRANCH   1  16
TORSDOF 1
