REMARK  4 active torsions:
REMARK  status: ('A' for Active; 'I' for Inactive)
REMARK    1  A    between atoms: N_4  and  C_1 
REMARK       I    between atoms: C_2  and  N_3 
REMARK       I    between atoms: N_15  and  C_2 
REMARK    2  A    between atoms: C_19  and  N_15 
REMARK    3  A    between atoms: C_20  and  C_19 
REMARK    4  A    between atoms: C_21  and  C_20 
ROOT
ATOM      1  C   UNL d   1      -8.494  -0.876   0.153  0.00  0.00     0.318 C 
ATOM      2  N   UNL d   1      -7.123  -0.975   0.050  0.00  0.00    -0.331 N 
ATOM      3  N   UNL d   1      -4.419  -0.142   0.222  0.00  0.00    -0.214 N 
ATOM      4  C   UNL d   1      -6.455  -0.372  -1.115  0.00  0.00     0.148 C 
ATOM      5  C   UNL d   1      -6.209  -1.613   1.013  0.00  0.00     0.148 C 
ATOM      6  C   UNL d   1      -5.301   0.565  -0.705  0.00  0.00     0.161 C 
ATOM      7  C   UNL d   1      -5.059  -0.674   1.422  0.00  0.00     0.161 C 
ATOM      8  O   UNL d   1      -9.177  -0.249  -0.654  0.00  0.00    -0.247 OA
ATOM      9  N   UNL d   1      -9.049  -1.499   1.240  0.00  0.00    -0.343 N 
ATOM     10  H   UNL d   1      -8.597  -2.354   1.521  0.00  0.00     0.164 HD
ENDROOT
BRANCH   3  11
ATOM     11  C   UNL d   1      -3.058  -0.013   0.157  0.00  0.00     0.680 A 
ATOM     12  N   UNL d   1      -2.514   0.712  -0.835  0.00  0.00    -0.201 N 
ATOM     13  C   UNL d   1      -1.165   0.758  -0.917  0.00  0.00     0.126 A 
ATOM     14  HN  UNL d   1      -3.100   1.212  -1.504  1.00  0.00     0.183 HD
ATOM     15  C   UNL d   1      -0.333   0.100  -0.050  0.00  0.00     0.042 A 
ATOM     16  C   UNL d   1      -0.965  -0.612   0.933  0.00  0.00     0.126 A 
ATOM     17 BR   UNL d   1       1.536   0.163  -0.201  0.00  0.00    -0.048 Br
ATOM     18  N   UNL d   1      -2.308  -0.675   1.056  0.00  0.00    -0.201 N 
ATOM     19  HN  UNL d   1      -2.742  -1.209   1.810  1.00  0.00     0.183 HD
ENDBRANCH   3  11
BRANCH   9  20
ATOM     20  C   UNL d   1     -10.479  -1.448   1.471  0.00  0.00     0.124 C 
BRANCH  20  21
ATOM     21  C   UNL d   1     -10.814  -1.502   2.959  0.00  0.00     0.019 C 
BRANCH  21  22
ATOM     22  C   UNL d   1     -10.272  -0.285   3.715  0.00  0.00    -0.003 C 
ATOM     23  C   UNL d   1     -10.656  -0.322   5.184  0.00  0.00     0.005 C 
ENDBRANCH  21  22
ENDBRANCH  20  21
ENDBRANCH   9  20
TORSDOF 4
