REMARK  2 active torsions:
REMARK  status: ('A' for Active; 'I' for Inactive)
REMARK       I    between atoms: N_3  and  C_1 
REMARK       I    between atoms: N_5  and  C_1 
REMARK    1  A    between atoms: C_2  and  N_4 
REMARK    2  A    between atoms: C_7  and  N_5 
ROOT
ATOM      1  C   UNL d   1      -0.907   1.848   4.988  0.00  0.00     0.124 A 
ATOM      2  C   UNL d   1      -1.179   3.212   5.186  0.00  0.00     0.088 A 
ATOM      3  C   UNL d   1      -1.016   4.180   4.143  0.00  0.00     0.103 C 
ATOM      4  N   UNL d   1      -0.869   4.981   3.315  0.00  0.00    -0.191 NA
ATOM      5  N   UNL d   1      -1.175   0.947   5.966  0.00  0.00    -0.351 N 
ATOM      6  HN  UNL d   1      -0.989  -0.046   5.823  1.00  0.00     0.166 HD
ATOM      7  C   UNL d   1      -1.710   3.642   6.407  0.00  0.00     0.028 A 
ATOM      8  C   UNL d   1      -1.695   1.389   7.136  0.00  0.00     0.090 A 
ATOM      9  C   UNL d   1      -1.975   2.714   7.402  0.00  0.00     0.019 A 
ENDROOT
BRANCH   1  10
ATOM     10  N   UNL d   1      -0.472   1.365   3.765  0.00  0.00    -0.363 N 
ATOM     11  C   UNL d   1      -0.749  -0.040   3.437  0.00  0.00     0.144 C 
ATOM     12  C   UNL d   1      -0.827  -0.160   1.900  0.00  0.00     0.147 C 
ATOM     13  N   UNL d   1       0.354   0.422   1.223  0.00  0.00    -0.331 N 
ATOM     14  C   UNL d   1       0.741   0.070  -0.069  0.00  0.00     0.323 C 
ATOM     15  C   UNL d   1       0.735   1.764   1.688  0.00  0.00     0.147 C 
ATOM     16  N   UNL d   1       0.551  -1.267  -0.328  0.00  0.00    -0.308 N 
ATOM     17  O   UNL d   1       1.292   0.860  -0.829  0.00  0.00    -0.247 OA
ATOM     18  H   UNL d   1       0.529  -1.819   0.508  0.00  0.00     0.170 HD
ATOM     19  C   UNL d   1       0.822   1.821   3.223  0.00  0.00     0.144 C 
BRANCH  16  20
ATOM     20  C   UNL d   1       0.957  -1.937  -1.505  0.00  0.00     0.047 A 
ATOM     21  C   UNL d   1       1.478  -3.260  -1.403  0.00  0.00     0.001 A 
ATOM     22  C   UNL d   1       1.815  -3.942  -2.601  0.00  0.00    -0.024 A 
ATOM     23  C   UNL d   1       1.732  -3.927  -0.178  0.00  0.00     0.014 A 
ATOM     24  C   UNL d   1       2.346  -5.242  -2.535  0.00  0.00     0.012 A 
ATOM     25  C   UNL d   1       1.639  -3.308  -3.836  0.00  0.00     0.012 A 
ATOM     26  C   UNL d   1       2.572  -5.876  -1.313  0.00  0.00     0.001 A 
ATOM     27  C   UNL d   1       2.272  -5.213  -0.132  0.00  0.00     0.001 A 
ATOM     28  C   UNL d   1       1.150  -2.006  -3.916  0.00  0.00     0.003 A 
ATOM     29  C   UNL d   1       0.812  -1.322  -2.752  0.00  0.00     0.030 A 
ENDBRANCH  16  20
ENDBRANCH   1  10
TORSDOF 2
