REMARK  8 active torsions:
REMARK  status: ('A' for Active; 'I' for Inactive)
REMARK    1  A    between atoms: C_2  and  S_1 
REMARK    2  A    between atoms: N_11  and  S_1 
REMARK       I    between atoms: C_5  and  N_8 
REMARK    3  A    between atoms: C_14  and  C_5 
REMARK    4  A    between atoms: C_16  and  C_6 
REMARK    5  A    between atoms: N_8  and  C_16 
REMARK    6  A    between atoms: C_17  and  N_11 
REMARK    7  A    between atoms: N_12  and  C_18 
REMARK    8  A    between atoms: C_18  and  C_17 
ROOT
ATOM      1  C   UNL d   1       0.506  -1.801   0.666  0.00  0.00     0.120 A 
ATOM      2  S   UNL d   1      -0.625  -1.984   1.931  0.00  0.00    -0.080 SA
ATOM      3  C   UNL d   1       0.958  -3.024   0.209  0.00  0.00     0.034 A 
ATOM      4  C   UNL d   1      -0.451  -3.688   1.938  0.00  0.00     0.002 A 
ATOM      5  C   UNL d   1       0.412  -4.111   0.944  0.00  0.00     0.018 A 
ENDROOT
BRANCH   1   6
ATOM      6  S   UNL d   1       0.935  -0.147   0.169  0.00  0.00     0.265 S 
ATOM      7  O   UNL d   1       2.147  -0.332  -0.601  0.00  0.00    -0.200 OA
ATOM      8  O   UNL d   1       0.911   0.654   1.367  0.00  0.00    -0.200 OA
BRANCH   6   9
ATOM      9  N   UNL d   1      -0.232   0.381  -0.936  0.00  0.00    -0.313 N 
ATOM     10  H   UNL d   1      -0.334  -0.291  -1.696  0.00  0.00     0.172 HD
BRANCH   9  11
ATOM     11  C   UNL d   1      -1.511   0.935  -0.450  0.00  0.00     0.162 C 
BRANCH  11  12
ATOM     12  C   UNL d   1      -1.325   2.325   0.189  0.00  0.00     0.292 C 
BRANCH  12  13
ATOM     13  N   UNL d   1      -2.534   2.941   0.771  0.00  0.00     0.094 N 
ATOM     14  C   UNL d   1      -2.159   4.215   1.447  0.00  0.00     0.298 C 
ATOM     15  C   UNL d   1      -1.398   4.027   2.779  0.00  0.00     0.198 C 
ATOM     16  O   UNL d   1      -2.130   3.194   3.686  0.00  0.00    -0.388 OA
ATOM     17  C   UNL d   1      -2.410   1.922   3.091  0.00  0.00     0.198 C 
ATOM     18  C   UNL d   1      -3.204   2.093   1.785  0.00  0.00     0.298 C 
ENDBRANCH  12  13
ENDBRANCH  11  12
ENDBRANCH   9  11
ENDBRANCH   6   9
ENDBRANCH   1   6
BRANCH   4  19
ATOM     19  C   UNL d   1      -1.174  -4.523   2.945  0.00  0.00     0.169 C 
BRANCH  19  20
ATOM     20  N   UNL d   1      -2.431  -4.946   2.375  0.00  0.00    -0.352 N 
ATOM     21  C   UNL d   1      -3.281  -5.750   3.101  0.00  0.00     0.251 C 
ATOM     22  O   UNL d   1      -3.019  -6.163   4.224  0.00  0.00    -0.268 OA
ATOM     23  H   UNL d   1      -2.795  -4.430   1.587  0.00  0.00     0.163 HD
BRANCH  21  24
ATOM     24  C   UNL d   1      -4.581  -6.081   2.455  0.00  0.00     0.032 A 
ATOM     25  C   UNL d   1      -4.709  -6.164   1.062  0.00  0.00     0.017 A 
ATOM     26  C   UNL d   1      -5.937  -6.509   0.493  0.00  0.00     0.001 A 
ATOM     27  C   UNL d   1      -7.036  -6.776   1.310  0.00  0.00     0.000 A 
ATOM     28  C   UNL d   1      -6.911  -6.702   2.697  0.00  0.00     0.001 A 
ATOM     29  C   UNL d   1      -5.685  -6.359   3.271  0.00  0.00     0.017 A 
ENDBRANCH  21  24
ENDBRANCH  19  20
ENDBRANCH   4  19
TORSDOF 8
