REMARK  3 active torsions:
REMARK  status: ('A' for Active; 'I' for Inactive)
REMARK    1  A    between atoms: N_2  and  C_1 
REMARK    2  A    between atoms: N_3  and  C_1 
REMARK    3  A    between atoms: C_7  and  N_3 
ROOT
ATOM      1  N   UNL d   1       1.404  -0.458  -1.353  0.00  0.00    -0.333 N 
ATOM      2  H   UNL d   1       0.738  -0.446  -2.114  0.00  0.00     0.168 HD
ENDROOT
BRANCH   1   3
ATOM      3  C   UNL d   1       0.853  -0.095  -0.131  0.00  0.00     0.174 C 
ATOM      4  S   UNL d   1       0.843  -1.159   1.177  0.00  0.00    -0.041 SA
BRANCH   3   5
ATOM      5  N   UNL d   1       0.231   1.178  -0.155  0.00  0.00    -0.358 N 
ATOM      6  C   UNL d   1       0.491   2.120  -1.256  0.00  0.00     0.125 C 
ATOM      7  C   UNL d   1      -0.489   3.283  -1.413  0.00  0.00     0.020 C 
ATOM      8  C   UNL d   1      -1.952   2.847  -1.414  0.00  0.00     0.002 C 
ATOM      9  C   UNL d   1      -2.546   2.783  -0.009  0.00  0.00     0.002 C 
ATOM     10  C   UNL d   1      -1.960   1.700   0.896  0.00  0.00     0.020 C 
ATOM     11  C   UNL d   1      -0.439   1.737   1.035  0.00  0.00     0.125 C 
ENDBRANCH   3   5
ENDBRANCH   1   3
BRANCH   1  12
ATOM     12  C   UNL d   1       2.609  -1.154  -1.586  0.00  0.00     0.035 A 
ATOM     13  C   UNL d   1       3.700  -1.067  -0.714  0.00  0.00     0.055 A 
ATOM     14  C   UNL d   1       4.903  -1.715  -1.018  0.00  0.00     0.058 A 
ATOM     15 CL   UNL d   1       6.215  -1.534   0.093  0.00  0.00    -0.082 Cl
ATOM     16  C   UNL d   1       5.019  -2.457  -2.197  0.00  0.00     0.055 A 
ATOM     17  C   UNL d   1       3.934  -2.537  -3.074  0.00  0.00     0.028 A 
ATOM     18 CL   UNL d   1       6.474  -3.276  -2.641  0.00  0.00    -0.083 Cl
ATOM     19  C   UNL d   1       2.738  -1.875  -2.776  0.00  0.00     0.031 A 
ENDBRANCH   1  12
TORSDOF 3
