REMARK  3 active torsions:
REMARK  status: ('A' for Active; 'I' for Inactive)
REMARK    1  A    between atoms: N_2  and  S_1 
REMARK    2  A    between atoms: C_6  and  S_1 
REMARK    3  A    between atoms: C_5  and  N_4 
ROOT
ATOM      1  C   UNL d   1       1.011   1.815   0.530  0.00  0.00     0.074 A 
ATOM      2  N   UNL d   1       0.683   6.828   2.454  0.00  0.00    -0.191 NA
ATOM      3  C   UNL d   1       0.753   5.750   2.031  0.00  0.00     0.099 C 
ATOM      4  C   UNL d   1       2.159   2.612   0.572  0.00  0.00     0.026 A 
ATOM      5  C   UNL d   1      -0.221   2.307   0.970  0.00  0.00     0.026 A 
ATOM      6  C   UNL d   1       0.840   4.414   1.520  0.00  0.00     0.044 A 
ATOM      7  C   UNL d   1      -0.306   3.608   1.468  0.00  0.00     0.024 A 
ATOM      8  C   UNL d   1       2.068   3.913   1.069  0.00  0.00     0.024 A 
ENDROOT
BRANCH   1   9
ATOM      9  S   UNL d   1       1.082   0.169  -0.146  0.00  0.00     0.243 S 
ATOM     10  O   UNL d   1       0.082   0.121  -1.189  0.00  0.00    -0.206 OA
ATOM     11  O   UNL d   1       2.469  -0.141  -0.409  0.00  0.00    -0.206 OA
BRANCH   9  12
ATOM     12  N   UNL d   1       0.550  -0.761   1.173  0.00  0.00    -0.203 NA
ATOM     13  C   UNL d   1       1.600  -1.149   2.177  0.00  0.00     0.127 C 
ATOM     14  C   UNL d   1       2.428  -2.375   1.713  0.00  0.00     0.138 C 
ATOM     15  N   UNL d   1       1.515  -3.473   1.336  0.00  0.00    -0.378 N 
ATOM     16  C   UNL d   1       0.538  -3.120   0.299  0.00  0.00     0.138 C 
ATOM     17  C   UNL d   1      -0.306  -1.942   0.821  0.00  0.00     0.127 C 
BRANCH  15  18
ATOM     18  C   UNL d   1       1.947  -4.789   1.509  0.00  0.00     0.043 A 
ATOM     19  C   UNL d   1       1.944  -5.823   0.525  0.00  0.00     0.018 A 
ATOM     20  C   UNL d   1       2.328  -7.121   0.886  0.00  0.00     0.044 A 
ATOM     21  C   UNL d   1       1.642  -5.887  -0.875  0.00  0.00     0.033 A 
ATOM     22  N   UNL d   1       2.225  -7.919  -0.232  0.00  0.00    -0.365 N 
ATOM     23  C   UNL d   1       2.727  -7.473   2.178  0.00  0.00     0.030 A 
ATOM     24  C   UNL d   1       1.810  -7.183  -1.304  0.00  0.00     0.089 A 
ATOM     25  H   UNL d   1       2.438  -8.907  -0.248  0.00  0.00     0.165 HD
ATOM     26  C   UNL d   1       2.740  -6.471   3.139  0.00  0.00     0.005 A 
ATOM     27  C   UNL d   1       2.360  -5.174   2.810  0.00  0.00     0.030 A 
ENDBRANCH  15  18
ENDBRANCH   9  12
ENDBRANCH   1   9
TORSDOF 3
