REMARK  5 active torsions:
REMARK  status: ('A' for Active; 'I' for Inactive)
REMARK    1  A    between atoms: C_4  and  C_1 
REMARK       I    between atoms: N_11  and  C_4 
REMARK    2  A    between atoms: C_6  and  O_10 
REMARK    3  A    between atoms: N_8  and  N_11 
REMARK    4  A    between atoms: O_10  and  C_14 
REMARK    5  A    between atoms: C_21  and  C_19 
ROOT
ATOM      1  C   UNL d   1      -2.407  -0.273  -0.058  0.00  0.00     0.103 A 
ATOM      2  N   UNL d   1      -1.633   0.871  -0.058  0.00  0.00    -0.351 N 
ATOM      3  C   UNL d   1      -1.525  -1.340  -0.027  0.00  0.00     0.049 A 
ATOM      4  C   UNL d   1      -0.199  -0.825  -0.020  0.00  0.00    -0.004 A 
ATOM      5  C   UNL d   1      -0.294   0.564  -0.050  0.00  0.00     0.043 A 
ATOM      6  C   UNL d   1       1.078  -1.411   0.006  0.00  0.00     0.051 A 
ATOM      7  C   UNL d   1       2.224  -0.602   0.013  0.00  0.00     0.079 A 
ATOM      8  C   UNL d   1       0.832   1.395  -0.071  0.00  0.00     0.033 A 
ATOM      9  C   UNL d   1       2.095   0.784  -0.058  0.00  0.00     0.039 A 
ATOM     10  H   UNL d   1      -2.024   1.805  -0.077  0.00  0.00     0.166 HD
ENDROOT
BRANCH   1  11
ATOM     11  C   UNL d   1      -3.852  -0.186  -0.090  0.00  0.00     0.286 C 
ATOM     12  N   UNL d   1      -4.518  -1.406  -0.108  0.00  0.00    -0.265 N 
ATOM     13  H   UNL d   1      -4.004  -2.276  -0.106  0.00  0.00     0.190 HD
ATOM     14  O   UNL d   1      -4.416   0.903  -0.104  0.00  0.00    -0.264 OA
BRANCH  12  15
ATOM     15  N   UNL d   1      -5.879  -1.424  -0.164  0.00  0.00    -0.308 N 
ATOM     16  C   UNL d   1      -6.454  -2.584  -0.199  0.00  0.00     0.118 C 
ATOM     17  HN  UNL d   1      -6.422  -0.561  -0.177  1.00  0.00     0.186 HD
BRANCH  16  18
ATOM     18  C   UNL d   1      -7.926  -2.685  -0.272  0.00  0.00    -0.019 A 
ATOM     19  C   UNL d   1      -8.707  -1.524  -0.286  0.00  0.00     0.014 A 
ATOM     20  C   UNL d   1     -10.099  -1.618  -0.362  0.00  0.00     0.024 A 
ATOM     21  C   UNL d   1     -10.701  -2.872  -0.423  0.00  0.00     0.034 A 
ATOM     22  C   UNL d   1      -9.925  -4.033  -0.409  0.00  0.00     0.024 A 
ATOM     23 CL   UNL d   1     -12.415  -2.990  -0.521  0.00  0.00    -0.084 Cl
ATOM     24  C   UNL d   1      -8.531  -3.943  -0.332  0.00  0.00     0.014 A 
ENDBRANCH  16  18
ENDBRANCH  12  15
ENDBRANCH   1  11
BRANCH   7  25
ATOM     25  O   UNL d   1       3.389  -1.306   0.043  0.00  0.00    -0.255 OA
BRANCH  25  26
ATOM     26  C   UNL d   1       4.554  -0.721   0.603  0.00  0.00     0.530 C 
ATOM     27  F   UNL d   1       4.315   0.373   1.355  0.00  0.00    -0.144 F 
ATOM     28  F   UNL d   1       5.147  -1.642   1.397  0.00  0.00    -0.144 F 
ATOM     29  F   UNL d   1       5.418  -0.400  -0.383  0.00  0.00    -0.144 F 
ENDBRANCH  25  26
ENDBRANCH   7  25
TORSDOF 5
