REMARK  9 active torsions:
REMARK  status: ('A' for Active; 'I' for Inactive)
REMARK    1  A    between atoms: N_2  and  S_1 
REMARK    2  A    between atoms: C_5  and  S_1 
REMARK    3  A    between atoms: C_6  and  N_2 
REMARK    4  A    between atoms: C_7  and  C_6 
REMARK    5  A    between atoms: C_10  and  C_7 
REMARK    6  A    between atoms: O_16  and  C_7 
REMARK    7  A    between atoms: O_8  and  C_10 
REMARK    8  A    between atoms: C_9  and  O_8 
REMARK    9  A    between atoms: O_17  and  C_11 
ROOT
ATOM      1  C   UNL d   1       0.386  -0.693  -3.777  0.00  0.00     0.161 C 
ENDROOT
BRANCH   1   2
ATOM      2  C   UNL d   1       0.918   0.032  -2.530  0.00  0.00     0.166 C 
BRANCH   2   3
ATOM      3  N   UNL d   1       0.506  -0.616  -1.276  0.00  0.00    -0.313 N 
ATOM      4  H   UNL d   1      -0.459  -0.919  -1.165  0.00  0.00     0.172 HD
BRANCH   3   5
ATOM      5  S   UNL d   1       1.091   0.025   0.172  0.00  0.00     0.258 S 
ATOM      6  O   UNL d   1       2.498   0.321   0.009  0.00  0.00    -0.201 OA
ATOM      7  O   UNL d   1       0.600  -0.836   1.221  0.00  0.00    -0.201 OA
BRANCH   5   8
ATOM      8  C   UNL d   1       0.206   1.563   0.285  0.00  0.00     0.079 A 
ATOM      9  C   UNL d   1      -1.040   1.590   0.924  0.00  0.00     0.025 A 
ATOM     10  C   UNL d   1      -1.711   2.805   1.070  0.00  0.00     0.002 A 
ATOM     11  C   UNL d   1      -1.139   3.981   0.583  0.00  0.00     0.000 A 
ATOM     12  C   UNL d   1       0.104   3.949  -0.053  0.00  0.00     0.002 A 
ATOM     13  C   UNL d   1       0.784   2.740  -0.199  0.00  0.00     0.025 A 
ENDBRANCH   5   8
ENDBRANCH   3   5
ENDBRANCH   2   3
ENDBRANCH   1   2
BRANCH   1  14
ATOM     14  C   UNL d   1      -1.151  -0.688  -3.820  0.00  0.00     0.209 C 
BRANCH  14  15
ATOM     15  O   UNL d   1      -1.614  -1.361  -4.992  0.00  0.00    -0.349 OA
BRANCH  15  16
ATOM     16  C   UNL d   1      -2.972  -1.408  -5.162  0.00  0.00     0.069 A 
ATOM     17  C   UNL d   1      -3.925  -0.922  -4.267  0.00  0.00     0.039 A 
ATOM     18  C   UNL d   1      -5.291  -1.022  -4.558  0.00  0.00     0.039 A 
ATOM     19  C   UNL d   1      -5.716  -1.618  -5.745  0.00  0.00     0.068 A 
ATOM     20  C   UNL d   1      -4.762  -2.107  -6.637  0.00  0.00     0.039 A 
ATOM     21  C   UNL d   1      -3.398  -2.006  -6.348  0.00  0.00     0.039 A 
BRANCH  19  22
ATOM     22  O   UNL d   1      -7.016  -1.781  -6.135  0.00  0.00    -0.356 OA
ATOM     23  C   UNL d   1      -8.015  -1.290  -5.250  0.00  0.00     0.210 C 
ENDBRANCH  19  22
ENDBRANCH  15  16
ENDBRANCH  14  15
ENDBRANCH   1  14
BRANCH   1  24
ATOM     24  O   UNL d   1       0.923  -0.033  -4.936  0.00  0.00    -0.392 OA
ATOM     25  H   UNL d   1       0.454   0.809  -5.062  0.00  0.00     0.210 HD
ENDBRANCH   1  24
TORSDOF 9
