REMARK  2 active torsions:
REMARK  status: ('A' for Active; 'I' for Inactive)
REMARK    1  A    between atoms: N_10  and  C_1 
REMARK    2  A    between atoms: C_8  and  C_6 
ROOT
ATOM      1  C   UNL d   1       0.993   1.545  -0.025  0.00  0.00     0.046 A 
ATOM      2  C   UNL d   1      -0.243   0.771   0.009  0.00  0.00     0.039 A 
ATOM      3  C   UNL d   1      -0.084  -0.641  -0.044  0.00  0.00     0.048 A 
ATOM      4  N   UNL d   1       1.089  -1.272  -0.074  0.00  0.00    -0.351 N 
ATOM      5  HN  UNL d   1       1.123  -2.291  -0.101  1.00  0.00     0.166 HD
ATOM      6  C   UNL d   1       2.232  -0.552  -0.069  0.00  0.00     0.119 A 
ATOM      7  C   UNL d   1       2.208   0.833  -0.089  0.00  0.00     0.064 A 
ATOM      8  C   UNL d   1      -1.608   1.205   0.140  0.00  0.00     0.050 A 
ATOM      9  C   UNL d   1      -2.696   0.317   0.087  0.00  0.00     0.048 A 
ATOM     10  C   UNL d   1      -1.167  -1.504  -0.062  0.00  0.00     0.054 A 
ATOM     11  C   UNL d   1      -2.466  -1.036  -0.016  0.00  0.00     0.037 A 
ATOM     12 CL   UNL d   1      -2.081   2.832   0.483  0.00  0.00    -0.083 Cl
ATOM     13 CL   UNL d   1      -3.783  -2.140  -0.040  0.00  0.00    -0.084 Cl
ENDROOT
BRANCH   1  14
ATOM     14  N   UNL d   1       1.030   2.957  -0.011  0.00  0.00    -0.379 N 
ATOM     15  C   UNL d   1       2.102   3.639   0.757  0.00  0.00     0.130 C 
ATOM     16  C   UNL d   1       2.420   5.038   0.248  0.00  0.00     0.098 C 
ATOM     17  C   UNL d   1       1.163   5.787  -0.077  0.00  0.00     0.130 C 
ATOM     18  C   UNL d   1       0.100   5.060  -0.855  0.00  0.00     0.098 C 
ATOM     19  O   UNL d   1       1.031   6.974   0.228  0.00  0.00    -0.298 OA
ATOM     20  C   UNL d   1       0.566   3.651  -1.222  0.00  0.00     0.130 C 
ENDBRANCH   1  14
BRANCH   6  21
ATOM     21  C   UNL d   1       3.571  -1.273  -0.029  0.00  0.00     0.432 C 
ATOM     22  F   UNL d   1       3.481  -2.631   0.012  0.00  0.00    -0.165 F 
ATOM     23  F   UNL d   1       4.354  -0.983  -1.109  0.00  0.00    -0.165 F 
ATOM     24  F   UNL d   1       4.314  -0.918   1.060  0.00  0.00    -0.165 F 
ENDBRANCH   6  21
TORSDOF 2
