REMARK  3 active torsions:
REMARK  status: ('A' for Active; 'I' for Inactive)
REMARK    1  A    between atoms: C_4  and  S_1 
REMARK    2  A    between atoms: C_2  and  C_5 
REMARK       I    between atoms: N_3  and  C_2 
REMARK    3  A    between atoms: C_13  and  N_3 
ROOT
ATOM      1  C   UNL d   1       0.511   0.296   1.542  0.00  0.00     0.058 A 
ATOM      2  C   UNL d   1      -0.021   1.001   4.204  0.00  0.00     0.032 A 
ATOM      3  C   UNL d   1      -0.053  -0.645   2.400  0.00  0.00     0.024 A 
ATOM      4  C   UNL d   1       0.846   1.573   2.006  0.00  0.00     0.024 A 
ATOM      5  C   UNL d   1      -0.322  -0.286   3.723  0.00  0.00     0.018 A 
ATOM      6  C   UNL d   1       0.581   1.924   3.338  0.00  0.00     0.018 A 
ENDROOT
BRANCH   2   7
ATOM      7  C   UNL d   1      -0.371   1.291   5.636  0.00  0.00     0.256 C 
ATOM      8  N   UNL d   1      -0.307   2.612   6.054  0.00  0.00    -0.323 N 
ATOM      9  H   UNL d   1      -0.124   3.326   5.366  0.00  0.00     0.169 HD
ATOM     10  O   UNL d   1      -0.746   0.347   6.325  0.00  0.00    -0.267 OA
BRANCH   8  11
ATOM     11  C   UNL d   1      -0.695   3.095   7.327  0.00  0.00     0.035 A 
ATOM     12  C   UNL d   1      -0.924   2.270   8.431  0.00  0.00     0.029 A 
ATOM     13  C   UNL d   1      -1.406   2.801   9.630  0.00  0.00     0.002 A 
ATOM     14  C   UNL d   1      -1.651   4.166   9.742  0.00  0.00     0.000 A 
ATOM     15  C   UNL d   1      -1.379   5.006   8.665  0.00  0.00     0.002 A 
ATOM     16  C   UNL d   1      -0.889   4.475   7.467  0.00  0.00     0.029 A 
ENDBRANCH   8  11
ENDBRANCH   2   7
BRANCH   1  17
ATOM     17  S   UNL d   1       0.849  -0.152  -0.146  0.00  0.00     0.171 S 
ATOM     18  O   UNL d   1       1.078  -1.584  -0.180  0.00  0.00    -0.223 OA
ATOM     19  O   UNL d   1       1.842   0.775  -0.652  0.00  0.00    -0.223 OA
ATOM     20  C   UNL d   1      -0.688   0.184  -0.965  0.00  0.00     0.167 C 
ENDBRANCH   1  17
TORSDOF 3
