REMARK  4 active torsions:
REMARK  status: ('A' for Active; 'I' for Inactive)
REMARK    1  A    between atoms: C_9  and  C_1 
REMARK    2  A    between atoms: N_14  and  C_3 
REMARK    3  A    between atoms: C_11  and  C_6 
REMARK    4  A    between atoms: C_17  and  C_9 
ROOT
ATOM      1  C   UNL d   1      -3.707  -0.082  -0.036  0.00  0.00     0.085 A 
ATOM      2  C   UNL d   1      -1.472   0.749  -0.015  0.00  0.00     0.038 A 
ATOM      3  C   UNL d   1      -2.896   1.035   0.089  0.00  0.00     0.061 A 
ATOM      4  C   UNL d   1      -1.323  -0.630  -0.133  0.00  0.00     0.088 A 
ATOM      5  S   UNL d   1      -2.780  -1.482  -0.318  0.00  0.00    -0.065 SA
ATOM      6  C   UNL d   1      -0.245   1.498   0.004  0.00  0.00     0.004 A 
ATOM      7  N   UNL d   1      -0.185  -1.338  -0.142  0.00  0.00    -0.353 N 
ATOM      8  HN  UNL d   1      -0.179  -2.355  -0.218  1.00  0.00     0.166 HD
ATOM      9  C   UNL d   1       0.988   0.776  -0.012  0.00  0.00    -0.023 A 
ATOM     10  C   UNL d   1       0.945  -0.625  -0.043  0.00  0.00     0.017 A 
ATOM     11  C   UNL d   1       2.333   1.474   0.051  0.00  0.00     0.041 C 
ATOM     12  C   UNL d   1       2.193  -1.472  -0.052  0.00  0.00     0.057 C 
ATOM     13  C   UNL d   1       3.516   0.604  -0.352  0.00  0.00     0.005 C 
ATOM     14  C   UNL d   1       3.452  -0.728   0.371  0.00  0.00     0.006 C 
ENDROOT
BRANCH   1  15
ATOM     15  C   UNL d   1      -5.161  -0.131  -0.024  0.00  0.00     0.201 C 
ATOM     16  O   UNL d   1      -5.862   0.783  -0.467  0.00  0.00    -0.286 OA
BRANCH  15  17
ATOM     17  C   UNL d   1      -5.879  -1.298   0.573  0.00  0.00     0.015 A 
ATOM     18  C   UNL d   1      -7.109  -1.691   0.026  0.00  0.00     0.015 A 
ATOM     19  C   UNL d   1      -7.800  -2.779   0.567  0.00  0.00     0.001 A 
ATOM     20  C   UNL d   1      -7.271  -3.469   1.653  0.00  0.00     0.000 A 
ATOM     21  C   UNL d   1      -6.062  -3.070   2.217  0.00  0.00     0.001 A 
ATOM     22  C   UNL d   1      -5.370  -1.974   1.692  0.00  0.00     0.015 A 
ENDBRANCH  15  17
ENDBRANCH   1  15
BRANCH   3  23
ATOM     23  N   UNL d   1      -3.442   2.254   0.320  0.00  0.00    -0.397 N 
ATOM     24  H   UNL d   1      -2.898   3.096   0.145  0.00  0.00     0.156 HD
ATOM     25  H   UNL d   1      -4.430   2.397   0.092  0.00  0.00     0.156 HD
ENDBRANCH   3  23
BRANCH   6  26
ATOM     26  C   UNL d   1      -0.273   2.979   0.022  0.00  0.00     0.016 C 
ATOM     27  S   UNL d   1      -1.190   3.857  -1.148  0.00  0.00    -0.101 SA
ATOM     28  C   UNL d   1      -0.784   5.366  -0.460  0.00  0.00     0.050 C 
ATOM     29  C   UNL d   1       0.180   5.237   0.510  0.00  0.00     0.008 C 
ATOM     30  C   UNL d   1       0.452   3.868   0.804  0.00  0.00     0.020 C 
ENDBRANCH   6  26
TORSDOF 4
