REMARK  3 active torsions:
REMARK  status: ('A' for Active; 'I' for Inactive)
REMARK    1  A    between atoms: C_2  and  C_1 
REMARK       I    between atoms: N_3  and  C_2 
REMARK    2  A    between atoms: C_4  and  N_3 
REMARK    3  A    between atoms: C_8  and  C_5 
ROOT
ATOM      1  C   UNL d   1      -0.989  -2.323   0.105  0.00  0.00     0.052 A 
ATOM      2  C   UNL d   1      -1.777  -3.365   2.639  0.00  0.00    -0.049 A 
ATOM      3  C   UNL d   1      -1.459  -1.475   1.110  0.00  0.00     0.038 A 
ATOM      4  C   UNL d   1      -1.862  -1.989   2.352  0.00  0.00     0.029 A 
ATOM      5  C   UNL d   1      -0.918  -3.695   0.371  0.00  0.00     0.031 A 
ATOM      6  C   UNL d   1      -1.297  -4.203   1.620  0.00  0.00     0.010 A 
ATOM      7 BR   UNL d   1      -1.613   0.399   0.830  0.00  0.00    -0.049 Br
ENDROOT
BRANCH   1   8
ATOM      8  N   UNL d   1      -0.558  -1.784  -1.128  0.00  0.00    -0.322 N 
ATOM      9  C   UNL d   1      -0.474  -2.468  -2.336  0.00  0.00     0.277 C 
ATOM     10  O   UNL d   1      -1.015  -3.565  -2.509  0.00  0.00    -0.268 OA
ATOM     11  H   UNL d   1      -0.399  -0.773  -1.143  0.00  0.00     0.169 HD
BRANCH   9  12
ATOM     12  C   UNL d   1       0.240  -1.737  -3.498  0.00  0.00     0.269 C 
ATOM     13 CL   UNL d   1       1.390  -0.515  -2.875  0.00  0.00    -0.073 Cl
ATOM     14 CL   UNL d   1      -0.992  -0.931  -4.499  0.00  0.00    -0.073 Cl
ATOM     15 CL   UNL d   1       1.147  -2.931  -4.466  0.00  0.00    -0.073 Cl
ENDBRANCH   9  12
ENDBRANCH   1   8
BRANCH   2  16
ATOM     16  C   UNL d   1      -2.175  -3.898   4.025  0.00  0.00    -0.024 C 
ATOM     17  C   UNL d   1      -1.969  -5.421   4.197  0.00  0.00     0.019 C 
ATOM     18  C   UNL d   1      -1.321  -3.202   5.110  0.00  0.00     0.019 C 
ATOM     19  C   UNL d   1      -3.668  -3.609   4.289  0.00  0.00     0.019 C 
ENDBRANCH   2  16
TORSDOF 3
