REMARK  4 active torsions:
REMARK  status: ('A' for Active; 'I' for Inactive)
REMARK    1  A    between atoms: C_4  and  C_1 
REMARK    2  A    between atoms: N_2  and  C_3 
REMARK       I    between atoms: N_14  and  C_4 
REMARK    3  A    between atoms: C_5  and  C_13 
REMARK    4  A    between atoms: N_6  and  N_14 
ROOT
ATOM      1  C   UNL d   1       2.541  -0.146   0.062  0.00  0.00     0.272 C 
ATOM      2  N   UNL d   1       3.362   0.740  -0.616  0.00  0.00    -0.266 N 
ATOM      3  O   UNL d   1       2.954  -1.106   0.712  0.00  0.00    -0.266 OA
ATOM      4  H   UNL d   1       2.996   1.516  -1.167  0.00  0.00     0.190 HD
ENDROOT
BRANCH   1   5
ATOM      5  C   UNL d   1       1.061   0.033  -0.028  0.00  0.00     0.067 A 
ATOM      6  C   UNL d   1       0.355   1.240  -0.038  0.00  0.00     0.118 A 
ATOM      7  C   UNL d   1      -1.051   1.277  -0.042  0.00  0.00     0.037 A 
ATOM      8  C   UNL d   1      -1.774   0.086  -0.031  0.00  0.00     0.009 A 
ATOM      9  C   UNL d   1      -1.103  -1.141  -0.008  0.00  0.00    -0.061 A 
ATOM     10  C   UNL d   1       0.302  -1.156  -0.002  0.00  0.00     0.026 A 
ATOM     11  C   UNL d   1      -1.888  -2.421   0.032  0.00  0.00     0.048 C 
BRANCH   6  12
ATOM     12  N   UNL d   1       1.026   2.518  -0.017  0.00  0.00    -0.115 N 
ATOM     13  O   UNL d   1       1.750   2.784  -0.990  0.00  0.00    -0.532 OA
ATOM     14  O   UNL d   1       0.789   3.272   0.932  0.00  0.00    -0.532 OA
ENDBRANCH   6  12
ENDBRANCH   1   5
BRANCH   2  15
ATOM     15  N   UNL d   1       4.719   0.597  -0.504  0.00  0.00    -0.308 N 
ATOM     16  C   UNL d   1       5.446   1.480  -1.110  0.00  0.00     0.126 C 
ATOM     17  HN  UNL d   1       5.135  -0.166   0.029  1.00  0.00     0.186 HD
BRANCH  16  18
ATOM     18  C   UNL d   1       6.886   1.414  -1.025  0.00  0.00     0.021 A 
ATOM     19  S   UNL d   1       7.834   2.609  -1.797  0.00  0.00    -0.101 SA
ATOM     20  C   UNL d   1       9.290   1.909  -1.230  0.00  0.00     0.050 A 
ATOM     21  C   UNL d   1       9.061   0.776  -0.482  0.00  0.00     0.008 A 
ATOM     22  C   UNL d   1       7.670   0.486  -0.369  0.00  0.00     0.021 A 
ENDBRANCH  16  18
ENDBRANCH   2  15
TORSDOF 4
