REMARK  4 active torsions:
REMARK  status: ('A' for Active; 'I' for Inactive)
REMARK    1  A    between atoms: C_8  and  N_1 
REMARK    2  A    between atoms: S_10  and  C_2 
REMARK    3  A    between atoms: C_19  and  S_10 
REMARK    4  A    between atoms: C_24  and  C_19 
ROOT
ATOM      1  N   UNL d   1       2.402   0.788  -0.109  0.00  0.00    -0.258 N 
ATOM      2  C   UNL d   1       2.387  -0.613  -0.043  0.00  0.00     0.155 A 
ATOM      3  C   UNL d   1       1.200   1.507  -0.100  0.00  0.00     0.266 A 
ATOM      4  N   UNL d   1       1.302  -1.317   0.022  0.00  0.00    -0.335 N 
ATOM      5  HN  UNL d   1       1.349  -2.334   0.085  1.00  0.00     0.168 HD
ATOM      6  C   UNL d   1      -0.042   0.723  -0.049  0.00  0.00     0.059 A 
ATOM      7  C   UNL d   1       0.065  -0.663   0.006  0.00  0.00     0.051 A 
ATOM      8  C   UNL d   1      -1.296   1.351  -0.072  0.00  0.00     0.021 A 
ATOM      9  C   UNL d   1      -1.101  -1.432   0.023  0.00  0.00     0.054 A 
ATOM     10  O   UNL d   1       1.107   2.734  -0.113  0.00  0.00    -0.267 OA
ATOM     11  C   UNL d   1      -2.354  -0.810  -0.014  0.00  0.00     0.036 A 
ATOM     12  C   UNL d   1      -2.455   0.578  -0.057  0.00  0.00     0.025 A 
ATOM     13 CL   UNL d   1      -3.782  -1.769  -0.017  0.00  0.00    -0.084 Cl
ENDROOT
BRANCH   2  14
ATOM     14  S   UNL d   1       3.912  -1.494  -0.102  0.00  0.00    -0.089 SA
BRANCH  14  15
ATOM     15  C   UNL d   1       3.384  -3.158  -0.597  0.00  0.00     0.121 C 
BRANCH  15  16
ATOM     16  C   UNL d   1       4.543  -4.135  -0.559  0.00  0.00    -0.048 A 
ATOM     17  C   UNL d   1       5.035  -4.602   0.672  0.00  0.00     0.009 A 
ATOM     18  C   UNL d   1       6.120  -5.483   0.720  0.00  0.00     0.024 A 
ATOM     19  C   UNL d   1       6.719  -5.907  -0.462  0.00  0.00     0.034 A 
ATOM     20  C   UNL d   1       6.237  -5.466  -1.692  0.00  0.00     0.024 A 
ATOM     21 CL   UNL d   1       8.065  -6.977  -0.402  0.00  0.00    -0.084 Cl
ATOM     22  C   UNL d   1       5.154  -4.580  -1.740  0.00  0.00     0.009 A 
ENDBRANCH  15  16
ENDBRANCH  14  15
ENDBRANCH   2  14
BRANCH   1  23
ATOM     23  C   UNL d   1       3.603   1.556  -0.256  0.00  0.00     0.046 A 
ATOM     24  C   UNL d   1       3.743   2.415  -1.357  0.00  0.00     0.055 A 
ATOM     25  C   UNL d   1       4.934   3.117  -1.569  0.00  0.00     0.058 A 
ATOM     26 CL   UNL d   1       5.043   4.104  -2.983  0.00  0.00    -0.082 Cl
ATOM     27  C   UNL d   1       5.990   2.986  -0.662  0.00  0.00     0.055 A 
ATOM     28  C   UNL d   1       5.835   2.180   0.469  0.00  0.00     0.028 A 
ATOM     29 CL   UNL d   1       7.508   3.777  -0.886  0.00  0.00    -0.083 Cl
ATOM     30  C   UNL d   1       4.645   1.474   0.675  0.00  0.00     0.032 A 
ENDBRANCH   1  23
TORSDOF 4
