REMARK  3 active torsions:
REMARK  status: ('A' for Active; 'I' for Inactive)
REMARK    1  A    between atoms: N_2  and  S_1 
REMARK    2  A    between atoms: C_6  and  S_1 
REMARK    3  A    between atoms: C_8  and  N_2 
ROOT
ATOM      1  N   UNL d   1       2.085   2.203  -7.438  0.00  0.00    -0.191 NA
ATOM      2  C   UNL d   1       1.853   1.662  -6.439  0.00  0.00     0.099 C 
ATOM      3  C   UNL d   1       0.992  -0.251  -2.755  0.00  0.00     0.042 A 
ATOM      4  C   UNL d   1       1.558   1.002  -5.196  0.00  0.00     0.044 A 
ATOM      5  C   UNL d   1       2.249  -0.400  -3.338  0.00  0.00     0.031 A 
ATOM      6  C   UNL d   1       0.014   0.515  -3.390  0.00  0.00     0.031 A 
ATOM      7  C   UNL d   1       2.530   0.216  -4.564  0.00  0.00     0.025 A 
ATOM      8  C   UNL d   1       0.300   1.150  -4.604  0.00  0.00     0.025 A 
ENDROOT
BRANCH   3   9
ATOM      9  N   UNL d   1       0.730  -0.839  -1.490  0.00  0.00    -0.281 N 
ATOM     10  H   UNL d   1      -0.086  -1.440  -1.390  0.00  0.00     0.179 HD
BRANCH   9  11
ATOM     11  S   UNL d   1       1.088   0.024  -0.081  0.00  0.00     0.263 S 
ATOM     12  O   UNL d   1       2.500   0.343  -0.070  0.00  0.00    -0.200 OA
ATOM     13  O   UNL d   1       0.473  -0.712   1.003  0.00  0.00    -0.200 OA
BRANCH  11  14
ATOM     14  C   UNL d   1       0.181   1.544  -0.277  0.00  0.00     0.079 A 
ATOM     15  C   UNL d   1      -1.143   1.631   0.167  0.00  0.00     0.025 A 
ATOM     16  C   UNL d   1      -1.849   2.822  -0.017  0.00  0.00     0.002 A 
ATOM     17  C   UNL d   1      -1.232   3.915  -0.630  0.00  0.00     0.000 A 
ATOM     18  C   UNL d   1       0.096   3.829  -1.050  0.00  0.00     0.002 A 
ATOM     19  C   UNL d   1       0.811   2.647  -0.865  0.00  0.00     0.025 A 
ENDBRANCH  11  14
ENDBRANCH   9  11
ENDBRANCH   3   9
TORSDOF 3
