REMARK  1 active torsions:
REMARK  status: ('A' for Active; 'I' for Inactive)
REMARK    1  A    between atoms: C_4  and  N_1 
ROOT
ATOM      1  C   UNL d   1       0.107  -3.626  -0.316  0.00  0.00     0.050 A 
ATOM      2  C   UNL d   1       0.335  -5.021   0.033  0.00  0.00     0.294 A 
ATOM      3  C   UNL d   1       0.356  -1.267  -0.358  0.00  0.00     0.103 A 
ATOM      4  C   UNL d   1       0.784  -2.506   0.136  0.00  0.00     0.054 A 
ATOM      5  O   UNL d   1      -0.579  -5.754  -0.669  0.00  0.00    -0.313 OA
ATOM      6  C   UNL d   1      -0.940  -3.559  -1.213  0.00  0.00    -0.018 A 
ATOM      7  C   UNL d   1      -1.425  -4.926  -1.494  0.00  0.00     0.218 A 
ATOM      8  O   UNL d   1       1.174  -5.442   0.803  0.00  0.00    -0.259 OA
ATOM      9  C   UNL d   1      -0.720  -1.180  -1.271  0.00  0.00     0.037 A 
ATOM     10  C   UNL d   1      -1.375  -2.339  -1.705  0.00  0.00     0.013 A 
ENDROOT
BRANCH   3  11
ATOM     11  N   UNL d   1       1.037  -0.041   0.075  0.00  0.00    -0.116 N 
ATOM     12  O   UNL d   1       1.988  -0.156   0.860  0.00  0.00    -0.532 OA
ATOM     13  O   UNL d   1       0.621   1.037  -0.374  0.00  0.00    -0.532 OA
ENDBRANCH   3  11
TORSDOF 1
