REMARK  2 active torsions:
REMARK  status: ('A' for Active; 'I' for Inactive)
REMARK    1  A    between atoms: C_12  and  N_6 
REMARK    2  A    between atoms: C_14  and  C_12 
ROOT
ATOM      1  N   UNL d   1       1.176  -0.118  -0.079  0.00  0.00    -0.305 N 
ATOM      2  HN  UNL d   1       2.177  -0.314  -0.061  1.00  0.00     0.186 HD
ATOM      3  C   UNL d   1       0.606   1.047   0.002  0.00  0.00     0.044 C 
ATOM      4  C   UNL d   1       1.379   2.267   0.047  0.00  0.00     0.030 A 
ATOM      5  S   UNL d   1       0.622   3.800   0.187  0.00  0.00    -0.076 SA
ATOM      6  N   UNL d   1       0.175  -1.018  -0.191  0.00  0.00    -0.323 N 
ATOM      7  C   UNL d   1       2.109   4.603   0.139  0.00  0.00     0.075 A 
ATOM      8  C   UNL d   1       2.756   2.398  -0.030  0.00  0.00     0.023 A 
ATOM      9  C   UNL d   1       3.182   3.760   0.022  0.00  0.00     0.033 A 
ATOM     10  C   UNL d   1      -0.897   1.011   0.034  0.00  0.00     0.081 C 
ATOM     11  C   UNL d   1      -1.153  -0.486   0.050  0.00  0.00     0.149 C 
ATOM     12 CL   UNL d   1       2.156   6.316   0.233  0.00  0.00    -0.076 Cl
ENDROOT
BRANCH   6  13
ATOM     13  C   UNL d   1       0.380  -2.432   0.100  0.00  0.00     0.180 C 
BRANCH  13  14
ATOM     14  C   UNL d   1       0.589  -3.255  -1.151  0.00  0.00    -0.039 A 
ATOM     15  C   UNL d   1       1.674  -2.990  -2.002  0.00  0.00     0.009 A 
ATOM     16  C   UNL d   1       1.888  -3.760  -3.146  0.00  0.00     0.001 A 
ATOM     17  C   UNL d   1       1.022  -4.807  -3.451  0.00  0.00     0.000 A 
ATOM     18  C   UNL d   1      -0.059  -5.085  -2.612  0.00  0.00     0.001 A 
ATOM     19  C   UNL d   1      -0.275  -4.313  -1.469  0.00  0.00     0.009 A 
ENDBRANCH  13  14
ENDBRANCH   6  13
TORSDOF 2
