REMARK  3 active torsions:
REMARK  status: ('A' for Active; 'I' for Inactive)
REMARK    1  A    between atoms: N_2  and  S_1 
REMARK    2  A    between atoms: C_7  and  S_1 
REMARK    3  A    between atoms: C_5  and  N_4 
ROOT
ATOM      1  N   UNL d   1       0.713  -1.051  -0.101  0.00  0.00    -0.204 NA
ATOM      2  N   UNL d   1      -0.967  -2.180   2.019  0.00  0.00    -0.280 NA
ATOM      3  C   UNL d   1      -0.707  -0.605   0.098  0.00  0.00     0.122 C 
ATOM      4  C   UNL d   1       0.865  -2.470   0.383  0.00  0.00     0.122 C 
ATOM      5  C   UNL d   1      -1.171  -0.774   1.564  0.00  0.00     0.111 C 
ATOM      6  C   UNL d   1       0.442  -2.618   1.859  0.00  0.00     0.111 C 
ENDROOT
BRANCH   2   7
ATOM      7  C   UNL d   1      -1.585  -2.389   3.280  0.00  0.00     0.024 A 
ATOM      8  C   UNL d   1      -3.004  -2.491   3.363  0.00  0.00     0.012 A 
ATOM      9  C   UNL d   1      -3.600  -2.520   4.645  0.00  0.00     0.045 A 
ATOM     10  C   UNL d   1      -3.842  -2.561   2.226  0.00  0.00     0.017 A 
ATOM     11  C   UNL d   1      -4.984  -2.529   4.746  0.00  0.00     0.054 A 
ATOM     12  N   UNL d   1      -2.882  -2.524   5.777  0.00  0.00    -0.365 N 
ATOM     13  C   UNL d   1      -5.794  -2.539   3.613  0.00  0.00     0.036 A 
ATOM     14  C   UNL d   1      -5.230  -2.574   2.346  0.00  0.00     0.025 A 
ATOM     15 CL   UNL d   1      -7.506  -2.510   3.780  0.00  0.00    -0.084 Cl
ATOM     16  C   UNL d   1      -1.539  -2.494   5.672  0.00  0.00     0.090 A 
ATOM     17  HN  UNL d   1      -3.339  -2.549   6.688  1.00  0.00     0.165 HD
ATOM     18  C   UNL d   1      -0.857  -2.422   4.471  0.00  0.00     0.041 A 
ENDBRANCH   2   7
BRANCH   1  19
ATOM     19  S   UNL d   1       1.917   0.033   0.431  0.00  0.00     0.243 S 
ATOM     20  O   UNL d   1       3.140  -0.722   0.627  0.00  0.00    -0.206 OA
ATOM     21  O   UNL d   1       1.380   0.855   1.490  0.00  0.00    -0.206 OA
BRANCH  19  22
ATOM     22  C   UNL d   1       2.181   1.103  -0.974  0.00  0.00     0.074 A 
ATOM     23  C   UNL d   1       1.329   2.191  -1.196  0.00  0.00     0.026 A 
ATOM     24  C   UNL d   1       1.649   3.131  -2.181  0.00  0.00     0.020 A 
ATOM     25  C   UNL d   1       2.826   2.992  -2.917  0.00  0.00     0.011 A 
ATOM     26  C   UNL d   1       3.672   1.905  -2.704  0.00  0.00     0.020 A 
ATOM     27 BR   UNL d   1       3.306   4.318  -4.177  0.00  0.00    -0.051 Br
ATOM     28  C   UNL d   1       3.349   0.954  -1.733  0.00  0.00     0.026 A 
ENDBRANCH  19  22
ENDBRANCH   1  19
TORSDOF 3
