REMARK  10 active torsions:
REMARK  status: ('A' for Active; 'I' for Inactive)
REMARK    1  A    between atoms: N_3  and  C_1 
REMARK    2  A    between atoms: N_4  and  C_1 
REMARK       I    between atoms: C_2  and  N_6 
REMARK    3  A    between atoms: C_7  and  C_2 
REMARK    4  A    between atoms: C_8  and  N_3 
REMARK    5  A    between atoms: N_6  and  N_4 
REMARK    6  A    between atoms: C_13  and  C_7 
REMARK    7  A    between atoms: O_20  and  C_11 
REMARK    8  A    between atoms: C_12  and  O_19 
REMARK    9  A    between atoms: O_19  and  C_13 
REMARK   10  A    between atoms: O_21  and  C_14 
ROOT
ATOM      1  C   UNL d   1      -1.779   1.756   1.768  0.00  0.00     0.217 C 
ATOM      2  N   UNL d   1      -1.022   0.636   1.482  0.00  0.00    -0.172 NA
ATOM      3  O   UNL d   1      -2.939   1.806   1.352  0.00  0.00    -0.278 OA
ATOM      4  H   UNL d   1      -1.581  -0.024   0.939  0.00  0.00     0.156 HD
ENDROOT
BRANCH   2   5
ATOM      5  N   UNL d   1       0.262   0.816   0.942  0.00  0.00    -0.291 N 
ATOM      6  H   UNL d   1       0.356   0.578  -0.044  0.00  0.00     0.183 HD
BRANCH   5   7
ATOM      7  C   UNL d   1       1.423   0.762   1.668  0.00  0.00     0.187 C 
ATOM      8  S   UNL d   1       1.575   0.149   3.211  0.00  0.00    -0.040 SA
BRANCH   7   9
ATOM      9  N   UNL d   1       2.542   1.290   1.066  0.00  0.00    -0.332 N 
ATOM     10  H   UNL d   1       3.385   1.134   1.611  0.00  0.00     0.168 HD
BRANCH   9  11
ATOM     11  C   UNL d   1       2.695   2.108  -0.083  0.00  0.00     0.036 A 
ATOM     12  C   UNL d   1       1.638   2.624  -0.845  0.00  0.00     0.066 A 
ATOM     13  C   UNL d   1       1.862   3.400  -1.986  0.00  0.00     0.070 A 
ATOM     14  C   UNL d   1       3.168   3.721  -2.336  0.00  0.00     0.037 A 
ATOM     15  C   UNL d   1       4.237   3.265  -1.564  0.00  0.00     0.005 A 
ATOM     16  C   UNL d   1       4.000   2.457  -0.445  0.00  0.00     0.029 A 
BRANCH  13  17
ATOM     17  O   UNL d   1       0.886   3.902  -2.805  0.00  0.00    -0.356 OA
ATOM     18  C   UNL d   1      -0.459   3.522  -2.518  0.00  0.00     0.210 C 
ENDBRANCH  13  17
ENDBRANCH   9  11
ENDBRANCH   7   9
ENDBRANCH   5   7
ENDBRANCH   2   5
BRANCH   1  19
ATOM     19  C   UNL d   1      -1.232   2.801   2.726  0.00  0.00     0.125 C 
BRANCH  19  20
ATOM     20  C   UNL d   1      -0.179   3.765   2.207  0.00  0.00     0.184 C 
BRANCH  20  21
ATOM     21  O   UNL d   1      -0.719   4.688   1.260  0.00  0.00    -0.351 OA
BRANCH  21  22
ATOM     22  C   UNL d   1       0.162   5.619   0.761  0.00  0.00     0.068 A 
ATOM     23  C   UNL d   1       1.513   5.732   1.105  0.00  0.00     0.039 A 
ATOM     24  C   UNL d   1       2.326   6.702   0.504  0.00  0.00     0.039 A 
ATOM     25  C   UNL d   1       1.798   7.576  -0.442  0.00  0.00     0.068 A 
ATOM     26  C   UNL d   1       0.452   7.459  -0.794  0.00  0.00     0.039 A 
ATOM     27  C   UNL d   1      -0.361   6.498  -0.188  0.00  0.00     0.039 A 
BRANCH  25  28
ATOM     28  O   UNL d   1       2.501   8.545  -1.104  0.00  0.00    -0.356 OA
ATOM     29  C   UNL d   1       3.663   9.031  -0.441  0.00  0.00     0.210 C 
ENDBRANCH  25  28
ENDBRANCH  21  22
ENDBRANCH  20  21
ENDBRANCH  19  20
ENDBRANCH   1  19
TORSDOF 10
