REMARK  5 active torsions:
REMARK  status: ('A' for Active; 'I' for Inactive)
REMARK    1  A    between atoms: N_2  and  C_1 
REMARK    2  A    between atoms: N_11  and  C_1 
REMARK    3  A    between atoms: C_3  and  N_2 
REMARK    4  A    between atoms: N_6  and  N_11 
REMARK    5  A    between atoms: C_9  and  C_16 
ROOT
ATOM      1  N   UNL d   1       0.797  -0.870  -0.587  0.00  0.00    -0.277 N 
ATOM      2  H   UNL d   1       1.278  -1.764  -0.562  0.00  0.00     0.189 HD
ENDROOT
BRANCH   1   3
ATOM      3  N   UNL d   1      -0.218  -0.657  -1.476  0.00  0.00    -0.309 N 
ATOM      4  C   UNL d   1      -0.461  -1.660  -2.263  0.00  0.00     0.120 C 
ATOM      5  HN  UNL d   1      -0.741   0.218  -1.519  1.00  0.00     0.186 HD
BRANCH   4   6
ATOM      6  C   UNL d   1      -1.532  -1.611  -3.284  0.00  0.00     0.002 A 
ATOM      7  C   UNL d   1      -1.809  -2.701  -4.121  0.00  0.00     0.045 A 
ATOM      8 CL   UNL d   1      -0.933  -4.189  -4.050  0.00  0.00    -0.083 Cl
ATOM      9  C   UNL d   1      -2.838  -2.610  -5.066  0.00  0.00     0.024 A 
ATOM     10  C   UNL d   1      -3.588  -1.439  -5.182  0.00  0.00     0.002 A 
ATOM     11  C   UNL d   1      -3.313  -0.353  -4.355  0.00  0.00     0.001 A 
ATOM     12  C   UNL d   1      -2.290  -0.436  -3.410  0.00  0.00     0.014 A 
ENDBRANCH   4   6
ENDBRANCH   1   3
BRANCH   1  13
ATOM     13  C   UNL d   1       1.309   0.136   0.201  0.00  0.00     0.186 C 
ATOM     14  S   UNL d   1       2.634  -0.190   1.161  0.00  0.00    -0.040 SA
BRANCH  13  15
ATOM     15  N   UNL d   1       0.674   1.342   0.064  0.00  0.00    -0.361 N 
ATOM     16  H   UNL d   1      -0.177   1.284  -0.488  0.00  0.00     0.162 HD
BRANCH  15  17
ATOM     17  C   UNL d   1       1.109   2.621   0.595  0.00  0.00     0.092 C 
ATOM     18  C   UNL d   1       0.531   3.862  -0.137  0.00  0.00     0.031 C 
ATOM     19  C   UNL d   1      -0.974   3.930   0.033  0.00  0.00    -0.024 C 
ATOM     20  C   UNL d   1       0.924   4.951   0.871  0.00  0.00     0.019 C 
ATOM     21  C   UNL d   1      -1.217   4.216   1.321  0.00  0.00    -0.026 C 
ATOM     22  C   UNL d   1       0.121   4.319   2.013  0.00  0.00     0.010 C 
ATOM     23  C   UNL d   1       0.718   2.893   2.079  0.00  0.00     0.034 C 
ENDBRANCH  15  17
ENDBRANCH  13  15
ENDBRANCH   1  13
TORSDOF 5
