REMARK  2 active torsions:
REMARK  status: ('A' for Active; 'I' for Inactive)
REMARK       I    between atoms: C_5  and  N_11 
REMARK       I    between atoms: N_10  and  C_5 
REMARK    1  A    between atoms: C_6  and  C_7 
REMARK    2  A    between atoms: C_13  and  N_10 
ROOT
ATOM      1  C   UNL d   1      -3.177   0.139  -0.015  0.00  0.00     0.147 A 
ATOM      2  N   UNL d   1      -2.475   0.849  -0.875  0.00  0.00    -0.336 N 
ATOM      3  HN  UNL d   1      -2.884   1.410  -1.622  1.00  0.00     0.168 HD
ATOM      4  S   UNL d   1      -2.193  -0.653   1.177  0.00  0.00    -0.052 SA
ATOM      5  C   UNL d   1      -8.219   1.280   0.406  0.00  0.00     0.323 C 
ATOM      6  N   UNL d   1      -4.537   0.031  -0.050  0.00  0.00    -0.360 N 
ATOM      7  C   UNL d   1      -0.765  -0.052   0.450  0.00  0.00     0.036 A 
ATOM      8  N   UNL d   1      -8.969   1.167   1.565  0.00  0.00    -0.308 N 
ATOM      9  N   UNL d   1      -6.899   1.677   0.609  0.00  0.00    -0.332 N 
ATOM     10  C   UNL d   1      -1.113   0.737  -0.640  0.00  0.00     0.051 A 
ATOM     11  C   UNL d   1       0.574  -0.268   0.824  0.00  0.00     0.045 A 
ATOM     12  O   UNL d   1      -8.685   1.102  -0.716  0.00  0.00    -0.247 OA
ATOM     13  C   UNL d   1      -5.311   0.698  -1.110  0.00  0.00     0.145 C 
ATOM     14  C   UNL d   1      -6.071   1.930  -0.584  0.00  0.00     0.147 C 
ATOM     15  C   UNL d   1      -0.085   1.339  -1.398  0.00  0.00     0.032 A 
ATOM     16  C   UNL d   1       1.573   0.341   0.055  0.00  0.00     0.035 A 
ATOM     17  C   UNL d   1      -5.687   0.097   2.146  0.00  0.00     0.040 C 
ATOM     18  C   UNL d   1      -5.320  -0.732   0.917  0.00  0.00     0.126 C 
ATOM     19  C   UNL d   1      -6.156   1.524   1.860  0.00  0.00     0.129 C 
ATOM     20  C   UNL d   1       1.256   1.135  -1.040  0.00  0.00     0.026 A 
ATOM     21 CL   UNL d   1       3.223   0.099   0.482  0.00  0.00    -0.084 Cl
ATOM     22  H   UNL d   1      -8.682   1.849   2.251  0.00  0.00     0.170 HD
ENDROOT
BRANCH   8  23
ATOM     23  C   UNL d   1     -10.369   0.943   1.514  0.00  0.00     0.051 A 
ATOM     24  C   UNL d   1     -10.990  -0.101   0.811  0.00  0.00     0.074 A 
ATOM     25  C   UNL d   1     -12.402  -0.102   0.720  0.00  0.00     0.018 A 
ATOM     26  C   UNL d   1     -13.175   0.874   1.348  0.00  0.00     0.001 A 
ATOM     27  C   UNL d   1     -12.553   1.853   2.110  0.00  0.00     0.002 A 
ATOM     28  C   UNL d   1     -11.161   1.880   2.203  0.00  0.00     0.030 A 
BRANCH  24  29
ATOM     29  C   UNL d   1     -10.275  -1.292   0.218  0.00  0.00     0.419 C 
ATOM     30  F   UNL d   1      -8.932  -1.366   0.429  0.00  0.00    -0.166 F 
ATOM     31  F   UNL d   1     -10.762  -2.459   0.752  0.00  0.00    -0.166 F 
ATOM     32  F   UNL d   1     -10.469  -1.421  -1.125  0.00  0.00    -0.166 F 
ENDBRANCH  24  29
ENDBRANCH   8  23
TORSDOF 2
