REMARK  6 active torsions:
REMARK  status: ('A' for Active; 'I' for Inactive)
REMARK    1  A    between atoms: C_2  and  C_1 
REMARK    2  A    between atoms: C_3  and  C_2 
REMARK    3  A    between atoms: C_4  and  C_3 
REMARK    4  A    between atoms: N_7  and  C_4 
REMARK    5  A    between atoms: C_9  and  C_4 
REMARK    6  A    between atoms: C_10  and  N_7 
ROOT
ATOM      1  C   UNL d   1      -1.730   0.130  -2.169  0.00  0.00     0.100 C 
ENDROOT
BRANCH   1   2
ATOM      2  C   UNL d   1      -0.740   1.304  -2.229  0.00  0.00     0.103 C 
BRANCH   2   3
ATOM      3  C   UNL d   1      -1.185   2.571  -2.928  0.00  0.00     0.133 C 
ATOM      4  O   UNL d   1      -0.426   3.179  -3.680  0.00  0.00    -0.298 OA
BRANCH   3   5
ATOM      5  C   UNL d   1      -2.555   3.099  -2.666  0.00  0.00     0.055 A 
ATOM      6  C   UNL d   1      -3.556   3.106  -3.799  0.00  0.00     0.013 A 
ATOM      7  C   UNL d   1      -3.025   4.403  -3.269  0.00  0.00     0.013 A 
ENDBRANCH   3   5
ENDBRANCH   2   3
ENDBRANCH   1   2
BRANCH   1   8
ATOM      8  N   UNL d   1      -2.801   0.447  -1.203  0.00  0.00    -0.284 NA
ATOM      9  H   UNL d   1      -3.683   0.634  -1.676  0.00  0.00     0.128 HD
BRANCH   8  10
ATOM     10  C   UNL d   1      -2.986  -0.345  -0.063  0.00  0.00     0.008 A 
ATOM     11  C   UNL d   1      -1.937  -0.949   0.637  0.00  0.00     0.023 A 
ATOM     12  C   UNL d   1      -2.181  -1.743   1.764  0.00  0.00     0.002 A 
ATOM     13  C   UNL d   1      -3.479  -1.908   2.236  0.00  0.00     0.000 A 
ATOM     14  C   UNL d   1      -4.528  -1.252   1.601  0.00  0.00     0.002 A 
ATOM     15  C   UNL d   1      -4.278  -0.464   0.473  0.00  0.00     0.023 A 
ENDBRANCH   8  10
ENDBRANCH   1   8
BRANCH   1  16
ATOM     16  C   UNL d   1      -2.331  -0.374  -3.483  0.00  0.00    -0.040 A 
ATOM     17  C   UNL d   1      -1.910   0.070  -4.745  0.00  0.00     0.009 A 
ATOM     18  C   UNL d   1      -2.486  -0.432  -5.916  0.00  0.00     0.001 A 
ATOM     19  C   UNL d   1      -3.471  -1.413  -5.851  0.00  0.00     0.000 A 
ATOM     20  C   UNL d   1      -3.875  -1.902  -4.614  0.00  0.00     0.001 A 
ATOM     21  C   UNL d   1      -3.306  -1.392  -3.445  0.00  0.00     0.009 A 
ENDBRANCH   1  16
TORSDOF 6
