REMARK  8 active torsions:
REMARK  status: ('A' for Active; 'I' for Inactive)
REMARK    1  A    between atoms: N_2  and  C_1 
REMARK    2  A    between atoms: C_3  and  C_7 
REMARK       I    between atoms: N_4  and  C_3 
REMARK    3  A    between atoms: C_14  and  N_4 
REMARK    4  A    between atoms: C_16  and  N_4 
REMARK    5  A    between atoms: S_8  and  C_5 
REMARK    6  A    between atoms: C_9  and  S_8 
REMARK    7  A    between atoms: C_20  and  C_10 
REMARK    8  A    between atoms: C_25  and  C_16 
ROOT
ATOM      1  C   UNL d   1       1.355  -0.148  -0.319  0.00  0.00     0.120 A 
ATOM      2  C   UNL d   1       0.634  -1.334  -0.129  0.00  0.00     0.038 A 
ATOM      3  C   UNL d   1       0.750   1.128  -0.241  0.00  0.00     0.054 A 
ATOM      4  C   UNL d   1      -0.613   1.237   0.064  0.00  0.00     0.035 A 
ATOM      5  C   UNL d   1      -0.727  -1.198   0.142  0.00  0.00     0.022 A 
ATOM      6  C   UNL d   1      -1.315   0.058   0.294  0.00  0.00     0.018 A 
ENDROOT
BRANCH   4   7
ATOM      7  C   UNL d   1      -1.230   2.599   0.244  0.00  0.00     0.258 C 
ATOM      8  N   UNL d   1      -2.624   2.801   0.075  0.00  0.00    -0.310 N 
ATOM      9  O   UNL d   1      -0.449   3.486   0.597  0.00  0.00    -0.267 OA
BRANCH   8  10
ATOM     10  C   UNL d   1      -3.162   4.133   0.199  0.00  0.00     0.038 A 
ATOM     11  C   UNL d   1      -2.560   5.224  -0.447  0.00  0.00     0.033 A 
ATOM     12  C   UNL d   1      -3.228   6.450  -0.534  0.00  0.00     0.044 A 
ATOM     13  C   UNL d   1      -4.482   6.596   0.046  0.00  0.00     0.116 A 
ATOM     14  C   UNL d   1      -5.076   5.543   0.727  0.00  0.00     0.044 A 
ATOM     15  F   UNL d   1      -5.138   7.758  -0.073  0.00  0.00    -0.206 F 
ATOM     16  C   UNL d   1      -4.420   4.312   0.796  0.00  0.00     0.033 A 
ENDBRANCH   8  10
BRANCH   8  17
ATOM     17  C   UNL d   1      -3.410   1.992  -0.882  0.00  0.00     0.171 C 
BRANCH  17  18
ATOM     18  C   UNL d   1      -4.426   0.998  -0.347  0.00  0.00    -0.037 A 
ATOM     19  C   UNL d   1      -5.151   0.286  -1.321  0.00  0.00     0.048 A 
ATOM     20  C   UNL d   1      -6.142  -0.572  -0.910  0.00  0.00     0.105 A 
ATOM     21  O   UNL d   1      -6.988  -1.250  -1.730  0.00  0.00    -0.323 OA
ATOM     22  C   UNL d   1      -6.407  -0.791   0.419  0.00  0.00     0.105 A 
ATOM     23  C   UNL d   1      -7.959  -1.696  -0.764  0.00  0.00     0.352 C 
ATOM     24  O   UNL d   1      -7.466  -1.630   0.593  0.00  0.00    -0.323 OA
ATOM     25  C   UNL d   1      -5.678  -0.174   1.412  0.00  0.00     0.040 A 
ATOM     26  C   UNL d   1      -4.694   0.748   1.021  0.00  0.00     0.012 A 
ENDBRANCH  17  18
ENDBRANCH   8  17
ENDBRANCH   4   7
BRANCH   1  27
ATOM     27  N   UNL d   1       2.773  -0.175  -0.611  0.00  0.00    -0.114 N 
ATOM     28  O   UNL d   1       3.537  -0.521   0.298  0.00  0.00    -0.532 OA
ATOM     29  O   UNL d   1       3.119   0.217  -1.733  0.00  0.00    -0.532 OA
ENDBRANCH   1  27
BRANCH   2  30
ATOM     30  S   UNL d   1       1.251  -3.010  -0.231  0.00  0.00    -0.087 SA
BRANCH  30  31
ATOM     31  C   UNL d   1       1.530  -3.380   1.505  0.00  0.00     0.011 A 
ATOM     32  C   UNL d   1       0.572  -3.851   2.412  0.00  0.00    -0.044 A 
ATOM     33  C   UNL d   1       0.934  -4.026   3.773  0.00  0.00     0.016 A 
ATOM     34  C   UNL d   1      -0.849  -4.208   2.059  0.00  0.00     0.049 C 
ATOM     35  C   UNL d   1       2.237  -3.781   4.243  0.00  0.00    -0.050 A 
ATOM     36  C   UNL d   1       3.181  -3.358   3.300  0.00  0.00     0.009 A 
ATOM     37  C   UNL d   1       2.841  -3.176   1.962  0.00  0.00     0.020 A 
BRANCH  35  38
ATOM     38  C   UNL d   1       2.603  -3.898   5.736  0.00  0.00    -0.024 C 
ATOM     39  C   UNL d   1       2.298  -2.543   6.407  0.00  0.00     0.019 C 
ATOM     40  C   UNL d   1       1.802  -5.001   6.465  0.00  0.00     0.019 C 
ATOM     41  C   UNL d   1       4.098  -4.226   5.961  0.00  0.00     0.019 C 
ENDBRANCH  35  38
ENDBRANCH  30  31
ENDBRANCH   2  30
TORSDOF 8
