REMARK  1 active torsions:
REMARK  status: ('A' for Active; 'I' for Inactive)
REMARK       I    between atoms: N_2  and  C_1 
REMARK    1  A    between atoms: C_7  and  C_1 
ROOT
ATOM      1  C   UNL d   1       1.131  -0.077  -0.110  0.00  0.00     0.253 C 
ATOM      2  N   UNL d   1       0.346  -1.235  -0.071  0.00  0.00    -0.347 N 
ATOM      3  C   UNL d   1      -0.670  -1.395  -1.110  0.00  0.00     0.133 C 
ATOM      4  C   UNL d   1       0.333  -2.196   1.038  0.00  0.00     0.133 C 
ATOM      5  C   UNL d   1      -1.608  -3.371   0.036  0.00  0.00     0.130 C 
ATOM      6  O   UNL d   1       0.923   0.839  -0.901  0.00  0.00    -0.267 OA
ATOM      7  C   UNL d   1      -1.050  -2.767   1.300  0.00  0.00     0.098 C 
ATOM      8  C   UNL d   1      -1.095  -2.842  -1.280  0.00  0.00     0.098 C 
ATOM      9  O   UNL d   1      -2.449  -4.269   0.078  0.00  0.00    -0.298 OA
ENDROOT
BRANCH   1  10
ATOM     10  C   UNL d   1       2.262   0.067   0.841  0.00  0.00     0.032 A 
ATOM     11  C   UNL d   1       3.181  -0.971   1.039  0.00  0.00     0.017 A 
ATOM     12  C   UNL d   1       4.214  -0.819   1.963  0.00  0.00     0.001 A 
ATOM     13  C   UNL d   1       4.354   0.382   2.661  0.00  0.00     0.000 A 
ATOM     14  C   UNL d   1       3.471   1.437   2.426  0.00  0.00     0.001 A 
ATOM     15  C   UNL d   1       2.426   1.283   1.513  0.00  0.00     0.017 A 
ENDBRANCH   1  10
TORSDOF 1
