REMARK  2 active torsions:
REMARK  status: ('A' for Active; 'I' for Inactive)
REMARK    1  A    between atoms: C_2  and  C_1 
REMARK       I    between atoms: N_3  and  C_2 
REMARK    2  A    between atoms: C_4  and  N_3 
ROOT
ATOM      1  C   UNL d   1      -0.852  -0.309   2.254  0.00  0.00     0.056 A 
ATOM      2  C   UNL d   1      -1.280   0.853   1.584  0.00  0.00     0.062 A 
ATOM      3  C   UNL d   1      -1.546   2.035   2.280  0.00  0.00     0.045 A 
ATOM      4  C   UNL d   1      -0.683  -0.252   3.641  0.00  0.00     0.032 A 
ATOM      5  C   UNL d   1      -1.374   2.065   3.660  0.00  0.00     0.012 A 
ATOM      6 CL   UNL d   1      -1.500   0.854  -0.135  0.00  0.00    -0.082 Cl
ATOM      7  C   UNL d   1      -0.943   0.929   4.341  0.00  0.00     0.021 A 
ATOM      8 BR   UNL d   1      -1.725   3.657   4.616  0.00  0.00    -0.051 Br
ENDROOT
BRANCH   1   9
ATOM      9  N   UNL d   1      -0.586  -1.470   1.489  0.00  0.00    -0.322 N 
ATOM     10  C   UNL d   1      -0.273  -2.752   1.946  0.00  0.00     0.277 C 
ATOM     11  O   UNL d   1      -0.337  -3.075   3.134  0.00  0.00    -0.268 OA
ATOM     12  H   UNL d   1      -0.654  -1.338   0.479  0.00  0.00     0.169 HD
BRANCH  10  13
ATOM     13  C   UNL d   1       0.079  -3.771   0.829  0.00  0.00     0.269 C 
ATOM     14 CL   UNL d   1       1.044  -2.969  -0.449  0.00  0.00    -0.073 Cl
ATOM     15 CL   UNL d   1      -1.452  -4.361   0.130  0.00  0.00    -0.073 Cl
ATOM     16 CL   UNL d   1       1.019  -5.127   1.495  0.00  0.00    -0.073 Cl
ENDBRANCH  10  13
ENDBRANCH   1   9
TORSDOF 2
