REMARK  4 active torsions:
REMARK  status: ('A' for Active; 'I' for Inactive)
REMARK    1  A    between atoms: C_5  and  C_11 
REMARK    2  A    between atoms: O_12  and  C_5 
REMARK    3  A    between atoms: N_7  and  C_9 
REMARK    4  A    between atoms: C_11  and  N_7 
ROOT
ATOM      1  S   UNL d   1       0.589   0.035   0.022  0.00  0.00     0.146 S 
ATOM      2  C   UNL d   1      -0.570  -1.024   0.870  0.00  0.00     0.175 C 
ATOM      3  O   UNL d   1       1.197  -0.716  -1.057  0.00  0.00    -0.228 OA
ATOM      4  O   UNL d   1       1.369   0.751   1.008  0.00  0.00    -0.228 OA
ATOM      5  C   UNL d   1      -0.619   1.147  -0.678  0.00  0.00     0.142 C 
ATOM      6  C   UNL d   1      -1.912  -0.755   0.183  0.00  0.00     0.236 C 
ATOM      7  C   UNL d   1      -1.949   0.767  -0.036  0.00  0.00     0.051 C 
ENDROOT
BRANCH   6   8
ATOM      8  N   UNL d   1      -3.027  -1.268   1.000  0.00  0.00     0.099 N 
ATOM      9  H   UNL d   1      -3.080  -0.720   1.867  0.00  0.00     0.317 HD
BRANCH   8  10
ATOM     10  C   UNL d   1      -4.333  -1.113   0.298  0.00  0.00     0.379 C 
BRANCH  10  11
ATOM     11  C   UNL d   1      -5.431  -1.788   1.119  0.00  0.00     0.168 C 
ATOM     12  O   UNL d   1      -6.620  -1.533   1.030  0.00  0.00    -0.649 OA
BRANCH  11  13
ATOM     13  O   UNL d   1      -4.928  -2.739   1.948  0.00  0.00    -0.775 OA
ATOM     14  H   UNL d   1      -3.951  -2.751   1.820  0.00  0.00     0.167 HD
ENDBRANCH  11  13
ENDBRANCH  10  11
ENDBRANCH   8  10
ENDBRANCH   6   8
TORSDOF 4
