REMARK  2 active torsions:
REMARK  status: ('A' for Active; 'I' for Inactive)
REMARK    1  A    between atoms: C_7  and  C_4 
REMARK    2  A    between atoms: C_11  and  C_5 
ROOT
ATOM      1  C   UNL d   1       0.063  -0.971   0.017  0.00  0.00     0.071 A 
ATOM      2  N   UNL d   1      -1.673   0.511   0.069  0.00  0.00    -0.256 N 
ATOM      3  HN  UNL d   1      -2.611   0.913   0.073  1.00  0.00     0.195 HD
ATOM      4  C   UNL d   1       0.728  -2.125  -0.116  0.00  0.00     0.035 C 
ATOM      5  C   UNL d   1      -1.380  -0.758   0.078  0.00  0.00     0.081 A 
ATOM      6  C   UNL d   1       0.640   0.382   0.048  0.00  0.00     0.317 A 
ATOM      7  O   UNL d   1      -0.435   1.242   0.050  0.00  0.00    -0.194 OA
ATOM      8  O   UNL d   1       1.816   0.696   0.040  0.00  0.00    -0.257 OA
ENDROOT
BRANCH   4   9
ATOM      9  C   UNL d   1       2.193  -2.280  -0.118  0.00  0.00     0.008 A 
ATOM     10  C   UNL d   1       2.912  -2.364   1.089  0.00  0.00     0.046 A 
ATOM     11 CL   UNL d   1       2.121  -2.268   2.627  0.00  0.00    -0.083 Cl
ATOM     12  C   UNL d   1       4.296  -2.565   1.088  0.00  0.00     0.025 A 
ATOM     13  C   UNL d   1       4.983  -2.686  -0.117  0.00  0.00     0.003 A 
ATOM     14  C   UNL d   1       4.289  -2.604  -1.323  0.00  0.00     0.025 A 
ATOM     15  C   UNL d   1       2.905  -2.401  -1.326  0.00  0.00     0.046 A 
ATOM     16 CL   UNL d   1       2.107  -2.337  -2.861  0.00  0.00    -0.083 Cl
ENDBRANCH   4   9
BRANCH   5  17
ATOM     17  C   UNL d   1      -2.395  -1.823   0.132  0.00  0.00    -0.006 A 
ATOM     18  C   UNL d   1      -3.605  -1.625  -0.544  0.00  0.00     0.014 A 
ATOM     19  C   UNL d   1      -4.571  -2.633  -0.558  0.00  0.00     0.001 A 
ATOM     20  C   UNL d   1      -4.335  -3.838   0.105  0.00  0.00     0.000 A 
ATOM     21  C   UNL d   1      -3.152  -4.020   0.817  0.00  0.00     0.001 A 
ATOM     22  C   UNL d   1      -2.193  -3.006   0.851  0.00  0.00     0.014 A 
ENDBRANCH   5  17
TORSDOF 2
