REMARK  2 active torsions:
REMARK  status: ('A' for Active; 'I' for Inactive)
REMARK    1  A    between atoms: O_3  and  C_1 
REMARK    2  A    between atoms: C_6  and  O_3 
REMARK       I    between atoms: N_9  and  C_6 
ROOT
ATOM      1  C   UNL d   1       1.493  -1.018   0.181  0.00  0.00     0.186 A 
ATOM      2  C   UNL d   1       0.099  -0.782   0.116  0.00  0.00     0.053 A 
ATOM      3  N   UNL d   1       2.200   0.108   0.325  0.00  0.00    -0.237 N 
ATOM      4  HN  UNL d   1       3.209   0.196   0.445  1.00  0.00     0.197 HD
ATOM      5  O   UNL d   1       1.264   1.131   0.275  0.00  0.00    -0.235 OA
ATOM      6  C   UNL d   1       0.017   0.601   0.156  0.00  0.00     0.113 A 
ATOM      7  C   UNL d   1      -1.100  -1.518   0.048  0.00  0.00     0.025 A 
ATOM      8  C   UNL d   1      -1.173   1.323   0.096  0.00  0.00     0.041 A 
ATOM      9  C   UNL d   1      -2.329  -0.830  -0.000  0.00  0.00    -0.061 A 
ATOM     10  C   UNL d   1      -2.351   0.574   0.013  0.00  0.00     0.009 A 
ATOM     11  C   UNL d   1      -3.623  -1.591  -0.052  0.00  0.00     0.048 C 
ENDROOT
BRANCH   1  12
ATOM     12  O   UNL d   1       2.217  -2.154   0.233  0.00  0.00    -0.241 OA
BRANCH  12  13
ATOM     13  C   UNL d   1       1.887  -3.189  -0.587  0.00  0.00     0.368 C 
ATOM     14  N   UNL d   1       2.720  -4.294  -0.418  0.00  0.00    -0.336 N 
ATOM     15  C   UNL d   1       3.951  -4.246   0.353  0.00  0.00     0.154 C 
ATOM     16  C   UNL d   1       2.559  -5.418  -1.322  0.00  0.00     0.154 C 
ATOM     17  O   UNL d   1       0.975  -3.175  -1.409  0.00  0.00    -0.238 OA
ENDBRANCH  12  13
ENDBRANCH   1  12
TORSDOF 2
