REMARK  7 active torsions:
REMARK  status: ('A' for Active; 'I' for Inactive)
REMARK    1  A    between atoms: N_2  and  C_1 
REMARK    2  A    between atoms: O_15  and  C_4 
REMARK    3  A    between atoms: S_10  and  C_6 
REMARK    4  A    between atoms: O_17  and  C_7 
REMARK    5  A    between atoms: C_8  and  C_14 
REMARK       I    between atoms: N_13  and  C_8 
REMARK    6  A    between atoms: C_14  and  S_10 
REMARK    7  A    between atoms: N_16  and  N_13 
ROOT
ATOM      1  C   UNL d   1       1.442  -0.313   0.094  0.00  0.00     0.138 A 
ATOM      2  C   UNL d   1       0.566  -1.415   0.064  0.00  0.00     0.077 A 
ATOM      3  C   UNL d   1       0.972   0.995   0.017  0.00  0.00     0.102 A 
ATOM      4  C   UNL d   1      -0.416   1.175  -0.053  0.00  0.00     0.060 A 
ATOM      5  C   UNL d   1      -1.322   0.093  -0.068  0.00  0.00     0.037 A 
ATOM      6  C   UNL d   1      -0.817  -1.219  -0.022  0.00  0.00     0.087 A 
ENDROOT
BRANCH   5   7
ATOM      7  S   UNL d   1      -3.052   0.570  -0.221  0.00  0.00    -0.118 SA
BRANCH   7   8
ATOM      8  C   UNL d   1      -3.975  -0.673   0.750  0.00  0.00     0.183 C 
BRANCH   8   9
ATOM      9  C   UNL d   1      -3.539  -0.799   2.199  0.00  0.00     0.241 C 
ATOM     10  O   UNL d   1      -3.637  -1.858   2.822  0.00  0.00    -0.271 OA
ATOM     11  N   UNL d   1      -3.156   0.387   2.813  0.00  0.00    -0.293 N 
ATOM     12  H   UNL d   1      -2.889   1.171   2.215  0.00  0.00     0.183 HD
BRANCH  11  13
ATOM     13  N   UNL d   1      -2.706   0.363   4.150  0.00  0.00    -0.247 NA
ATOM     14  H   UNL d   1      -2.716  -0.623   4.449  0.00  0.00     0.143 HD
ATOM     15  H   UNL d   1      -3.425   0.804   4.729  0.00  0.00     0.143 HD
ENDBRANCH  11  13
ENDBRANCH   8   9
ENDBRANCH   7   8
ENDBRANCH   5   7
BRANCH   6  16
ATOM     16  O   UNL d   1      -1.719  -2.243  -0.092  0.00  0.00    -0.355 OA
ATOM     17  C   UNL d   1      -1.248  -3.576   0.077  0.00  0.00     0.210 C 
ENDBRANCH   6  16
BRANCH   3  18
ATOM     18  O   UNL d   1       1.661   2.172   0.048  0.00  0.00    -0.353 OA
ATOM     19  C   UNL d   1       2.925   2.246  -0.603  0.00  0.00     0.210 C 
ENDBRANCH   3  18
BRANCH   1  20
ATOM     20  N   UNL d   1       2.845  -0.624   0.258  0.00  0.00    -0.113 N 
ATOM     21  O   UNL d   1       3.365  -1.333  -0.612  0.00  0.00    -0.532 OA
ATOM     22  O   UNL d   1       3.414  -0.190   1.267  0.00  0.00    -0.532 OA
ENDBRANCH   1  20
TORSDOF 7
