REMARK  9 active torsions:
REMARK  status: ('A' for Active; 'I' for Inactive)
REMARK    1  A    between atoms: N_3  and  S_1 
REMARK    2  A    between atoms: C_7  and  S_1 
REMARK    3  A    between atoms: S_2  and  N_4 
REMARK    4  A    between atoms: C_8  and  S_2 
REMARK       I    between atoms: C_5  and  N_3 
REMARK       I    between atoms: N_4  and  C_6 
REMARK    5  A    between atoms: O_9  and  C_5 
REMARK       I    between atoms: C_6  and  N_14 
REMARK    6  A    between atoms: C_15  and  O_9 
REMARK    7  A    between atoms: N_14  and  C_18 
REMARK    8  A    between atoms: C_18  and  C_15 
REMARK    9  A    between atoms: C_23  and  C_15 
ROOT
ATOM      1  C   UNL d   1       2.108   2.172  -0.560  0.00  0.00     0.184 C 
ENDROOT
BRANCH   1   2
ATOM      2  O   UNL d   1       1.433   2.195  -1.835  0.00  0.00    -0.291 OA
BRANCH   2   3
ATOM      3  C   UNL d   1       0.232   2.823  -1.837  0.00  0.00     0.375 C 
ATOM      4  N   UNL d   1      -0.312   2.868  -3.110  0.00  0.00    -0.226 N 
ATOM      5  H   UNL d   1       0.266   2.634  -3.906  0.00  0.00     0.184 HD
ATOM      6  O   UNL d   1      -0.299   3.298  -0.848  0.00  0.00    -0.237 OA
BRANCH   4   7
ATOM      7  S   UNL d   1      -1.782   3.541  -3.470  0.00  0.00     0.267 S 
ATOM      8  O   UNL d   1      -2.806   2.804  -2.764  0.00  0.00    -0.200 OA
ATOM      9  O   UNL d   1      -1.822   3.676  -4.912  0.00  0.00    -0.200 OA
BRANCH   7  10
ATOM     10  C   UNL d   1      -1.648   5.169  -2.787  0.00  0.00     0.080 A 
ATOM     11  C   UNL d   1      -0.759   6.072  -3.372  0.00  0.00     0.026 A 
ATOM     12  C   UNL d   1      -0.503   7.285  -2.735  0.00  0.00     0.008 A 
ATOM     13  C   UNL d   1      -1.137   7.597  -1.524  0.00  0.00    -0.062 A 
ATOM     14  C   UNL d   1      -2.082   6.712  -0.989  0.00  0.00     0.008 A 
ATOM     15  C   UNL d   1      -0.773   8.861  -0.803  0.00  0.00     0.048 C 
ATOM     16  C   UNL d   1      -2.345   5.497  -1.621  0.00  0.00     0.026 A 
ENDBRANCH   7  10
ENDBRANCH   4   7
ENDBRANCH   2   3
ENDBRANCH   1   2
BRANCH   1  17
ATOM     17  C   UNL d   1       3.157   3.304  -0.545  0.00  0.00     0.162 C 
BRANCH  17  18
ATOM     18  N   UNL d   1       4.101   3.231  -1.653  0.00  0.00    -0.340 N 
ATOM     19  C   UNL d   1       4.106   4.141  -2.669  0.00  0.00     0.329 C 
ATOM     20  N   UNL d   1       5.099   3.884  -3.598  0.00  0.00    -0.232 N 
ATOM     21  O   UNL d   1       3.314   5.062  -2.764  0.00  0.00    -0.246 OA
ATOM     22  H   UNL d   1       5.709   3.082  -3.521  0.00  0.00     0.183 HD
ATOM     23  H   UNL d   1       4.759   2.468  -1.666  0.00  0.00     0.164 HD
BRANCH  20  24
ATOM     24  S   UNL d   1       5.484   4.868  -4.878  0.00  0.00     0.266 S 
ATOM     25  O   UNL d   1       5.649   6.227  -4.416  0.00  0.00    -0.200 OA
ATOM     26  O   UNL d   1       6.569   4.185  -5.562  0.00  0.00    -0.200 OA
BRANCH  24  27
ATOM     27  C   UNL d   1       4.056   4.769  -5.925  0.00  0.00     0.080 A 
ATOM     28  C   UNL d   1       3.086   5.771  -5.869  0.00  0.00     0.026 A 
ATOM     29  C   UNL d   1       1.985   5.712  -6.725  0.00  0.00     0.008 A 
ATOM     30  C   UNL d   1       1.853   4.659  -7.641  0.00  0.00    -0.062 A 
ATOM     31  C   UNL d   1       2.845   3.672  -7.702  0.00  0.00     0.008 A 
ATOM     32  C   UNL d   1       0.670   4.619  -8.565  0.00  0.00     0.048 C 
ATOM     33  C   UNL d   1       3.949   3.726  -6.848  0.00  0.00     0.026 A 
ENDBRANCH  24  27
ENDBRANCH  20  24
ENDBRANCH  17  18
ENDBRANCH   1  17
BRANCH   1  34
ATOM     34  C   UNL d   1       2.685   0.792  -0.265  0.00  0.00    -0.027 A 
ATOM     35  C   UNL d   1       2.622  -0.264  -1.187  0.00  0.00     0.010 A 
ATOM     36  C   UNL d   1       3.036  -1.550  -0.828  0.00  0.00     0.001 A 
ATOM     37  C   UNL d   1       3.526  -1.798   0.452  0.00  0.00     0.000 A 
ATOM     38  C   UNL d   1       3.621  -0.758   1.372  0.00  0.00     0.001 A 
ATOM     39  C   UNL d   1       3.204   0.526   1.016  0.00  0.00     0.010 A 
ENDBRANCH   1  34
TORSDOF 9
