REMARK  4 active torsions:
REMARK  status: ('A' for Active; 'I' for Inactive)
REMARK    1  A    between atoms: N_8  and  S_1 
REMARK    2  A    between atoms: C_12  and  S_1 
REMARK    3  A    between atoms: C_2  and  C_7 
REMARK    4  A    between atoms: C_10  and  N_8 
ROOT
ATOM      1  C   UNL d   1       2.274  -0.776  -2.912  0.00  0.00     0.031 A 
ATOM      2  C   UNL d   1       0.978  -1.041  -2.418  0.00  0.00     0.036 A 
ATOM      3  C   UNL d   1       2.478  -0.737  -4.301  0.00  0.00     0.017 A 
ATOM      4  C   UNL d   1      -0.074  -1.283  -3.306  0.00  0.00     0.025 A 
ATOM      5  C   UNL d   1       1.416  -0.956  -5.181  0.00  0.00     0.001 A 
ATOM      6  C   UNL d   1       0.145  -1.231  -4.684  0.00  0.00     0.002 A 
ENDROOT
BRANCH   2   7
ATOM      7  N   UNL d   1       0.715  -1.143  -0.993  0.00  0.00    -0.180 NA
ATOM      8  H   UNL d   1       1.446  -0.603  -0.500  0.00  0.00     0.146 HD
BRANCH   7   9
ATOM      9  S   UNL d   1       0.797  -2.739  -0.392  0.00  0.00     0.245 S 
ATOM     10  O   UNL d   1       2.168  -3.199  -0.458  0.00  0.00    -0.206 OA
ATOM     11  O   UNL d   1      -0.289  -3.511  -0.958  0.00  0.00    -0.206 OA
BRANCH   9  12
ATOM     12  C   UNL d   1       0.422  -2.482   1.335  0.00  0.00     0.074 A 
ATOM     13  C   UNL d   1      -0.902  -2.575   1.775  0.00  0.00     0.026 A 
ATOM     14  C   UNL d   1      -1.185  -2.474   3.140  0.00  0.00     0.025 A 
ATOM     15  C   UNL d   1      -0.146  -2.286   4.054  0.00  0.00     0.034 A 
ATOM     16  C   UNL d   1       1.176  -2.194   3.616  0.00  0.00     0.025 A 
ATOM     17 CL   UNL d   1      -0.496  -2.188   5.736  0.00  0.00    -0.084 Cl
ATOM     18  C   UNL d   1       1.465  -2.298   2.252  0.00  0.00     0.026 A 
ENDBRANCH   9  12
ENDBRANCH   7   9
ENDBRANCH   2   7
BRANCH   1  19
ATOM     19  C   UNL d   1       3.409  -0.571  -2.018  0.00  0.00     0.133 A 
ATOM     20  N   UNL d   1       4.714  -0.775  -2.410  0.00  0.00    -0.336 N 
ATOM     21  C   UNL d   1       5.392  -0.657  -1.294  0.00  0.00     0.201 A 
ATOM     22  HN  UNL d   1       5.068  -0.970  -3.346  1.00  0.00     0.168 HD
ATOM     23  N   UNL d   1       4.544  -0.344  -0.284  0.00  0.00    -0.290 N 
ATOM     24  N   UNL d   1       3.278  -0.236  -0.718  0.00  0.00    -0.282 N 
ATOM     25  C   UNL d   1       4.853  -0.215   1.114  0.00  0.00     0.178 C 
ATOM     26  HN  UNL d   1       2.439   0.030  -0.202  1.00  0.00     0.189 HD
ENDBRANCH   1  19
TORSDOF 4
