REMARK  5 active torsions:
REMARK  status: ('A' for Active; 'I' for Inactive)
REMARK    1  A    between atoms: C_6  and  C_1 
REMARK    2  A    between atoms: C_5  and  C_2 
REMARK    3  A    between atoms: O_9  and  C_5 
REMARK    4  A    between atoms: C_16  and  O_9 
REMARK    5  A    between atoms: C_17  and  C_13 
ROOT
ATOM      1  C   UNL d   1       2.152  -3.178   2.142  0.00  0.00     0.087 C 
ATOM      2  C   UNL d   1       1.390  -3.599   0.991  0.00  0.00     0.100 C 
ATOM      3  N   UNL d   1       3.263  -2.542   1.734  0.00  0.00    -0.259 N 
ATOM      4  HN  UNL d   1       3.924  -2.036   2.324  1.00  0.00     0.195 HD
ATOM      5  O   UNL d   1       3.340  -2.701   0.377  0.00  0.00    -0.241 OA
ATOM      6  C   UNL d   1       2.244  -3.356  -0.070  0.00  0.00     0.091 C 
ATOM      7  C   UNL d   1       2.268  -3.692  -1.504  0.00  0.00     0.080 C 
ENDROOT
BRANCH   2   8
ATOM      8  C   UNL d   1       0.070  -4.198   0.893  0.00  0.00     0.303 C 
ATOM      9  O   UNL d   1      -0.364  -5.013   1.700  0.00  0.00    -0.259 OA
BRANCH   8  10
ATOM     10  O   UNL d   1      -0.674  -3.664  -0.184  0.00  0.00    -0.275 OA
BRANCH  10  11
ATOM     11  C   UNL d   1      -2.086  -3.681  -0.409  0.00  0.00     0.079 A 
ATOM     12  C   UNL d   1      -3.003  -4.304   0.422  0.00  0.00     0.038 A 
ATOM     13  C   UNL d   1      -4.380  -4.114   0.197  0.00  0.00     0.010 A 
ATOM     14  C   UNL d   1      -4.870  -3.303  -0.853  0.00  0.00    -0.054 A 
ATOM     15  C   UNL d   1      -3.919  -2.738  -1.713  0.00  0.00     0.010 A 
ATOM     16  C   UNL d   1      -2.541  -2.926  -1.496  0.00  0.00     0.038 A 
BRANCH  14  17
ATOM     17  C   UNL d   1      -6.369  -2.971  -0.883  0.00  0.00     0.018 C 
ATOM     18  C   UNL d   1      -7.282  -4.178  -1.177  0.00  0.00     0.009 C 
ATOM     19  C   UNL d   1      -7.481  -4.445  -2.665  0.00  0.00     0.001 C 
ATOM     20  C   UNL d   1      -8.039  -3.221  -3.380  0.00  0.00     0.000 C 
ATOM     21  C   UNL d   1      -7.155  -1.998  -3.169  0.00  0.00     0.001 C 
ATOM     22  C   UNL d   1      -6.829  -1.738  -1.697  0.00  0.00     0.009 C 
ENDBRANCH  14  17
ENDBRANCH  10  11
ENDBRANCH   8  10
ENDBRANCH   2   8
BRANCH   1  23
ATOM     23  C   UNL d   1       1.905  -3.327   3.589  0.00  0.00     0.037 A 
ATOM     24  C   UNL d   1       2.934  -3.771   4.462  0.00  0.00     0.048 A 
ATOM     25 CL   UNL d   1       4.550  -4.149   3.945  0.00  0.00    -0.083 Cl
ATOM     26  C   UNL d   1       2.702  -3.955   5.835  0.00  0.00     0.025 A 
ATOM     27  C   UNL d   1       1.440  -3.736   6.368  0.00  0.00     0.003 A 
ATOM     28  C   UNL d   1       0.424  -3.271   5.540  0.00  0.00     0.025 A 
ATOM     29  C   UNL d   1       0.661  -3.029   4.176  0.00  0.00     0.048 A 
ATOM     30 CL   UNL d   1      -0.626  -2.243   3.322  0.00  0.00    -0.083 Cl
ENDBRANCH   1  23
TORSDOF 5
