REMARK  5 active torsions:
REMARK  status: ('A' for Active; 'I' for Inactive)
REMARK    1  A    between atoms: C_7  and  N_1 
REMARK    2  A    between atoms: C_10  and  N_3 
REMARK    3  A    between atoms: N_14  and  C_4 
REMARK    4  A    between atoms: C_9  and  C_8 
REMARK    5  A    between atoms: C_11  and  C_10 
ROOT
ATOM      1  N   UNL d   1      -0.599   1.254   0.008  0.00  0.00    -0.253 N 
ATOM      2  C   UNL d   1      -1.377   0.076   0.022  0.00  0.00     0.338 A 
ATOM      3  N   UNL d   1      -0.695  -1.129  -0.054  0.00  0.00    -0.261 N 
ATOM      4  C   UNL d   1       0.792   1.225  -0.122  0.00  0.00     0.094 A 
ATOM      5  C   UNL d   1       0.677  -1.223  -0.095  0.00  0.00     0.254 A 
ATOM      6  C   UNL d   1       1.413   0.042  -0.156  0.00  0.00     0.117 A 
ATOM      7  O   UNL d   1      -2.614   0.111   0.095  0.00  0.00    -0.246 OA
ATOM      8  O   UNL d   1       1.319  -2.270  -0.072  0.00  0.00    -0.268 OA
ENDROOT
BRANCH   1   9
ATOM      9  C   UNL d   1      -1.321   2.499   0.055  0.00  0.00     0.060 A 
ATOM     10  C   UNL d   1      -2.154   2.857   1.136  0.00  0.00     0.075 A 
ATOM     11  C   UNL d   1      -2.858   4.081   1.070  0.00  0.00     0.018 A 
ATOM     12  C   UNL d   1      -2.734   4.935  -0.025  0.00  0.00     0.001 A 
ATOM     13  C   UNL d   1      -1.899   4.586  -1.080  0.00  0.00     0.002 A 
ATOM     14  C   UNL d   1      -1.197   3.381  -1.036  0.00  0.00     0.031 A 
BRANCH  10  15
ATOM     15  C   UNL d   1      -2.303   2.054   2.407  0.00  0.00     0.419 C 
ATOM     16  F   UNL d   1      -1.520   0.944   2.510  0.00  0.00    -0.166 F 
ATOM     17  F   UNL d   1      -1.973   2.803   3.504  0.00  0.00    -0.166 F 
ATOM     18  F   UNL d   1      -3.582   1.642   2.629  0.00  0.00    -0.166 F 
ENDBRANCH  10  15
ENDBRANCH   1   9
BRANCH   4  19
ATOM     19  N   UNL d   1       1.562   2.379  -0.162  0.00  0.00    -0.288 NA
ATOM     20  H   UNL d   1       1.130   3.172   0.303  0.00  0.00     0.125 HD
ATOM     21  H   UNL d   1       2.531   2.251   0.124  0.00  0.00     0.125 HD
ENDBRANCH   4  19
BRANCH   3  22
ATOM     22  C   UNL d   1      -1.461  -2.375  -0.030  0.00  0.00     0.178 C 
BRANCH  22  23
ATOM     23  C   UNL d   1      -1.793  -2.893  -1.413  0.00  0.00    -0.001 A 
ATOM     24  C   UNL d   1      -1.319  -4.140  -1.834  0.00  0.00     0.124 A 
ATOM     25  F   UNL d   1      -0.634  -4.920  -0.987  0.00  0.00    -0.205 F 
ATOM     26  C   UNL d   1      -1.548  -4.608  -3.127  0.00  0.00     0.043 A 
ATOM     27  C   UNL d   1      -2.283  -3.835  -4.022  0.00  0.00     0.003 A 
ATOM     28  C   UNL d   1      -2.816  -2.617  -3.606  0.00  0.00     0.001 A 
ATOM     29  C   UNL d   1      -2.581  -2.153  -2.308  0.00  0.00     0.012 A 
ENDBRANCH  22  23
ENDBRANCH   3  22
TORSDOF 5
