REMARK  5 active torsions:
REMARK  status: ('A' for Active; 'I' for Inactive)
REMARK    1  A    between atoms: C_11  and  C_3 
REMARK    2  A    between atoms: C_10  and  C_4 
REMARK    3  A    between atoms: C_8  and  N_6 
REMARK    4  A    between atoms: N_9  and  C_10 
REMARK    5  A    between atoms: O_17  and  C_14 
ROOT
ATOM      1  N   UNL d   1      -3.478   0.144  -0.118  0.00  0.00    -0.375 N 
ATOM      2  N   UNL d   1      -1.998  -2.427   0.060  0.00  0.00     0.097 N 
ATOM      3  C   UNL d   1      -2.607  -0.259  -1.225  0.00  0.00     0.153 C 
ATOM      4  C   UNL d   1      -3.005  -0.325   1.198  0.00  0.00     0.153 C 
ATOM      5  C   UNL d   1      -2.796  -1.865   1.179  0.00  0.00     0.292 C 
ATOM      6  C   UNL d   1      -2.464  -1.809  -1.212  0.00  0.00     0.292 C 
ENDROOT
BRANCH   2   7
ATOM      7  C   UNL d   1      -0.551  -2.221   0.228  0.00  0.00     0.330 C 
BRANCH   7   8
ATOM      8  C   UNL d   1       0.044  -3.054   1.330  0.00  0.00     0.054 A 
ATOM      9  N   UNL d   1       0.929  -2.473   2.216  0.00  0.00    -0.343 N 
ATOM     10  C   UNL d   1       1.429  -3.442   2.966  0.00  0.00     0.115 A 
ATOM     11  HN  UNL d   1       1.156  -1.480   2.281  1.00  0.00     0.167 HD
ATOM     12  N   UNL d   1       0.815  -4.629   2.642  0.00  0.00    -0.350 N 
ATOM     13  C   UNL d   1      -0.040  -4.407   1.595  0.00  0.00     0.116 A 
ATOM     14  H   UNL d   1       1.006  -5.527   3.069  0.00  0.00     0.166 HD
BRANCH  10  15
ATOM     15  C   UNL d   1       2.510  -3.270   3.948  0.00  0.00     0.008 A 
ATOM     16  C   UNL d   1       2.947  -1.967   4.239  0.00  0.00     0.015 A 
ATOM     17  C   UNL d   1       4.017  -1.735   5.106  0.00  0.00     0.001 A 
ATOM     18  C   UNL d   1       4.671  -2.810   5.700  0.00  0.00     0.000 A 
ATOM     19  C   UNL d   1       4.244  -4.111   5.436  0.00  0.00     0.001 A 
ATOM     20  C   UNL d   1       3.169  -4.342   4.568  0.00  0.00     0.015 A 
ENDBRANCH  10  15
ENDBRANCH   7   8
ENDBRANCH   2   7
BRANCH   1  21
ATOM     21  C   UNL d   1      -4.220   1.328  -0.164  0.00  0.00     0.064 A 
ATOM     22  C   UNL d   1      -3.888   2.500  -0.884  0.00  0.00     0.094 A 
ATOM     23  C   UNL d   1      -4.789   3.587  -0.922  0.00  0.00     0.039 A 
ATOM     24  C   UNL d   1      -5.997   3.549  -0.229  0.00  0.00     0.003 A 
ATOM     25  C   UNL d   1      -6.325   2.423   0.507  0.00  0.00     0.002 A 
ATOM     26  C   UNL d   1      -5.451   1.335   0.531  0.00  0.00     0.032 A 
BRANCH  22  27
ATOM     27  O   UNL d   1      -2.675   2.547  -1.538  0.00  0.00    -0.354 OA
ATOM     28  C   UNL d   1      -2.162   3.848  -1.821  0.00  0.00     0.210 C 
ENDBRANCH  22  27
ENDBRANCH   1  21
TORSDOF 5
