REMARK  2 active torsions:
REMARK  status: ('A' for Active; 'I' for Inactive)
REMARK    1  A    between atoms: C_2  and  S_1 
REMARK    2  A    between atoms: N_3  and  S_1 
ROOT
ATOM      1  S   UNL d   1       1.020   0.033   0.030  0.00  0.00     0.248 S 
ATOM      2  O   UNL d   1      -0.136   0.430   0.801  0.00  0.00    -0.206 OA
ATOM      3  O   UNL d   1       2.137  -0.659   0.641  0.00  0.00    -0.206 OA
ENDROOT
BRANCH   1   4
ATOM      4  C   UNL d   1       1.727   1.508  -0.446  0.00  0.00     0.130 A 
ATOM      5  C   UNL d   1       2.182   2.488   0.408  0.00  0.00     0.097 A 
ATOM      6  O   UNL d   1       2.710   3.501  -0.327  0.00  0.00    -0.241 OA
ATOM      7  C   UNL d   1       2.247   2.654   1.873  0.00  0.00     0.081 C 
ATOM      8  N   UNL d   1       2.647   3.179  -1.668  0.00  0.00    -0.264 N 
ATOM      9  C   UNL d   1       2.085   1.962  -1.732  0.00  0.00     0.054 A 
ATOM     10  HN  UNL d   1       2.965   3.750  -2.452  1.00  0.00     0.194 HD
ATOM     11  C   UNL d   1       1.959   1.301  -3.049  0.00  0.00     0.072 C 
ENDBRANCH   1   4
BRANCH   1  12
ATOM     12  N   UNL d   1       0.483  -0.894  -1.324  0.00  0.00    -0.206 NA
ATOM     13  C   UNL d   1      -0.903  -0.543  -1.772  0.00  0.00     0.113 C 
ATOM     14  C   UNL d   1      -1.269  -1.321  -3.030  0.00  0.00     0.084 C 
ATOM     15  C   UNL d   1      -1.154  -2.825  -2.792  0.00  0.00     0.166 C 
ATOM     16  C   UNL d   1       0.255  -3.163  -2.324  0.00  0.00     0.084 C 
ATOM     17  O   UNL d   1      -1.437  -3.509  -4.024  0.00  0.00    -0.353 OA
ATOM     18  O   UNL d   1      -2.100  -3.244  -1.793  0.00  0.00    -0.353 OA
ATOM     19  C   UNL d   1       0.621  -2.366  -1.079  0.00  0.00     0.113 C 
ATOM     20  C   UNL d   1      -2.443  -4.471  -3.705  0.00  0.00     0.197 C 
ATOM     21  C   UNL d   1      -3.152  -3.873  -2.522  0.00  0.00     0.197 C 
ENDBRANCH   1  12
TORSDOF 2
