REMARK  1 active torsions:
REMARK  status: ('A' for Active; 'I' for Inactive)
REMARK    1  A    between atoms: C_11  and  C_5 
ROOT
ATOM      1  N   UNL d   1      -0.292  -0.655   0.011  0.00  0.00    -0.239 N 
ATOM      2  C   UNL d   1      -0.250   0.747  -0.005  0.00  0.00     0.129 A 
ATOM      3  N   UNL d   1      -1.578  -1.105   0.013  0.00  0.00    -0.296 N 
ATOM      4  HN  UNL d   1      -1.896  -2.074   0.023  1.00  0.00     0.187 HD
ATOM      5  C   UNL d   1       0.901  -1.400   0.018  0.00  0.00     0.070 A 
ATOM      6  C   UNL d   1      -1.556   1.172  -0.011  0.00  0.00     0.076 A 
ATOM      7  N   UNL d   1       0.924   1.448  -0.011  0.00  0.00    -0.351 N 
ATOM      8  HN  UNL d   1       0.948   2.467  -0.021  1.00  0.00     0.166 HD
ATOM      9  C   UNL d   1      -2.333  -0.002   0.001  0.00  0.00     0.026 A 
ATOM     10  C   UNL d   1       2.082  -0.753   0.011  0.00  0.00     0.049 A 
ATOM     11  C   UNL d   1       2.006   0.731  -0.004  0.00  0.00     0.092 A 
ATOM     12  C   UNL d   1      -3.813  -0.096   0.001  0.00  0.00     0.070 C 
ENDROOT
BRANCH   5  13
ATOM     13  C   UNL d   1       0.904  -2.870   0.029  0.00  0.00    -0.007 A 
ATOM     14  C   UNL d   1       0.915  -3.571   1.242  0.00  0.00     0.015 A 
ATOM     15  C   UNL d   1       0.944  -4.969   1.249  0.00  0.00     0.024 A 
ATOM     16  C   UNL d   1       0.967  -5.668   0.043  0.00  0.00     0.034 A 
ATOM     17  C   UNL d   1       0.964  -4.982  -1.169  0.00  0.00     0.024 A 
ATOM     18 CL   UNL d   1       1.002  -7.388   0.052  0.00  0.00    -0.084 Cl
ATOM     19  C   UNL d   1       0.931  -3.584  -1.177  0.00  0.00     0.015 A 
ENDBRANCH   5  13
TORSDOF 1
