REMARK  4 active torsions:
REMARK  status: ('A' for Active; 'I' for Inactive)
REMARK    1  A    between atoms: C_1  and  O_7 
REMARK    2  A    between atoms: S_3  and  O_7 
REMARK    3  A    between atoms: C_5  and  C_9 
REMARK    4  A    between atoms: O_21  and  C_16 
ROOT
ATOM      1  C   UNL d   1      -2.252  -0.065  -0.257  0.00  0.00     0.251 C 
ATOM      2  C   UNL d   1      -1.137  -1.029   0.127  0.00  0.00     0.195 C 
ATOM      3  O   UNL d   1      -0.588   1.747  -0.194  0.00  0.00    -0.337 OA
ATOM      4  C   UNL d   1      -1.838   1.283   0.374  0.00  0.00     0.200 C 
ATOM      5  C   UNL d   1       0.234  -0.527  -0.005  0.00  0.00     0.046 A 
ATOM      6  C   UNL d   1       0.433   0.841  -0.139  0.00  0.00     0.083 A 
ATOM      7  O   UNL d   1      -1.307  -2.162   0.562  0.00  0.00    -0.289 OA
ATOM      8  C   UNL d   1       1.316  -1.413   0.040  0.00  0.00     0.018 A 
ATOM      9  C   UNL d   1       1.734   1.334  -0.239  0.00  0.00     0.038 A 
ATOM     10  C   UNL d   1       2.613  -0.917  -0.050  0.00  0.00     0.001 A 
ATOM     11  C   UNL d   1       2.822   0.456  -0.184  0.00  0.00     0.003 A 
ENDROOT
BRANCH   4  12
ATOM     12  C   UNL d   1      -2.788   2.472   0.268  0.00  0.00    -0.026 A 
ATOM     13  C   UNL d   1      -3.964   2.494  -0.493  0.00  0.00     0.012 A 
ATOM     14  C   UNL d   1      -4.802   3.625  -0.496  0.00  0.00     0.037 A 
ATOM     15  C   UNL d   1      -4.471   4.759   0.247  0.00  0.00     0.068 A 
ATOM     16  C   UNL d   1      -3.285   4.761   0.976  0.00  0.00     0.037 A 
ATOM     17  C   UNL d   1      -2.457   3.636   0.989  0.00  0.00     0.012 A 
BRANCH  15  18
ATOM     18  O   UNL d   1      -5.194   5.914   0.338  0.00  0.00    -0.356 OA
ATOM     19  C   UNL d   1      -6.477   5.929  -0.271  0.00  0.00     0.210 C 
ENDBRANCH  15  18
ENDBRANCH   4  12
BRANCH   1  20
ATOM     20  O   UNL d   1      -3.494  -0.544   0.255  0.00  0.00    -0.260 OA
BRANCH  20  21
ATOM     21  S   UNL d   1      -4.260  -1.730  -0.568  0.00  0.00     0.262 S 
ATOM     22  O   UNL d   1      -4.362  -1.325  -1.958  0.00  0.00    -0.199 OA
ATOM     23  O   UNL d   1      -3.763  -3.031  -0.189  0.00  0.00    -0.199 OA
ATOM     24  C   UNL d   1      -5.854  -1.543   0.179  0.00  0.00     0.194 C 
ENDBRANCH  20  21
ENDBRANCH   1  20
TORSDOF 4
