REMARK  6 active torsions:
REMARK  status: ('A' for Active; 'I' for Inactive)
REMARK    1  A    between atoms: N_2  and  C_1 
REMARK    2  A    between atoms: N_4  and  C_1 
REMARK    3  A    between atoms: C_3  and  N_2 
REMARK    4  A    between atoms: O_12  and  C_3 
REMARK    5  A    between atoms: C_11  and  N_4 
REMARK    6  A    between atoms: C_13  and  C_8 
ROOT
ATOM      1  N   UNL d   1       0.301  -0.918   0.681  0.00  0.00    -0.333 N 
ATOM      2  H   UNL d   1       0.709  -0.397  -0.084  0.00  0.00     0.168 HD
ENDROOT
BRANCH   1   3
ATOM      3  C   UNL d   1       1.200  -1.697   1.415  0.00  0.00     0.179 C 
ATOM      4  S   UNL d   1       0.980  -3.320   1.790  0.00  0.00    -0.040 SA
BRANCH   3   5
ATOM      5  N   UNL d   1       2.336  -0.950   1.753  0.00  0.00    -0.299 N 
ATOM      6  H   UNL d   1       2.299   0.030   1.526  0.00  0.00     0.171 HD
BRANCH   5   7
ATOM      7  C   UNL d   1       3.458  -1.264   2.485  0.00  0.00     0.218 C 
ATOM      8  N   UNL d   1       3.729  -2.411   2.988  0.00  0.00    -0.365 N 
ATOM      9  H   UNL d   1       2.968  -3.060   2.754  0.00  0.00     0.159 HD
ATOM     10  HN  UNL d   1       4.562  -2.641   3.530  1.00  0.00     0.159 HD
BRANCH   7  11
ATOM     11  O   UNL d   1       4.268  -0.193   2.634  0.00  0.00    -0.327 OA
ATOM     12  C   UNL d   1       5.448  -0.429   3.414  0.00  0.00     0.213 C 
ENDBRANCH   7  11
ENDBRANCH   5   7
ENDBRANCH   3   5
ENDBRANCH   1   3
BRANCH   1  13
ATOM     13  C   UNL d   1      -1.104  -1.075   0.643  0.00  0.00     0.034 A 
ATOM     14  C   UNL d   1      -1.825  -1.488   1.763  0.00  0.00     0.030 A 
ATOM     15  C   UNL d   1      -3.214  -1.604   1.713  0.00  0.00     0.010 A 
ATOM     16  C   UNL d   1      -3.918  -1.299   0.541  0.00  0.00    -0.055 A 
ATOM     17  C   UNL d   1      -3.192  -0.864  -0.576  0.00  0.00     0.010 A 
ATOM     18  C   UNL d   1      -1.796  -0.736  -0.521  0.00  0.00     0.030 A 
BRANCH  16  19
ATOM     19  C   UNL d   1      -5.433  -1.397   0.492  0.00  0.00     0.010 C 
ATOM     20  C   UNL d   1      -5.926  -2.818   0.781  0.00  0.00     0.015 C 
ATOM     21  C   UNL d   1      -6.074  -0.395   1.457  0.00  0.00     0.015 C 
ENDBRANCH  16  19
ENDBRANCH   1  13
TORSDOF 6
