REMARK  6 active torsions:
REMARK  status: ('A' for Active; 'I' for Inactive)
REMARK    1  A    between atoms: C_6  and  N_1 
REMARK    2  A    between atoms: S_14  and  C_2 
REMARK    3  A    between atoms: C_8  and  C_9 
REMARK    4  A    between atoms: C_11  and  N_12 
REMARK       I    between atoms: N_12  and  C_15 
REMARK    5  A    between atoms: C_26  and  S_14 
REMARK    6  A    between atoms: C_15  and  C_26 
ROOT
ATOM      1  N   UNL d   1       0.963  -0.787  -0.243  0.00  0.00    -0.241 N 
ATOM      2  C   UNL d   1       0.910   0.518  -0.623  0.00  0.00     0.170 A 
ATOM      3  C   UNL d   1      -0.337  -1.119   0.063  0.00  0.00     0.347 A 
ATOM      4  N   UNL d   1      -0.261   1.078  -0.517  0.00  0.00    -0.275 N 
ATOM      5  HN  UNL d   1      -0.518   2.044  -0.718  1.00  0.00     0.189 HD
ATOM      6  N   UNL d   1      -1.062   0.066  -0.076  0.00  0.00    -0.249 N 
ATOM      7  O   UNL d   1      -0.804  -2.190   0.412  0.00  0.00    -0.245 OA
ATOM      8  H   UNL d   1      -2.061   0.165   0.054  0.00  0.00     0.192 HD
ENDROOT
BRANCH   2   9
ATOM      9  S   UNL d   1       2.239   1.364  -1.333  0.00  0.00    -0.083 SA
BRANCH   9  10
ATOM     10  C   UNL d   1       2.181   0.647  -3.005  0.00  0.00     0.185 C 
BRANCH  10  11
ATOM     11  C   UNL d   1       0.971   1.005  -3.861  0.00  0.00     0.231 C 
ATOM     12  N   UNL d   1       0.087   1.933  -3.350  0.00  0.00    -0.326 N 
ATOM     13  H   UNL d   1       0.456   2.530  -2.616  0.00  0.00     0.169 HD
ATOM     14  O   UNL d   1       0.853   0.508  -4.982  0.00  0.00    -0.272 OA
BRANCH  12  15
ATOM     15  C   UNL d   1      -1.055   2.389  -4.039  0.00  0.00     0.049 A 
ATOM     16  C   UNL d   1      -1.966   1.566  -4.722  0.00  0.00     0.074 A 
ATOM     17  C   UNL d   1      -2.982   2.183  -5.488  0.00  0.00     0.018 A 
ATOM     18  C   UNL d   1      -3.123   3.570  -5.528  0.00  0.00     0.001 A 
ATOM     19  C   UNL d   1      -2.272   4.367  -4.775  0.00  0.00     0.002 A 
ATOM     20  C   UNL d   1      -1.254   3.779  -4.023  0.00  0.00     0.030 A 
BRANCH  16  21
ATOM     21  C   UNL d   1      -2.033   0.060  -4.606  0.00  0.00     0.419 C 
ATOM     22  F   UNL d   1      -1.218  -0.514  -3.675  0.00  0.00    -0.166 F 
ATOM     23  F   UNL d   1      -3.292  -0.341  -4.233  0.00  0.00    -0.166 F 
ATOM     24  F   UNL d   1      -1.801  -0.583  -5.784  0.00  0.00    -0.166 F 
ENDBRANCH  16  21
ENDBRANCH  12  15
ENDBRANCH  10  11
ENDBRANCH   9  10
ENDBRANCH   2   9
BRANCH   1  25
ATOM     25  C   UNL d   1       2.056  -1.665  -0.195  0.00  0.00     0.049 A 
ATOM     26  C   UNL d   1       1.994  -2.876  -0.887  0.00  0.00     0.069 A 
ATOM     27  C   UNL d   1       3.111  -3.710  -0.927  0.00  0.00     0.104 A 
ATOM     28  O   UNL d   1       3.004  -4.834  -1.705  0.00  0.00    -0.346 OA
ATOM     29  C   UNL d   1       4.273  -3.363  -0.234  0.00  0.00     0.102 A 
ATOM     30  C   UNL d   1       4.086  -5.743  -1.479  0.00  0.00     0.202 C 
ATOM     31  C   UNL d   1       5.411  -5.003  -1.393  0.00  0.00     0.202 C 
ATOM     32  O   UNL d   1       5.418  -4.117  -0.267  0.00  0.00    -0.346 OA
ATOM     33  C   UNL d   1       4.309  -2.199   0.529  0.00  0.00     0.042 A 
ATOM     34  C   UNL d   1       3.211  -1.335   0.528  0.00  0.00     0.033 A 
ENDBRANCH   1  25
TORSDOF 6
