REMARK  4 active torsions:
REMARK  status: ('A' for Active; 'I' for Inactive)
REMARK    1  A    between atoms: N_2  and  C_1 
REMARK    2  A    between atoms: N_3  and  C_1 
REMARK    3  A    between atoms: C_5  and  N_2 
REMARK    4  A    between atoms: N_6  and  N_3 
ROOT
ATOM      1  C   UNL d   1       0.074  -1.164  -0.257  0.00  0.00     0.184 C 
ATOM      2  S   UNL d   1      -0.465  -2.722  -0.551  0.00  0.00    -0.040 SA
ENDROOT
BRANCH   1   3
ATOM      3  N   UNL d   1       0.620  -0.724   0.947  0.00  0.00    -0.358 N 
ATOM      4  H   UNL d   1       0.409   0.249   1.103  0.00  0.00     0.162 HD
BRANCH   3   5
ATOM      5  C   UNL d   1       1.072  -1.456   2.155  0.00  0.00     0.021 C 
ATOM      6  C   UNL d   1       2.035  -2.607   1.817  0.00  0.00     0.037 C 
ATOM      7  C   UNL d   1       1.867  -0.448   3.016  0.00  0.00     0.037 C 
ATOM      8  C   UNL d   1      -0.113  -1.963   2.989  0.00  0.00     0.037 C 
ENDBRANCH   3   5
ENDBRANCH   1   3
BRANCH   1   9
ATOM      9  N   UNL d   1       0.062  -0.125  -1.227  0.00  0.00    -0.296 N 
ATOM     10  C   UNL d   1      -0.228  -0.319  -2.654  0.00  0.00     0.174 C 
BRANCH   9  11
ATOM     11  N   UNL d   1       0.651   1.138  -0.932  0.00  0.00    -0.246 NA
ATOM     12  H   UNL d   1       1.471   0.976  -0.344  0.00  0.00     0.143 HD
ATOM     13  H   UNL d   1      -0.026   1.701  -0.419  0.00  0.00     0.143 HD
ENDBRANCH   9  11
ENDBRANCH   1   9
TORSDOF 4
