REMARK  4 active torsions:
REMARK  status: ('A' for Active; 'I' for Inactive)
REMARK    1  A    between atoms: C_5  and  C_1 
REMARK    2  A    between atoms: N_4  and  C_2 
REMARK       I    between atoms: C_3  and  N_4 
REMARK    3  A    between atoms: C_6  and  C_3 
REMARK    4  A    between atoms: C_14  and  C_5 
ROOT
ATOM      1  C   UNL d   1       1.758   1.229  -0.098  0.00  0.00     0.043 A 
ATOM      2  C   UNL d   1       2.491   0.023   0.008  0.00  0.00     0.051 A 
ATOM      3  C   UNL d   1       1.782  -1.198   0.054  0.00  0.00     0.032 A 
ATOM      4  C   UNL d   1       0.348   1.171  -0.024  0.00  0.00     0.041 A 
ATOM      5  C   UNL d   1      -0.322  -0.048   0.044  0.00  0.00     0.035 A 
ATOM      6  C   UNL d   1       0.389  -1.236   0.059  0.00  0.00     0.026 A 
ATOM      7 CL   UNL d   1      -2.040  -0.078   0.085  0.00  0.00    -0.084 Cl
ENDROOT
BRANCH   2   8
ATOM      8  N   UNL d   1       3.912  -0.087   0.106  0.00  0.00    -0.317 N 
ATOM      9  C   UNL d   1       4.747   0.624   1.005  0.00  0.00     0.265 C 
ATOM     10  O   UNL d   1       5.973   0.593   0.841  0.00  0.00    -0.267 OA
ATOM     11  C   UNL d   1       4.569  -0.822  -0.976  0.00  0.00     0.159 C 
BRANCH   9  12
ATOM     12  C   UNL d   1       4.163   1.301   2.170  0.00  0.00     0.073 A 
ATOM     13  S   UNL d   1       5.026   2.639   2.836  0.00  0.00    -0.097 SA
ATOM     14  C   UNL d   1       3.821   2.936   4.005  0.00  0.00     0.050 A 
ATOM     15  C   UNL d   1       2.802   2.015   3.939  0.00  0.00     0.009 A 
ATOM     16  C   UNL d   1       3.021   1.049   2.912  0.00  0.00     0.025 A 
ENDBRANCH   9  12
ENDBRANCH   2   8
BRANCH   1  17
ATOM     17  C   UNL d   1       2.399   2.559  -0.389  0.00  0.00     0.194 C 
ATOM     18  O   UNL d   1       3.611   2.724  -0.425  0.00  0.00    -0.287 OA
BRANCH  17  19
ATOM     19  C   UNL d   1       1.565   3.731  -0.723  0.00  0.00     0.015 A 
ATOM     20  C   UNL d   1       0.842   3.748  -1.920  0.00  0.00     0.015 A 
ATOM     21  C   UNL d   1       0.005   4.827  -2.205  0.00  0.00     0.001 A 
ATOM     22  C   UNL d   1      -0.091   5.889  -1.305  0.00  0.00     0.000 A 
ATOM     23  C   UNL d   1       0.659   5.885  -0.128  0.00  0.00     0.001 A 
ATOM     24  C   UNL d   1       1.496   4.808   0.167  0.00  0.00     0.015 A 
ENDBRANCH  17  19
ENDBRANCH   1  17
TORSDOF 4
