REMARK  19 active torsions:
REMARK  status: ('A' for Active; 'I' for Inactive)
REMARK    1  A    between atoms: C_3  and  C_1 
REMARK    2  A    between atoms: C_1  and  O_4 
REMARK    3  A    between atoms: C_2  and  C_1 
REMARK    4  A    between atoms: C_2  and  C_8 
REMARK    5  A    between atoms: C_2  and  O_5 
REMARK    6  A    between atoms: O_9  and  C_3 
REMARK    7  A    between atoms: C_6  and  O_4 
REMARK    8  A    between atoms: C_7  and  O_5 
REMARK    9  A    between atoms: C_14  and  C_6 
REMARK   10  A    between atoms: C_13  and  C_7 
REMARK   11  A    between atoms: O_19  and  C_8 
REMARK   12  A    between atoms: C_18  and  O_9 
REMARK   13  A    between atoms: N_16  and  C_20 
REMARK   14  A    between atoms: C_17  and  N_16 
REMARK   15  A    between atoms: C_23  and  C_18 
REMARK   16  A    between atoms: C_18  and  C_20 
REMARK   17  A    between atoms: O_21  and  C_23 
REMARK   18  A    between atoms: C_24  and  O_21 
REMARK   19  A    between atoms: C_22  and  C_24 
ROOT
ATOM      1  C   UNL d   1       4.102  -3.450   1.773  0.00  0.00     0.271 C 
ENDROOT
BRANCH   1   2
ATOM      2  C   UNL d   1       3.652  -2.476   2.885  0.00  0.00     0.292 C 
ATOM      3  O   UNL d   1       4.413  -1.799   3.568  0.00  0.00    -0.262 OA
BRANCH   2   4
ATOM      4  O   UNL d   1       2.299  -2.310   2.873  0.00  0.00    -0.310 OA
BRANCH   4   5
ATOM      5  C   UNL d   1       1.770  -1.014   3.295  0.00  0.00     0.183 C 
BRANCH   5   6
ATOM      6  C   UNL d   1       1.236  -0.334   2.013  0.00  0.00     0.202 C 
BRANCH   6   7
ATOM      7  O   UNL d   1       0.302   0.732   2.155  0.00  0.00    -0.384 OA
BRANCH   7   8
ATOM      8  C   UNL d   1       0.776   1.947   2.715  0.00  0.00     0.206 C 
BRANCH   8   9
ATOM      9  C   UNL d   1       1.585   2.795   1.762  0.00  0.00    -0.035 A 
ATOM     10  C   UNL d   1       0.958   3.695   0.884  0.00  0.00     0.009 A 
ATOM     11  C   UNL d   1       1.720   4.532   0.063  0.00  0.00     0.001 A 
ATOM     12  C   UNL d   1       3.112   4.471   0.101  0.00  0.00     0.000 A 
ATOM     13  C   UNL d   1       3.743   3.569   0.954  0.00  0.00     0.001 A 
ATOM     14  C   UNL d   1       2.985   2.732   1.777  0.00  0.00     0.009 A 
ENDBRANCH   8   9
ENDBRANCH   7   8
ENDBRANCH   6   7
ENDBRANCH   5   6
BRANCH   5  15
ATOM     15  C   UNL d   1       0.735  -1.186   4.431  0.00  0.00     0.305 C 
BRANCH  15  16
ATOM     16  N   UNL d   1      -0.401  -2.040   4.072  0.00  0.00     0.094 N 
ATOM     17  H   UNL d   1      -0.093  -3.013   4.095  0.00  0.00     0.317 HD
BRANCH  16  18
ATOM     18  C   UNL d   1      -1.623  -1.873   4.884  0.00  0.00     0.147 C 
ATOM     19  C   UNL d   1      -2.282  -0.511   4.603  0.00  0.00     0.048 C 
ATOM     20  C   UNL d   1      -2.597  -2.979   4.435  0.00  0.00     0.048 C 
ATOM     21  C   UNL d   1      -1.377  -2.027   6.395  0.00  0.00     0.048 C 
ENDBRANCH  16  18
ENDBRANCH  15  16
ENDBRANCH   5  15
ENDBRANCH   4   5
ENDBRANCH   2   4
ENDBRANCH   1   2
BRANCH   1  22
ATOM     22  O   UNL d   1       3.160  -4.501   1.512  0.00  0.00    -0.299 OA
BRANCH  22  23
ATOM     23  C   UNL d   1       3.264  -5.720   2.073  0.00  0.00     0.294 C 
ATOM     24  O   UNL d   1       4.075  -6.033   2.926  0.00  0.00    -0.259 OA
BRANCH  23  25
ATOM     25  C   UNL d   1       2.278  -6.633   1.408  0.00  0.00     0.039 A 
ATOM     26  C   UNL d   1       1.200  -6.125   0.663  0.00  0.00     0.017 A 
ATOM     27  C   UNL d   1       0.307  -6.990   0.023  0.00  0.00     0.001 A 
ATOM     28  C   UNL d   1       0.482  -8.368   0.120  0.00  0.00     0.000 A 
ATOM     29  C   UNL d   1       1.549  -8.883   0.860  0.00  0.00     0.001 A 
ATOM     30  C   UNL d   1       2.445  -8.021   1.501  0.00  0.00     0.017 A 
ENDBRANCH  23  25
ENDBRANCH  22  23
ENDBRANCH   1  22
BRANCH   1  31
ATOM     31  C   UNL d   1       5.609  -3.764   1.928  0.00  0.00     0.268 C 
BRANCH  31  32
ATOM     32  C   UNL d   1       6.099  -4.885   1.008  0.00  0.00     0.173 C 
ATOM     33  O   UNL d   1       5.468  -5.332   0.064  0.00  0.00    -0.648 OA
BRANCH  32  34
ATOM     34  O   UNL d   1       7.350  -5.330   1.290  0.00  0.00    -0.774 OA
ATOM     35  H   UNL d   1       7.824  -4.795   1.973  0.00  0.00     0.167 HD
ENDBRANCH  32  34
ENDBRANCH  31  32
BRANCH  31  36
ATOM     36  O   UNL d   1       6.275  -2.533   1.539  0.00  0.00    -0.298 OA
BRANCH  36  37
ATOM     37  C   UNL d   1       7.580  -2.350   1.821  0.00  0.00     0.294 C 
ATOM     38  O   UNL d   1       8.310  -3.187   2.326  0.00  0.00    -0.259 OA
BRANCH  37  39
ATOM     39  C   UNL d   1       7.976  -1.003   1.330  0.00  0.00     0.039 A 
ATOM     40  C   UNL d   1       9.315  -0.750   1.012  0.00  0.00     0.017 A 
ATOM     41  C   UNL d   1       9.688   0.508   0.526  0.00  0.00     0.001 A 
ATOM     42  C   UNL d   1       8.733   1.511   0.364  0.00  0.00     0.000 A 
ATOM     43  C   UNL d   1       7.400   1.266   0.685  0.00  0.00     0.001 A 
ATOM     44  C   UNL d   1       7.022   0.015   1.171  0.00  0.00     0.017 A 
ENDBRANCH  37  39
ENDBRANCH  36  37
ENDBRANCH  31  36
ENDBRANCH   1  31
TORSDOF 19
