REMARK  4 active torsions:
REMARK  status: ('A' for Active; 'I' for Inactive)
REMARK    1  A    between atoms: C_3  and  C_1 
REMARK    2  A    between atoms: N_6  and  C_2 
REMARK       I    between atoms: C_7  and  N_6 
REMARK       I    between atoms: N_13  and  C_7 
REMARK    3  A    between atoms: C_9  and  C_15 
REMARK    4  A    between atoms: C_15  and  N_13 
ROOT
ATOM      1  N   UNL d   1       0.299  -2.285   0.041  0.00  0.00    -0.306 N 
ATOM      2  C   UNL d   1       1.454  -2.948  -0.185  0.00  0.00     0.321 C 
ATOM      3  N   UNL d   1       2.598  -2.282  -0.412  0.00  0.00    -0.338 N 
ATOM      4  O   UNL d   1       1.388  -4.180  -0.226  0.00  0.00    -0.247 OA
ATOM      5  H   UNL d   1      -0.429  -2.984   0.160  0.00  0.00     0.170 HD
ATOM      6  H   UNL d   1       2.707  -1.374   0.009  0.00  0.00     0.164 HD
ENDROOT
BRANCH   1   7
ATOM      7  C   UNL d   1      -0.186  -0.984   0.030  0.00  0.00     0.077 A 
ATOM      8  C   UNL d   1       0.339   0.299  -0.093  0.00  0.00     0.186 A 
ATOM      9  O   UNL d   1      -0.696   1.214  -0.067  0.00  0.00    -0.308 OA
ATOM     10  C   UNL d   1      -1.863   0.549   0.072  0.00  0.00     0.052 A 
ATOM     11  C   UNL d   1      -3.095   1.363   0.084  0.00  0.00     0.077 C 
ATOM     12  C   UNL d   1      -1.606  -0.793   0.167  0.00  0.00     0.064 A 
BRANCH   8  13
ATOM     13  C   UNL d   1       1.648   0.981  -0.232  0.00  0.00     0.441 C 
ATOM     14  F   UNL d   1       2.713   0.147  -0.247  0.00  0.00    -0.164 F 
ATOM     15  F   UNL d   1       1.719   1.715  -1.375  0.00  0.00    -0.164 F 
ATOM     16  F   UNL d   1       1.872   1.845   0.796  0.00  0.00    -0.164 F 
ENDBRANCH   8  13
ENDBRANCH   1   7
BRANCH   3  17
ATOM     17  C   UNL d   1       3.838  -2.969  -0.728  0.00  0.00     0.171 C 
BRANCH  17  18
ATOM     18  C   UNL d   1       4.667  -3.153   0.514  0.00  0.00     0.006 A 
ATOM     19  C   UNL d   1       4.907  -4.299   1.265  0.00  0.00    -0.047 A 
ATOM     20  C   UNL d   1       5.761  -4.015   2.384  0.00  0.00     0.015 A 
ATOM     21  C   UNL d   1       4.385  -5.674   0.991  0.00  0.00     0.049 C 
ATOM     22  C   UNL d   1       6.171  -2.705   2.425  0.00  0.00     0.051 A 
ATOM     23  S   UNL d   1       5.532  -1.799   1.133  0.00  0.00    -0.104 SA
ENDBRANCH  17  18
ENDBRANCH   3  17
TORSDOF 4
