REMARK  3 active torsions:
REMARK  status: ('A' for Active; 'I' for Inactive)
REMARK    1  A    between atoms: C_12  and  N_1 
REMARK    2  A    between atoms: C_9  and  N_3 
REMARK    3  A    between atoms: C_19  and  C_12 
ROOT
ATOM      1  N   UNL d   1      -0.707   1.141   0.019  0.00  0.00    -0.265 N 
ATOM      2  C   UNL d   1      -1.438  -0.053   0.035  0.00  0.00     0.336 A 
ATOM      3  N   UNL d   1      -0.672  -1.235  -0.050  0.00  0.00    -0.273 N 
ATOM      4  C   UNL d   1       1.409  -0.057  -0.092  0.00  0.00     0.128 A 
ATOM      5  C   UNL d   1       0.676   1.224  -0.058  0.00  0.00     0.273 A 
ATOM      6  C   UNL d   1       0.709  -1.194  -0.115  0.00  0.00     0.130 A 
ATOM      7  C   UNL d   1       2.829  -0.063  -0.080  0.00  0.00     0.106 C 
ATOM      8  N   UNL d   1       3.985  -0.137  -0.054  0.00  0.00    -0.191 NA
ATOM      9  O   UNL d   1      -2.670  -0.045   0.077  0.00  0.00    -0.246 OA
ATOM     10  O   UNL d   1       1.291   2.287  -0.098  0.00  0.00    -0.266 OA
ENDROOT
BRANCH   1  11
ATOM     11  C   UNL d   1      -1.462   2.394   0.055  0.00  0.00     0.137 C 
BRANCH  11  12
ATOM     12  C   UNL d   1      -1.698   3.010  -1.330  0.00  0.00     0.016 C 
ATOM     13  C   UNL d   1      -2.614   2.188  -2.226  0.00  0.00     0.006 C 
ENDBRANCH  11  12
ENDBRANCH   1  11
BRANCH   3  14
ATOM     14  C   UNL d   1      -1.366  -2.489  -0.089  0.00  0.00     0.043 A 
ATOM     15  C   UNL d   1      -1.052  -3.445  -1.066  0.00  0.00     0.032 A 
ATOM     16  C   UNL d   1      -1.793  -4.628  -1.159  0.00  0.00     0.026 A 
ATOM     17  C   UNL d   1      -2.821  -4.879  -0.251  0.00  0.00     0.034 A 
ATOM     18  C   UNL d   1      -3.111  -3.960   0.753  0.00  0.00     0.026 A 
ATOM     19 CL   UNL d   1      -3.746  -6.322  -0.381  0.00  0.00    -0.084 Cl
ATOM     20  C   UNL d   1      -2.392  -2.765   0.827  0.00  0.00     0.032 A 
ENDBRANCH   3  14
TORSDOF 3
