REMARK  4 active torsions:
REMARK  status: ('A' for Active; 'I' for Inactive)
REMARK    1  A    between atoms: C_2  and  C_1 
REMARK       I    between atoms: N_3  and  C_2 
REMARK    2  A    between atoms: C_4  and  N_3 
REMARK    3  A    between atoms: N_7  and  C_6 
REMARK       I    between atoms: C_11  and  N_7 
REMARK    4  A    between atoms: O_21  and  C_16 
ROOT
ATOM      1  C   UNL d   1      -1.328  -4.329   0.003  0.00  0.00     0.064 A 
ATOM      2  C   UNL d   1      -0.508  -3.981   1.095  0.00  0.00     0.061 A 
ATOM      3  C   UNL d   1      -1.049  -5.497  -0.727  0.00  0.00     0.068 A 
ATOM      4  C   UNL d   1       0.649  -4.751   1.317  0.00  0.00     0.035 A 
ATOM      5  C   UNL d   1       0.058  -6.296  -0.442  0.00  0.00     0.070 A 
ATOM      6  C   UNL d   1       0.933  -5.894   0.558  0.00  0.00     0.039 A 
ENDROOT
BRANCH   1   7
ATOM      7  N   UNL d   1      -2.402  -3.511  -0.403  0.00  0.00    -0.321 N 
ATOM      8  C   UNL d   1      -2.740  -3.246  -1.717  0.00  0.00     0.257 C 
ATOM      9  O   UNL d   1      -2.193  -3.698  -2.712  0.00  0.00    -0.267 OA
ATOM     10  H   UNL d   1      -2.788  -2.897   0.312  0.00  0.00     0.169 HD
BRANCH   8  11
ATOM     11  C   UNL d   1      -3.759  -2.178  -1.905  0.00  0.00     0.054 A 
ATOM     12  C   UNL d   1      -4.959  -2.099  -1.188  0.00  0.00     0.051 A 
ATOM     13  C   UNL d   1      -5.825  -1.020  -1.397  0.00  0.00     0.048 A 
ATOM     14 CL   UNL d   1      -5.482  -3.322  -0.086  0.00  0.00    -0.083 Cl
ATOM     15  C   UNL d   1      -5.508  -0.040  -2.336  0.00  0.00     0.035 A 
ATOM     16  C   UNL d   1      -4.335  -0.127  -3.081  0.00  0.00     0.025 A 
ATOM     17 CL   UNL d   1      -6.579   1.283  -2.587  0.00  0.00    -0.084 Cl
ATOM     18  C   UNL d   1      -3.460  -1.194  -2.864  0.00  0.00     0.020 A 
ENDBRANCH   8  11
ENDBRANCH   1   7
BRANCH   2  19
ATOM     19  N   UNL d   1      -0.663  -2.876   1.978  0.00  0.00    -0.326 N 
ATOM     20  C   UNL d   1      -1.772  -2.094   2.222  0.00  0.00     0.218 C 
ATOM     21  O   UNL d   1      -2.880  -2.218   1.711  0.00  0.00    -0.274 OA
ATOM     22  C   UNL d   1      -1.517  -0.973   3.195  0.00  0.00     0.117 C 
ATOM     23  H   UNL d   1       0.124  -2.715   2.595  0.00  0.00     0.169 HD
ENDBRANCH   2  19
BRANCH   5  24
ATOM     24  O   UNL d   1       0.161  -7.427  -1.201  0.00  0.00    -0.356 OA
ATOM     25  C   UNL d   1       1.304  -8.247  -1.006  0.00  0.00     0.210 C 
ENDBRANCH   5  24
TORSDOF 4
