REMARK  5 active torsions:
REMARK  status: ('A' for Active; 'I' for Inactive)
REMARK    1  A    between atoms: C_5  and  S_1 
REMARK    2  A    between atoms: N_15  and  S_1 
REMARK    3  A    between atoms: N_3  and  C_2 
REMARK    4  A    between atoms: S_7  and  C_6 
REMARK    5  A    between atoms: C_11  and  S_7 
ROOT
ATOM      1  C   UNL d   1      -0.588   0.178  -3.622  0.00  0.00     0.121 A 
ATOM      2  C   UNL d   1      -0.149   0.526  -2.333  0.00  0.00     0.062 A 
ATOM      3  C   UNL d   1       0.477  -0.445  -1.552  0.00  0.00     0.076 A 
ATOM      4  C   UNL d   1      -0.387  -1.107  -4.155  0.00  0.00     0.040 A 
ATOM      5  C   UNL d   1       0.213  -2.070  -3.327  0.00  0.00     0.023 A 
ATOM      6  C   UNL d   1       0.633  -1.748  -2.032  0.00  0.00     0.026 A 
ENDROOT
BRANCH   4   7
ATOM      7  S   UNL d   1      -0.815  -1.629  -5.813  0.00  0.00    -0.070 SA
BRANCH   7   8
ATOM      8  C   UNL d   1       0.404  -0.783  -6.813  0.00  0.00     0.074 A 
ATOM      9  N   UNL d   1       1.169   0.168  -6.231  0.00  0.00    -0.360 N 
ATOM     10  C   UNL d   1       2.068   0.805  -7.015  0.00  0.00     0.089 A 
ATOM     11  HN  UNL d   1       1.071   0.396  -5.242  1.00  0.00     0.166 HD
ATOM     12  C   UNL d   1       2.259   0.525  -8.357  0.00  0.00     0.017 A 
ATOM     13  C   UNL d   1       1.470  -0.460  -8.937  0.00  0.00     0.004 A 
ATOM     14  C   UNL d   1       0.523  -1.122  -8.157  0.00  0.00     0.037 A 
ENDBRANCH   7   8
ENDBRANCH   4   7
BRANCH   1  15
ATOM     15  N   UNL d   1      -1.323   1.188  -4.367  0.00  0.00    -0.114 N 
ATOM     16  O   UNL d   1      -0.792   2.304  -4.477  0.00  0.00    -0.532 OA
ATOM     17  O   UNL d   1      -2.461   0.896  -4.752  0.00  0.00    -0.532 OA
ENDBRANCH   1  15
BRANCH   3  18
ATOM     18  S   UNL d   1       1.008  -0.061   0.093  0.00  0.00     0.239 S 
ATOM     19  O   UNL d   1       1.088  -1.286   0.856  0.00  0.00    -0.206 OA
ATOM     20  O   UNL d   1       0.290   1.100   0.559  0.00  0.00    -0.206 OA
BRANCH  18  21
ATOM     21  N   UNL d   1       2.592   0.428  -0.160  0.00  0.00    -0.225 NA
ATOM     22  H   UNL d   1       3.241  -0.258   0.224  0.00  0.00     0.136 HD
ATOM     23  H   UNL d   1       2.725   1.369   0.216  0.00  0.00     0.136 HD
ENDBRANCH  18  21
ENDBRANCH   3  18
TORSDOF 5
