REMARK  3 active torsions:
REMARK  status: ('A' for Active; 'I' for Inactive)
REMARK    1  A    between atoms: C_9  and  C_3 
REMARK    2  A    between atoms: C_8  and  C_7 
REMARK    3  A    between atoms: C_13  and  C_9 
ROOT
ATOM      1  N   UNL d   1       1.245  -1.135  -0.094  0.00  0.00    -0.297 N 
ATOM      2  HN  UNL d   1       1.772  -2.008  -0.099  1.00  0.00     0.187 HD
ATOM      3  C   UNL d   1      -0.221   1.295  -0.033  0.00  0.00     0.018 A 
ATOM      4  N   UNL d   1      -0.117  -1.122  -0.165  0.00  0.00    -0.266 N 
ATOM      5  C   UNL d   1      -0.916  -0.008  -0.190  0.00  0.00     0.266 A 
ATOM      6  C   UNL d   1       1.116   1.311   0.032  0.00  0.00     0.045 A 
ATOM      7  C   UNL d   1       1.840   0.017  -0.019  0.00  0.00     0.059 A 
ATOM      8  O   UNL d   1      -2.132  -0.083  -0.332  0.00  0.00    -0.266 OA
ATOM      9  H   UNL d   1      -0.573  -2.022  -0.258  0.00  0.00     0.190 HD
ENDROOT
BRANCH   3  10
ATOM     10  C   UNL d   1      -1.060   2.539   0.023  0.00  0.00     0.083 C 
BRANCH  10  11
ATOM     11  C   UNL d   1      -1.503   2.881   1.428  0.00  0.00    -0.054 A 
ATOM     12  C   UNL d   1      -0.717   3.705   2.247  0.00  0.00     0.007 A 
ATOM     13  C   UNL d   1      -1.115   3.986   3.556  0.00  0.00     0.001 A 
ATOM     14  C   UNL d   1      -2.297   3.445   4.058  0.00  0.00     0.000 A 
ATOM     15  C   UNL d   1      -3.083   2.623   3.254  0.00  0.00     0.001 A 
ATOM     16  C   UNL d   1      -2.688   2.340   1.946  0.00  0.00     0.007 A 
ENDBRANCH  10  11
ENDBRANCH   3  10
BRANCH   7  17
ATOM     17  C   UNL d   1       3.329   0.073   0.047  0.00  0.00    -0.008 A 
ATOM     18  C   UNL d   1       4.018  -0.985   0.653  0.00  0.00     0.014 A 
ATOM     19  C   UNL d   1       5.413  -0.962   0.737  0.00  0.00     0.007 A 
ATOM     20  C   UNL d   1       6.138   0.115   0.214  0.00  0.00    -0.062 A 
ATOM     21  C   UNL d   1       5.449   1.163  -0.407  0.00  0.00     0.007 A 
ATOM     22  C   UNL d   1       7.635   0.127   0.304  0.00  0.00     0.048 C 
ATOM     23  C   UNL d   1       4.054   1.140  -0.497  0.00  0.00     0.014 A 
ENDBRANCH   7  17
TORSDOF 3
