REMARK  6 active torsions:
REMARK  status: ('A' for Active; 'I' for Inactive)
REMARK    1  A    between atoms: N_4  and  C_1 
REMARK       I    between atoms: C_8  and  N_4 
REMARK    2  A    between atoms: C_21  and  C_8 
REMARK    3  A    between atoms: C_9  and  C_10 
REMARK    4  A    between atoms: S_14  and  C_21 
REMARK    5  A    between atoms: C_22  and  S_14 
REMARK    6  A    between atoms: C_20  and  C_22 
ROOT
ATOM      1  N   UNL d   1       5.510   5.627  -3.832  0.00  0.00    -0.324 N 
ATOM      2  C   UNL d   1       4.787   4.865  -2.921  0.00  0.00     0.231 C 
ATOM      3  O   UNL d   1       3.688   4.354  -3.156  0.00  0.00    -0.272 OA
ATOM      4  H   UNL d   1       6.288   6.178  -3.472  0.00  0.00     0.169 HD
ENDROOT
BRANCH   2   5
ATOM      5  C   UNL d   1       5.407   4.738  -1.534  0.00  0.00     0.177 C 
BRANCH   5   6
ATOM      6  S   UNL d   1       7.048   3.965  -1.691  0.00  0.00    -0.155 SA
BRANCH   6   7
ATOM      7  C   UNL d   1       7.549   3.829   0.062  0.00  0.00     0.112 C 
BRANCH   7   8
ATOM      8  C   UNL d   1       8.930   3.215   0.122  0.00  0.00    -0.049 A 
ATOM      9  C   UNL d   1      10.078   4.011   0.032  0.00  0.00     0.008 A 
ATOM     10  C   UNL d   1      11.353   3.430  -0.032  0.00  0.00     0.008 A 
ATOM     11  C   UNL d   1      11.530   2.034  -0.010  0.00  0.00    -0.051 A 
ATOM     12  C   UNL d   1      10.367   1.250   0.085  0.00  0.00     0.008 A 
ATOM     13  C   UNL d   1       9.092   1.826   0.152  0.00  0.00     0.008 A 
BRANCH  11  14
ATOM     14  C   UNL d   1      12.938   1.415  -0.104  0.00  0.00    -0.024 C 
ATOM     15  C   UNL d   1      12.926  -0.130  -0.042  0.00  0.00     0.019 C 
ATOM     16  C   UNL d   1      13.613   1.819  -1.433  0.00  0.00     0.019 C 
ATOM     17  C   UNL d   1      13.823   1.906   1.062  0.00  0.00     0.019 C 
ENDBRANCH  11  14
ENDBRANCH   7   8
ENDBRANCH   6   7
ENDBRANCH   5   6
ENDBRANCH   2   5
BRANCH   1  18
ATOM     18  C   UNL d   1       5.249   5.731  -5.218  0.00  0.00     0.076 A 
ATOM     19  C   UNL d   1       4.429   4.821  -5.894  0.00  0.00     0.078 A 
ATOM     20  C   UNL d   1       4.201   4.967  -7.259  0.00  0.00     0.157 A 
ATOM     21  F   UNL d   1       3.419   4.078  -7.889  0.00  0.00    -0.203 F 
ATOM     22  C   UNL d   1       4.779   6.011  -7.970  0.00  0.00     0.157 A 
ATOM     23  C   UNL d   1       5.616   6.915  -7.324  0.00  0.00     0.090 A 
ATOM     24  F   UNL d   1       4.539   6.150  -9.280  0.00  0.00    -0.203 F 
ATOM     25  C   UNL d   1       5.855   6.758  -5.960  0.00  0.00     0.146 A 
ATOM     26  F   UNL d   1       6.665   7.636  -5.346  0.00  0.00    -0.204 F 
ENDBRANCH   1  18
TORSDOF 6
