REMARK  4 active torsions:
REMARK  status: ('A' for Active; 'I' for Inactive)
REMARK    1  A    between atoms: C_9  and  C_5 
REMARK    2  A    between atoms: O_12  and  C_7 
REMARK    3  A    between atoms: C_21  and  O_12 
REMARK    4  A    between atoms: C_19  and  C_21 
ROOT
ATOM      1  N   UNL d   1      -1.601  -1.042   0.137  0.00  0.00    -0.338 N 
ATOM      2  HN  UNL d   1      -1.955  -1.996   0.223  1.00  0.00     0.167 HD
ATOM      3  C   UNL d   1      -0.338  -0.667   0.073  0.00  0.00     0.146 A 
ATOM      4  N   UNL d   1      -0.239   0.721   0.032  0.00  0.00    -0.315 N 
ATOM      5  C   UNL d   1      -2.343   0.110   0.065  0.00  0.00     0.060 A 
ATOM      6  C   UNL d   1      -1.521   1.214   0.007  0.00  0.00     0.128 A 
ATOM      7  C   UNL d   1       0.891  -1.408   0.022  0.00  0.00     0.113 A 
ATOM      8  C   UNL d   1       0.970   1.411   0.012  0.00  0.00     0.098 A 
ATOM      9  C   UNL d   1       2.120   0.717   0.019  0.00  0.00     0.020 A 
ATOM     10  C   UNL d   1       2.062  -0.738   0.015  0.00  0.00     0.042 A 
ENDROOT
BRANCH   7  11
ATOM     11  O   UNL d   1       0.892  -2.792  -0.044  0.00  0.00    -0.343 OA
BRANCH  11  12
ATOM     12  C   UNL d   1      -0.281  -3.398  -0.599  0.00  0.00     0.214 C 
BRANCH  12  13
ATOM     13  C   UNL d   1       0.026  -4.781  -1.131  0.00  0.00    -0.032 A 
ATOM     14  C   UNL d   1      -0.686  -5.260  -2.244  0.00  0.00     0.035 A 
ATOM     15  C   UNL d   1      -0.453  -6.543  -2.747  0.00  0.00     0.056 A 
ATOM     16 CL   UNL d   1      -1.367  -7.042  -4.126  0.00  0.00    -0.083 Cl
ATOM     17  C   UNL d   1       0.491  -7.369  -2.130  0.00  0.00     0.055 A 
ATOM     18  C   UNL d   1       1.189  -6.909  -1.011  0.00  0.00     0.026 A 
ATOM     19 CL   UNL d   1       0.836  -8.965  -2.696  0.00  0.00    -0.083 Cl
ATOM     20  C   UNL d   1       0.955  -5.625  -0.510  0.00  0.00     0.011 A 
ENDBRANCH  12  13
ENDBRANCH  11  12
ENDBRANCH   7  11
BRANCH   5  21
ATOM     21  C   UNL d   1      -3.794   0.104   0.056  0.00  0.00    -0.008 A 
ATOM     22  C   UNL d   1      -4.479  -0.941   0.697  0.00  0.00     0.017 A 
ATOM     23  C   UNL d   1      -5.875  -0.985   0.692  0.00  0.00     0.043 A 
ATOM     24  C   UNL d   1      -6.585   0.010   0.033  0.00  0.00     0.116 A 
ATOM     25  C   UNL d   1      -5.927   1.047  -0.618  0.00  0.00     0.043 A 
ATOM     26  F   UNL d   1      -7.924  -0.032   0.020  0.00  0.00    -0.206 F 
ATOM     27  C   UNL d   1      -4.530   1.096  -0.606  0.00  0.00     0.017 A 
ENDBRANCH   5  21
TORSDOF 4
