REMARK  5 active torsions:
REMARK  status: ('A' for Active; 'I' for Inactive)
REMARK    1  A    between atoms: O_4  and  C_1 
REMARK    2  A    between atoms: C_7  and  C_2 
REMARK    3  A    between atoms: S_3  and  O_4 
REMARK    4  A    between atoms: C_9  and  S_3 
REMARK    5  A    between atoms: O_16  and  C_7 
ROOT
ATOM      1  O   UNL d   1      -0.006  -2.394  -0.470  0.00  0.00    -0.226 OA
ENDROOT
BRANCH   1   2
ATOM      2  S   UNL d   1      -1.547  -2.622   0.007  0.00  0.00     0.303 S 
ATOM      3  O   UNL d   1      -1.674  -2.200   1.389  0.00  0.00    -0.193 OA
ATOM      4  O   UNL d   1      -2.431  -2.133  -1.033  0.00  0.00    -0.193 OA
BRANCH   2   5
ATOM      5  C   UNL d   1      -1.804  -4.388   0.021  0.00  0.00     0.087 A 
ATOM      6  C   UNL d   1      -2.858  -4.890   0.802  0.00  0.00     0.029 A 
ATOM      7  C   UNL d   1      -3.125  -6.260   0.801  0.00  0.00     0.044 A 
ATOM      8  C   UNL d   1      -2.339  -7.106   0.028  0.00  0.00     0.116 A 
ATOM      9  C   UNL d   1      -1.284  -6.612  -0.739  0.00  0.00     0.044 A 
ATOM     10  F   UNL d   1      -2.604  -8.419   0.015  0.00  0.00    -0.206 F 
ATOM     11  C   UNL d   1      -1.006  -5.242  -0.743  0.00  0.00     0.029 A 
ENDBRANCH   2   5
ENDBRANCH   1   2
BRANCH   1  12
ATOM     12  C   UNL d   1       0.704  -1.239  -0.344  0.00  0.00     0.130 C 
ATOM     13  C   UNL d   1       2.083  -1.287  -0.535  0.00  0.00     0.116 C 
ATOM     14  S   UNL d   1       2.820   0.235  -0.212  0.00  0.00    -0.092 SA
ATOM     15  C   UNL d   1       1.320   0.992   0.017  0.00  0.00     0.072 C 
ATOM     16  C   UNL d   1       0.274   0.109  -0.105  0.00  0.00     0.053 C 
ATOM     17 BR   UNL d   1      -1.496   0.774  -0.009  0.00  0.00    -0.048 Br
BRANCH  13  18
ATOM     18  C   UNL d   1       2.894  -2.423  -0.956  0.00  0.00     0.302 C 
ATOM     19  O   UNL d   1       2.475  -3.563  -1.132  0.00  0.00    -0.259 OA
BRANCH  18  20
ATOM     20  O   UNL d   1       4.185  -2.046  -1.198  0.00  0.00    -0.322 OA
ATOM     21  C   UNL d   1       5.023  -3.052  -1.765  0.00  0.00     0.213 C 
ENDBRANCH  18  20
ENDBRANCH  13  18
ENDBRANCH   1  12
TORSDOF 5
