REMARK  6 active torsions:
REMARK  status: ('A' for Active; 'I' for Inactive)
REMARK    1  A    between atoms: N_4  and  S_1 
REMARK    2  A    between atoms: C_5  and  S_1 
REMARK    3  A    between atoms: S_2  and  N_3 
REMARK    4  A    between atoms: C_6  and  S_2 
REMARK    5  A    between atoms: C_19  and  C_30 
REMARK    6  A    between atoms: C_31  and  C_19 
ROOT
ATOM      1  C   UNL d   1       2.753   4.012  -2.418  0.00  0.00     0.009 C 
ENDROOT
BRANCH   1   2
ATOM      2  C   UNL d   1       1.335   3.416  -2.682  0.00  0.00    -0.012 C 
ATOM      3  C   UNL d   1       1.368   1.990  -3.276  0.00  0.00     0.020 C 
ATOM      4  C   UNL d   1       1.710   0.889  -2.265  0.00  0.00     0.108 C 
ATOM      5  N   UNL d   1       0.863   0.991  -1.036  0.00  0.00    -0.206 NA
ATOM      6  C   UNL d   1       0.935   2.346  -0.425  0.00  0.00     0.108 C 
ATOM      7  C   UNL d   1       0.428   3.364  -1.441  0.00  0.00     0.020 C 
BRANCH   5   8
ATOM      8  S   UNL d   1       1.163  -0.290   0.072  0.00  0.00     0.243 S 
ATOM      9  O   UNL d   1       2.402   0.027   0.759  0.00  0.00    -0.206 OA
ATOM     10  O   UNL d   1       1.001  -1.542  -0.634  0.00  0.00    -0.206 OA
BRANCH   8  11
ATOM     11  C   UNL d   1      -0.174  -0.166   1.235  0.00  0.00     0.074 A 
ATOM     12  C   UNL d   1      -1.483  -0.370   0.793  0.00  0.00     0.025 A 
ATOM     13  C   UNL d   1      -2.533  -0.343   1.713  0.00  0.00     0.008 A 
ATOM     14  C   UNL d   1      -2.284  -0.121   3.076  0.00  0.00    -0.062 A 
ATOM     15  C   UNL d   1      -0.962   0.106   3.510  0.00  0.00     0.008 A 
ATOM     16  C   UNL d   1      -3.413  -0.163   4.061  0.00  0.00     0.048 C 
ATOM     17  C   UNL d   1       0.088   0.076   2.588  0.00  0.00     0.025 A 
ENDBRANCH   8  11
ENDBRANCH   5   8
ENDBRANCH   1   2
BRANCH   1  18
ATOM     18  C   UNL d   1       2.744   5.389  -1.699  0.00  0.00    -0.011 C 
ATOM     19  C   UNL d   1       2.176   6.544  -2.528  0.00  0.00     0.025 C 
ATOM     20  C   UNL d   1       3.136   7.246  -3.489  0.00  0.00     0.135 C 
ATOM     21  N   UNL d   1       4.545   7.322  -3.049  0.00  0.00    -0.307 N 
ATOM     22  C   UNL d   1       5.087   6.255  -2.191  0.00  0.00     0.135 C 
ATOM     23  C   UNL d   1       4.099   5.812  -1.132  0.00  0.00     0.025 C 
BRANCH  21  24
ATOM     24  S   UNL d   1       5.646   7.966  -4.195  0.00  0.00     0.260 S 
ATOM     25  O   UNL d   1       4.961   9.010  -4.936  0.00  0.00    -0.200 OA
ATOM     26  O   UNL d   1       6.891   8.239  -3.513  0.00  0.00    -0.200 OA
BRANCH  24  27
ATOM     27  C   UNL d   1       5.964   6.623  -5.347  0.00  0.00     0.079 A 
ATOM     28  C   UNL d   1       5.222   6.519  -6.528  0.00  0.00     0.026 A 
ATOM     29  C   UNL d   1       5.591   5.584  -7.497  0.00  0.00     0.008 A 
ATOM     30  C   UNL d   1       6.714   4.755  -7.313  0.00  0.00    -0.062 A 
ATOM     31  C   UNL d   1       7.433   4.862  -6.117  0.00  0.00     0.008 A 
ATOM     32  C   UNL d   1       7.142   3.811  -8.393  0.00  0.00     0.048 C 
ATOM     33  C   UNL d   1       7.072   5.795  -5.144  0.00  0.00     0.026 A 
ENDBRANCH  24  27
ENDBRANCH  21  24
ENDBRANCH   1  18
TORSDOF 6
