REMARK  4 active torsions:
REMARK  status: ('A' for Active; 'I' for Inactive)
REMARK    1  A    between atoms: N_4  and  S_1 
REMARK    2  A    between atoms: C_2  and  C_3 
REMARK       I    between atoms: C_3  and  N_6 
REMARK    3  A    between atoms: C_5  and  N_4 
REMARK    4  A    between atoms: N_6  and  C_13 
ROOT
ATOM      1  C   UNL d   1       1.099   2.537  -1.009  0.00  0.00     0.030 A 
ATOM      2  C   UNL d   1      -0.001   3.407  -1.094  0.00  0.00     0.054 A 
ATOM      3  C   UNL d   1       0.138   4.758  -0.770  0.00  0.00     0.036 A 
ATOM      4  C   UNL d   1       2.360   3.012  -0.624  0.00  0.00    -0.040 A 
ATOM      5  C   UNL d   1       2.485   4.361  -0.270  0.00  0.00     0.011 A 
ATOM      6  C   UNL d   1       1.388   5.222  -0.342  0.00  0.00     0.030 A 
ATOM      7  C   UNL d   1       3.588   2.149  -0.576  0.00  0.00     0.050 C 
ENDROOT
BRANCH   3   8
ATOM      8  N   UNL d   1      -0.902   5.713  -0.818  0.00  0.00    -0.323 N 
ATOM      9  C   UNL d   1      -2.206   5.535  -1.244  0.00  0.00     0.256 C 
ATOM     10  O   UNL d   1      -2.645   4.506  -1.742  0.00  0.00    -0.267 OA
ATOM     11  H   UNL d   1      -0.648   6.634  -0.498  0.00  0.00     0.169 HD
BRANCH   9  12
ATOM     12  C   UNL d   1      -3.087   6.708  -1.071  0.00  0.00     0.039 A 
ATOM     13  C   UNL d   1      -2.742   7.951  -0.566  0.00  0.00     0.066 A 
ATOM     14  S   UNL d   1      -4.061   9.045  -0.485  0.00  0.00    -0.113 SA
ATOM     15  C   UNL d   1      -5.130   7.887  -1.132  0.00  0.00     0.050 A 
ATOM     16  C   UNL d   1      -4.490   6.699  -1.409  0.00  0.00     0.024 A 
ENDBRANCH   9  12
ENDBRANCH   3   8
BRANCH   1  17
ATOM     17  N   UNL d   1       0.913   1.149  -1.312  0.00  0.00    -0.185 NA
ATOM     18  H   UNL d   1       0.389   0.982  -2.175  0.00  0.00     0.146 HD
BRANCH  17  19
ATOM     19  S   UNL d   1       0.241   0.166  -0.105  0.00  0.00     0.210 S 
ATOM     20  O   UNL d   1      -0.551  -0.816  -0.820  0.00  0.00    -0.211 OA
ATOM     21  O   UNL d   1      -0.326   0.965   0.955  0.00  0.00    -0.211 OA
ATOM     22  C   UNL d   1       1.677  -0.679   0.522  0.00  0.00     0.180 C 
ENDBRANCH  17  19
ENDBRANCH   1  17
TORSDOF 4
