REMARK  5 active torsions:
REMARK  status: ('A' for Active; 'I' for Inactive)
REMARK    1  A    between atoms: C_3  and  N_1 
REMARK    2  A    between atoms: S_6  and  C_2 
REMARK    3  A    between atoms: C_7  and  C_3 
REMARK    4  A    between atoms: C_8  and  C_3 
REMARK    5  A    between atoms: C_9  and  S_6 
ROOT
ATOM      1  C   UNL d   1       0.677   2.075   0.587  0.00  0.00     0.289 C 
ENDROOT
BRANCH   1   2
ATOM      2  N   UNL d   1       0.301   0.972  -0.326  0.00  0.00     0.104 N 
ATOM      3  C   UNL d   1      -1.159   0.676  -0.330  0.00  0.00     0.291 C 
ATOM      4  C   UNL d   1      -0.806  -0.830  -0.379  0.00  0.00     0.109 C 
ATOM      5  C   UNL d   1       0.512  -0.365   0.304  0.00  0.00     0.291 C 
BRANCH   4   6
ATOM      6  S   UNL d   1      -0.475  -1.480  -2.076  0.00  0.00    -0.122 SA
BRANCH   6   7
ATOM      7  C   UNL d   1      -2.133  -1.888  -2.573  0.00  0.00     0.001 A 
ATOM      8  C   UNL d   1      -2.925  -0.952  -3.241  0.00  0.00     0.019 A 
ATOM      9  C   UNL d   1      -4.169  -1.321  -3.763  0.00  0.00     0.008 A 
ATOM     10  C   UNL d   1      -4.633  -2.635  -3.635  0.00  0.00    -0.062 A 
ATOM     11  C   UNL d   1      -3.846  -3.567  -2.948  0.00  0.00     0.008 A 
ATOM     12  C   UNL d   1      -5.942  -3.034  -4.252  0.00  0.00     0.048 C 
ATOM     13  C   UNL d   1      -2.603  -3.196  -2.424  0.00  0.00     0.019 A 
ENDBRANCH   6   7
ENDBRANCH   4   6
ENDBRANCH   1   2
BRANCH   1  14
ATOM     14  C   UNL d   1       2.196   2.298   0.569  0.00  0.00    -0.021 A 
ATOM     15  C   UNL d   1       2.870   2.593  -0.632  0.00  0.00     0.010 A 
ATOM     16  C   UNL d   1       4.238   2.871  -0.640  0.00  0.00     0.001 A 
ATOM     17  C   UNL d   1       4.960   2.844   0.549  0.00  0.00     0.000 A 
ATOM     18  C   UNL d   1       4.316   2.530   1.746  0.00  0.00     0.001 A 
ATOM     19  C   UNL d   1       2.943   2.260   1.756  0.00  0.00     0.010 A 
ENDBRANCH   1  14
BRANCH   1  20
ATOM     20  C   UNL d   1      -0.049   3.394   0.280  0.00  0.00    -0.021 A 
ATOM     21  C   UNL d   1      -0.330   4.291   1.324  0.00  0.00     0.010 A 
ATOM     22  C   UNL d   1      -0.991   5.495   1.073  0.00  0.00     0.001 A 
ATOM     23  C   UNL d   1      -1.377   5.822  -0.226  0.00  0.00     0.000 A 
ATOM     24  C   UNL d   1      -1.086   4.957  -1.276  0.00  0.00     0.001 A 
ATOM     25  C   UNL d   1      -0.419   3.758  -1.028  0.00  0.00     0.010 A 
ENDBRANCH   1  20
TORSDOF 5
