REMARK  4 active torsions:
REMARK  status: ('A' for Active; 'I' for Inactive)
REMARK    1  A    between atoms: C_2  and  C_1 
REMARK       I    between atoms: N_4  and  C_1 
REMARK    2  A    between atoms: N_5  and  C_2 
REMARK    3  A    between atoms: C_3  and  C_7 
REMARK    4  A    between atoms: C_6  and  N_4 
ROOT
ATOM      1  C   UNL d   1       0.925  -0.119   0.114  0.00  0.00     0.284 C 
ATOM      2  N   UNL d   1       0.214  -0.968  -0.717  0.00  0.00    -0.319 N 
ATOM      3  O   UNL d   1       2.084  -0.273   0.483  0.00  0.00    -0.265 OA
ATOM      4  H   UNL d   1      -0.570  -0.549  -1.215  0.00  0.00     0.169 HD
ENDROOT
BRANCH   2   5
ATOM      5  C   UNL d   1       0.626  -2.252  -1.141  0.00  0.00     0.057 A 
ATOM      6  C   UNL d   1       1.509  -3.024  -0.376  0.00  0.00     0.047 A 
ATOM      7  C   UNL d   1       1.858  -4.329  -0.765  0.00  0.00     0.050 A 
ATOM      8  C   UNL d   1       1.344  -4.843  -1.965  0.00  0.00     0.018 A 
ATOM      9  C   UNL d   1       0.470  -4.080  -2.741  0.00  0.00     0.027 A 
ATOM     10  C   UNL d   1       0.097  -2.800  -2.321  0.00  0.00     0.060 A 
ATOM     11 CL   UNL d   1      -1.003  -1.903  -3.309  0.00  0.00    -0.082 Cl
BRANCH   7  12
ATOM     12  C   UNL d   1       2.754  -5.182   0.103  0.00  0.00     0.417 C 
ATOM     13  F   UNL d   1       3.080  -4.601   1.291  0.00  0.00    -0.166 F 
ATOM     14  F   UNL d   1       2.174  -6.373   0.423  0.00  0.00    -0.166 F 
ATOM     15  F   UNL d   1       3.931  -5.491  -0.504  0.00  0.00    -0.166 F 
ENDBRANCH   7  12
ENDBRANCH   2   5
BRANCH   1  16
ATOM     16  C   UNL d   1       0.165   1.139   0.570  0.00  0.00     0.167 C 
ATOM     17  S   UNL d   1      -0.635   1.964  -0.656  0.00  0.00    -0.054 SA
BRANCH  16  18
ATOM     18  N   UNL d   1       0.217   1.496   1.923  0.00  0.00    -0.363 N 
ATOM     19  C   UNL d   1      -0.319   2.760   2.459  0.00  0.00     0.150 C 
ATOM     20  C   UNL d   1       0.730   3.477   3.324  0.00  0.00     0.187 C 
ATOM     21  O   UNL d   1       1.246   2.617   4.351  0.00  0.00    -0.388 OA
ATOM     22  C   UNL d   1       1.848   1.445   3.776  0.00  0.00     0.187 C 
ATOM     23  C   UNL d   1       0.810   0.651   2.977  0.00  0.00     0.150 C 
ENDBRANCH  16  18
ENDBRANCH   1  16
TORSDOF 4
