REMARK  2 active torsions:
REMARK  status: ('A' for Active; 'I' for Inactive)
REMARK    1  A    between atoms: C_7  and  C_5 
REMARK    2  A    between atoms: N_10  and  C_8 
ROOT
ATOM      1  N   UNL d   1      -2.334  -0.252   0.398  0.00  0.00    -0.283 NA
ATOM      2  C   UNL d   1      -4.061  -2.538   0.576  0.00  0.00     0.163 C 
ATOM      3  C   UNL d   1      -4.604  -1.163   0.662  0.00  0.00     0.031 A 
ATOM      4  C   UNL d   1      -3.720  -0.080   0.567  0.00  0.00     0.022 A 
ATOM      5  C   UNL d   1      -1.929  -1.513  -0.241  0.00  0.00     0.100 C 
ATOM      6  C   UNL d   1      -2.561  -2.686   0.509  0.00  0.00     0.108 C 
ATOM      7  O   UNL d   1      -4.805  -3.512   0.607  0.00  0.00    -0.292 OA
ATOM      8  C   UNL d   1      -5.978  -0.966   0.844  0.00  0.00     0.017 A 
ATOM      9  C   UNL d   1      -4.230   1.206   0.777  0.00  0.00     0.024 A 
ATOM     10  C   UNL d   1      -6.475   0.327   0.989  0.00  0.00     0.001 A 
ATOM     11  C   UNL d   1      -5.600   1.411   0.973  0.00  0.00     0.002 A 
ATOM     12  H   UNL d   1      -1.903   0.566  -0.024  0.00  0.00     0.128 HD
ENDROOT
BRANCH   5  13
ATOM     13  C   UNL d   1      -2.134  -1.455  -1.754  0.00  0.00    -0.040 A 
ATOM     14  C   UNL d   1      -1.456  -0.494  -2.518  0.00  0.00     0.011 A 
ATOM     15  C   UNL d   1      -1.615  -0.423  -3.915  0.00  0.00     0.030 A 
ATOM     16  C   UNL d   1      -2.441  -1.306  -4.623  0.00  0.00     0.029 A 
ATOM     17  C   UNL d   1      -3.094  -2.272  -3.844  0.00  0.00     0.030 A 
ATOM     18  C   UNL d   1      -2.953  -2.348  -2.449  0.00  0.00     0.011 A 
BRANCH  16  19
ATOM     19  N   UNL d   1      -2.565  -1.296  -6.006  0.00  0.00    -0.390 N 
ATOM     20  C   UNL d   1      -3.827  -1.678  -6.643  0.00  0.00     0.149 C 
ATOM     21  C   UNL d   1      -1.684  -0.497  -6.853  0.00  0.00     0.149 C 
ENDBRANCH  16  19
ENDBRANCH   5  13
TORSDOF 2
