REMARK  9 active torsions:
REMARK  status: ('A' for Active; 'I' for Inactive)
REMARK    1  A    between atoms: C_4  and  C_1 
REMARK    2  A    between atoms: O_10  and  C_2 
REMARK       I    between atoms: N_9  and  C_4 
REMARK    3  A    between atoms: C_5  and  C_13 
REMARK    4  A    between atoms: C_6  and  C_19 
REMARK    5  A    between atoms: C_7  and  C_21 
REMARK    6  A    between atoms: C_16  and  N_9 
REMARK    7  A    between atoms: C_19  and  O_10 
REMARK    8  A    between atoms: O_17  and  C_14 
REMARK    9  A    between atoms: C_21  and  O_17 
ROOT
ATOM      1  C   UNL d   1       1.489   1.232   0.247  0.00  0.00     0.067 C 
ATOM      2  C   UNL d   1       0.088   1.266  -0.033  0.00  0.00     0.108 C 
ATOM      3  C   UNL d   1      -0.650   0.048  -0.068  0.00  0.00     0.112 C 
ATOM      4  C   UNL d   1      -2.087   0.068  -0.096  0.00  0.00     0.105 C 
ATOM      5  N   UNL d   1      -3.241   0.066  -0.158  0.00  0.00    -0.191 NA
ATOM      6  C   UNL d   1       2.099  -0.004   0.499  0.00  0.00     0.023 C 
ATOM      7  C   UNL d   1       0.012  -1.184   0.042  0.00  0.00     0.092 C 
ATOM      8  C   UNL d   1       1.372  -1.193   0.372  0.00  0.00     0.039 C 
ENDROOT
BRANCH   2   9
ATOM      9  O   UNL d   1      -0.467   2.527  -0.135  0.00  0.00    -0.340 OA
BRANCH   9  10
ATOM     10  C   UNL d   1      -1.571   2.745  -1.028  0.00  0.00     0.293 C 
BRANCH  10  11
ATOM     11  C   UNL d   1      -1.632   4.147  -1.641  0.00  0.00     0.408 C 
ATOM     12  F   UNL d   1      -0.570   4.920  -1.354  0.00  0.00    -0.169 F 
ATOM     13  F   UNL d   1      -1.730   4.063  -2.991  0.00  0.00    -0.169 F 
ATOM     14  F   UNL d   1      -2.739   4.802  -1.211  0.00  0.00    -0.169 F 
ENDBRANCH  10  11
ENDBRANCH   9  10
ENDBRANCH   2   9
BRANCH   7  15
ATOM     15  O   UNL d   1      -0.510  -2.455  -0.063  0.00  0.00    -0.341 OA
BRANCH  15  16
ATOM     16  C   UNL d   1      -1.633  -2.689  -0.934  0.00  0.00     0.293 C 
BRANCH  16  17
ATOM     17  C   UNL d   1      -1.645  -4.098  -1.533  0.00  0.00     0.408 C 
ATOM     18  F   UNL d   1      -0.603  -4.853  -1.126  0.00  0.00    -0.169 F 
ATOM     19  F   UNL d   1      -2.780  -4.757  -1.202  0.00  0.00    -0.169 F 
ATOM     20  F   UNL d   1      -1.598  -4.041  -2.886  0.00  0.00    -0.169 F 
ENDBRANCH  16  17
ENDBRANCH  15  16
ENDBRANCH   7  15
BRANCH   1  21
ATOM     21  C   UNL d   1       2.311   2.494   0.166  0.00  0.00     0.259 C 
ATOM     22  N   UNL d   1       3.510   2.563   0.885  0.00  0.00    -0.323 N 
ATOM     23  H   UNL d   1       3.884   1.721   1.294  0.00  0.00     0.169 HD
ATOM     24  O   UNL d   1       1.931   3.369  -0.607  0.00  0.00    -0.267 OA
BRANCH  22  25
ATOM     25  C   UNL d   1       4.399   3.673   0.853  0.00  0.00     0.035 C 
ATOM     26  C   UNL d   1       3.999   4.951   0.452  0.00  0.00     0.045 C 
ATOM     27  C   UNL d   1       4.941   5.959   0.186  0.00  0.00     0.050 C 
ATOM     28  C   UNL d   1       6.294   5.710   0.449  0.00  0.00     0.016 C 
ATOM     29  C   UNL d   1       6.691   4.476   0.962  0.00  0.00     0.003 C 
ATOM     30  C   UNL d   1       5.747   3.461   1.165  0.00  0.00     0.029 C 
BRANCH  27  31
ATOM     31  C   UNL d   1       4.519   7.244  -0.483  0.00  0.00     0.417 C 
ATOM     32  F   UNL d   1       3.189   7.315  -0.764  0.00  0.00    -0.166 F 
ATOM     33  F   UNL d   1       4.803   8.350   0.260  0.00  0.00    -0.166 F 
ATOM     34  F   UNL d   1       5.158   7.425  -1.674  0.00  0.00    -0.166 F 
ENDBRANCH  27  31
ENDBRANCH  22  25
ENDBRANCH   1  21
TORSDOF 9
