REMARK  2 active torsions:
REMARK  status: ('A' for Active; 'I' for Inactive)
REMARK    1  A    between atoms: N_3  and  C_1 
REMARK    2  A    between atoms: C_19  and  C_12 
ROOT
ATOM      1  C   UNL d   1      -0.922  -1.497   0.007  0.00  0.00     0.169 A 
ATOM      2  N   UNL d   1       0.262  -0.734   0.026  0.00  0.00    -0.067 N 
ATOM      3  C   UNL d   1       0.220   0.677   0.059  0.00  0.00     0.706 A 
ATOM      4  C   UNL d   1      -2.087  -0.823   0.066  0.00  0.00     0.084 A 
ATOM      5  N   UNL d   1      -0.955   1.369   0.062  0.00  0.00    -0.189 N 
ATOM      6  HN  UNL d   1      -0.972   2.389   0.078  1.00  0.00     0.184 HD
ATOM      7  N   UNL d   1       1.446   1.154   0.071  0.00  0.00    -0.184 N 
ATOM      8  HN  UNL d   1       1.745   2.128   0.107  1.00  0.00     0.185 HD
ATOM      9  C   UNL d   1      -2.050   0.671   0.043  0.00  0.00     0.063 A 
ATOM     10  N   UNL d   1       1.564  -1.116  -0.038  0.00  0.00    -0.273 N 
ATOM     11  HN  UNL d   1       1.947  -2.058  -0.114  1.00  0.00     0.189 HD
ATOM     12  C   UNL d   1       2.216   0.040   0.022  0.00  0.00     0.215 A 
ENDROOT
BRANCH   1  13
ATOM     13  N   UNL d   1      -0.873  -2.909  -0.015  0.00  0.00    -0.242 N 
ATOM     14  N   UNL d   1       0.120  -3.651   0.553  0.00  0.00    -0.297 N 
ATOM     15  C   UNL d   1      -0.242  -4.927   0.455  0.00  0.00     0.024 A 
ATOM     16  HN  UNL d   1       0.979  -3.295   0.973  1.00  0.00     0.187 HD
ATOM     17  C   UNL d   1       0.612  -6.001   1.011  0.00  0.00     0.070 C 
ATOM     18  C   UNL d   1      -1.448  -5.066  -0.236  0.00  0.00     0.052 A 
ATOM     19  C   UNL d   1      -1.828  -3.784  -0.574  0.00  0.00     0.034 A 
ATOM     20  C   UNL d   1      -2.973  -3.410  -1.450  0.00  0.00     0.070 C 
ENDBRANCH   1  13
BRANCH   9  21
ATOM     21  C   UNL d   1      -3.375   1.356   0.034  0.00  0.00    -0.009 A 
ATOM     22  C   UNL d   1      -4.494   0.793  -0.599  0.00  0.00     0.014 A 
ATOM     23  C   UNL d   1      -5.735   1.426  -0.524  0.00  0.00     0.001 A 
ATOM     24  C   UNL d   1      -5.861   2.633   0.162  0.00  0.00     0.000 A 
ATOM     25  C   UNL d   1      -4.744   3.217   0.758  0.00  0.00     0.001 A 
ATOM     26  C   UNL d   1      -3.501   2.585   0.691  0.00  0.00     0.014 A 
ENDBRANCH   9  21
TORSDOF 2
