REMARK  3 active torsions:
REMARK  status: ('A' for Active; 'I' for Inactive)
REMARK    1  A    between atoms: N_8  and  C_4 
REMARK    2  A    between atoms: C_12  and  N_8 
REMARK    3  A    between atoms: C_15  and  C_10 
ROOT
ATOM      1  N   UNL d   1      -1.554  -1.045   0.263  0.00  0.00    -0.327 N 
ATOM      2  HN  UNL d   1      -1.894  -1.989   0.446  1.00  0.00     0.169 HD
ATOM      3  C   UNL d   1      -0.302  -0.654   0.149  0.00  0.00     0.113 A 
ATOM      4  C   UNL d   1      -2.299   0.086   0.082  0.00  0.00     0.123 A 
ATOM      5  N   UNL d   1      -0.218   0.719  -0.031  0.00  0.00    -0.315 N 
ATOM      6  C   UNL d   1      -1.504   1.185  -0.127  0.00  0.00     0.146 A 
ATOM      7  C   UNL d   1       0.920  -1.383   0.186  0.00  0.00     0.056 A 
ATOM      8  C   UNL d   1       0.986   1.412  -0.089  0.00  0.00     0.099 A 
ATOM      9  C   UNL d   1       2.104  -0.737   0.099  0.00  0.00    -0.054 A 
ATOM     10  C   UNL d   1       2.140   0.726  -0.005  0.00  0.00     0.025 A 
ENDROOT
BRANCH   4  11
ATOM     11  N   UNL d   1      -3.644   0.085   0.059  0.00  0.00    -0.340 N 
ATOM     12  H   UNL d   1      -4.131   0.823  -0.435  0.00  0.00     0.167 HD
BRANCH  11  13
ATOM     13  C   UNL d   1      -4.547  -0.817   0.671  0.00  0.00     0.055 A 
ATOM     14  C   UNL d   1      -5.844  -1.001   0.153  0.00  0.00     0.060 A 
ATOM     15 CL   UNL d   1      -6.378  -0.110  -1.233  0.00  0.00    -0.082 Cl
ATOM     16  C   UNL d   1      -6.736  -1.907   0.738  0.00  0.00     0.026 A 
ATOM     17  C   UNL d   1      -6.348  -2.642   1.856  0.00  0.00     0.002 A 
ATOM     18  C   UNL d   1      -5.067  -2.485   2.376  0.00  0.00     0.002 A 
ATOM     19  C   UNL d   1      -4.171  -1.594   1.777  0.00  0.00     0.031 A 
ENDBRANCH  11  13
ENDBRANCH   4  11
BRANCH   9  20
ATOM     20  C   UNL d   1       3.422  -1.473   0.127  0.00  0.00     0.034 C 
ATOM     21  C   UNL d   1       4.220  -1.327  -1.164  0.00  0.00     0.010 C 
ENDBRANCH   9  20
TORSDOF 3
