REMARK  4 active torsions:
REMARK  status: ('A' for Active; 'I' for Inactive)
REMARK    1  A    between atoms: C_6  and  C_1 
REMARK    2  A    between atoms: C_10  and  N_2 
REMARK       I    between atoms: N_8  and  C_6 
REMARK    3  A    between atoms: C_11  and  N_9 
REMARK    4  A    between atoms: O_29  and  C_23 
ROOT
ATOM      1  C   UNL d   1      -0.303   1.128   0.024  0.00  0.00     0.073 C 
ATOM      2  N   UNL d   1      -0.260  -1.090   0.207  0.00  0.00    -0.260 N 
ATOM      3  C   UNL d   1      -0.887   0.053   0.686  0.00  0.00     0.048 C 
ATOM      4  N   UNL d   1       0.510  -0.807  -0.876  0.00  0.00    -0.304 N 
ATOM      5  HN  UNL d   1       0.982  -1.465  -1.496  1.00  0.00     0.186 HD
ATOM      6  C   UNL d   1       0.512   0.521  -0.947  0.00  0.00     0.126 C 
ATOM      7  C   UNL d   1      -2.007   0.066   1.669  0.00  0.00     0.071 C 
ENDROOT
BRANCH   1   8
ATOM      8  C   UNL d   1      -0.590   2.541   0.232  0.00  0.00     0.257 C 
ATOM      9  N   UNL d   1       0.468   3.441   0.144  0.00  0.00    -0.345 N 
ATOM     10  C   UNL d   1       0.183   4.873   0.306  0.00  0.00     0.146 C 
ATOM     11  C   UNL d   1       1.876   3.091   0.382  0.00  0.00     0.146 C 
ATOM     12  C   UNL d   1       1.162   5.770  -0.488  0.00  0.00     0.143 C 
ATOM     13  N   UNL d   1       2.560   5.338  -0.261  0.00  0.00    -0.378 N 
ATOM     14  C   UNL d   1       2.794   3.912  -0.534  0.00  0.00     0.143 C 
ATOM     15  O   UNL d   1      -1.739   2.920   0.458  0.00  0.00    -0.267 OA
BRANCH  13  16
ATOM     16  C   UNL d   1       3.569   6.256  -0.525  0.00  0.00     0.030 A 
ATOM     17  C   UNL d   1       4.615   6.009  -1.427  0.00  0.00     0.032 A 
ATOM     18  C   UNL d   1       5.669   6.914  -1.585  0.00  0.00     0.044 A 
ATOM     19  C   UNL d   1       5.685   8.081  -0.836  0.00  0.00     0.116 A 
ATOM     20  C   UNL d   1       4.662   8.365   0.054  0.00  0.00     0.044 A 
ATOM     21  F   UNL d   1       6.707   8.937  -0.966  0.00  0.00    -0.206 F 
ATOM     22  C   UNL d   1       3.609   7.458   0.201  0.00  0.00     0.032 A 
ENDBRANCH  13  16
ENDBRANCH   1   8
BRANCH   2  23
ATOM     23  C   UNL d   1      -0.299  -2.425   0.702  0.00  0.00     0.056 A 
ATOM     24  C   UNL d   1      -0.020  -3.488  -0.171  0.00  0.00     0.034 A 
ATOM     25  C   UNL d   1      -0.045  -4.810   0.291  0.00  0.00     0.039 A 
ATOM     26  C   UNL d   1      -0.318  -5.077   1.632  0.00  0.00     0.068 A 
ATOM     27  C   UNL d   1      -0.551  -4.015   2.508  0.00  0.00     0.039 A 
ATOM     28  C   UNL d   1      -0.551  -2.695   2.049  0.00  0.00     0.034 A 
BRANCH  26  29
ATOM     29  O   UNL d   1      -0.338  -6.313   2.213  0.00  0.00    -0.356 OA
ATOM     30  C   UNL d   1      -0.595  -7.408   1.343  0.00  0.00     0.210 C 
ENDBRANCH  26  29
ENDBRANCH   2  23
TORSDOF 4
