REMARK  4 active torsions:
REMARK  status: ('A' for Active; 'I' for Inactive)
REMARK    1  A    between atoms: C_6  and  C_1 
REMARK    2  A    between atoms: C_8  and  C_2 
REMARK    3  A    between atoms: C_9  and  N_3 
REMARK       I    between atoms: N_11  and  C_8 
REMARK    4  A    between atoms: N_18  and  N_11 
ROOT
ATOM      1  C   UNL d   1       1.000  -0.869  -0.033  0.00  0.00     0.157 C 
ATOM      2  C   UNL d   1      -0.337  -1.250  -0.050  0.00  0.00     0.083 C 
ATOM      3  N   UNL d   1       1.022   0.509   0.077  0.00  0.00    -0.251 N 
ATOM      4  N   UNL d   1      -0.227   0.986   0.338  0.00  0.00    -0.303 N 
ATOM      5  HN  UNL d   1      -0.485   1.936   0.605  1.00  0.00     0.186 HD
ATOM      6  C   UNL d   1      -1.036  -0.055   0.172  0.00  0.00     0.127 C 
ENDROOT
BRANCH   2   7
ATOM      7  C   UNL d   1      -0.856  -2.593  -0.226  0.00  0.00     0.269 C 
ATOM      8  O   UNL d   1      -0.272  -3.438  -0.901  0.00  0.00    -0.266 OA
ATOM      9  N   UNL d   1      -2.053  -2.849   0.436  0.00  0.00    -0.290 N 
ATOM     10  H   UNL d   1      -2.395  -2.196   1.138  0.00  0.00     0.183 HD
BRANCH   9  11
ATOM     11  N   UNL d   1      -2.582  -4.163   0.447  0.00  0.00    -0.247 NA
ATOM     12  H   UNL d   1      -1.825  -4.799   0.156  0.00  0.00     0.143 HD
ATOM     13  H   UNL d   1      -3.265  -4.236  -0.313  0.00  0.00     0.143 HD
ENDBRANCH   9  11
ENDBRANCH   2   7
BRANCH   1  14
ATOM     14  C   UNL d   1       2.215  -1.702   0.003  0.00  0.00     0.435 C 
ATOM     15  F   UNL d   1       1.970  -2.961   0.442  0.00  0.00    -0.165 F 
ATOM     16  F   UNL d   1       2.801  -1.813  -1.213  0.00  0.00    -0.165 F 
ATOM     17  F   UNL d   1       3.146  -1.199   0.854  0.00  0.00    -0.165 F 
ENDBRANCH   1  14
BRANCH   3  18
ATOM     18  C   UNL d   1       2.089   1.449  -0.048  0.00  0.00     0.057 A 
ATOM     19  C   UNL d   1       3.228   1.189  -0.820  0.00  0.00     0.033 A 
ATOM     20  C   UNL d   1       4.244   2.147  -0.923  0.00  0.00     0.026 A 
ATOM     21  C   UNL d   1       4.124   3.369  -0.265  0.00  0.00     0.034 A 
ATOM     22  C   UNL d   1       2.987   3.650   0.485  0.00  0.00     0.026 A 
ATOM     23 CL   UNL d   1       5.377   4.539  -0.398  0.00  0.00    -0.084 Cl
ATOM     24  C   UNL d   1       1.966   2.700   0.584  0.00  0.00     0.033 A 
ENDBRANCH   3  18
TORSDOF 4
