REMARK  7 active torsions:
REMARK  status: ('A' for Active; 'I' for Inactive)
REMARK    1  A    between atoms: C_3  and  C_1 
REMARK       I    between atoms: C_2  and  N_6 
REMARK       I    between atoms: N_8  and  C_2 
REMARK       I    between atoms: N_7  and  C_3 
REMARK    2  A    between atoms: C_4  and  O_12 
REMARK    3  A    between atoms: N_6  and  C_5 
REMARK    4  A    between atoms: C_18  and  N_7 
REMARK    5  A    between atoms: C_19  and  N_8 
REMARK    6  A    between atoms: C_9  and  C_18 
REMARK    7  A    between atoms: O_12  and  C_20 
ROOT
ATOM      1  C   UNL d   1       0.999  -3.780  -1.410  0.00  0.00     0.325 C 
ATOM      2  N   UNL d   1       1.544  -2.883  -0.534  0.00  0.00    -0.308 N 
ATOM      3  N   UNL d   1       1.812  -4.388  -2.315  0.00  0.00    -0.309 N 
ATOM      4  O   UNL d   1      -0.207  -3.986  -1.572  0.00  0.00    -0.247 OA
ATOM      5  H   UNL d   1       2.554  -2.761  -0.562  0.00  0.00     0.170 HD
ATOM      6  H   UNL d   1       1.238  -4.743  -3.071  0.00  0.00     0.170 HD
ENDROOT
BRANCH   2   7
ATOM      7  C   UNL d   1       0.841  -1.789   0.063  0.00  0.00     0.052 C 
ATOM      8  C   UNL d   1       1.550  -0.658   0.542  0.00  0.00     0.058 C 
ATOM      9  C   UNL d   1       0.843   0.534   0.794  0.00  0.00     0.019 C 
ATOM     10  C   UNL d   1      -0.549   0.575   0.701  0.00  0.00     0.001 C 
ATOM     11  C   UNL d   1      -1.253  -0.579   0.396  0.00  0.00     0.002 C 
ATOM     12  C   UNL d   1      -0.562  -1.750   0.083  0.00  0.00     0.030 C 
BRANCH   8  13
ATOM     13  C   UNL d   1       3.028  -0.733   0.806  0.00  0.00     0.253 C 
ATOM     14  N   UNL d   1       3.589   0.243   1.621  0.00  0.00    -0.356 N 
ATOM     15  H   UNL d   1       2.998   0.927   2.065  0.00  0.00     0.162 HD
ATOM     16  O   UNL d   1       3.679  -1.679   0.370  0.00  0.00    -0.268 OA
BRANCH  14  17
ATOM     17  C   UNL d   1       4.869   0.021   2.262  0.00  0.00     0.127 C 
BRANCH  17  18
ATOM     18  C   UNL d   1       5.749   1.231   2.316  0.00  0.00     0.003 A 
ATOM     19  C   UNL d   1       5.324   2.504   3.011  0.00  0.00     0.007 A 
ATOM     20  C   UNL d   1       5.518   2.492   1.517  0.00  0.00     0.007 A 
ENDBRANCH  17  18
ENDBRANCH  14  17
ENDBRANCH   8  13
ENDBRANCH   2   7
BRANCH   3  21
ATOM     21  C   UNL d   1       3.178  -4.649  -2.427  0.00  0.00     0.036 A 
ATOM     22  C   UNL d   1       4.079  -4.665  -1.367  0.00  0.00     0.032 A 
ATOM     23  C   UNL d   1       5.396  -5.094  -1.581  0.00  0.00     0.039 A 
ATOM     24  C   UNL d   1       5.829  -5.513  -2.847  0.00  0.00     0.078 A 
ATOM     25  C   UNL d   1       4.943  -5.439  -3.916  0.00  0.00     0.039 A 
ATOM     26  C   UNL d   1       3.626  -5.030  -3.701  0.00  0.00     0.032 A 
BRANCH  24  27
ATOM     27  O   UNL d   1       7.110  -5.981  -2.895  0.00  0.00    -0.255 OA
BRANCH  27  28
ATOM     28  C   UNL d   1       7.497  -6.702  -4.055  0.00  0.00     0.530 C 
ATOM     29  F   UNL d   1       6.588  -7.643  -4.392  0.00  0.00    -0.144 F 
ATOM     30  F   UNL d   1       7.678  -5.863  -5.099  0.00  0.00    -0.144 F 
ATOM     31  F   UNL d   1       8.668  -7.327  -3.810  0.00  0.00    -0.144 F 
ENDBRANCH  27  28
ENDBRANCH  24  27
ENDBRANCH   3  21
TORSDOF 7
