REMARK  2 active torsions:
REMARK  status: ('A' for Active; 'I' for Inactive)
REMARK    1  A    between atoms: C_2  and  C_1 
REMARK       I    between atoms: N_10  and  C_2 
REMARK    2  A    between atoms: C_9  and  C_3 
ROOT
ATOM      1  C   UNL d   1       0.945  -0.149  -0.072  0.00  0.00     0.114 C 
ATOM      2  C   UNL d   1       0.277   0.711   0.724  0.00  0.00     0.058 C 
ATOM      3  C   UNL d   1       0.316  -1.122  -0.898  0.00  0.00     0.105 C 
ATOM      4  N   UNL d   1      -0.104  -1.927  -1.626  0.00  0.00    -0.191 NA
ENDROOT
BRANCH   1   5
ATOM      5  C   UNL d   1       2.434  -0.030  -0.103  0.00  0.00     0.260 C 
ATOM      6  O   UNL d   1       3.048   0.823   0.532  0.00  0.00    -0.267 OA
ATOM      7  N   UNL d   1       3.114  -0.924  -0.876  0.00  0.00    -0.365 N 
ATOM      8  H   UNL d   1       2.689  -1.664  -1.421  0.00  0.00     0.159 HD
ATOM      9  H   UNL d   1       4.124  -0.855  -0.889  0.00  0.00     0.159 HD
ENDBRANCH   1   5
BRANCH   2  10
ATOM     10  C   UNL d   1      -1.175   0.730   0.927  0.00  0.00     0.033 A 
ATOM     11  N   UNL d   1      -1.812  -0.451   0.783  0.00  0.00    -0.366 N 
ATOM     12  C   UNL d   1      -3.153  -0.467   0.935  0.00  0.00     0.088 A 
ATOM     13  HN  UNL d   1      -1.297  -1.304   0.566  1.00  0.00     0.165 HD
ATOM     14  C   UNL d   1      -3.898   0.654   1.243  0.00  0.00     0.017 A 
ATOM     15  C   UNL d   1      -3.227   1.859   1.417  0.00  0.00     0.004 A 
ATOM     16  C   UNL d   1      -1.842   1.902   1.264  0.00  0.00     0.029 A 
ENDBRANCH   2  10
TORSDOF 2
