REMARK  2 active torsions:
REMARK  status: ('A' for Active; 'I' for Inactive)
REMARK       I    between atoms: C_2  and  N_3 
REMARK    1  A    between atoms: C_16  and  C_2 
REMARK    2  A    between atoms: N_4  and  C_5 
ROOT
ATOM      1  C   UNL d   1      -4.485  -6.513  -0.518  0.00  0.00     0.253 C 
ATOM      2  N   UNL d   1      -3.845  -5.277  -0.426  0.00  0.00    -0.346 N 
ATOM      3  N   UNL d   1      -2.838  -2.587  -0.277  0.00  0.00    -0.280 NA
ATOM      4  C   UNL d   1      -4.118  -4.301  -1.493  0.00  0.00     0.141 C 
ATOM      5  C   UNL d   1      -2.718  -4.941   0.463  0.00  0.00     0.141 C 
ATOM      6  C   UNL d   1      -4.104  -2.847  -0.997  0.00  0.00     0.115 C 
ATOM      7  C   UNL d   1      -2.712  -3.461   0.912  0.00  0.00     0.115 C 
ATOM      8  O   UNL d   1      -5.438  -6.709  -1.270  0.00  0.00    -0.267 OA
ENDROOT
BRANCH   3   9
ATOM      9  C   UNL d   1      -2.462  -1.244  -0.071  0.00  0.00     0.024 A 
ATOM     10  C   UNL d   1      -1.085  -0.881   0.007  0.00  0.00     0.012 A 
ATOM     11  C   UNL d   1      -0.766   0.487   0.187  0.00  0.00     0.045 A 
ATOM     12  C   UNL d   1      -0.020  -1.806  -0.116  0.00  0.00     0.017 A 
ATOM     13  C   UNL d   1       0.565   0.873   0.261  0.00  0.00     0.054 A 
ATOM     14  N   UNL d   1      -1.696   1.447   0.277  0.00  0.00    -0.365 N 
ATOM     15  C   UNL d   1       1.596  -0.059   0.166  0.00  0.00     0.036 A 
ATOM     16  C   UNL d   1       1.310  -1.401  -0.023  0.00  0.00     0.025 A 
ATOM     17 CL   UNL d   1       3.233   0.459   0.271  0.00  0.00    -0.084 Cl
ATOM     18  C   UNL d   1      -2.987   1.081   0.190  0.00  0.00     0.090 A 
ATOM     19  HN  UNL d   1      -1.433   2.424   0.408  1.00  0.00     0.165 HD
ATOM     20  C   UNL d   1      -3.412  -0.223   0.023  0.00  0.00     0.041 A 
ENDBRANCH   3   9
BRANCH   1  21
ATOM     21  C   UNL d   1      -4.046  -7.660   0.318  0.00  0.00     0.032 A 
ATOM     22  C   UNL d   1      -5.034  -8.419   0.959  0.00  0.00     0.017 A 
ATOM     23  C   UNL d   1      -4.680  -9.544   1.706  0.00  0.00     0.001 A 
ATOM     24  C   UNL d   1      -3.340  -9.916   1.810  0.00  0.00     0.000 A 
ATOM     25  C   UNL d   1      -2.356  -9.179   1.151  0.00  0.00     0.001 A 
ATOM     26  C   UNL d   1      -2.709  -8.063   0.389  0.00  0.00     0.017 A 
ENDBRANCH   1  21
TORSDOF 2
