REMARK  3 active torsions:
REMARK  status: ('A' for Active; 'I' for Inactive)
REMARK    1  A    between atoms: C_9  and  C_10 
REMARK    2  A    between atoms: O_17  and  C_9 
REMARK    3  A    between atoms: C_18  and  O_17 
ROOT
ATOM      1  C   UNL d   1      -1.858   0.246   0.127  0.00  0.00     0.118 A 
ATOM      2  C   UNL d   1      -1.567  -1.053   0.429  0.00  0.00     0.118 A 
ATOM      3  C   UNL d   1      -3.234   0.122   0.611  0.00  0.00     0.253 A 
ATOM      4  C   UNL d   1      -2.895  -1.295   0.992  0.00  0.00     0.253 A 
ATOM      5  N   UNL d   1      -1.006   1.118  -0.345  0.00  0.00    -0.349 N 
ATOM      6  N   UNL d   1      -0.393  -1.618   0.280  0.00  0.00    -0.349 N 
ATOM      7  C   UNL d   1       0.367   0.685  -0.355  0.00  0.00     0.060 A 
ATOM      8  C   UNL d   1       0.680  -0.712  -0.045  0.00  0.00     0.059 A 
ATOM      9  C   UNL d   1       2.709   1.211  -0.190  0.00  0.00     0.041 A 
ATOM     10  C   UNL d   1       1.393   1.618  -0.448  0.00  0.00     0.049 A 
ATOM     11  O   UNL d   1      -3.466  -2.139   1.638  0.00  0.00    -0.281 OA
ATOM     12  O   UNL d   1      -4.201   0.821   0.788  0.00  0.00    -0.281 OA
ATOM     13  C   UNL d   1       2.005  -1.112   0.094  0.00  0.00     0.033 A 
ATOM     14  C   UNL d   1       3.014  -0.146   0.041  0.00  0.00     0.020 A 
ATOM     15  H   UNL d   1      -1.197   2.086  -0.590  0.00  0.00     0.166 HD
ATOM     16  H   UNL d   1      -0.143  -2.567   0.530  0.00  0.00     0.166 HD
ENDROOT
BRANCH   9  17
ATOM     17  C   UNL d   1       3.737   2.276  -0.071  0.00  0.00     0.293 C 
ATOM     18  O   UNL d   1       3.564   3.426  -0.442  0.00  0.00    -0.259 OA
BRANCH  17  19
ATOM     19  O   UNL d   1       4.833   1.793   0.563  0.00  0.00    -0.318 OA
BRANCH  19  20
ATOM     20  C   UNL d   1       5.895   2.734   0.770  0.00  0.00     0.174 C 
ATOM     21  C   UNL d   1       6.745   2.818  -0.483  0.00  0.00     0.034 C 
ENDBRANCH  19  20
ENDBRANCH  17  19
ENDBRANCH   9  17
TORSDOF 3
