REMARK  6 active torsions:
REMARK  status: ('A' for Active; 'I' for Inactive)
REMARK    1  A    between atoms: C_8  and  C_1 
REMARK    2  A    between atoms: C_5  and  C_2 
REMARK    3  A    between atoms: O_14  and  C_8 
REMARK    4  A    between atoms: O_13  and  C_9 
REMARK    5  A    between atoms: O_17  and  C_11 
REMARK    6  A    between atoms: C_20  and  O_14 
ROOT
ATOM      1  C   UNL d   1       1.456   1.036  -0.036  0.00  0.00     0.067 C 
ATOM      2  C   UNL d   1       0.205   1.886  -0.141  0.00  0.00     0.164 C 
ATOM      3  C   UNL d   1       1.381  -0.314  -0.070  0.00  0.00     0.024 C 
ATOM      4  C   UNL d   1      -1.057  -0.255  -0.134  0.00  0.00     0.321 C 
ATOM      5  N   UNL d   1       0.138  -0.901  -0.181  0.00  0.00    -0.312 N 
ATOM      6  N   UNL d   1      -0.995   1.084   0.063  0.00  0.00    -0.330 N 
ATOM      7  O   UNL d   1      -2.124  -0.846  -0.192  0.00  0.00    -0.247 OA
ATOM      8  C   UNL d   1       2.506  -1.314  -0.014  0.00  0.00     0.069 C 
ATOM      9  H   UNL d   1       0.063  -1.911  -0.243  0.00  0.00     0.170 HD
ATOM     10  H   UNL d   1      -1.895   1.547   0.030  0.00  0.00     0.165 HD
ENDROOT
BRANCH   2  11
ATOM     11  C   UNL d   1       0.133   3.059   0.826  0.00  0.00     0.005 A 
ATOM     12  C   UNL d   1       0.184   2.886   2.225  0.00  0.00     0.107 A 
ATOM     13  C   UNL d   1       0.253   3.991   3.082  0.00  0.00     0.101 A 
ATOM     14  C   UNL d   1       0.210   5.277   2.529  0.00  0.00     0.039 A 
ATOM     15  C   UNL d   1       0.098   5.467   1.153  0.00  0.00     0.003 A 
ATOM     16  C   UNL d   1       0.060   4.365   0.305  0.00  0.00     0.012 A 
BRANCH  12  17
ATOM     17  O   UNL d   1       0.164   1.615   2.737  0.00  0.00    -0.357 OA
ATOM     18  H   UNL d   1      -0.311   1.035   2.113  0.00  0.00     0.217 HD
ENDBRANCH  12  17
BRANCH  13  19
ATOM     19  O   UNL d   1       0.353   4.003   4.447  0.00  0.00    -0.353 OA
ATOM     20  C   UNL d   1       0.444   2.759   5.126  0.00  0.00     0.210 C 
ENDBRANCH  13  19
ENDBRANCH   2  11
BRANCH   1  21
ATOM     21  C   UNL d   1       2.767   1.724   0.111  0.00  0.00     0.293 C 
ATOM     22  O   UNL d   1       3.741   1.237   0.666  0.00  0.00    -0.259 OA
BRANCH  21  23
ATOM     23  O   UNL d   1       2.739   2.958  -0.449  0.00  0.00    -0.318 OA
BRANCH  23  24
ATOM     24  C   UNL d   1       3.947   3.730  -0.308  0.00  0.00     0.174 C 
ATOM     25  C   UNL d   1       4.149   4.237   1.113  0.00  0.00     0.034 C 
ENDBRANCH  23  24
ENDBRANCH  21  23
ENDBRANCH   1  21
TORSDOF 6
