REMARK  4 active torsions:
REMARK  status: ('A' for Active; 'I' for Inactive)
REMARK    1  A    between atoms: C_8  and  C_1 
REMARK    2  A    between atoms: C_3  and  C_15 
REMARK       I    between atoms: N_14  and  C_8 
REMARK    3  A    between atoms: C_15  and  C_9 
REMARK       I    between atoms: C_13  and  N_16 
REMARK       I    between atoms: N_22  and  C_13 
REMARK    4  A    between atoms: N_16  and  N_14 
ROOT
ATOM      1  C   UNL d   1       1.178   0.874  -0.123  0.00  0.00     0.109 A 
ATOM      2  N   UNL d   1       1.367  -0.504  -0.276  0.00  0.00    -0.349 N 
ATOM      3  HN  UNL d   1       2.258  -0.953  -0.487  1.00  0.00     0.166 HD
ATOM      4  C   UNL d   1       0.220  -1.138  -0.105  0.00  0.00     0.055 A 
ATOM      5  C   UNL d   1      -0.135   1.249   0.097  0.00  0.00     0.086 A 
ATOM      6  S   UNL d   1      -1.150  -0.124   0.135  0.00  0.00    -0.086 SA
ENDROOT
BRANCH   4   7
ATOM      7  C   UNL d   1       0.065  -2.632  -0.033  0.00  0.00     0.106 C 
BRANCH   7   8
ATOM      8  C   UNL d   1      -0.093  -3.283  -1.380  0.00  0.00    -0.012 A 
ATOM      9  C   UNL d   1      -1.292  -3.542  -2.004  0.00  0.00     0.082 A 
ATOM     10  S   UNL d   1      -1.149  -4.331  -3.487  0.00  0.00    -0.077 SA
ATOM     11 CL   UNL d   1      -2.874  -3.172  -1.431  0.00  0.00    -0.076 Cl
ATOM     12  C   UNL d   1       0.566  -4.374  -3.370  0.00  0.00     0.017 A 
ATOM     13  C   UNL d   1       1.013  -3.762  -2.193  0.00  0.00    -0.009 A 
ATOM     14  C   UNL d   1       1.459  -4.937  -4.303  0.00  0.00     0.021 A 
ATOM     15  C   UNL d   1       2.414  -3.713  -1.968  0.00  0.00     0.037 A 
ATOM     16  C   UNL d   1       3.300  -4.270  -2.895  0.00  0.00     0.035 A 
ATOM     17  C   UNL d   1       2.830  -4.878  -4.049  0.00  0.00     0.025 A 
ATOM     18 CL   UNL d   1       4.993  -4.206  -2.593  0.00  0.00    -0.084 Cl
ENDBRANCH   7   8
ENDBRANCH   4   7
BRANCH   1  19
ATOM     19  C   UNL d   1       2.288   1.829  -0.146  0.00  0.00     0.287 C 
ATOM     20  N   UNL d   1       3.449   1.334  -0.704  0.00  0.00    -0.261 N 
ATOM     21  H   UNL d   1       3.462   0.456  -1.221  0.00  0.00     0.190 HD
ATOM     22  O   UNL d   1       2.204   2.971   0.301  0.00  0.00    -0.264 OA
BRANCH  20  23
ATOM     23  N   UNL d   1       4.579   2.170  -0.774  0.00  0.00    -0.249 N 
ATOM     24  C   UNL d   1       5.377   2.088  -1.897  0.00  0.00     0.334 C 
ATOM     25  O   UNL d   1       5.202   1.275  -2.800  0.00  0.00    -0.246 OA
ATOM     26  N   UNL d   1       6.396   3.007  -1.852  0.00  0.00    -0.346 N 
ATOM     27  C   UNL d   1       7.424   3.064  -2.864  0.00  0.00     0.151 C 
ATOM     28  H   UNL d   1       6.629   3.366  -0.938  0.00  0.00     0.163 HD
ATOM     29  H   UNL d   1       4.428   3.101  -0.390  0.00  0.00     0.192 HD
ENDBRANCH  20  23
ENDBRANCH   1  19
TORSDOF 4
