REMARK  5 active torsions:
REMARK  status: ('A' for Active; 'I' for Inactive)
REMARK    1  A    between atoms: C_2  and  C_1 
REMARK    2  A    between atoms: S_13  and  C_7 
REMARK    3  A    between atoms: C_16  and  S_13 
REMARK    4  A    between atoms: C_14  and  C_16 
REMARK    5  A    between atoms: C_15  and  C_14 
ROOT
ATOM      1  C   UNL d   1      -0.402   2.790   0.262  0.00  0.00     0.197 C 
ATOM      2  S   UNL d   1      -1.455   3.418  -1.067  0.00  0.00    -0.076 SA
ATOM      3  C   UNL d   1      -2.442   4.177   0.150  0.00  0.00     0.120 C 
ATOM      4  N   UNL d   1      -1.181   2.979   1.502  0.00  0.00    -0.219 NA
ATOM      5  N   UNL d   1      -2.231   3.865   1.392  0.00  0.00    -0.308 N 
ATOM      6  HN  UNL d   1      -2.769   4.226   2.180  1.00  0.00     0.182 HD
ATOM      7  H   UNL d   1      -1.530   2.050   1.773  0.00  0.00     0.148 HD
ENDROOT
BRANCH   3   8
ATOM      8  S   UNL d   1      -3.650   5.298  -0.378  0.00  0.00    -0.096 SA
BRANCH   8   9
ATOM      9  C   UNL d   1      -4.131   6.040   1.209  0.00  0.00     0.165 C 
BRANCH   9  10
ATOM     10  C   UNL d   1      -5.069   7.226   1.017  0.00  0.00     0.169 C 
ATOM     11  O   UNL d   1      -5.404   7.664  -0.083  0.00  0.00    -0.291 OA
BRANCH  10  12
ATOM     12  C   UNL d   1      -5.602   7.917   2.236  0.00  0.00     0.011 A 
ATOM     13  C   UNL d   1      -5.335   7.475   3.539  0.00  0.00     0.017 A 
ATOM     14  C   UNL d   1      -5.863   8.165   4.638  0.00  0.00     0.025 A 
ATOM     15  C   UNL d   1      -6.654   9.295   4.442  0.00  0.00     0.034 A 
ATOM     16  C   UNL d   1      -6.928   9.746   3.154  0.00  0.00     0.025 A 
ATOM     17 CL   UNL d   1      -7.297  10.136   5.798  0.00  0.00    -0.084 Cl
ATOM     18  C   UNL d   1      -6.404   9.058   2.055  0.00  0.00     0.017 A 
ENDBRANCH  10  12
ENDBRANCH   9  10
ENDBRANCH   8   9
ENDBRANCH   3   8
BRANCH   1  19
ATOM     19  C   UNL d   1      -0.008   1.355   0.073  0.00  0.00     0.078 A 
ATOM     20  C   UNL d   1       1.129   0.862  -0.616  0.00  0.00     0.077 A 
ATOM     21  C   UNL d   1       1.065  -0.504  -0.503  0.00  0.00     0.135 A 
ATOM     22 CL   UNL d   1       2.320   1.768  -1.409  0.00  0.00    -0.081 Cl
ATOM     23  N   UNL d   1      -0.063  -0.766   0.214  0.00  0.00    -0.306 N 
ATOM     24  N   UNL d   1      -0.733   0.341   0.596  0.00  0.00    -0.299 N 
ATOM     25  C   UNL d   1      -0.554  -2.076   0.570  0.00  0.00     0.177 C 
ATOM     26  HN  UNL d   1      -1.587   0.399   1.150  1.00  0.00     0.187 HD
ENDBRANCH   1  19
TORSDOF 5
