REMARK  3 active torsions:
REMARK  status: ('A' for Active; 'I' for Inactive)
REMARK    1  A    between atoms: C_4  and  C_1 
REMARK       I    between atoms: N_7  and  C_4 
REMARK    2  A    between atoms: N_8  and  N_7 
REMARK    3  A    between atoms: C_9  and  N_8 
ROOT
ATOM      1  C   UNL d   1       3.753  -0.246   0.535  0.00  0.00     0.274 C 
ATOM      2  N   UNL d   1       4.712  -1.165   0.130  0.00  0.00    -0.282 N 
ATOM      3  O   UNL d   1       2.562  -0.581   0.532  0.00  0.00    -0.266 OA
ATOM      4  H   UNL d   1       5.667  -0.899  -0.092  0.00  0.00     0.184 HD
ENDROOT
BRANCH   1   5
ATOM      5  C   UNL d   1       4.209   1.069   0.966  0.00  0.00     0.097 A 
ATOM      6  S   UNL d   1       2.993   2.246   1.271  0.00  0.00    -0.082 SA
ATOM      7  C   UNL d   1       4.114   3.414   1.824  0.00  0.00     0.017 A 
ATOM      8  C   UNL d   1       3.808   4.698   2.316  0.00  0.00     0.020 A 
ATOM      9  C   UNL d   1       5.426   2.943   1.741  0.00  0.00     0.004 A 
ATOM     10  C   UNL d   1       4.845   5.521   2.754  0.00  0.00     0.001 A 
ATOM     11  C   UNL d   1       6.158   5.084   2.693  0.00  0.00     0.001 A 
ATOM     12  C   UNL d   1       6.457   3.814   2.185  0.00  0.00     0.014 A 
ATOM     13  C   UNL d   1       5.463   1.597   1.208  0.00  0.00     0.068 A 
ATOM     14 CL   UNL d   1       6.960   0.779   0.975  0.00  0.00    -0.082 Cl
ENDBRANCH   1   5
BRANCH   2  15
ATOM     15  N   UNL d   1       4.225  -2.342  -0.466  0.00  0.00    -0.203 NA
ATOM     16  H   UNL d   1       3.247  -2.503  -0.185  0.00  0.00     0.153 HD
BRANCH  15  17
ATOM     17  C   UNL d   1       4.981  -3.526  -0.280  0.00  0.00     0.033 C 
ATOM     18  C   UNL d   1       5.790  -3.853   0.821  0.00  0.00    -0.039 C 
ATOM     19  C   UNL d   1       6.528  -5.059   0.792  0.00  0.00     0.015 C 
ATOM     20  C   UNL d   1       5.949  -3.000   2.049  0.00  0.00     0.050 C 
ATOM     21  C   UNL d   1       6.407  -5.978  -0.257  0.00  0.00    -0.061 C 
ATOM     22  C   UNL d   1       5.494  -5.712  -1.272  0.00  0.00     0.008 C 
ATOM     23  C   UNL d   1       7.250  -7.217  -0.280  0.00  0.00     0.048 C 
ATOM     24  C   UNL d   1       4.793  -4.505  -1.277  0.00  0.00     0.026 C 
ENDBRANCH  15  17
ENDBRANCH   2  15
TORSDOF 3
