REMARK  5 active torsions:
REMARK  status: ('A' for Active; 'I' for Inactive)
REMARK       I    between atoms: N_2  and  C_1 
REMARK    1  A    between atoms: C_15  and  C_1 
REMARK    2  A    between atoms: C_7  and  N_2 
REMARK    3  A    between atoms: C_3  and  C_16 
REMARK       I    between atoms: N_8  and  C_3 
REMARK    4  A    between atoms: S_6  and  C_15 
REMARK    5  A    between atoms: C_16  and  S_6 
ROOT
ATOM      1  C   UNL d   1       1.212  -0.088  -0.233  0.00  0.00     0.231 C 
ATOM      2  N   UNL d   1       0.530  -0.675   0.819  0.00  0.00    -0.327 N 
ATOM      3  O   UNL d   1       0.689   0.411  -1.230  0.00  0.00    -0.272 OA
ATOM      4  H   UNL d   1       1.099  -0.978   1.602  0.00  0.00     0.169 HD
ENDROOT
BRANCH   1   5
ATOM      5  C   UNL d   1       2.719   0.034  -0.057  0.00  0.00     0.177 C 
BRANCH   5   6
ATOM      6  S   UNL d   1       3.481  -1.371   0.820  0.00  0.00    -0.150 SA
BRANCH   6   7
ATOM      7  C   UNL d   1       5.223  -1.023   0.394  0.00  0.00     0.176 C 
BRANCH   7   8
ATOM      8  C   UNL d   1       5.684   0.261   1.054  0.00  0.00     0.224 C 
ATOM      9  O   UNL d   1       5.591   1.365   0.523  0.00  0.00    -0.273 OA
ATOM     10  N   UNL d   1       6.191   0.130   2.315  0.00  0.00    -0.369 N 
ATOM     11  H   UNL d   1       6.061  -0.715   2.857  0.00  0.00     0.159 HD
ATOM     12  H   UNL d   1       6.421   0.981   2.810  0.00  0.00     0.159 HD
ENDBRANCH   7   8
ENDBRANCH   6   7
ENDBRANCH   5   6
ENDBRANCH   1   5
BRANCH   2  13
ATOM     13  C   UNL d   1      -0.861  -0.906   0.902  0.00  0.00     0.034 A 
ATOM     14  C   UNL d   1      -1.744  -0.687  -0.161  0.00  0.00     0.032 A 
ATOM     15  C   UNL d   1      -3.111  -0.945  -0.024  0.00  0.00     0.044 A 
ATOM     16  C   UNL d   1      -3.600  -1.420   1.183  0.00  0.00     0.116 A 
ATOM     17  C   UNL d   1      -2.746  -1.645   2.255  0.00  0.00     0.044 A 
ATOM     18  F   UNL d   1      -4.910  -1.668   1.314  0.00  0.00    -0.206 F 
ATOM     19  C   UNL d   1      -1.375  -1.394   2.113  0.00  0.00     0.032 A 
ENDBRANCH   2  13
TORSDOF 5
