REMARK  7 active torsions:
REMARK  status: ('A' for Active; 'I' for Inactive)
REMARK    1  A    between atoms: N_2  and  S_1 
REMARK    2  A    between atoms: C_4  and  S_1 
REMARK    3  A    between atoms: C_9  and  N_2 
REMARK    4  A    between atoms: C_12  and  N_2 
REMARK    5  A    between atoms: C_3  and  C_5 
REMARK    6  A    between atoms: C_18  and  C_9 
REMARK    7  A    between atoms: N_11  and  C_10 
ROOT
ATOM      1  N   UNL d   1       0.451   0.437   1.427  0.00  0.00    -0.298 N 
ENDROOT
BRANCH   1   2
ATOM      2  S   UNL d   1       1.184  -0.186  -0.020  0.00  0.00     0.261 S 
ATOM      3  O   UNL d   1       2.526   0.354  -0.072  0.00  0.00    -0.200 OA
ATOM      4  O   UNL d   1       0.314  -0.085  -1.167  0.00  0.00    -0.200 OA
BRANCH   2   5
ATOM      5  C   UNL d   1       1.348  -1.942   0.278  0.00  0.00     0.080 A 
ATOM      6  C   UNL d   1       2.630  -2.511   0.247  0.00  0.00     0.041 A 
ATOM      7  C   UNL d   1       2.804  -3.876   0.524  0.00  0.00     0.049 A 
ATOM      8  C   UNL d   1       1.675  -4.657   0.787  0.00  0.00     0.016 A 
ATOM      9  C   UNL d   1       0.393  -4.092   0.791  0.00  0.00     0.002 A 
ATOM     10  C   UNL d   1       0.226  -2.731   0.531  0.00  0.00     0.025 A 
BRANCH   7  11
ATOM     11  C   UNL d   1       4.189  -4.480   0.540  0.00  0.00     0.417 C 
ATOM     12  F   UNL d   1       5.184  -3.570   0.359  0.00  0.00    -0.166 F 
ATOM     13  F   UNL d   1       4.462  -5.098   1.722  0.00  0.00    -0.166 F 
ATOM     14  F   UNL d   1       4.359  -5.423  -0.426  0.00  0.00    -0.166 F 
ENDBRANCH   7  11
ENDBRANCH   2   5
ENDBRANCH   1   2
BRANCH   1  15
ATOM     15  C   UNL d   1      -1.039   0.620   1.409  0.00  0.00     0.174 C 
BRANCH  15  16
ATOM     16  C   UNL d   1      -1.630   1.358   0.228  0.00  0.00    -0.040 A 
ATOM     17  C   UNL d   1      -2.508   0.711  -0.645  0.00  0.00     0.011 A 
ATOM     18  C   UNL d   1      -2.919   1.330  -1.835  0.00  0.00     0.030 A 
ATOM     19  C   UNL d   1      -2.486   2.614  -2.207  0.00  0.00     0.029 A 
ATOM     20  C   UNL d   1      -1.708   3.292  -1.254  0.00  0.00     0.030 A 
ATOM     21  C   UNL d   1      -1.282   2.680  -0.060  0.00  0.00     0.011 A 
BRANCH  19  22
ATOM     22  N   UNL d   1      -2.838   3.157  -3.439  0.00  0.00    -0.390 N 
ATOM     23  C   UNL d   1      -2.948   2.274  -4.604  0.00  0.00     0.149 C 
ATOM     24  C   UNL d   1      -2.617   4.561  -3.770  0.00  0.00     0.149 C 
ENDBRANCH  19  22
ENDBRANCH  15  16
ENDBRANCH   1  15
BRANCH   1  25
ATOM     25  C   UNL d   1       1.005  -0.086   2.747  0.00  0.00     0.088 C 
ATOM     26  C   UNL d   1       2.531  -0.001   2.853  0.00  0.00     0.032 C 
ATOM     27  C   UNL d   1       0.437   0.647   3.969  0.00  0.00     0.032 C 
ENDBRANCH   1  25
TORSDOF 7
