REMARK  5 active torsions:
REMARK  status: ('A' for Active; 'I' for Inactive)
REMARK    1  A    between atoms: C_7  and  C_1 
REMARK    2  A    between atoms: C_8  and  N_2 
REMARK    3  A    between atoms: C_9  and  C_6 
REMARK       I    between atoms: N_11  and  C_7 
REMARK    4  A    between atoms: C_12  and  C_8 
REMARK    5  A    between atoms: N_14  and  N_11 
ROOT
ATOM      1  C   UNL d   1      -0.463  -1.219   0.208  0.00  0.00     0.122 A 
ATOM      2  N   UNL d   1       0.823  -0.730   0.135  0.00  0.00    -0.282 N 
ATOM      3  N   UNL d   1       0.881   0.624   0.082  0.00  0.00    -0.301 N 
ATOM      4  HN  UNL d   1       1.716   1.209   0.043  1.00  0.00     0.187 HD
ATOM      5  C   UNL d   1      -1.263  -0.088   0.173  0.00  0.00     0.064 A 
ATOM      6  C   UNL d   1      -0.394   1.026   0.091  0.00  0.00     0.036 A 
ENDROOT
BRANCH   2   7
ATOM      7  C   UNL d   1       2.059  -1.482  -0.064  0.00  0.00     0.188 C 
BRANCH   7   8
ATOM      8  C   UNL d   1       2.734  -1.912   1.218  0.00  0.00    -0.038 A 
ATOM      9  C   UNL d   1       3.203  -0.975   2.150  0.00  0.00     0.015 A 
ATOM     10  C   UNL d   1       3.979  -1.376   3.246  0.00  0.00    -0.061 A 
ATOM     11  C   UNL d   1       4.584  -0.356   4.165  0.00  0.00     0.048 C 
ATOM     12  C   UNL d   1       4.223  -2.743   3.452  0.00  0.00     0.007 A 
ATOM     13  C   UNL d   1       3.719  -3.685   2.557  0.00  0.00     0.001 A 
ATOM     14  C   UNL d   1       2.996  -3.271   1.440  0.00  0.00     0.009 A 
ENDBRANCH   7   8
ENDBRANCH   2   7
BRANCH   1  15
ATOM     15  C   UNL d   1      -0.820  -2.622   0.258  0.00  0.00     0.283 C 
ATOM     16  O   UNL d   1      -0.017  -3.547   0.199  0.00  0.00    -0.265 OA
ATOM     17  N   UNL d   1      -2.191  -2.872   0.341  0.00  0.00    -0.288 N 
ATOM     18  H   UNL d   1      -2.845  -2.117   0.510  0.00  0.00     0.183 HD
BRANCH  17  19
ATOM     19  N   UNL d   1      -2.668  -4.203   0.381  0.00  0.00    -0.247 NA
ATOM     20  H   UNL d   1      -1.843  -4.816   0.311  0.00  0.00     0.143 HD
ATOM     21  H   UNL d   1      -3.192  -4.378  -0.479  0.00  0.00     0.143 HD
ENDBRANCH  17  19
ENDBRANCH   1  15
BRANCH   6  22
ATOM     22  C   UNL d   1      -0.758   2.503   0.035  0.00  0.00    -0.007 C 
ATOM     23  C   UNL d   1      -0.838   3.074   1.465  0.00  0.00     0.021 C 
ATOM     24  C   UNL d   1       0.287   3.309  -0.765  0.00  0.00     0.021 C 
ATOM     25  C   UNL d   1      -2.127   2.715  -0.647  0.00  0.00     0.021 C 
ENDBRANCH   6  22
TORSDOF 5
