REMARK  4 active torsions:
REMARK  status: ('A' for Active; 'I' for Inactive)
REMARK    1  A    between atoms: C_4  and  C_1 
REMARK    2  A    between atoms: C_9  and  C_3 
REMARK       I    between atoms: N_8  and  C_4 
REMARK    3  A    between atoms: N_7  and  C_10 
REMARK    4  A    between atoms: C_13  and  N_8 
ROOT
ATOM      1  C   UNL d   1      -2.734  -1.229  -0.114  0.00  0.00     0.258 C 
ATOM      2  N   UNL d   1      -3.966  -0.609   0.019  0.00  0.00    -0.323 N 
ATOM      3  O   UNL d   1      -1.692  -0.639  -0.392  0.00  0.00    -0.267 OA
ATOM      4  H   UNL d   1      -4.704  -1.133   0.464  0.00  0.00     0.169 HD
ENDROOT
BRANCH   2   5
ATOM      5  C   UNL d   1      -4.295   0.693  -0.436  0.00  0.00     0.035 A 
ATOM      6  C   UNL d   1      -3.426   1.485  -1.185  0.00  0.00     0.031 A 
ATOM      7  C   UNL d   1      -3.863   2.688  -1.749  0.00  0.00     0.026 A 
ATOM      8  C   UNL d   1      -5.180   3.142  -1.605  0.00  0.00     0.010 A 
ATOM      9  C   UNL d   1      -6.013   2.400  -0.760  0.00  0.00     0.026 A 
ATOM     10  C   UNL d   1      -5.582   1.184  -0.193  0.00  0.00     0.031 A 
BRANCH   8  11
ATOM     11  N   UNL d   1      -5.586   4.262  -2.351  0.00  0.00    -0.279 NA
ATOM     12  C   UNL d   1      -6.816   4.976  -1.948  0.00  0.00     0.122 C 
ATOM     13  C   UNL d   1      -7.008   6.222  -2.834  0.00  0.00     0.182 C 
ATOM     14  O   UNL d   1      -7.074   5.870  -4.227  0.00  0.00    -0.389 OA
ATOM     15  C   UNL d   1      -5.854   5.228  -4.626  0.00  0.00     0.182 C 
ATOM     16  C   UNL d   1      -5.592   3.955  -3.809  0.00  0.00     0.122 C 
ENDBRANCH   8  11
ENDBRANCH   2   5
BRANCH   1  17
ATOM     17  C   UNL d   1      -2.680  -2.673   0.114  0.00  0.00     0.064 A 
ATOM     18  C   UNL d   1      -1.445  -3.397   0.245  0.00  0.00     0.053 A 
ATOM     19  C   UNL d   1      -1.748  -4.731   0.379  0.00  0.00     0.062 A 
ATOM     20  O   UNL d   1      -3.103  -4.879   0.353  0.00  0.00    -0.318 OA
ATOM     21  C   UNL d   1      -3.665  -3.648   0.166  0.00  0.00     0.065 A 
ATOM     22  C   UNL d   1      -5.137  -3.696   0.033  0.00  0.00     0.077 C 
BRANCH  19  23
ATOM     23  C   UNL d   1      -0.933  -5.991   0.534  0.00  0.00    -0.002 C 
ATOM     24  C   UNL d   1       0.575  -5.692   0.435  0.00  0.00     0.021 C 
ATOM     25  C   UNL d   1      -1.221  -6.617   1.909  0.00  0.00     0.021 C 
ATOM     26  C   UNL d   1      -1.298  -6.994  -0.575  0.00  0.00     0.021 C 
ENDBRANCH  19  23
ENDBRANCH   1  17
TORSDOF 4
