REMARK  4 active torsions:
REMARK  status: ('A' for Active; 'I' for Inactive)
REMARK    1  A    between atoms: N_5  and  C_1 
REMARK    2  A    between atoms: N_6  and  C_1 
REMARK    3  A    between atoms: N_2  and  N_5 
REMARK    4  A    between atoms: C_8  and  C_7 
ROOT
ATOM      1  N   UNL d   1      -1.268  -0.744   0.817  0.00  0.00    -0.309 N 
ATOM      2  HN  UNL d   1      -1.802  -0.406   0.016  1.00  0.00     0.186 HD
ATOM      3  C   UNL d   1      -1.839  -1.289   1.842  0.00  0.00     0.118 C 
ENDROOT
BRANCH   1   4
ATOM      4  N   UNL d   1       0.092  -0.648   0.874  0.00  0.00    -0.277 N 
ATOM      5  H   UNL d   1       0.609  -0.975   1.686  0.00  0.00     0.189 HD
BRANCH   4   6
ATOM      6  C   UNL d   1       0.798  -0.099  -0.179  0.00  0.00     0.186 C 
ATOM      7  S   UNL d   1       2.456   0.022  -0.097  0.00  0.00    -0.040 SA
BRANCH   6   8
ATOM      8  N   UNL d   1      -0.012   0.292  -1.210  0.00  0.00    -0.370 N 
ATOM      9  C   UNL d   1       0.330   0.914  -2.466  0.00  0.00     0.148 C 
ATOM     10  H   UNL d   1      -0.991   0.119  -0.996  0.00  0.00     0.161 HD
ENDBRANCH   6   8
ENDBRANCH   4   6
ENDBRANCH   1   4
BRANCH   3  11
ATOM     11  C   UNL d   1      -3.307  -1.446   1.889  0.00  0.00    -0.019 A 
ATOM     12  C   UNL d   1      -4.103  -0.972   0.839  0.00  0.00     0.014 A 
ATOM     13  C   UNL d   1      -5.489  -1.127   0.888  0.00  0.00     0.024 A 
ATOM     14  C   UNL d   1      -6.074  -1.756   1.986  0.00  0.00     0.034 A 
ATOM     15  C   UNL d   1      -5.284  -2.229   3.035  0.00  0.00     0.024 A 
ATOM     16 CL   UNL d   1      -7.782  -1.951   2.045  0.00  0.00    -0.084 Cl
ATOM     17  C   UNL d   1      -3.895  -2.074   2.991  0.00  0.00     0.014 A 
ENDBRANCH   3  11
TORSDOF 4
