REMARK  1 active torsions:
REMARK  status: ('A' for Active; 'I' for Inactive)
REMARK    1  A    between atoms: C_2  and  N_1 
REMARK       I    between atoms: C_3  and  N_1 
ROOT
ATOM      1  C   UNL d   1       0.350  -0.839   0.998  0.00  0.00     0.051 A 
ATOM      2  C   UNL d   1       0.679  -1.340   2.270  0.00  0.00     0.033 A 
ATOM      3  I   UNL d   1       2.168  -0.456   3.462  0.00  0.00    -0.042 I 
ATOM      4  C   UNL d   1      -0.647  -1.489   0.258  0.00  0.00     0.031 A 
ATOM      5  C   UNL d   1      -0.026  -2.417   2.816  0.00  0.00     0.020 A 
ATOM      6  C   UNL d   1      -1.336  -2.579   0.796  0.00  0.00     0.002 A 
ATOM      7  C   UNL d   1      -1.036  -3.034   2.078  0.00  0.00     0.001 A 
ENDROOT
BRANCH   1   8
ATOM      8  N   UNL d   1       1.068   0.245   0.467  0.00  0.00    -0.326 N 
ATOM      9  C   UNL d   1       0.679   1.244  -0.374  0.00  0.00     0.218 C 
ATOM     10  O   UNL d   1       1.529   1.995  -0.857  0.00  0.00    -0.274 OA
ATOM     11  C   UNL d   1      -0.788   1.484  -0.632  0.00  0.00     0.117 C 
ATOM     12  H   UNL d   1       2.012   0.380   0.819  0.00  0.00     0.169 HD
ENDBRANCH   1   8
TORSDOF 1
