REMARK  4 active torsions:
REMARK  status: ('A' for Active; 'I' for Inactive)
REMARK       I    between atoms: N_2  and  C_1 
REMARK       I    between atoms: N_7  and  C_1 
REMARK    1  A    between atoms: C_5  and  N_2 
REMARK    2  A    between atoms: C_9  and  N_7 
REMARK    3  A    between atoms: C_10  and  C_9 
REMARK    4  A    between atoms: O_16  and  C_11 
ROOT
ATOM      1  N   UNL d   1      -0.163   2.554  -4.960  0.00  0.00    -0.191 NA
ATOM      2  C   UNL d   1       0.405   1.551  -4.819  0.00  0.00     0.102 C 
ATOM      3  C   UNL d   1       1.180  -0.245  -3.307  0.00  0.00     0.057 A 
ATOM      4  C   UNL d   1       1.118   0.329  -4.584  0.00  0.00     0.071 A 
ATOM      5  C   UNL d   1       1.835  -0.245  -5.646  0.00  0.00     0.025 A 
ATOM      6  C   UNL d   1       1.966  -1.392  -3.104  0.00  0.00     0.031 A 
ATOM      7  C   UNL d   1       2.600  -1.393  -5.441  0.00  0.00     0.002 A 
ATOM      8  C   UNL d   1       2.664  -1.965  -4.175  0.00  0.00     0.002 A 
ENDROOT
BRANCH   3   9
ATOM      9  N   UNL d   1       0.447   0.299  -2.218  0.00  0.00    -0.307 N 
ATOM     10  C   UNL d   1       1.036   0.543  -1.002  0.00  0.00     0.321 C 
ATOM     11  N   UNL d   1       0.226   1.034  -0.030  0.00  0.00    -0.339 N 
ATOM     12  O   UNL d   1       2.227   0.387  -0.753  0.00  0.00    -0.247 OA
ATOM     13  H   UNL d   1       0.733   1.254   0.819  0.00  0.00     0.164 HD
ATOM     14  H   UNL d   1      -0.289   0.953  -2.443  0.00  0.00     0.170 HD
BRANCH  11  15
ATOM     15  C   UNL d   1      -1.216   1.147   0.022  0.00  0.00     0.162 C 
BRANCH  15  16
ATOM     16  C   UNL d   1      -1.640   2.575   0.248  0.00  0.00    -0.040 A 
ATOM     17  C   UNL d   1      -1.313   3.570  -0.684  0.00  0.00     0.011 A 
ATOM     18  C   UNL d   1      -1.728   4.893  -0.498  0.00  0.00     0.037 A 
ATOM     19  C   UNL d   1      -2.476   5.244   0.624  0.00  0.00     0.068 A 
ATOM     20  C   UNL d   1      -2.802   4.258   1.558  0.00  0.00     0.037 A 
ATOM     21  C   UNL d   1      -2.389   2.935   1.376  0.00  0.00     0.011 A 
BRANCH  19  22
ATOM     22  O   UNL d   1      -2.942   6.495   0.920  0.00  0.00    -0.356 OA
ATOM     23  C   UNL d   1      -2.638   7.527  -0.012  0.00  0.00     0.210 C 
ENDBRANCH  19  22
ENDBRANCH  15  16
ENDBRANCH  11  15
ENDBRANCH   3   9
TORSDOF 4
