REMARK  8 active torsions:
REMARK  status: ('A' for Active; 'I' for Inactive)
REMARK    1  A    between atoms: C_2  and  C_1 
REMARK       I    between atoms: N_6  and  C_1 
REMARK    2  A    between atoms: O_11  and  C_3 
REMARK    3  A    between atoms: O_13  and  C_4 
REMARK    4  A    between atoms: O_12  and  C_5 
REMARK    5  A    between atoms: C_9  and  N_6 
REMARK    6  A    between atoms: C_14  and  C_9 
REMARK    7  A    between atoms: C_16  and  C_14 
REMARK    8  A    between atoms: O_15  and  C_16 
ROOT
ATOM      1  C   UNL d   1       0.264   0.898   0.888  0.00  0.00     0.037 A 
ATOM      2  C   UNL d   1      -1.274   2.887   2.145  0.00  0.00     0.135 A 
ATOM      3  C   UNL d   1      -1.579   1.517   2.326  0.00  0.00     0.105 A 
ATOM      4  C   UNL d   1      -0.164   3.256   1.355  0.00  0.00     0.105 A 
ATOM      5  C   UNL d   1       0.585   2.252   0.722  0.00  0.00     0.057 A 
ATOM      6  C   UNL d   1      -0.816   0.533   1.695  0.00  0.00     0.057 A 
ENDROOT
BRANCH   1   7
ATOM      7  C   UNL d   1       1.014  -0.129   0.107  0.00  0.00     0.252 C 
ATOM      8  N   UNL d   1       1.109  -1.383   0.675  0.00  0.00    -0.348 N 
ATOM      9  H   UNL d   1       0.810  -1.490   1.635  0.00  0.00     0.163 HD
ATOM     10  O   UNL d   1       1.494   0.177  -0.980  0.00  0.00    -0.268 OA
BRANCH   8  11
ATOM     11  C   UNL d   1       1.605  -2.592  -0.009  0.00  0.00     0.028 C 
ATOM     12  C   UNL d   1       1.485  -3.773   0.979  0.00  0.00     0.038 C 
ATOM     13  C   UNL d   1       0.707  -2.920  -1.220  0.00  0.00     0.038 C 
BRANCH  11  14
ATOM     14  C   UNL d   1       3.066  -2.454  -0.500  0.00  0.00     0.056 C 
BRANCH  14  15
ATOM     15  C   UNL d   1       4.085  -2.125   0.583  0.00  0.00     0.166 C 
BRANCH  15  16
ATOM     16  O   UNL d   1       5.382  -2.113  -0.003  0.00  0.00    -0.401 OA
ATOM     17  H   UNL d   1       6.008  -1.846   0.691  0.00  0.00     0.209 HD
ENDBRANCH  15  16
ENDBRANCH  14  15
ENDBRANCH  11  14
ENDBRANCH   8  11
ENDBRANCH   1   7
BRANCH   4  18
ATOM     18  O   UNL d   1       0.108   4.590   1.208  0.00  0.00    -0.353 OA
ATOM     19  C   UNL d   1       1.298   4.969   0.527  0.00  0.00     0.210 C 
ENDBRANCH   4  18
BRANCH   3  20
ATOM     20  O   UNL d   1      -2.677   1.233   3.106  0.00  0.00    -0.353 OA
ATOM     21  C   UNL d   1      -2.755  -0.073   3.661  0.00  0.00     0.210 C 
ENDBRANCH   3  20
BRANCH   2  22
ATOM     22  O   UNL d   1      -2.179   3.736   2.739  0.00  0.00    -0.351 OA
ATOM     23  C   UNL d   1      -1.776   5.054   3.072  0.00  0.00     0.210 C 
ENDBRANCH   2  22
TORSDOF 8
