REMARK  6 active torsions:
REMARK  status: ('A' for Active; 'I' for Inactive)
REMARK    1  A    between atoms: N_3  and  C_1 
REMARK    2  A    between atoms: N_5  and  C_1 
REMARK       I    between atoms: C_2  and  N_6 
REMARK    3  A    between atoms: O_10  and  C_2 
REMARK    4  A    between atoms: C_4  and  N_3 
REMARK    5  A    between atoms: N_6  and  N_5 
REMARK    6  A    between atoms: C_14  and  O_10 
ROOT
ATOM      1  C   UNL d   1       0.946   0.032   0.046  0.00  0.00     0.191 C 
ATOM      2  S   UNL d   1       2.610   0.153   0.014  0.00  0.00    -0.039 SA
ENDROOT
BRANCH   1   3
ATOM      3  N   UNL d   1       0.264  -0.321  -1.095  0.00  0.00    -0.331 N 
ATOM      4  H   UNL d   1       0.795  -0.836  -1.792  0.00  0.00     0.168 HD
BRANCH   3   5
ATOM      5  C   UNL d   1      -1.065   0.032  -1.451  0.00  0.00     0.056 A 
ATOM      6  C   UNL d   1      -1.755  -0.708  -2.424  0.00  0.00     0.060 A 
ATOM      7 CL   UNL d   1      -1.043  -2.096  -3.168  0.00  0.00    -0.082 Cl
ATOM      8  C   UNL d   1      -3.059  -0.354  -2.788  0.00  0.00     0.026 A 
ATOM      9  C   UNL d   1      -3.673   0.754  -2.211  0.00  0.00     0.002 A 
ATOM     10  C   UNL d   1      -2.984   1.518  -1.274  0.00  0.00     0.002 A 
ATOM     11  C   UNL d   1      -1.689   1.161  -0.901  0.00  0.00     0.031 A 
ENDBRANCH   3   5
ENDBRANCH   1   3
BRANCH   1  12
ATOM     12  N   UNL d   1       0.146   0.228   1.148  0.00  0.00    -0.272 N 
ATOM     13  H   UNL d   1      -0.709  -0.331   1.184  0.00  0.00     0.189 HD
BRANCH  12  14
ATOM     14  N   UNL d   1       0.636   0.604   2.406  0.00  0.00    -0.243 N 
ATOM     15  C   UNL d   1      -0.165   0.277   3.473  0.00  0.00     0.379 C 
ATOM     16  O   UNL d   1      -1.013  -0.608   3.442  0.00  0.00    -0.237 OA
ATOM     17  H   UNL d   1       1.137   1.484   2.458  0.00  0.00     0.192 HD
BRANCH  15  18
ATOM     18  O   UNL d   1       0.036   1.140   4.500  0.00  0.00    -0.303 OA
BRANCH  18  19
ATOM     19  C   UNL d   1      -0.900   1.011   5.581  0.00  0.00     0.176 C 
ATOM     20  C   UNL d   1      -2.191   1.743   5.250  0.00  0.00     0.034 C 
ENDBRANCH  18  19
ENDBRANCH  15  18
ENDBRANCH  12  14
ENDBRANCH   1  12
TORSDOF 6
