REMARK  6 active torsions:
REMARK  status: ('A' for Active; 'I' for Inactive)
REMARK    1  A    between atoms: O_2  and  S_1 
REMARK    2  A    between atoms: C_6  and  S_1 
REMARK    3  A    between atoms: C_3  and  O_2 
REMARK    4  A    between atoms: C_7  and  C_4 
REMARK    5  A    between atoms: C_18  and  N_9 
REMARK    6  A    between atoms: S_22  and  C_20 
ROOT
ATOM      1  C   UNL d   1      -4.315  -3.081  -2.751  0.00  0.00     0.123 A 
ATOM      2  C   UNL d   1      -2.977  -2.873  -3.125  0.00  0.00     0.017 A 
ATOM      3  C   UNL d   1      -5.237  -3.321  -3.797  0.00  0.00     0.071 A 
ATOM      4  C   UNL d   1      -4.837  -3.426  -5.136  0.00  0.00     0.050 A 
ATOM      5  C   UNL d   1      -2.570  -3.019  -4.466  0.00  0.00     0.039 A 
ATOM      6  C   UNL d   1      -3.496  -3.299  -5.459  0.00  0.00     0.036 A 
ATOM      7 CL   UNL d   1      -6.931  -3.501  -3.474  0.00  0.00    -0.081 Cl
ATOM      8 CL   UNL d   1      -2.978  -3.473  -7.088  0.00  0.00    -0.084 Cl
ENDROOT
BRANCH   1   9
ATOM      9  O   UNL d   1      -4.885  -3.112  -1.499  0.00  0.00    -0.226 OA
BRANCH   9  10
ATOM     10  S   UNL d   1      -4.117  -3.003  -0.079  0.00  0.00     0.303 S 
ATOM     11  O   UNL d   1      -4.209  -1.638   0.401  0.00  0.00    -0.193 OA
ATOM     12  O   UNL d   1      -2.851  -3.715  -0.149  0.00  0.00    -0.193 OA
BRANCH  10  13
ATOM     13  C   UNL d   1      -5.080  -4.003   1.054  0.00  0.00     0.086 A 
ATOM     14  C   UNL d   1      -4.825  -5.380   1.088  0.00  0.00     0.026 A 
ATOM     15  C   UNL d   1      -5.237  -6.129   2.188  0.00  0.00     0.008 A 
ATOM     16  C   UNL d   1      -5.892  -5.509   3.259  0.00  0.00    -0.062 A 
ATOM     17  C   UNL d   1      -6.235  -4.152   3.164  0.00  0.00     0.008 A 
ATOM     18  C   UNL d   1      -6.190  -6.291   4.505  0.00  0.00     0.048 C 
ATOM     19  C   UNL d   1      -5.821  -3.392   2.067  0.00  0.00     0.026 A 
ENDBRANCH  10  13
ENDBRANCH   9  10
ENDBRANCH   1   9
BRANCH   2  20
ATOM     20  C   UNL d   1      -1.846  -2.498  -2.269  0.00  0.00     0.102 C 
ATOM     21  N   UNL d   1      -1.551  -1.370  -1.709  0.00  0.00    -0.365 N 
ATOM     22  HN  UNL d   1      -0.664  -1.345  -1.206  1.00  0.00     0.165 HD
BRANCH  21  23
ATOM     23  C   UNL d   1      -2.286  -0.179  -1.700  0.00  0.00     0.033 A 
ATOM     24  C   UNL d   1      -3.255   0.214  -2.626  0.00  0.00     0.048 A 
ATOM     25  C   UNL d   1      -3.958   1.428  -2.504  0.00  0.00     0.002 A 
ATOM     26  C   UNL d   1      -3.631   2.284  -1.452  0.00  0.00     0.018 A 
ATOM     27  C   UNL d   1      -2.628   1.936  -0.546  0.00  0.00     0.004 A 
ATOM     28  C   UNL d   1      -1.973   0.713  -0.671  0.00  0.00     0.029 A 
BRANCH  25  29
ATOM     29  S   UNL d   1      -5.201   1.708  -3.764  0.00  0.00    -0.134 SA
ATOM     30  C   UNL d   1      -5.944   3.319  -3.394  0.00  0.00     0.095 C 
ENDBRANCH  25  29
ENDBRANCH  21  23
ENDBRANCH   2  20
TORSDOF 6
