REMARK  7 active torsions:
REMARK  status: ('A' for Active; 'I' for Inactive)
REMARK    1  A    between atoms: N_4  and  C_1 
REMARK    2  A    between atoms: N_5  and  C_2 
REMARK    3  A    between atoms: C_9  and  C_3 
REMARK    4  A    between atoms: C_10  and  C_8 
REMARK    5  A    between atoms: C_19  and  C_10 
REMARK    6  A    between atoms: C_15  and  S_18 
REMARK    7  A    between atoms: S_18  and  C_19 
ROOT
ATOM      1  C   UNL d   1       0.145   0.973   0.102  0.00  0.00     0.119 C 
ATOM      2  C   UNL d   1       1.245  -1.127  -0.024  0.00  0.00     0.119 C 
ATOM      3  C   UNL d   1       1.403   0.289   0.037  0.00  0.00     0.017 C 
ATOM      4  C   UNL d   1      -0.017  -1.810  -0.116  0.00  0.00    -0.014 C 
ATOM      5  C   UNL d   1      -1.129   0.328   0.205  0.00  0.00    -0.014 C 
ATOM      6  C   UNL d   1      -1.204  -1.077   0.065  0.00  0.00     0.027 C 
ATOM      7  C   UNL d   1      -2.396   1.153   0.363  0.00  0.00     0.052 C 
ATOM      8  C   UNL d   1      -0.034  -3.289  -0.448  0.00  0.00     0.052 C 
ENDROOT
BRANCH   6   9
ATOM      9  C   UNL d   1      -2.562  -1.696  -0.097  0.00  0.00     0.170 C 
ATOM     10  O   UNL d   1      -3.268  -1.212  -0.990  0.00  0.00    -0.291 OA
BRANCH   9  11
ATOM     11  C   UNL d   1      -3.068  -2.900   0.681  0.00  0.00     0.164 C 
BRANCH  11  12
ATOM     12  S   UNL d   1      -2.105  -3.439   2.115  0.00  0.00    -0.104 SA
BRANCH  12  13
ATOM     13  C   UNL d   1      -2.733  -2.372   3.382  0.00  0.00     0.069 A 
ATOM     14  N   UNL d   1      -3.426  -1.276   3.011  0.00  0.00    -0.361 N 
ATOM     15  C   UNL d   1      -3.909  -0.495   4.001  0.00  0.00     0.089 A 
ATOM     16  HN  UNL d   1      -3.579  -1.049   2.028  1.00  0.00     0.165 HD
ATOM     17  C   UNL d   1      -3.712  -0.746   5.348  0.00  0.00     0.017 A 
ATOM     18  C   UNL d   1      -2.977  -1.868   5.707  0.00  0.00     0.004 A 
ATOM     19  C   UNL d   1      -2.478  -2.698   4.709  0.00  0.00     0.037 A 
ENDBRANCH  12  13
ENDBRANCH  11  12
ENDBRANCH   9  11
ENDBRANCH   6   9
BRANCH   2  20
ATOM     20  N   UNL d   1       2.388  -2.023   0.057  0.00  0.00    -0.114 N 
ATOM     21  O   UNL d   1       2.734  -2.372   1.193  0.00  0.00    -0.532 OA
ATOM     22  O   UNL d   1       2.876  -2.418  -1.010  0.00  0.00    -0.532 OA
ENDBRANCH   2  20
BRANCH   1  23
ATOM     23  N   UNL d   1       0.063   2.421  -0.082  0.00  0.00    -0.114 N 
ATOM     24  O   UNL d   1       0.088   3.128   0.928  0.00  0.00    -0.532 OA
ATOM     25  O   UNL d   1      -0.107   2.818  -1.243  0.00  0.00    -0.532 OA
ENDBRANCH   1  23
BRANCH   3  26
ATOM     26  C   UNL d   1       2.786   1.048   0.009  0.00  0.00    -0.019 C 
ATOM     27  C   UNL d   1       4.088   0.211  -0.133  0.00  0.00     0.019 C 
ATOM     28  C   UNL d   1       2.865   2.025  -1.194  0.00  0.00     0.019 C 
ATOM     29  C   UNL d   1       3.003   1.823   1.331  0.00  0.00     0.019 C 
ENDBRANCH   3  26
TORSDOF 7
