REMARK  2 active torsions:
REMARK  status: ('A' for Active; 'I' for Inactive)
REMARK    1  A    between atoms: C_4  and  C_1 
REMARK    2  A    between atoms: C_5  and  C_4 
REMARK       I    between atoms: N_8  and  C_5 
ROOT
ATOM      1  C   UNL d   1       1.940   0.095   0.421  0.00  0.00    -0.001 C 
ATOM      2  S   UNL d   1       1.174  -1.405   0.127  0.00  0.00    -0.093 SA
ATOM      3  C   UNL d   1       1.031   1.052   0.838  0.00  0.00    -0.037 C 
ATOM      4  C   UNL d   1      -0.332   0.627   0.583  0.00  0.00    -0.012 A 
ATOM      5  C   UNL d   1      -0.393  -0.723   0.234  0.00  0.00     0.016 A 
ATOM      6  C   UNL d   1       1.373   2.403   1.386  0.00  0.00     0.050 C 
ATOM      7  C   UNL d   1      -1.551   1.354   0.620  0.00  0.00     0.013 A 
ATOM      8  C   UNL d   1      -1.620  -1.374  -0.001  0.00  0.00     0.019 A 
ATOM      9  C   UNL d   1      -2.764   0.731   0.311  0.00  0.00     0.001 A 
ATOM     10  C   UNL d   1      -2.799  -0.626   0.024  0.00  0.00     0.001 A 
ENDROOT
BRANCH   1  11
ATOM     11  C   UNL d   1       3.415   0.239   0.161  0.00  0.00     0.149 C 
BRANCH  11  12
ATOM     12  C   UNL d   1       4.255  -0.038   1.394  0.00  0.00     0.223 C 
ATOM     13  N   UNL d   1       4.819  -1.298   1.570  0.00  0.00    -0.361 N 
ATOM     14  C   UNL d   1       5.759  -1.461   2.667  0.00  0.00     0.152 C 
ATOM     15  C   UNL d   1       4.755  -2.405   0.627  0.00  0.00     0.152 C 
ATOM     16  O   UNL d   1       4.461   0.875   2.198  0.00  0.00    -0.273 OA
ENDBRANCH  11  12
ENDBRANCH   1  11
TORSDOF 2
