REMARK  5 active torsions:
REMARK  status: ('A' for Active; 'I' for Inactive)
REMARK    1  A    between atoms: N_2  and  C_1 
REMARK    2  A    between atoms: S_7  and  C_3 
REMARK    3  A    between atoms: C_6  and  C_5 
REMARK    4  A    between atoms: O_13  and  C_6 
REMARK    5  A    between atoms: C_14  and  S_7 
ROOT
ATOM      1  C   UNL d   1       1.442  -0.033  -0.126  0.00  0.00     0.120 A 
ATOM      2  C   UNL d   1       0.687  -1.211  -0.064  0.00  0.00     0.034 A 
ATOM      3  C   UNL d   1       0.862   1.243  -0.019  0.00  0.00     0.055 A 
ATOM      4  C   UNL d   1      -0.523   1.369   0.123  0.00  0.00     0.042 A 
ATOM      5  C   UNL d   1      -0.708  -1.051   0.048  0.00  0.00     0.022 A 
ATOM      6  C   UNL d   1      -1.310   0.216   0.140  0.00  0.00     0.019 A 
ENDROOT
BRANCH   2   7
ATOM      7  S   UNL d   1       1.213  -2.920  -0.168  0.00  0.00    -0.123 SA
BRANCH   7   8
ATOM      8  C   UNL d   1       2.809  -3.044   0.744  0.00  0.00     0.044 C 
ATOM      9  C   UNL d   1       2.713  -2.562   2.188  0.00  0.00     0.021 C 
ATOM     10  C   UNL d   1       3.235  -4.515   0.719  0.00  0.00     0.021 C 
ENDBRANCH   7   8
ENDBRANCH   2   7
BRANCH   1  11
ATOM     11  N   UNL d   1       2.867  -0.051  -0.355  0.00  0.00    -0.114 N 
ATOM     12  O   UNL d   1       3.262  -0.439  -1.462  0.00  0.00    -0.532 OA
ATOM     13  O   UNL d   1       3.587   0.355   0.568  0.00  0.00    -0.532 OA
ENDBRANCH   1  11
BRANCH   4  14
ATOM     14  C   UNL d   1      -1.093   2.736   0.251  0.00  0.00     0.293 C 
ATOM     15  O   UNL d   1      -0.408   3.747   0.199  0.00  0.00    -0.259 OA
BRANCH  14  16
ATOM     16  O   UNL d   1      -2.430   2.694   0.455  0.00  0.00    -0.323 OA
ATOM     17  C   UNL d   1      -3.025   3.976   0.657  0.00  0.00     0.213 C 
ENDBRANCH  14  16
ENDBRANCH   4  14
TORSDOF 5
