REMARK  3 active torsions:
REMARK  status: ('A' for Active; 'I' for Inactive)
REMARK       I    between atoms: N_2  and  C_1 
REMARK    1  A    between atoms: C_6  and  C_1 
REMARK    2  A    between atoms: C_4  and  N_2 
REMARK    3  A    between atoms: N_3  and  C_5 
ROOT
ATOM      1  C   UNL d   1       0.817   1.939   1.708  0.00  0.00     0.061 A 
ATOM      2  C   UNL d   1       2.023   2.549   1.272  0.00  0.00     0.057 A 
ATOM      3  C   UNL d   1       0.271   2.219   2.966  0.00  0.00     0.032 A 
ATOM      4  C   UNL d   1       2.636   3.451   2.157  0.00  0.00     0.031 A 
ATOM      5  C   UNL d   1       0.918   3.098   3.827  0.00  0.00     0.002 A 
ATOM      6  C   UNL d   1       2.095   3.719   3.421  0.00  0.00     0.002 A 
ENDROOT
BRANCH   1   7
ATOM      7  N   UNL d   1       0.222   0.959   0.883  0.00  0.00    -0.321 N 
ATOM      8  C   UNL d   1      -1.138   0.920   0.633  0.00  0.00     0.256 C 
ATOM      9  O   UNL d   1      -1.976   1.699   1.059  0.00  0.00    -0.267 OA
ATOM     10  H   UNL d   1       0.846   0.590   0.176  0.00  0.00     0.169 HD
BRANCH   8  11
ATOM     11  C   UNL d   1      -1.564  -0.133  -0.324  0.00  0.00     0.032 A 
ATOM     12  C   UNL d   1      -1.053  -1.432  -0.226  0.00  0.00     0.018 A 
ATOM     13  C   UNL d   1      -1.523  -2.427  -1.087  0.00  0.00     0.025 A 
ATOM     14  C   UNL d   1      -2.492  -2.119  -2.044  0.00  0.00     0.034 A 
ATOM     15  C   UNL d   1      -2.995  -0.823  -2.151  0.00  0.00     0.025 A 
ATOM     16 CL   UNL d   1      -3.078  -3.353  -3.089  0.00  0.00    -0.084 Cl
ATOM     17  C   UNL d   1      -2.538   0.172  -1.284  0.00  0.00     0.018 A 
ENDBRANCH   8  11
ENDBRANCH   1   7
BRANCH   2  18
ATOM     18  N   UNL d   1       2.560   2.239   0.012  0.00  0.00    -0.379 N 
ATOM     19  C   UNL d   1       3.994   2.449  -0.222  0.00  0.00     0.123 C 
ATOM     20  C   UNL d   1       4.430   1.499  -1.339  0.00  0.00     0.020 C 
ATOM     21  C   UNL d   1       3.571   1.654  -2.598  0.00  0.00     0.003 C 
ATOM     22  C   UNL d   1       2.074   1.646  -2.280  0.00  0.00     0.020 C 
ATOM     23  C   UNL d   1       1.745   2.631  -1.155  0.00  0.00     0.123 C 
ENDBRANCH   2  18
TORSDOF 3
