REMARK  10 active torsions:
REMARK  status: ('A' for Active; 'I' for Inactive)
REMARK       I    between atoms: N_4  and  C_1 
REMARK    1  A    between atoms: O_12  and  C_1 
REMARK       I    between atoms: N_6  and  C_2 
REMARK    2  A    between atoms: C_5  and  C_2 
REMARK    3  A    between atoms: C_3  and  N_9 
REMARK    4  A    between atoms: N_10  and  C_3 
REMARK    5  A    between atoms: C_5  and  N_4 
REMARK    6  A    between atoms: C_17  and  C_5 
REMARK    7  A    between atoms: N_9  and  N_6 
REMARK    8  A    between atoms: C_13  and  N_10 
REMARK    9  A    between atoms: C_18  and  O_12 
REMARK   10  A    between atoms: C_23  and  C_17 
ROOT
ATOM      1  C   UNL d   1      -0.009   0.758   1.941  0.00  0.00     0.259 C 
ATOM      2  N   UNL d   1      -0.388  -0.175   2.896  0.00  0.00    -0.266 N 
ATOM      3  O   UNL d   1      -0.502   0.798   0.815  0.00  0.00    -0.269 OA
ATOM      4  H   UNL d   1       0.004  -0.173   3.837  0.00  0.00     0.190 HD
ENDROOT
BRANCH   1   5
ATOM      5  C   UNL d   1       0.969   1.824   2.504  0.00  0.00     0.184 C 
BRANCH   5   6
ATOM      6  C   UNL d   1       0.116   2.743   3.406  0.00  0.00     0.073 C 
BRANCH   6   7
ATOM      7  C   UNL d   1       0.862   3.804   4.178  0.00  0.00    -0.056 A 
ATOM      8  C   UNL d   1       0.601   5.160   3.935  0.00  0.00     0.007 A 
ATOM      9  C   UNL d   1       1.203   6.150   4.713  0.00  0.00     0.001 A 
ATOM     10  C   UNL d   1       2.074   5.795   5.740  0.00  0.00     0.000 A 
ATOM     11  C   UNL d   1       2.354   4.450   5.980  0.00  0.00     0.001 A 
ATOM     12  C   UNL d   1       1.753   3.458   5.202  0.00  0.00     0.007 A 
ENDBRANCH   6   7
ENDBRANCH   5   6
BRANCH   5  13
ATOM     13  N   UNL d   1       1.640   2.602   1.470  0.00  0.00    -0.323 N 
ATOM     14  C   UNL d   1       2.900   2.362   1.024  0.00  0.00     0.362 C 
ATOM     15  O   UNL d   1       3.590   1.404   1.338  0.00  0.00    -0.238 OA
ATOM     16  H   UNL d   1       1.147   3.348   1.005  0.00  0.00     0.165 HD
BRANCH  14  17
ATOM     17  O   UNL d   1       3.259   3.377   0.200  0.00  0.00    -0.294 OA
BRANCH  17  18
ATOM     18  C   UNL d   1       4.537   3.417  -0.489  0.00  0.00     0.061 C 
ATOM     19  C   UNL d   1       4.535   2.394  -1.627  0.00  0.00     0.046 C 
ATOM     20  C   UNL d   1       4.615   4.833  -1.086  0.00  0.00     0.046 C 
ATOM     21  C   UNL d   1       5.742   3.223   0.439  0.00  0.00     0.046 C 
ENDBRANCH  17  18
ENDBRANCH  14  17
ENDBRANCH   5  13
ENDBRANCH   1   5
BRANCH   2  22
ATOM     22  N   UNL d   1      -1.557  -0.964   2.731  0.00  0.00    -0.273 N 
ATOM     23  H   UNL d   1      -1.829  -1.116   1.762  0.00  0.00     0.189 HD
BRANCH  22  24
ATOM     24  C   UNL d   1      -1.839  -1.910   3.678  0.00  0.00     0.191 C 
ATOM     25  S   UNL d   1      -0.880  -2.183   5.037  0.00  0.00    -0.039 SA
BRANCH  24  26
ATOM     26  N   UNL d   1      -2.958  -2.677   3.595  0.00  0.00    -0.332 N 
ATOM     27  H   UNL d   1      -2.944  -3.374   4.336  0.00  0.00     0.168 HD
BRANCH  26  28
ATOM     28  C   UNL d   1      -4.148  -2.659   2.846  0.00  0.00     0.036 A 
ATOM     29  C   UNL d   1      -5.074  -3.674   3.159  0.00  0.00     0.056 A 
ATOM     30  C   UNL d   1      -6.313  -3.743   2.520  0.00  0.00     0.074 A 
ATOM     31 CL   UNL d   1      -7.424  -4.985   2.957  0.00  0.00    -0.081 Cl
ATOM     32  C   UNL d   1      -6.640  -2.802   1.555  0.00  0.00     0.138 A 
ATOM     33  C   UNL d   1      -5.740  -1.788   1.236  0.00  0.00     0.046 A 
ATOM     34  F   UNL d   1      -7.824  -2.842   0.926  0.00  0.00    -0.204 F 
ATOM     35  C   UNL d   1      -4.498  -1.708   1.887  0.00  0.00     0.032 A 
ENDBRANCH  26  28
ENDBRANCH  24  26
ENDBRANCH  22  24
ENDBRANCH   2  22
TORSDOF 10
