REMARK  9 active torsions:
REMARK  status: ('A' for Active; 'I' for Inactive)
REMARK    1  A    between atoms: C_17  and  C_1 
REMARK    2  A    between atoms: C_7  and  N_10 
REMARK    3  A    between atoms: N_9  and  C_7 
REMARK    4  A    between atoms: C_8  and  C_19 
REMARK       I    between atoms: N_11  and  C_8 
REMARK    5  A    between atoms: C_13  and  N_9 
REMARK    6  A    between atoms: N_10  and  N_11 
REMARK    7  A    between atoms: S_16  and  C_17 
REMARK    8  A    between atoms: C_19  and  S_16 
REMARK    9  A    between atoms: O_25  and  C_18 
ROOT
ATOM      1  C   UNL d   1      -3.884   4.236   1.626  0.00  0.00     0.245 C 
ATOM      2  N   UNL d   1      -4.337   3.070   2.214  0.00  0.00    -0.267 N 
ATOM      3  O   UNL d   1      -3.567   5.222   2.275  0.00  0.00    -0.271 OA
ATOM      4  H   UNL d   1      -4.584   2.242   1.685  0.00  0.00     0.190 HD
ENDROOT
BRANCH   1   5
ATOM      5  C   UNL d   1      -3.881   4.186   0.105  0.00  0.00     0.178 C 
BRANCH   5   6
ATOM      6  S   UNL d   1      -2.406   3.417  -0.640  0.00  0.00    -0.155 SA
BRANCH   6   7
ATOM      7  C   UNL d   1      -2.434   1.695  -0.007  0.00  0.00     0.114 C 
BRANCH   7   8
ATOM      8  C   UNL d   1      -1.262   0.780  -0.418  0.00  0.00    -0.036 C 
ATOM      9  C   UNL d   1       0.083   1.241  -0.438  0.00  0.00    -0.048 C 
ATOM     10  C   UNL d   1       1.108   0.421  -0.972  0.00  0.00    -0.049 C 
ATOM     11  C   UNL d   1       0.478   2.591   0.117  0.00  0.00     0.049 C 
ATOM     12  C   UNL d   1       2.476   1.001  -1.272  0.00  0.00     0.049 C 
ATOM     13  C   UNL d   1       0.875  -0.958  -1.181  0.00  0.00    -0.049 C 
ATOM     14  C   UNL d   1      -0.423  -1.493  -0.978  0.00  0.00    -0.049 C 
ATOM     15  C   UNL d   1       2.048  -1.832  -1.580  0.00  0.00     0.049 C 
ATOM     16  C   UNL d   1      -1.505  -0.616  -0.666  0.00  0.00    -0.048 C 
ATOM     17  C   UNL d   1      -0.590  -2.994  -1.097  0.00  0.00     0.049 C 
ATOM     18  C   UNL d   1      -2.924  -1.140  -0.551  0.00  0.00     0.049 C 
ENDBRANCH   7   8
ENDBRANCH   6   7
ENDBRANCH   5   6
ENDBRANCH   1   5
BRANCH   2  19
ATOM     19  N   UNL d   1      -4.292   2.929   3.606  0.00  0.00    -0.274 N 
ATOM     20  H   UNL d   1      -3.916   3.729   4.120  0.00  0.00     0.189 HD
BRANCH  19  21
ATOM     21  C   UNL d   1      -5.217   2.142   4.254  0.00  0.00     0.191 C 
ATOM     22  S   UNL d   1      -6.574   1.470   3.540  0.00  0.00    -0.039 SA
BRANCH  21  23
ATOM     23  N   UNL d   1      -4.983   1.910   5.583  0.00  0.00    -0.332 N 
ATOM     24  H   UNL d   1      -5.801   1.601   6.101  0.00  0.00     0.168 HD
BRANCH  23  25
ATOM     25  C   UNL d   1      -3.748   1.563   6.188  0.00  0.00     0.036 A 
ATOM     26  C   UNL d   1      -2.591   1.260   5.455  0.00  0.00     0.066 A 
ATOM     27  C   UNL d   1      -1.449   0.775   6.099  0.00  0.00     0.070 A 
ATOM     28  C   UNL d   1      -1.454   0.629   7.487  0.00  0.00     0.037 A 
ATOM     29  C   UNL d   1      -2.593   0.942   8.227  0.00  0.00     0.005 A 
ATOM     30  C   UNL d   1      -3.741   1.394   7.577  0.00  0.00     0.029 A 
BRANCH  27  31
ATOM     31  O   UNL d   1      -0.288   0.385   5.489  0.00  0.00    -0.356 OA
ATOM     32  C   UNL d   1      -0.274   0.373   4.065  0.00  0.00     0.210 C 
ENDBRANCH  27  31
ENDBRANCH  23  25
ENDBRANCH  21  23
ENDBRANCH  19  21
ENDBRANCH   2  19
TORSDOF 9
