REMARK  2 active torsions:
REMARK  status: ('A' for Active; 'I' for Inactive)
REMARK    1  A    between atoms: C_6  and  C_1 
REMARK       I    between atoms: N_7  and  C_6 
REMARK    2  A    between atoms: C_10  and  N_7 
ROOT
ATOM      1  C   UNL d   1      -3.856  -0.001  -0.426  0.00  0.00     0.273 C 
ATOM      2  N   UNL d   1      -4.525  -1.203  -0.507  0.00  0.00    -0.308 N 
ATOM      3  O   UNL d   1      -4.358   1.117  -0.499  0.00  0.00    -0.266 OA
ATOM      4  H   UNL d   1      -3.995  -2.044  -0.364  0.00  0.00     0.170 HD
ENDROOT
BRANCH   1   5
ATOM      5  C   UNL d   1      -2.421  -0.133  -0.238  0.00  0.00     0.102 A 
ATOM      6  N   UNL d   1      -1.614   0.980  -0.131  0.00  0.00    -0.351 N 
ATOM      7  C   UNL d   1      -0.285   0.628  -0.095  0.00  0.00     0.044 A 
ATOM      8  H   UNL d   1      -1.970   1.927  -0.149  0.00  0.00     0.166 HD
ATOM      9  C   UNL d   1       0.859   1.435  -0.084  0.00  0.00     0.037 A 
ATOM     10  C   UNL d   1      -0.232  -0.763  -0.093  0.00  0.00    -0.001 A 
ATOM     11  C   UNL d   1       2.107   0.798  -0.094  0.00  0.00    -0.059 A 
ATOM     12  C   UNL d   1       3.376   1.598  -0.169  0.00  0.00     0.048 C 
ATOM     13  C   UNL d   1       2.179  -0.600  -0.073  0.00  0.00     0.014 A 
ATOM     14  C   UNL d   1       1.025  -1.410  -0.063  0.00  0.00    -0.049 A 
ATOM     15  C   UNL d   1       1.194  -2.903  -0.065  0.00  0.00     0.049 C 
ATOM     16  C   UNL d   1      -1.579  -1.227  -0.156  0.00  0.00     0.049 A 
ENDBRANCH   1   5
BRANCH   2  17
ATOM     17  C   UNL d   1      -5.893  -1.354  -0.760  0.00  0.00     0.108 A 
ATOM     18  N   UNL d   1      -6.664  -0.284  -1.006  0.00  0.00    -0.345 N 
ATOM     19  C   UNL d   1      -7.994  -0.454  -1.217  0.00  0.00     0.024 A 
ATOM     20  HN  UNL d   1      -6.255   0.650  -1.035  1.00  0.00     0.167 HD
ATOM     21  C   UNL d   1      -8.768   0.809  -1.455  0.00  0.00     0.069 C 
ATOM     22  C   UNL d   1      -8.589  -1.711  -1.191  0.00  0.00     0.033 A 
ATOM     23  C   UNL d   1      -7.781  -2.821  -0.961  0.00  0.00     0.025 A 
ATOM     24 BR   UNL d   1     -10.447  -1.978  -1.437  0.00  0.00    -0.049 Br
ATOM     25  C   UNL d   1      -6.415  -2.642  -0.745  0.00  0.00     0.050 A 
ENDBRANCH   2  17
TORSDOF 2
