REMARK  10 active torsions:
REMARK  status: ('A' for Active; 'I' for Inactive)
REMARK    1  A    between atoms: C_2  and  C_1 
REMARK    2  A    between atoms: N_3  and  C_1 
REMARK    3  A    between atoms: C_5  and  C_1 
REMARK    4  A    between atoms: N_6  and  C_1 
REMARK       I    between atoms: C_7  and  N_3 
REMARK    5  A    between atoms: C_4  and  C_8 
REMARK    6  A    between atoms: O_20  and  C_5 
REMARK    7  A    between atoms: C_9  and  N_6 
REMARK    8  A    between atoms: C_19  and  C_7 
REMARK    9  A    between atoms: C_21  and  C_19 
REMARK   10  A    between atoms: C_25  and  O_20 
ROOT
ATOM      1  C   UNL d   1       0.947  -0.120  -0.059  0.00  0.00     0.296 C 
ENDROOT
BRANCH   1   2
ATOM      2  C   UNL d   1       0.194  -0.534  -1.381  0.00  0.00     0.442 C 
ATOM      3  F   UNL d   1      -0.352  -1.777  -1.285  0.00  0.00    -0.166 F 
ATOM      4  F   UNL d   1      -0.812   0.303  -1.731  0.00  0.00    -0.166 F 
ATOM      5  F   UNL d   1       1.032  -0.580  -2.451  0.00  0.00    -0.166 F 
ENDBRANCH   1   2
BRANCH   1   6
ATOM      6  N   UNL d   1       0.600  -0.846   1.151  0.00  0.00    -0.319 N 
ATOM      7  C   UNL d   1      -0.704  -0.973   1.559  0.00  0.00     0.224 C 
ATOM      8  O   UNL d   1      -1.628  -0.518   0.896  0.00  0.00    -0.273 OA
ATOM      9  H   UNL d   1       1.360  -1.295   1.646  0.00  0.00     0.165 HD
BRANCH   7  10
ATOM     10  C   UNL d   1      -0.897  -1.710   2.866  0.00  0.00     0.141 C 
BRANCH  10  11
ATOM     11  C   UNL d   1      -1.250  -3.157   2.650  0.00  0.00    -0.050 A 
ATOM     12  C   UNL d   1      -0.462  -4.178   3.197  0.00  0.00     0.007 A 
ATOM     13  C   UNL d   1      -0.787  -5.516   2.971  0.00  0.00     0.001 A 
ATOM     14  C   UNL d   1      -1.903  -5.845   2.203  0.00  0.00     0.000 A 
ATOM     15  C   UNL d   1      -2.701  -4.839   1.665  0.00  0.00     0.001 A 
ATOM     16  C   UNL d   1      -2.381  -3.502   1.893  0.00  0.00     0.007 A 
ENDBRANCH  10  11
ENDBRANCH   7  10
ENDBRANCH   1   6
BRANCH   1  17
ATOM     17  C   UNL d   1       0.598   1.385   0.166  0.00  0.00     0.318 C 
ATOM     18  O   UNL d   1       0.207   1.863   1.228  0.00  0.00    -0.260 OA
BRANCH  17  19
ATOM     19  O   UNL d   1       0.915   2.147  -0.926  0.00  0.00    -0.318 OA
BRANCH  19  20
ATOM     20  C   UNL d   1       0.480   3.516  -0.856  0.00  0.00     0.174 C 
ATOM     21  C   UNL d   1       1.428   4.356  -0.021  0.00  0.00     0.034 C 
ENDBRANCH  19  20
ENDBRANCH  17  19
ENDBRANCH   1  17
BRANCH   1  22
ATOM     22  N   UNL d   1       2.432  -0.245  -0.040  0.00  0.00    -0.348 N 
ATOM     23  H   UNL d   1       2.915   0.568   0.329  0.00  0.00     0.163 HD
BRANCH  22  24
ATOM     24  C   UNL d   1       3.216  -1.265  -0.534  0.00  0.00     0.031 A 
ATOM     25  C   UNL d   1       4.586  -1.020  -0.725  0.00  0.00     0.045 A 
ATOM     26  C   UNL d   1       5.441  -1.966  -1.318  0.00  0.00     0.050 A 
ATOM     27  C   UNL d   1       4.912  -3.202  -1.705  0.00  0.00     0.016 A 
ATOM     28  C   UNL d   1       3.564  -3.477  -1.499  0.00  0.00     0.003 A 
ATOM     29  C   UNL d   1       2.729  -2.517  -0.916  0.00  0.00     0.029 A 
BRANCH  26  30
ATOM     30  C   UNL d   1       6.892  -1.652  -1.579  0.00  0.00     0.417 C 
ATOM     31  F   UNL d   1       7.272  -0.419  -1.139  0.00  0.00    -0.166 F 
ATOM     32  F   UNL d   1       7.736  -2.537  -0.980  0.00  0.00    -0.166 F 
ATOM     33  F   UNL d   1       7.199  -1.683  -2.906  0.00  0.00    -0.166 F 
ENDBRANCH  26  30
ENDBRANCH  22  24
ENDBRANCH   1  22
TORSDOF 10
