REMARK  4 active torsions:
REMARK  status: ('A' for Active; 'I' for Inactive)
REMARK    1  A    between atoms: S_10  and  C_2 
REMARK       I    between atoms: N_8  and  C_12 
REMARK    2  A    between atoms: C_9  and  N_8 
REMARK    3  A    between atoms: C_16  and  S_10 
REMARK    4  A    between atoms: C_12  and  C_16 
ROOT
ATOM      1  N   UNL d   1       1.610   5.308  -0.123  0.00  0.00    -0.324 N 
ATOM      2  C   UNL d   1       2.613   4.377  -0.327  0.00  0.00     0.232 C 
ATOM      3  O   UNL d   1       3.812   4.650  -0.409  0.00  0.00    -0.272 OA
ATOM      4  H   UNL d   1       0.727   4.939   0.208  0.00  0.00     0.169 HD
ENDROOT
BRANCH   2   5
ATOM      5  C   UNL d   1       2.217   2.913  -0.257  0.00  0.00     0.185 C 
BRANCH   5   6
ATOM      6  S   UNL d   1       0.527   2.539  -0.807  0.00  0.00    -0.083 SA
BRANCH   6   7
ATOM      7  C   UNL d   1       0.516   0.836  -0.476  0.00  0.00     0.162 A 
ATOM      8  N   UNL d   1      -0.469  -0.031  -0.852  0.00  0.00    -0.326 N 
ATOM      9  C   UNL d   1      -0.118  -1.238  -0.319  0.00  0.00     0.201 A 
ATOM     10  C   UNL d   1      -1.645   0.201  -1.644  0.00  0.00     0.159 C 
ATOM     11  N   UNL d   1       1.031  -1.128   0.306  0.00  0.00    -0.294 N 
ATOM     12  N   UNL d   1       1.432   0.183   0.204  0.00  0.00    -0.279 N 
ATOM     13  HN  UNL d   1       1.534  -1.878   0.781  1.00  0.00     0.187 HD
ATOM     14  HN  UNL d   1       2.289   0.580   0.589  1.00  0.00     0.189 HD
ENDBRANCH   6   7
ENDBRANCH   5   6
ENDBRANCH   2   5
BRANCH   1  15
ATOM     15  C   UNL d   1       1.794   6.713  -0.066  0.00  0.00     0.073 A 
ATOM     16  C   UNL d   1       2.857   7.404  -0.676  0.00  0.00     0.145 A 
ATOM     17  C   UNL d   1       3.032   8.774  -0.496  0.00  0.00     0.086 A 
ATOM     18  F   UNL d   1       3.692   6.798  -1.529  0.00  0.00    -0.204 F 
ATOM     19  C   UNL d   1       2.118   9.477   0.270  0.00  0.00     0.119 A 
ATOM     20  C   UNL d   1       1.018   8.837   0.831  0.00  0.00     0.044 A 
ATOM     21  F   UNL d   1       2.285  10.793   0.457  0.00  0.00    -0.206 F 
ATOM     22  C   UNL d   1       0.850   7.458   0.656  0.00  0.00     0.036 A 
ENDBRANCH   1  15
TORSDOF 4
