REMARK  5 active torsions:
REMARK  status: ('A' for Active; 'I' for Inactive)
REMARK    1  A    between atoms: C_4  and  C_1 
REMARK    2  A    between atoms: S_7  and  C_2 
REMARK       I    between atoms: C_3  and  N_6 
REMARK    3  A    between atoms: C_5  and  C_3 
REMARK    4  A    between atoms: N_6  and  C_4 
REMARK    5  A    between atoms: C_16  and  S_7 
ROOT
ATOM      1  C   UNL d   1       0.090   1.019  -0.076  0.00  0.00    -0.002 A 
ATOM      2  C   UNL d   1      -0.185  -0.026   0.844  0.00  0.00     0.015 A 
ATOM      3  C   UNL d   1       1.174   0.844  -0.958  0.00  0.00     0.043 A 
ATOM      4 CL   UNL d   1       1.637   2.040  -2.129  0.00  0.00    -0.084 Cl
ATOM      5  C   UNL d   1       0.597  -1.198   0.825  0.00  0.00     0.019 A 
ATOM      6  C   UNL d   1       1.660  -1.343  -0.054  0.00  0.00     0.003 A 
ATOM      7  C   UNL d   1       1.953  -0.319  -0.947  0.00  0.00     0.024 A 
ENDROOT
BRANCH   1   8
ATOM      8  C   UNL d   1      -0.750   2.276  -0.130  0.00  0.00     0.164 C 
BRANCH   8   9
ATOM      9  N   UNL d   1      -2.158   2.118  -0.455  0.00  0.00    -0.353 N 
ATOM     10  C   UNL d   1      -2.627   1.270  -1.435  0.00  0.00     0.251 C 
ATOM     11  O   UNL d   1      -1.918   0.508  -2.085  0.00  0.00    -0.268 OA
ATOM     12  H   UNL d   1      -2.741   2.905  -0.217  0.00  0.00     0.163 HD
BRANCH  10  13
ATOM     13  C   UNL d   1      -4.095   1.318  -1.714  0.00  0.00     0.032 A 
ATOM     14  C   UNL d   1      -4.546   0.767  -2.923  0.00  0.00     0.027 A 
ATOM     15  C   UNL d   1      -5.903   0.770  -3.194  0.00  0.00    -0.022 A 
ATOM     16  C   UNL d   1      -6.622   0.216  -4.359  0.00  0.00     0.068 A 
ATOM     17  C   UNL d   1      -6.804   1.302  -2.292  0.00  0.00     0.075 A 
ATOM     18  C   UNL d   1      -8.056   0.621  -4.009  0.00  0.00     0.180 A 
ATOM     19  O   UNL d   1      -8.109   1.208  -2.687  0.00  0.00    -0.350 OA
ATOM     20  C   UNL d   1      -6.398   1.845  -1.094  0.00  0.00     0.038 A 
ATOM     21  C   UNL d   1      -5.029   1.847  -0.794  0.00  0.00     0.020 A 
ENDBRANCH  10  13
ENDBRANCH   8   9
ENDBRANCH   1   8
BRANCH   2  22
ATOM     22  S   UNL d   1      -1.551  -0.014   2.003  0.00  0.00    -0.090 SA
BRANCH  22  23
ATOM     23  C   UNL d   1      -0.868   0.623   3.522  0.00  0.00     0.005 A 
ATOM     24  C   UNL d   1      -1.768   1.202   4.429  0.00  0.00     0.020 A 
ATOM     25  C   UNL d   1      -1.320   1.753   5.633  0.00  0.00     0.025 A 
ATOM     26  C   UNL d   1       0.035   1.716   5.946  0.00  0.00     0.034 A 
ATOM     27  C   UNL d   1       0.938   1.109   5.077  0.00  0.00     0.025 A 
ATOM     28 CL   UNL d   1       0.596   2.433   7.405  0.00  0.00    -0.084 Cl
ATOM     29  C   UNL d   1       0.486   0.560   3.871  0.00  0.00     0.020 A 
ENDBRANCH  22  23
ENDBRANCH   2  22
TORSDOF 5
