REMARK  5 active torsions:
REMARK  status: ('A' for Active; 'I' for Inactive)
REMARK    1  A    between atoms: C_10  and  N_2 
REMARK    2  A    between atoms: C_7  and  C_9 
REMARK    3  A    between atoms: O_20  and  C_7 
REMARK    4  A    between atoms: C_19  and  N_11 
REMARK    5  A    between atoms: C_21  and  C_19 
ROOT
ATOM      1  N   UNL d   1       2.162   0.516   1.178  0.00  0.00    -0.019 NA
ATOM      2  N   UNL d   1       1.485   1.171   0.220  0.00  0.00    -0.269 N 
ATOM      3  N   UNL d   1       1.831  -0.769   1.090  0.00  0.00    -0.282 N 
ATOM      4  HN  UNL d   1       2.178  -1.517   1.691  1.00  0.00     0.184 HD
ATOM      5  C   UNL d   1       0.667   0.325  -0.494  0.00  0.00     0.077 A 
ATOM      6  C   UNL d   1       0.944  -0.919   0.053  0.00  0.00     0.075 A 
ATOM      7  C   UNL d   1       0.349  -2.060  -0.506  0.00  0.00     0.050 A 
ATOM      8  C   UNL d   1      -0.518  -1.897  -1.606  0.00  0.00     0.041 A 
ATOM      9  C   UNL d   1      -0.201   0.521  -1.571  0.00  0.00     0.034 A 
ATOM     10  C   UNL d   1      -0.789  -0.619  -2.118  0.00  0.00     0.020 A 
ENDROOT
BRANCH   2  11
ATOM     11  C   UNL d   1       1.836   2.504  -0.203  0.00  0.00     0.110 C 
ATOM     12  C   UNL d   1       1.915   3.602   0.850  0.00  0.00     0.057 C 
ATOM     13  C   UNL d   1       1.948   4.939   0.093  0.00  0.00     0.275 C 
ATOM     14  N   UNL d   1       2.979   5.026  -0.956  0.00  0.00     0.092 N 
ATOM     15  C   UNL d   1       3.164   3.829  -1.785  0.00  0.00     0.275 C 
ATOM     16  C   UNL d   1       3.133   2.525  -1.004  0.00  0.00     0.057 C 
BRANCH  14  17
ATOM     17  C   UNL d   1       2.832   6.245  -1.795  0.00  0.00     0.311 C 
BRANCH  17  18
ATOM     18  C   UNL d   1       1.603   6.270  -2.695  0.00  0.00    -0.030 A 
ATOM     19  C   UNL d   1       0.380   6.766  -2.221  0.00  0.00     0.009 A 
ATOM     20  C   UNL d   1      -0.789   6.610  -2.968  0.00  0.00     0.001 A 
ATOM     21  C   UNL d   1      -0.746   5.979  -4.210  0.00  0.00     0.000 A 
ATOM     22  C   UNL d   1       0.472   5.541  -4.725  0.00  0.00     0.001 A 
ATOM     23  C   UNL d   1       1.642   5.702  -3.980  0.00  0.00     0.009 A 
ENDBRANCH  17  18
ENDBRANCH  14  17
ENDBRANCH   2  11
BRANCH   8  24
ATOM     24  C   UNL d   1      -1.125  -3.110  -2.217  0.00  0.00     0.293 C 
ATOM     25  O   UNL d   1      -0.900  -4.249  -1.836  0.00  0.00    -0.259 OA
BRANCH  24  26
ATOM     26  O   UNL d   1      -1.950  -2.759  -3.236  0.00  0.00    -0.323 OA
ATOM     27  C   UNL d   1      -2.602  -3.853  -3.880  0.00  0.00     0.213 C 
ENDBRANCH  24  26
ENDBRANCH   8  24
TORSDOF 5
