REMARK  5 active torsions:
REMARK  status: ('A' for Active; 'I' for Inactive)
REMARK    1  A    between atoms: N_2  and  C_1 
REMARK    2  A    between atoms: C_3  and  N_2 
REMARK    3  A    between atoms: C_7  and  N_2 
REMARK    4  A    between atoms: N_8  and  C_3 
REMARK    5  A    between atoms: C_11  and  N_8 
ROOT
ATOM      1  N   UNL d   1      -3.280  -1.352  -0.146  0.00  0.00    -0.268 N 
ENDROOT
BRANCH   1   2
ATOM      2  C   UNL d   1      -1.944  -0.913  -0.098  0.00  0.00     0.159 A 
ATOM      3  N   UNL d   1      -1.502   0.200  -0.644  0.00  0.00    -0.335 N 
ATOM      4  C   UNL d   1      -0.157   0.365  -0.379  0.00  0.00     0.051 A 
ATOM      5  HN  UNL d   1      -2.072   0.849  -1.187  1.00  0.00     0.168 HD
ATOM      6  C   UNL d   1       0.649   1.425  -0.837  0.00  0.00     0.031 A 
ATOM      7  C   UNL d   1       0.419  -0.620   0.422  0.00  0.00     0.035 A 
ATOM      8  C   UNL d   1       2.006   1.460  -0.503  0.00  0.00     0.002 A 
ATOM      9  C   UNL d   1       2.564   0.455   0.281  0.00  0.00     0.002 A 
ATOM     10  C   UNL d   1       1.781  -0.600   0.761  0.00  0.00     0.021 A 
ATOM     11  S   UNL d   1      -0.797  -1.744   0.878  0.00  0.00    -0.051 SA
ENDBRANCH   1   2
BRANCH   1  12
ATOM     12  C   UNL d   1      -3.603  -2.704  -0.031  0.00  0.00     0.185 C 
ATOM     13  S   UNL d   1      -4.909  -3.325   0.848  0.00  0.00    -0.040 SA
BRANCH  12  14
ATOM     14  N   UNL d   1      -2.766  -3.666  -0.536  0.00  0.00    -0.332 N 
ATOM     15  H   UNL d   1      -2.912  -4.573  -0.103  0.00  0.00     0.168 HD
BRANCH  14  16
ATOM     16  C   UNL d   1      -1.910  -3.685  -1.657  0.00  0.00     0.040 A 
ATOM     17  C   UNL d   1      -0.849  -4.616  -1.681  0.00  0.00    -0.034 A 
ATOM     18  C   UNL d   1      -0.089  -4.762  -2.856  0.00  0.00     0.032 A 
ATOM     19  C   UNL d   1      -0.425  -5.425  -0.483  0.00  0.00     0.050 C 
ATOM     20  C   UNL d   1      -0.366  -3.983  -3.975  0.00  0.00     0.034 A 
ATOM     21  C   UNL d   1      -1.380  -3.031  -3.933  0.00  0.00     0.026 A 
ATOM     22 CL   UNL d   1       0.548  -4.208  -5.415  0.00  0.00    -0.084 Cl
ATOM     23  C   UNL d   1      -2.147  -2.876  -2.774  0.00  0.00     0.032 A 
ENDBRANCH  14  16
ENDBRANCH  12  14
ENDBRANCH   1  12
BRANCH   1  24
ATOM     24  C   UNL d   1      -4.259  -0.289  -0.061  0.00  0.00     0.045 A 
ATOM     25  C   UNL d   1      -4.011   0.881   0.685  0.00  0.00     0.054 A 
ATOM     26  C   UNL d   1      -4.973   1.889   0.786  0.00  0.00     0.036 A 
ATOM     27 CL   UNL d   1      -4.638   3.294   1.723  0.00  0.00    -0.084 Cl
ATOM     28  C   UNL d   1      -6.202   1.756   0.151  0.00  0.00     0.024 A 
ATOM     29  C   UNL d   1      -6.468   0.612  -0.593  0.00  0.00     0.004 A 
ATOM     30  C   UNL d   1      -5.505  -0.403  -0.698  0.00  0.00     0.030 A 
ENDBRANCH   1  24
TORSDOF 5
