REMARK  4 active torsions:
REMARK  status: ('A' for Active; 'I' for Inactive)
REMARK    1  A    between atoms: C_9  and  C_2 
REMARK    2  A    between atoms: S_11  and  C_9 
REMARK    3  A    between atoms: C_13  and  S_11 
REMARK    4  A    between atoms: O_21  and  C_12 
ROOT
ATOM      1  C   UNL d   1      -0.040   0.380   0.008  0.00  0.00     0.092 A 
ATOM      2  C   UNL d   1       1.136  -1.800   0.008  0.00  0.00    -0.030 A 
ATOM      3  O   UNL d   1       1.197   1.052  -0.031  0.00  0.00    -0.275 OA
ATOM      4  C   UNL d   1       2.385   0.350  -0.027  0.00  0.00     0.288 A 
ATOM      5  C   UNL d   1      -0.117  -1.018   0.047  0.00  0.00     0.005 A 
ATOM      6  C   UNL d   1       2.293  -1.116  -0.015  0.00  0.00     0.091 A 
ATOM      7  C   UNL d   1      -1.170   1.202   0.006  0.00  0.00     0.074 A 
ATOM      8  C   UNL d   1      -1.397  -1.584   0.101  0.00  0.00     0.017 A 
ATOM      9  O   UNL d   1       3.478   0.909  -0.035  0.00  0.00    -0.260 OA
ATOM     10  C   UNL d   1      -2.422   0.609   0.043  0.00  0.00     0.068 A 
ATOM     11  C   UNL d   1      -2.543  -0.775   0.092  0.00  0.00     0.037 A 
ENDROOT
BRANCH   2  12
ATOM     12  C   UNL d   1       1.147  -3.317   0.014  0.00  0.00     0.119 C 
BRANCH  12  13
ATOM     13  S   UNL d   1       0.561  -3.954  -1.595  0.00  0.00    -0.125 SA
BRANCH  13  14
ATOM     14  C   UNL d   1       0.676  -5.734  -1.469  0.00  0.00     0.001 A 
ATOM     15  C   UNL d   1       1.355  -6.448  -0.477  0.00  0.00     0.020 A 
ATOM     16  C   UNL d   1       1.440  -7.849  -0.540  0.00  0.00     0.025 A 
ATOM     17  C   UNL d   1       0.841  -8.542  -1.590  0.00  0.00     0.034 A 
ATOM     18  C   UNL d   1       0.145  -7.849  -2.573  0.00  0.00     0.025 A 
ATOM     19 CL   UNL d   1       0.972 -10.254  -1.681  0.00  0.00    -0.084 Cl
ATOM     20  C   UNL d   1       0.066  -6.455  -2.510  0.00  0.00     0.020 A 
ENDBRANCH  13  14
ENDBRANCH  12  13
ENDBRANCH   2  12
BRANCH  10  21
ATOM     21  O   UNL d   1      -3.564   1.351   0.033  0.00  0.00    -0.361 OA
ATOM     22  H   UNL d   1      -3.328   2.292  -0.021  0.00  0.00     0.217 HD
ENDBRANCH  10  21
TORSDOF 4
