REMARK  6 active torsions:
REMARK  status: ('A' for Active; 'I' for Inactive)
REMARK    1  A    between atoms: C_9  and  C_1 
REMARK    2  A    between atoms: N_21  and  C_3 
REMARK    3  A    between atoms: C_20  and  C_6 
REMARK       I    between atoms: N_18  and  C_9 
REMARK    4  A    between atoms: C_25  and  C_12 
REMARK    5  A    between atoms: N_14  and  N_18 
REMARK    6  A    between atoms: C_28  and  C_27 
ROOT
ATOM      1  C   UNL d   1      -2.549  -0.708   0.151  0.00  0.00     0.103 C 
ATOM      2  C   UNL d   1      -0.183  -0.969   0.128  0.00  0.00     0.040 A 
ATOM      3  C   UNL d   1      -1.477  -1.579   0.319  0.00  0.00     0.062 C 
ATOM      4  C   UNL d   1      -0.360   0.401   0.012  0.00  0.00     0.103 A 
ATOM      5  S   UNL d   1      -1.993   0.894  -0.017  0.00  0.00    -0.062 SA
ATOM      6  C   UNL d   1       1.162  -1.452   0.024  0.00  0.00     0.018 A 
ATOM      7  N   UNL d   1       1.868   0.866  -0.163  0.00  0.00    -0.298 N 
ATOM      8  HN  UNL d   1       2.630   1.541  -0.226  1.00  0.00     0.187 HD
ATOM      9  N   UNL d   1       0.624   1.308  -0.105  0.00  0.00    -0.292 N 
ATOM     10  HN  UNL d   1       0.418   2.306  -0.147  1.00  0.00     0.187 HD
ATOM     11  C   UNL d   1       2.164  -0.463  -0.142  0.00  0.00     0.070 A 
ENDROOT
BRANCH   1  12
ATOM     12  C   UNL d   1      -3.958  -1.085   0.130  0.00  0.00     0.279 C 
ATOM     13  N   UNL d   1      -4.902  -0.079  -0.068  0.00  0.00    -0.266 N 
ATOM     14  H   UNL d   1      -4.629   0.891  -0.178  0.00  0.00     0.190 HD
ATOM     15  O   UNL d   1      -4.309  -2.264   0.271  0.00  0.00    -0.265 OA
BRANCH  13  16
ATOM     16  N   UNL d   1      -6.208  -0.455  -0.145  0.00  0.00    -0.308 N 
ATOM     17  C   UNL d   1      -7.114   0.447  -0.319  0.00  0.00     0.118 C 
ATOM     18  HN  UNL d   1      -6.468  -1.438  -0.066  1.00  0.00     0.186 HD
BRANCH  17  19
ATOM     19  C   UNL d   1      -8.536   0.041  -0.404  0.00  0.00    -0.017 A 
ATOM     20  C   UNL d   1      -9.524   1.017  -0.560  0.00  0.00     0.052 A 
ATOM     21  C   UNL d   1     -10.834   0.584  -0.621  0.00  0.00     0.105 A 
ATOM     22  O   UNL d   1     -11.927   1.383  -0.763  0.00  0.00    -0.323 OA
ATOM     23  C   UNL d   1     -11.172  -0.749  -0.539  0.00  0.00     0.105 A 
ATOM     24  C   UNL d   1     -12.988   0.403  -0.740  0.00  0.00     0.352 A 
ATOM     25  O   UNL d   1     -12.514  -0.953  -0.619  0.00  0.00    -0.323 OA
ATOM     26  C   UNL d   1     -10.220  -1.732  -0.390  0.00  0.00     0.040 A 
ATOM     27  C   UNL d   1      -8.884  -1.328  -0.321  0.00  0.00     0.016 A 
ENDBRANCH  17  19
ENDBRANCH  13  16
ENDBRANCH   1  12
BRANCH   3  28
ATOM     28  N   UNL d   1      -1.681  -2.885   0.596  0.00  0.00    -0.397 N 
ATOM     29  H   UNL d   1      -0.965  -3.517   0.940  0.00  0.00     0.156 HD
ATOM     30  H   UNL d   1      -2.633  -3.259   0.688  0.00  0.00     0.156 HD
ENDBRANCH   3  28
BRANCH   6  31
ATOM     31  C   UNL d   1       1.421  -2.909   0.024  0.00  0.00    -0.023 A 
ATOM     32  C   UNL d   1       0.761  -3.756  -0.889  0.00  0.00     0.012 A 
ATOM     33  C   UNL d   1       1.000  -5.131  -0.919  0.00  0.00     0.001 A 
ATOM     34  C   UNL d   1       1.962  -5.684  -0.083  0.00  0.00     0.000 A 
ATOM     35  C   UNL d   1       2.657  -4.867   0.806  0.00  0.00     0.001 A 
ATOM     36  C   UNL d   1       2.367  -3.500   0.880  0.00  0.00     0.012 A 
ENDBRANCH   6  31
BRANCH  11  37
ATOM     37  C   UNL d   1       3.619  -0.734  -0.321  0.00  0.00    -0.007 A 
ATOM     38  C   UNL d   1       4.104  -1.784  -1.124  0.00  0.00     0.014 A 
ATOM     39  C   UNL d   1       5.469  -2.083  -1.202  0.00  0.00     0.001 A 
ATOM     40  C   UNL d   1       6.394  -1.294  -0.529  0.00  0.00     0.000 A 
ATOM     41  C   UNL d   1       5.954  -0.202   0.212  0.00  0.00     0.001 A 
ATOM     42  C   UNL d   1       4.584   0.070   0.318  0.00  0.00     0.014 A 
ENDBRANCH  11  37
TORSDOF 6
