REMARK  3 active torsions:
REMARK  status: ('A' for Active; 'I' for Inactive)
REMARK    1  A    between atoms: C_15  and  N_9 
REMARK    2  A    between atoms: C_14  and  C_12 
REMARK    3  A    between atoms: C_22  and  C_15 
ROOT
ATOM      1  N   UNL d   1       1.229  -0.616  -0.064  0.00  0.00    -0.203 N 
ATOM      2  C   UNL d   1      -1.188  -0.629  -0.043  0.00  0.00     0.062 A 
ATOM      3  C   UNL d   1       1.234   0.772   0.060  0.00  0.00     0.133 A 
ATOM      4  C   UNL d   1      -1.104   0.699   0.065  0.00  0.00     0.116 A 
ATOM      5  C   UNL d   1       0.057  -1.414  -0.121  0.00  0.00     0.278 A 
ATOM      6  N   UNL d   1       2.491  -1.124  -0.114  0.00  0.00    -0.287 N 
ATOM      7  HN  UNL d   1       2.772  -2.099  -0.218  1.00  0.00     0.188 HD
ATOM      8  N   UNL d   1       0.051   1.427   0.117  0.00  0.00    -0.336 N 
ATOM      9  N   UNL d   1      -3.311   0.097   0.066  0.00  0.00    -0.338 N 
ATOM     10  C   UNL d   1      -2.490   1.208   0.127  0.00  0.00     0.271 A 
ATOM     11  C   UNL d   1       2.544   1.162   0.108  0.00  0.00     0.084 A 
ATOM     12  C   UNL d   1       3.278  -0.044   0.005  0.00  0.00     0.086 A 
ATOM     13  C   UNL d   1      -2.571  -1.144  -0.067  0.00  0.00     0.173 A 
ATOM     14  O   UNL d   1       0.091  -2.632  -0.219  0.00  0.00    -0.265 OA
ATOM     15  O   UNL d   1      -2.793   2.384   0.218  0.00  0.00    -0.266 OA
ATOM     16  H   UNL d   1      -0.056   2.439   0.205  0.00  0.00     0.168 HD
ENDROOT
BRANCH   9  17
ATOM     17  C   UNL d   1      -4.757   0.164   0.021  0.00  0.00     0.165 C 
BRANCH  17  18
ATOM     18  C   UNL d   1      -5.288   0.219  -1.391  0.00  0.00    -0.040 A 
ATOM     19  C   UNL d   1      -5.623  -0.955  -2.079  0.00  0.00     0.009 A 
ATOM     20  C   UNL d   1      -6.085  -0.897  -3.396  0.00  0.00     0.001 A 
ATOM     21  C   UNL d   1      -6.219   0.333  -4.037  0.00  0.00     0.000 A 
ATOM     22  C   UNL d   1      -5.896   1.508  -3.362  0.00  0.00     0.001 A 
ATOM     23  C   UNL d   1      -5.428   1.452  -2.047  0.00  0.00     0.009 A 
ENDBRANCH  17  18
ENDBRANCH   9  17
BRANCH  12  24
ATOM     24  C   UNL d   1       4.769  -0.113   0.038  0.00  0.00     0.103 A 
ATOM     25  O   UNL d   1       5.582   0.974   0.225  0.00  0.00    -0.320 OA
ATOM     26  C   UNL d   1       6.863   0.528   0.223  0.00  0.00     0.142 A 
ATOM     27  C   UNL d   1       6.898  -0.831   0.022  0.00  0.00     0.027 A 
ATOM     28  C   UNL d   1       5.548  -1.246  -0.099  0.00  0.00     0.041 A 
ENDBRANCH  12  24
TORSDOF 3
