REMARK  2 active torsions:
REMARK  status: ('A' for Active; 'I' for Inactive)
REMARK    1  A    between atoms: N_9  and  C_3 
REMARK    2  A    between atoms: O_10  and  C_4 
ROOT
ATOM      1  N   UNL d   1      -0.680   1.203  -0.006  0.00  0.00    -0.170 N 
ATOM      2  HN  UNL d   1      -1.185   2.090  -0.007  1.00  0.00     0.186 HD
ATOM      3  C   UNL d   1      -1.324   0.030  -0.005  0.00  0.00     0.681 A 
ATOM      4  C   UNL d   1       0.656   1.158  -0.006  0.00  0.00     0.163 A 
ATOM      5  N   UNL d   1      -0.662  -1.140  -0.003  0.00  0.00    -0.195 N 
ATOM      6  HN  UNL d   1      -1.176  -2.021  -0.002  1.00  0.00     0.184 HD
ATOM      7  C   UNL d   1       1.431   0.025  -0.004  0.00  0.00     0.012 A 
ATOM      8  C   UNL d   1       0.695  -1.142  -0.003  0.00  0.00     0.033 A 
ATOM      9  C   UNL d   1       2.922   0.066  -0.005  0.00  0.00     0.055 C 
ATOM     10  C   UNL d   1       1.322  -2.505   0.002  0.00  0.00     0.069 C 
ENDROOT
BRANCH   3  11
ATOM     11  N   UNL d   1      -2.698   0.021  -0.001  0.00  0.00    -0.226 N 
ATOM     12  C   UNL d   1      -3.435  -1.225  -0.005  0.00  0.00     0.168 C 
ATOM     13  C   UNL d   1      -3.456   1.255  -0.014  0.00  0.00     0.168 C 
ENDBRANCH   3  11
BRANCH   4  14
ATOM     14  O   UNL d   1       1.221   2.394  -0.005  0.00  0.00    -0.345 OA
ATOM     15  H   UNL d   1       0.416   2.942  -0.003  0.00  0.00     0.219 HD
ENDBRANCH   4  14
TORSDOF 2
