REMARK  5 active torsions:
REMARK  status: ('A' for Active; 'I' for Inactive)
REMARK    1  A    between atoms: N_2  and  C_1 
REMARK    2  A    between atoms: N_6  and  C_19 
REMARK    3  A    between atoms: C_18  and  C_11 
REMARK       I    between atoms: C_12  and  N_21 
REMARK    4  A    between atoms: C_19  and  C_12 
REMARK    5  A    between atoms: N_21  and  N_13 
ROOT
ATOM      1  C   UNL d   1       1.369  -5.831   0.013  0.00  0.00     0.254 C 
ATOM      2  N   UNL d   1       0.458  -4.795   0.203  0.00  0.00    -0.269 N 
ATOM      3  O   UNL d   1       1.061  -7.019  -0.090  0.00  0.00    -0.270 OA
ATOM      4  H   UNL d   1       0.768  -3.847   0.385  0.00  0.00     0.190 HD
ENDROOT
BRANCH   2   5
ATOM      5  N   UNL d   1      -0.861  -5.117   0.340  0.00  0.00    -0.308 N 
ATOM      6  C   UNL d   1      -1.705  -4.155   0.529  0.00  0.00     0.126 C 
ATOM      7  HN  UNL d   1      -1.172  -6.088   0.295  1.00  0.00     0.186 HD
BRANCH   6   8
ATOM      8  C   UNL d   1      -3.095  -4.478   0.752  0.00  0.00     0.024 A 
ATOM      9  S   UNL d   1      -4.233  -3.237   1.054  0.00  0.00    -0.065 SA
ATOM     10  C   UNL d   1      -5.487  -4.364   1.298  0.00  0.00     0.144 A 
ATOM     11  C   UNL d   1      -5.072  -5.666   1.123  0.00  0.00     0.045 A 
ATOM     12  C   UNL d   1      -3.686  -5.729   0.791  0.00  0.00     0.023 A 
BRANCH  10  13
ATOM     13  N   UNL d   1      -6.810  -3.930   1.660  0.00  0.00    -0.108 N 
ATOM     14  O   UNL d   1      -7.640  -4.822   1.882  0.00  0.00    -0.531 OA
ATOM     15  O   UNL d   1      -7.033  -2.714   1.725  0.00  0.00    -0.531 OA
ENDBRANCH  10  13
ENDBRANCH   6   8
ENDBRANCH   2   5
BRANCH   1  16
ATOM     16  C   UNL d   1       2.829  -5.381  -0.052  0.00  0.00     0.232 C 
BRANCH  16  17
ATOM     17  N   UNL d   1       3.479  -5.422   1.280  0.00  0.00    -0.354 N 
ATOM     18  C   UNL d   1       4.149  -4.316   1.796  0.00  0.00     0.119 A 
ATOM     19  C   UNL d   1       4.800  -4.298   2.969  0.00  0.00     0.101 A 
ATOM     20 CL   UNL d   1       5.595  -2.890   3.545  0.00  0.00    -0.079 Cl
ATOM     21  C   UNL d   1       4.833  -5.545   3.796  0.00  0.00     0.217 A 
ATOM     22  C   UNL d   1       4.158  -6.739   3.201  0.00  0.00     0.101 A 
ATOM     23  O   UNL d   1       5.387  -5.583   4.892  0.00  0.00    -0.285 OA
ATOM     24  C   UNL d   1       3.550  -6.608   2.013  0.00  0.00     0.119 A 
ATOM     25 CL   UNL d   1       4.188  -8.228   4.054  0.00  0.00    -0.079 Cl
ENDBRANCH  16  17
ENDBRANCH   1  16
TORSDOF 5
