REMARK  1 active torsions:
REMARK  status: ('A' for Active; 'I' for Inactive)
REMARK    1  A    between atoms: C_7  and  C_3 
ROOT
ATOM      1  C   UNL d   1       1.290   0.319  -0.025  0.00  0.00     0.058 C 
ATOM      2  C   UNL d   1      -1.274   0.330  -0.033  0.00  0.00     0.058 C 
ATOM      3  C   UNL d   1       0.013   1.147  -0.209  0.00  0.00     0.111 C 
ATOM      4  N   UNL d   1      -0.002  -1.671   0.050  0.00  0.00    -0.361 N 
ATOM      5  C   UNL d   1      -1.223  -1.020   0.051  0.00  0.00     0.023 C 
ATOM      6  C   UNL d   1       1.225  -1.031   0.067  0.00  0.00     0.023 C 
ATOM      7  C   UNL d   1      -2.514   1.036   0.009  0.00  0.00     0.098 C 
ATOM      8  C   UNL d   1       2.536   1.013   0.033  0.00  0.00     0.098 C 
ATOM      9  N   UNL d   1       3.552   1.569   0.085  0.00  0.00    -0.192 NA
ATOM     10  N   UNL d   1      -3.524   1.602   0.048  0.00  0.00    -0.192 NA
ATOM     11  C   UNL d   1      -2.461  -1.882   0.104  0.00  0.00     0.069 C 
ATOM     12  C   UNL d   1       2.452  -1.905   0.158  0.00  0.00     0.069 C 
ATOM     13  H   UNL d   1      -0.007  -2.688   0.116  0.00  0.00     0.165 HD
ENDROOT
BRANCH   3  14
ATOM     14  C   UNL d   1       0.020   1.835  -1.583  0.00  0.00    -0.022 A 
ATOM     15  C   UNL d   1       0.107   3.228  -1.744  0.00  0.00     0.041 A 
ATOM     16 CL   UNL d   1       0.200   4.310  -0.403  0.00  0.00    -0.084 Cl
ATOM     17  C   UNL d   1       0.121   3.796  -3.025  0.00  0.00     0.024 A 
ATOM     18  C   UNL d   1       0.044   2.989  -4.159  0.00  0.00     0.002 A 
ATOM     19  C   UNL d   1      -0.044   1.609  -4.020  0.00  0.00     0.001 A 
ATOM     20  C   UNL d   1      -0.053   1.037  -2.748  0.00  0.00     0.010 A 
ENDBRANCH   3  14
TORSDOF 1
