REMARK  6 active torsions:
REMARK  status: ('A' for Active; 'I' for Inactive)
REMARK    1  A    between atoms: N_12  and  C_3 
REMARK    2  A    between atoms: C_4  and  S_9 
REMARK       I    between atoms: C_5  and  N_10 
REMARK       I    between atoms: N_11  and  C_5 
REMARK    3  A    between atoms: C_13  and  C_6 
REMARK    4  A    between atoms: S_9  and  C_21 
REMARK    5  A    between atoms: N_10  and  N_12 
REMARK    6  A    between atoms: C_20  and  N_11 
ROOT
ATOM      1  C   UNL d   1      -0.704   4.793  -0.051  0.00  0.00     0.335 C 
ATOM      2  N   UNL d   1      -0.961   3.439  -0.166  0.00  0.00    -0.266 N 
ATOM      3  N   UNL d   1      -1.555   5.555  -0.826  0.00  0.00    -0.308 N 
ATOM      4  O   UNL d   1       0.220   5.206   0.651  0.00  0.00    -0.246 OA
ATOM      5  H   UNL d   1      -1.920   3.114  -0.234  0.00  0.00     0.186 HD
ATOM      6  H   UNL d   1      -2.190   5.043  -1.421  0.00  0.00     0.170 HD
ENDROOT
BRANCH   2   7
ATOM      7  N   UNL d   1      -0.159   2.591   0.653  0.00  0.00    -0.171 NA
ATOM      8  H   UNL d   1       0.716   3.042   0.936  0.00  0.00     0.156 HD
BRANCH   7   9
ATOM      9  C   UNL d   1       0.183   1.395   0.004  0.00  0.00     0.176 A 
ATOM     10  N   UNL d   1      -0.718   0.809  -0.807  0.00  0.00    -0.331 N 
ATOM     11  C   UNL d   1      -0.355  -0.321  -1.449  0.00  0.00     0.047 A 
ATOM     12  HN  UNL d   1      -1.649   1.208  -0.931  1.00  0.00     0.168 HD
ATOM     13  C   UNL d   1       0.906  -0.862  -1.296  0.00  0.00     0.047 A 
ATOM     14  C   UNL d   1       1.750  -0.210  -0.432  0.00  0.00     0.093 A 
ATOM     15  N   UNL d   1       1.413   0.910   0.227  0.00  0.00    -0.341 N 
ATOM     16  HN  UNL d   1       2.061   1.369   0.867  1.00  0.00     0.167 HD
BRANCH  11  17
ATOM     17  C   UNL d   1      -1.369  -0.908  -2.339  0.00  0.00     0.006 A 
ATOM     18  C   UNL d   1      -2.339  -0.118  -2.962  0.00  0.00     0.101 A 
ATOM     19  N   UNL d   1      -3.275  -0.572  -3.835  0.00  0.00    -0.374 N 
ATOM     20  C   UNL d   1      -3.261  -1.893  -4.102  0.00  0.00     0.087 A 
ATOM     21  HN  UNL d   1      -3.953   0.055  -4.266  1.00  0.00     0.164 HD
ATOM     22  C   UNL d   1      -2.369  -2.779  -3.526  0.00  0.00     0.018 A 
ATOM     23  C   UNL d   1      -1.422  -2.279  -2.634  0.00  0.00     0.016 A 
ENDBRANCH  11  17
ENDBRANCH   7   9
ENDBRANCH   2   7
BRANCH   3  24
ATOM     24  C   UNL d   1      -1.634   6.967  -0.860  0.00  0.00     0.036 A 
ATOM     25  C   UNL d   1      -0.814   7.800  -0.100  0.00  0.00     0.031 A 
ATOM     26  C   UNL d   1      -1.035   9.181  -0.059  0.00  0.00     0.021 A 
ATOM     27  C   UNL d   1      -2.082   9.752  -0.780  0.00  0.00     0.009 A 
ATOM     28  C   UNL d   1      -2.837   8.937  -1.628  0.00  0.00     0.021 A 
ATOM     29  C   UNL d   1      -2.616   7.553  -1.667  0.00  0.00     0.031 A 
BRANCH  27  30
ATOM     30  S   UNL d   1      -2.445  11.489  -0.662  0.00  0.00    -0.016 SA
BRANCH  30  31
ATOM     31  C   UNL d   1      -2.894  11.639   1.080  0.00  0.00     0.448 C 
ATOM     32  F   UNL d   1      -2.772  10.490   1.785  0.00  0.00    -0.160 F 
ATOM     33  F   UNL d   1      -2.120  12.566   1.696  0.00  0.00    -0.160 F 
ATOM     34  F   UNL d   1      -4.181  12.047   1.210  0.00  0.00    -0.160 F 
ENDBRANCH  30  31
ENDBRANCH  27  30
ENDBRANCH   3  24
TORSDOF 6
