REMARK  6 active torsions:
REMARK  status: ('A' for Active; 'I' for Inactive)
REMARK    1  A    between atoms: S_12  and  C_2 
REMARK    2  A    between atoms: N_19  and  C_3 
REMARK    3  A    between atoms: C_8  and  C_9 
REMARK    4  A    between atoms: C_10  and  C_20 
REMARK       I    between atoms: N_11  and  C_10 
REMARK    5  A    between atoms: C_14  and  N_11 
REMARK    6  A    between atoms: C_20  and  S_12 
ROOT
ATOM      1  C   UNL d   1       5.670   0.325  -0.119  0.00  0.00     0.231 C 
ATOM      2  N   UNL d   1       5.919  -1.033  -0.025  0.00  0.00    -0.327 N 
ATOM      3  O   UNL d   1       4.560   0.834  -0.281  0.00  0.00    -0.272 OA
ATOM      4  H   UNL d   1       6.875  -1.305   0.176  0.00  0.00     0.169 HD
ENDROOT
BRANCH   1   5
ATOM      5  C   UNL d   1       6.860   1.233   0.132  0.00  0.00     0.184 C 
BRANCH   5   6
ATOM      6  S   UNL d   1       8.396   0.644  -0.632  0.00  0.00    -0.094 SA
BRANCH   6   7
ATOM      7  C   UNL d   1       9.404   2.052  -0.356  0.00  0.00     0.130 A 
ATOM      8  S   UNL d   1      11.014   2.183  -0.922  0.00  0.00    -0.027 SA
ATOM      9  C   UNL d   1      11.059   3.748  -0.211  0.00  0.00     0.159 A 
ATOM     10  N   UNL d   1       9.939   4.092   0.383  0.00  0.00    -0.279 N 
ATOM     11  N   UNL d   1       8.977   3.106   0.304  0.00  0.00    -0.286 N 
ATOM     12  HN  UNL d   1       9.796   4.987   0.851  1.00  0.00     0.189 HD
ATOM     13  HN  UNL d   1       8.044   3.185   0.710  1.00  0.00     0.188 HD
BRANCH   9  14
ATOM     14  N   UNL d   1      12.152   4.530  -0.283  0.00  0.00    -0.379 N 
ATOM     15  H   UNL d   1      12.834   4.346  -1.009  0.00  0.00     0.158 HD
ATOM     16  H   UNL d   1      12.014   5.513  -0.077  0.00  0.00     0.158 HD
ENDBRANCH   9  14
ENDBRANCH   6   7
ENDBRANCH   5   6
ENDBRANCH   1   5
BRANCH   2  17
ATOM     17  C   UNL d   1       4.963  -2.072  -0.100  0.00  0.00     0.035 A 
ATOM     18  C   UNL d   1       3.630  -1.870  -0.469  0.00  0.00     0.045 A 
ATOM     19  C   UNL d   1       2.701  -2.923  -0.461  0.00  0.00     0.050 A 
ATOM     20  C   UNL d   1       3.130  -4.202  -0.087  0.00  0.00     0.016 A 
ATOM     21  C   UNL d   1       4.464  -4.425   0.249  0.00  0.00     0.003 A 
ATOM     22  C   UNL d   1       5.378  -3.367   0.234  0.00  0.00     0.029 A 
BRANCH  19  23
ATOM     23  C   UNL d   1       1.256  -2.678  -0.822  0.00  0.00     0.417 C 
ATOM     24  F   UNL d   1       1.004  -1.423  -1.285  0.00  0.00    -0.166 F 
ATOM     25  F   UNL d   1       0.812  -3.526  -1.793  0.00  0.00    -0.166 F 
ATOM     26  F   UNL d   1       0.421  -2.860   0.238  0.00  0.00    -0.166 F 
ENDBRANCH  19  23
ENDBRANCH   2  17
TORSDOF 6
