REMARK  4 active torsions:
REMARK  status: ('A' for Active; 'I' for Inactive)
REMARK    1  A    between atoms: C_2  and  S_1 
REMARK    2  A    between atoms: N_15  and  S_1 
REMARK    3  A    between atoms: C_4  and  C_20 
REMARK    4  A    between atoms: C_25  and  N_15 
ROOT
ATOM      1  C   UNL d   1       1.499   1.274   5.123  0.00  0.00    -0.002 A 
ATOM      2  C   UNL d   1       0.859   1.261   2.377  0.00  0.00     0.042 A 
ATOM      3  C   UNL d   1       2.474   0.984   4.153  0.00  0.00     0.016 A 
ATOM      4  C   UNL d   1       0.203   1.588   4.682  0.00  0.00     0.016 A 
ATOM      5  C   UNL d   1      -0.117   1.582   3.317  0.00  0.00     0.031 A 
ATOM      6  C   UNL d   1       2.153   0.964   2.791  0.00  0.00     0.031 A 
ENDROOT
BRANCH   2   7
ATOM      7  N   UNL d   1       0.518   1.174   1.008  0.00  0.00    -0.281 N 
ATOM      8  H   UNL d   1       0.536   0.273   0.533  0.00  0.00     0.179 HD
BRANCH   7   9
ATOM      9  S   UNL d   1       0.538   2.517   0.006  0.00  0.00     0.265 S 
ATOM     10  O   UNL d   1       0.228   2.067  -1.329  0.00  0.00    -0.200 OA
ATOM     11  O   UNL d   1      -0.265   3.550   0.637  0.00  0.00    -0.200 OA
BRANCH   9  12
ATOM     12  C   UNL d   1       2.204   3.079   0.002  0.00  0.00     0.109 A 
ATOM     13  C   UNL d   1       3.284   2.282  -0.444  0.00  0.00     0.090 A 
ATOM     14  N   UNL d   1       3.249   1.014  -0.891  0.00  0.00    -0.309 N 
ATOM     15  C   UNL d   1       4.692   2.844  -0.427  0.00  0.00     0.068 A 
ATOM     16  S   UNL d   1       4.804   0.602  -1.305  0.00  0.00     0.068 SA
ATOM     17  HN  UNL d   1       2.424   0.418  -0.962  1.00  0.00     0.176 HD
ATOM     18  N   UNL d   1       5.617   1.979  -0.869  0.00  0.00    -0.310 N 
ATOM     19  HN  UNL d   1       6.623   2.138  -0.926  1.00  0.00     0.176 HD
ATOM     20  C   UNL d   1       4.952   4.159   0.029  0.00  0.00     0.032 A 
ATOM     21  C   UNL d   1       3.836   4.904   0.441  0.00  0.00     0.004 A 
ATOM     22  C   UNL d   1       2.518   4.390   0.426  0.00  0.00     0.028 A 
ENDBRANCH   9  12
ENDBRANCH   7   9
ENDBRANCH   2   7
BRANCH   1  23
ATOM     23  C   UNL d   1       1.786   1.242   6.569  0.00  0.00     0.085 A 
ATOM     24  N   UNL d   1       1.154   1.968   7.471  0.00  0.00    -0.349 N 
ATOM     25  C   UNL d   1       1.619   1.671   8.743  0.00  0.00     0.050 A 
ATOM     26  HN  UNL d   1       0.427   2.652   7.262  1.00  0.00     0.166 HD
ATOM     27  C   UNL d   1       1.179   2.257   9.946  0.00  0.00     0.031 A 
ATOM     28  C   UNL d   1       2.606   0.689   8.803  0.00  0.00     0.034 A 
ATOM     29  C   UNL d   1       1.728   1.842  11.166  0.00  0.00     0.009 A 
ATOM     30  C   UNL d   1       2.713   0.852  11.211  0.00  0.00    -0.061 A 
ATOM     31  C   UNL d   1       3.166   0.264  10.021  0.00  0.00     0.028 A 
ATOM     32  C   UNL d   1       3.276   0.419  12.535  0.00  0.00     0.048 C 
ATOM     33  S   UNL d   1       2.956   0.152   7.211  0.00  0.00    -0.070 SA
ENDBRANCH   1  23
TORSDOF 4
