REMARK  3 active torsions:
REMARK  status: ('A' for Active; 'I' for Inactive)
REMARK    1  A    between atoms: O_3  and  C_1 
REMARK    2  A    between atoms: C_4  and  O_3 
REMARK    3  A    between atoms: C_7  and  C_4 
ROOT
ATOM      1  C   UNL d   1      -0.140   1.356  -0.124  0.00  0.00     0.173 A 
ATOM      2  C   UNL d   1       0.790   0.316  -0.065  0.00  0.00     0.102 A 
ATOM      3  N   UNL d   1      -1.473   1.171  -0.165  0.00  0.00    -0.339 N 
ATOM      4  HN  UNL d   1      -2.114   1.963  -0.211  1.00  0.00     0.168 HD
ATOM      5  C   UNL d   1       0.306  -1.002  -0.053  0.00  0.00    -0.035 A 
ATOM      6  C   UNL d   1       2.189   0.612  -0.002  0.00  0.00     0.104 C 
ATOM      7  N   UNL d   1       3.328   0.831   0.055  0.00  0.00    -0.191 NA
ATOM      8  C   UNL d   1      -1.932  -0.099  -0.142  0.00  0.00     0.008 A 
ATOM      9  C   UNL d   1      -1.081  -1.200  -0.087  0.00  0.00     0.033 A 
ATOM     10  C   UNL d   1       1.189  -2.220   0.010  0.00  0.00     0.050 C 
ATOM     11  C   UNL d   1      -3.418  -0.294  -0.141  0.00  0.00     0.068 C 
ENDROOT
BRANCH   1  12
ATOM     12  O   UNL d   1       0.376   2.686  -0.113  0.00  0.00    -0.255 OA
BRANCH  12  13
ATOM     13  C   UNL d   1      -0.408   3.841  -0.167  0.00  0.00     0.306 C 
ATOM     14  O   UNL d   1      -1.627   3.886  -0.254  0.00  0.00    -0.258 OA
BRANCH  13  15
ATOM     15  C   UNL d   1       0.439   5.031  -0.120  0.00  0.00     0.080 A 
ATOM     16  S   UNL d   1       2.148   4.944   0.019  0.00  0.00    -0.096 SA
ATOM     17  C   UNL d   1       2.318   6.642  -0.068  0.00  0.00     0.050 A 
ATOM     18  C   UNL d   1       1.103   7.278  -0.167  0.00  0.00     0.009 A 
ATOM     19  C   UNL d   1       0.019   6.350  -0.180  0.00  0.00     0.025 A 
ENDBRANCH  13  15
ENDBRANCH  12  13
ENDBRANCH   1  12
TORSDOF 3
