REMARK  7 active torsions:
REMARK  status: ('A' for Active; 'I' for Inactive)
REMARK    1  A    between atoms: C_5  and  S_1 
REMARK    2  A    between atoms: N_6  and  S_1 
REMARK    3  A    between atoms: C_9  and  C_2 
REMARK    4  A    between atoms: C_3  and  N_6 
REMARK    5  A    between atoms: C_11  and  C_4 
REMARK    6  A    between atoms: O_21  and  C_9 
REMARK    7  A    between atoms: O_22  and  C_11 
ROOT
ATOM      1  C   UNL d   1       2.282   0.049   3.070  0.00  0.00     0.090 C 
ATOM      2  C   UNL d   1       0.915   0.343   2.694  0.00  0.00     0.067 C 
ATOM      3  C   UNL d   1       2.337  -0.528   4.337  0.00  0.00     0.098 C 
ATOM      4  S   UNL d   1       0.776  -0.654   5.048  0.00  0.00    -0.092 SA
ATOM      5  C   UNL d   1       0.034   0.103   3.722  0.00  0.00     0.081 C 
ENDROOT
BRANCH   2   6
ATOM      6  N   UNL d   1       0.514   0.851   1.441  0.00  0.00    -0.279 N 
ATOM      7  H   UNL d   1      -0.226   1.556   1.431  0.00  0.00     0.179 HD
BRANCH   6   8
ATOM      8  S   UNL d   1       0.237  -0.225   0.145  0.00  0.00     0.265 S 
ATOM      9  O   UNL d   1      -0.307   0.540  -0.954  0.00  0.00    -0.200 OA
ATOM     10  O   UNL d   1       1.426  -1.034  -0.022  0.00  0.00    -0.200 OA
BRANCH   8  11
ATOM     11  C   UNL d   1      -1.062  -1.282   0.752  0.00  0.00     0.101 A 
ATOM     12  C   UNL d   1      -2.310  -0.767   1.120  0.00  0.00     0.059 A 
ATOM     13  C   UNL d   1      -3.295  -1.629   1.621  0.00  0.00     0.049 A 
ATOM     14 CL   UNL d   1      -2.717   0.910   1.051  0.00  0.00    -0.083 Cl
ATOM     15  C   UNL d   1      -3.032  -2.995   1.741  0.00  0.00     0.035 A 
ATOM     16  C   UNL d   1      -1.800  -3.512   1.359  0.00  0.00     0.025 A 
ATOM     17 CL   UNL d   1      -4.242  -4.038   2.377  0.00  0.00    -0.084 Cl
ATOM     18  C   UNL d   1      -0.811  -2.658   0.861  0.00  0.00     0.029 A 
ENDBRANCH   8  11
ENDBRANCH   6   8
ENDBRANCH   2   6
BRANCH   1  19
ATOM     19  C   UNL d   1       3.465   0.315   2.250  0.00  0.00     0.296 C 
ATOM     20  O   UNL d   1       4.449  -0.412   2.225  0.00  0.00    -0.259 OA
BRANCH  19  21
ATOM     21  O   UNL d   1       3.345   1.492   1.571  0.00  0.00    -0.322 OA
ATOM     22  C   UNL d   1       4.448   1.905   0.761  0.00  0.00     0.213 C 
ENDBRANCH  19  21
ENDBRANCH   1  19
BRANCH   3  23
ATOM     23  C   UNL d   1       3.452  -0.994   5.146  0.00  0.00     0.301 C 
ATOM     24  O   UNL d   1       3.397  -1.894   5.976  0.00  0.00    -0.259 OA
BRANCH  23  25
ATOM     25  O   UNL d   1       4.560  -0.231   4.926  0.00  0.00    -0.322 OA
ATOM     26  C   UNL d   1       5.717  -0.648   5.656  0.00  0.00     0.213 C 
ENDBRANCH  23  25
ENDBRANCH   3  23
TORSDOF 7
