REMARK  0 active torsions:
REMARK  status: ('A' for Active; 'I' for Inactive)
ROOT
ATOM      1  N   UNL d   1       1.785  -0.724   0.048  0.00  0.00    -0.275 N 
ATOM      2  C   UNL d   1       0.578  -1.379   0.028  0.00  0.00     0.261 A 
ATOM      3  C   UNL d   1       1.969   0.628   0.009  0.00  0.00     0.327 A 
ATOM      4  C   UNL d   1      -0.624  -0.524   0.010  0.00  0.00     0.059 A 
ATOM      5  N   UNL d   1       0.841   1.396  -0.024  0.00  0.00    -0.308 N 
ATOM      6  C   UNL d   1      -0.449   0.860  -0.012  0.00  0.00     0.052 A 
ATOM      7  O   UNL d   1       0.498  -2.602   0.026  0.00  0.00    -0.267 OA
ATOM      8  O   UNL d   1       3.088   1.132  -0.001  0.00  0.00    -0.247 OA
ATOM      9  C   UNL d   1      -1.906  -1.077   0.022  0.00  0.00     0.019 A 
ATOM     10  C   UNL d   1      -1.558   1.704  -0.019  0.00  0.00     0.030 A 
ATOM     11  C   UNL d   1      -3.017  -0.232   0.020  0.00  0.00     0.001 A 
ATOM     12  C   UNL d   1      -2.842   1.155   0.002  0.00  0.00     0.002 A 
ATOM     13  H   UNL d   1       2.616  -1.294   0.066  0.00  0.00     0.173 HD
ATOM     14  H   UNL d   1       0.987   2.397  -0.051  0.00  0.00     0.170 HD
ENDROOT
TORSDOF 0
