REMARK  1 active torsions:
REMARK  status: ('A' for Active; 'I' for Inactive)
REMARK    1  A    between atoms: C_7  and  C_6 
REMARK       I    between atoms: N_10  and  C_7 
ROOT
ATOM      1  C   UNL d   1      -0.695   0.828   0.027  0.00  0.00     0.005 A 
ATOM      2  C   UNL d   1      -1.166  -0.504  -0.031  0.00  0.00     0.027 A 
ATOM      3  C   UNL d   1      -0.007  -1.414  -0.051  0.00  0.00     0.194 A 
ATOM      4  C   UNL d   1       0.769   0.782   0.005  0.00  0.00    -0.010 A 
ATOM      5  C   UNL d   1       1.190  -0.562  -0.027  0.00  0.00     0.026 A 
ATOM      6  C   UNL d   1      -1.650   1.841   0.076  0.00  0.00     0.043 A 
ATOM      7  O   UNL d   1      -0.041  -2.626  -0.091  0.00  0.00    -0.287 OA
ATOM      8  C   UNL d   1      -2.499  -0.874  -0.063  0.00  0.00     0.016 A 
ATOM      9  C   UNL d   1       1.748   1.760  -0.018  0.00  0.00     0.013 A 
ATOM     10  C   UNL d   1       2.513  -0.971  -0.055  0.00  0.00     0.016 A 
ATOM     11  C   UNL d   1      -3.021   1.485   0.049  0.00  0.00     0.018 A 
ATOM     12  C   UNL d   1      -3.439   0.146  -0.029  0.00  0.00     0.002 A 
ATOM     13  C   UNL d   1       3.103   1.379  -0.043  0.00  0.00     0.001 A 
ATOM     14  C   UNL d   1       3.482   0.027  -0.059  0.00  0.00     0.001 A 
ENDROOT
BRANCH   6  15
ATOM     15  C   UNL d   1      -1.316   3.279   0.238  0.00  0.00     0.250 C 
ATOM     16  O   UNL d   1      -0.409   3.666   0.960  0.00  0.00    -0.268 OA
ATOM     17  N   UNL d   1      -2.102   4.176  -0.432  0.00  0.00    -0.366 N 
ATOM     18  H   UNL d   1      -2.830   3.919  -1.083  0.00  0.00     0.159 HD
ATOM     19  H   UNL d   1      -1.885   5.158  -0.320  0.00  0.00     0.159 HD
ENDBRANCH   6  15
TORSDOF 1
