REMARK  5 active torsions:
REMARK  status: ('A' for Active; 'I' for Inactive)
REMARK    1  A    between atoms: C_2  and  N_1 
REMARK    2  A    between atoms: C_4  and  N_1 
REMARK    3  A    between atoms: N_6  and  C_2 
REMARK    4  A    between atoms: C_3  and  C_5 
REMARK    5  A    between atoms: C_11  and  N_6 
ROOT
ATOM      1  C   UNL d   1       0.311  -1.625   0.586  0.00  0.00     0.177 C 
ATOM      2  S   UNL d   1      -1.361  -1.517   0.459  0.00  0.00    -0.040 SA
ENDROOT
BRANCH   1   3
ATOM      3  N   UNL d   1       0.985  -0.441   0.701  0.00  0.00    -0.319 N 
ATOM      4  H   UNL d   1       0.367   0.359   0.695  0.00  0.00     0.170 HD
BRANCH   3   5
ATOM      5  C   UNL d   1       2.364  -0.186   0.586  0.00  0.00     0.113 A 
ATOM      6  N   UNL d   1       3.213  -1.234   0.484  0.00  0.00    -0.352 N 
ATOM      7  C   UNL d   1       4.513  -0.967   0.239  0.00  0.00     0.089 A 
ATOM      8  HN  UNL d   1       2.883  -2.193   0.589  1.00  0.00     0.166 HD
ATOM      9  C   UNL d   1       5.027   0.310   0.104  0.00  0.00     0.018 A 
ATOM     10  C   UNL d   1       4.154   1.380   0.261  0.00  0.00     0.012 A 
ATOM     11  C   UNL d   1       2.799   1.147   0.524  0.00  0.00    -0.018 A 
ATOM     12  C   UNL d   1       1.881   2.317   0.728  0.00  0.00     0.052 C 
ENDBRANCH   3   5
ENDBRANCH   1   3
BRANCH   1  13
ATOM     13  N   UNL d   1       1.047  -2.774   0.643  0.00  0.00    -0.333 N 
ATOM     14  H   UNL d   1       1.953  -2.663   1.095  0.00  0.00     0.168 HD
BRANCH  13  15
ATOM     15  C   UNL d   1       0.782  -4.039   0.084  0.00  0.00     0.035 A 
ATOM     16  C   UNL d   1       1.349  -5.165   0.688  0.00  0.00     0.045 A 
ATOM     17  C   UNL d   1       1.185  -6.441   0.123  0.00  0.00     0.050 A 
ATOM     18  C   UNL d   1       0.493  -6.564  -1.092  0.00  0.00     0.016 A 
ATOM     19  C   UNL d   1      -0.055  -5.442  -1.706  0.00  0.00     0.003 A 
ATOM     20  C   UNL d   1       0.076  -4.186  -1.113  0.00  0.00     0.029 A 
BRANCH  17  21
ATOM     21  C   UNL d   1       1.752  -7.673   0.786  0.00  0.00     0.417 C 
ATOM     22  F   UNL d   1       2.256  -7.441   2.030  0.00  0.00    -0.166 F 
ATOM     23  F   UNL d   1       0.822  -8.658   0.938  0.00  0.00    -0.166 F 
ATOM     24  F   UNL d   1       2.770  -8.224   0.068  0.00  0.00    -0.166 F 
ENDBRANCH  17  21
ENDBRANCH  13  15
ENDBRANCH   1  13
TORSDOF 5
