REMARK  0 active torsions:
REMARK  status: ('A' for Active; 'I' for Inactive)
ROOT
ATOM      1  N   UNL d   1       0.800   1.326  -0.093  0.00  0.00    -0.325 N 
ATOM      2  S   UNL d   1       0.632  -1.773  -0.055  0.00  0.00    -0.118 SA
ATOM      3  C   UNL d   1       1.972   0.652   0.116  0.00  0.00     0.231 C 
ATOM      4  C   UNL d   1      -0.490   0.778  -0.031  0.00  0.00     0.051 A 
ATOM      5  C   UNL d   1      -0.711  -0.606   0.018  0.00  0.00     0.027 A 
ATOM      6  C   UNL d   1       1.912  -0.744   0.694  0.00  0.00     0.182 C 
ATOM      7  O   UNL d   1       3.044   1.240  -0.046  0.00  0.00    -0.272 OA
ATOM      8  C   UNL d   1      -1.577   1.658  -0.057  0.00  0.00     0.031 A 
ATOM      9  C   UNL d   1      -2.022  -1.094   0.048  0.00  0.00     0.021 A 
ATOM     10  C   UNL d   1      -2.881   1.163  -0.005  0.00  0.00     0.002 A 
ATOM     11  C   UNL d   1      -3.103  -0.211   0.048  0.00  0.00     0.002 A 
ATOM     12  H   UNL d   1       0.912   2.305  -0.327  0.00  0.00     0.169 HD
ENDROOT
TORSDOF 0
