REMARK  2 active torsions:
REMARK  status: ('A' for Active; 'I' for Inactive)
REMARK    1  A    between atoms: C_2  and  S_1 
REMARK    2  A    between atoms: N_7  and  S_1 
ROOT
ATOM      1  C   UNL d   1       0.432  -0.694   1.421  0.00  0.00     0.096 A 
ATOM      2  C   UNL d   1       0.610  -2.060   1.667  0.00  0.00     0.030 A 
ATOM      3  C   UNL d   1      -0.152   0.116   2.409  0.00  0.00     0.027 A 
ATOM      4  C   UNL d   1       0.192  -2.592   2.901  0.00  0.00     0.026 A 
ATOM      5  I   UNL d   1       1.506  -3.440   0.362  0.00  0.00    -0.043 I 
ATOM      6  C   UNL d   1      -0.551  -0.420   3.634  0.00  0.00     0.008 A 
ATOM      7  C   UNL d   1      -0.387  -1.782   3.888  0.00  0.00    -0.061 A 
ATOM      8  C   UNL d   1      -0.817  -2.384   5.194  0.00  0.00     0.048 C 
ENDROOT
BRANCH   1   9
ATOM      9  S   UNL d   1       0.888   0.104  -0.098  0.00  0.00     0.259 S 
ATOM     10  O   UNL d   1       0.684   1.533   0.054  0.00  0.00    -0.201 OA
ATOM     11  O   UNL d   1       0.285  -0.612  -1.194  0.00  0.00    -0.201 OA
BRANCH   9  12
ATOM     12  N   UNL d   1       2.552  -0.135  -0.199  0.00  0.00    -0.320 N 
ATOM     13  C   UNL d   1       3.418   0.843   0.448  0.00  0.00     0.159 C 
ATOM     14  H   UNL d   1       2.817  -0.461  -1.129  0.00  0.00     0.171 HD
ENDBRANCH   9  12
ENDBRANCH   1   9
TORSDOF 2
