REMARK  3 active torsions:
REMARK  status: ('A' for Active; 'I' for Inactive)
REMARK    1  A    between atoms: C_3  and  C_13 
REMARK    2  A    between atoms: O_14  and  C_4 
REMARK    3  A    between atoms: C_13  and  O_14 
ROOT
ATOM      1  C   UNL d   1       2.826  -0.863   2.596  0.00  0.00     0.046 A 
ATOM      2  C   UNL d   1       2.882   0.559   2.588  0.00  0.00     0.053 A 
ATOM      3  C   UNL d   1       2.688  -1.500   1.308  0.00  0.00     0.085 A 
ATOM      4  N   UNL d   1       2.825   1.274   1.454  0.00  0.00    -0.359 N 
ATOM      5  HN  UNL d   1       2.863   2.293   1.494  1.00  0.00     0.166 HD
ATOM      6  C   UNL d   1       2.647  -0.718   0.153  0.00  0.00     0.062 A 
ATOM      7  C   UNL d   1       2.910  -1.494   3.877  0.00  0.00     0.049 A 
ATOM      8  C   UNL d   1       2.718   0.655   0.264  0.00  0.00     0.008 A 
ATOM      9  C   UNL d   1       3.003   1.283   3.785  0.00  0.00    -0.034 A 
ATOM     10  C   UNL d   1       3.051  -0.757   5.059  0.00  0.00     0.025 A 
ATOM     11  C   UNL d   1       3.097   0.626   5.013  0.00  0.00     0.011 A 
ATOM     12 CL   UNL d   1       2.847  -3.212   4.098  0.00  0.00    -0.083 Cl
ATOM     13  C   UNL d   1       3.024   2.795   3.809  0.00  0.00     0.050 C 
ATOM     14  C   UNL d   1       2.671   1.542  -0.941  0.00  0.00     0.068 C 
ENDROOT
BRANCH   3  15
ATOM     15  O   UNL d   1       2.604  -2.880   1.260  0.00  0.00    -0.346 OA
BRANCH  15  16
ATOM     16  C   UNL d   1       2.407  -3.506  -0.016  0.00  0.00     0.215 C 
BRANCH  16  17
ATOM     17  C   UNL d   1       2.259  -5.028   0.088  0.00  0.00    -0.021 A 
ATOM     18  C   UNL d   1       0.964  -5.620   0.155  0.00  0.00    -0.047 A 
ATOM     19  C   UNL d   1       0.819  -7.033   0.084  0.00  0.00    -0.049 A 
ATOM     20  C   UNL d   1      -0.282  -4.767   0.259  0.00  0.00     0.049 C 
ATOM     21  C   UNL d   1      -0.549  -7.689   0.056  0.00  0.00     0.049 C 
ATOM     22  C   UNL d   1       1.965  -7.867   0.036  0.00  0.00    -0.049 A 
ATOM     23  C   UNL d   1       3.259  -7.289   0.026  0.00  0.00    -0.049 A 
ATOM     24  C   UNL d   1       1.773  -9.372   0.006  0.00  0.00     0.049 C 
ATOM     25  C   UNL d   1       3.407  -5.871   0.056  0.00  0.00    -0.047 A 
ATOM     26  C   UNL d   1       4.466  -8.204  -0.030  0.00  0.00     0.049 C 
ATOM     27  C   UNL d   1       4.806  -5.292   0.035  0.00  0.00     0.049 C 
ENDBRANCH  16  17
ENDBRANCH  15  16
ENDBRANCH   3  15
TORSDOF 3
