REMARK  4 active torsions:
REMARK  status: ('A' for Active; 'I' for Inactive)
REMARK    1  A    between atoms: N_2  and  C_1 
REMARK    2  A    between atoms: C_7  and  N_4 
REMARK    3  A    between atoms: C_16  and  C_7 
REMARK    4  A    between atoms: C_17  and  C_7 
ROOT
ATOM      1  C   UNL d   1       0.199  -1.161   0.016  0.00  0.00     0.141 A 
ATOM      2  C   UNL d   1      -0.414   0.021  -0.444  0.00  0.00     0.158 A 
ATOM      3  C   UNL d   1      -1.784   0.082  -0.872  0.00  0.00     0.121 C 
ATOM      4  N   UNL d   1      -2.891   0.114  -1.218  0.00  0.00    -0.190 NA
ATOM      5  N   UNL d   1       1.475  -1.062   0.486  0.00  0.00    -0.349 N 
ATOM      6  HN  UNL d   1       1.960  -1.886   0.842  1.00  0.00     0.167 HD
ATOM      7  N   UNL d   1       0.201   1.246  -0.455  0.00  0.00    -0.353 N 
ATOM      8  HN  UNL d   1      -0.270   2.085  -0.795  1.00  0.00     0.166 HD
ATOM      9  C   UNL d   1       2.087   0.142   0.474  0.00  0.00     0.106 A 
ATOM     10  C   UNL d   1       1.463   1.275   0.010  0.00  0.00     0.106 A 
ENDROOT
BRANCH   1  11
ATOM     11  N   UNL d   1      -0.332  -2.434   0.025  0.00  0.00    -0.361 N 
ATOM     12  C   UNL d   1       0.106  -3.343   1.101  0.00  0.00     0.154 C 
ATOM     13  C   UNL d   1       0.227  -4.788   0.581  0.00  0.00     0.293 C 
ATOM     14  N   UNL d   1      -0.992  -5.326  -0.068  0.00  0.00     0.105 N 
ATOM     15  C   UNL d   1      -1.306  -4.388  -1.185  0.00  0.00     0.293 C 
ATOM     16  C   UNL d   1      -1.464  -2.893  -0.790  0.00  0.00     0.154 C 
BRANCH  14  17
ATOM     17  C   UNL d   1      -2.156  -5.475   0.858  0.00  0.00     0.289 C 
BRANCH  17  18
ATOM     18  C   UNL d   1      -3.371  -6.054   0.122  0.00  0.00    -0.021 A 
ATOM     19  C   UNL d   1      -3.295  -7.298  -0.528  0.00  0.00     0.010 A 
ATOM     20  C   UNL d   1      -4.402  -7.826  -1.189  0.00  0.00     0.001 A 
ATOM     21  C   UNL d   1      -5.598  -7.113  -1.220  0.00  0.00     0.000 A 
ATOM     22  C   UNL d   1      -5.683  -5.866  -0.602  0.00  0.00     0.001 A 
ATOM     23  C   UNL d   1      -4.578  -5.338   0.067  0.00  0.00     0.010 A 
ENDBRANCH  17  18
BRANCH  17  24
ATOM     24  C   UNL d   1      -1.903  -6.292   2.138  0.00  0.00    -0.021 A 
ATOM     25  C   UNL d   1      -2.591  -5.950   3.319  0.00  0.00     0.010 A 
ATOM     26  C   UNL d   1      -2.435  -6.698   4.490  0.00  0.00     0.001 A 
ATOM     27  C   UNL d   1      -1.594  -7.807   4.501  0.00  0.00     0.000 A 
ATOM     28  C   UNL d   1      -0.916  -8.172   3.339  0.00  0.00     0.001 A 
ATOM     29  C   UNL d   1      -1.075  -7.427   2.166  0.00  0.00     0.010 A 
ENDBRANCH  17  24
ENDBRANCH  14  17
ENDBRANCH   1  11
TORSDOF 4
