REMARK  3 active torsions:
REMARK  status: ('A' for Active; 'I' for Inactive)
REMARK    1  A    between atoms: C_11  and  C_3 
REMARK    2  A    between atoms: C_12  and  C_8 
REMARK    3  A    between atoms: S_21  and  C_15 
ROOT
ATOM      1  C   UNL d   1       0.097   0.586   0.071  0.00  0.00     0.172 A 
ATOM      2  N   UNL d   1      -0.143  -0.757   0.053  0.00  0.00    -0.235 N 
ATOM      3  C   UNL d   1      -1.970   0.293   0.052  0.00  0.00     0.207 A 
ATOM      4  N   UNL d   1      -0.995   1.290   0.073  0.00  0.00    -0.316 N 
ATOM      5  HN  UNL d   1      -1.109   2.303   0.087  1.00  0.00     0.169 HD
ATOM      6  N   UNL d   1      -1.473  -0.972   0.050  0.00  0.00    -0.273 N 
ATOM      7  HN  UNL d   1      -1.979  -1.857   0.047  1.00  0.00     0.189 HD
ATOM      8  C   UNL d   1       2.120  -0.810   0.052  0.00  0.00     0.059 A 
ATOM      9  C   UNL d   1       0.989  -1.558   0.041  0.00  0.00     0.052 A 
ATOM     10  S   UNL d   1       1.785   0.943   0.075  0.00  0.00    -0.048 SA
ATOM     11  C   UNL d   1       0.860  -3.043   0.029  0.00  0.00     0.072 C 
ENDROOT
BRANCH   8  12
ATOM     12  C   UNL d   1       3.519  -1.271  -0.015  0.00  0.00     0.054 A 
ATOM     13  N   UNL d   1       3.731  -2.411  -0.708  0.00  0.00    -0.336 N 
ATOM     14  C   UNL d   1       5.001  -2.835  -0.809  0.00  0.00     0.141 A 
ATOM     15  HN  UNL d   1       2.962  -2.926  -1.136  1.00  0.00     0.168 HD
ATOM     16  N   UNL d   1       6.064  -2.226  -0.269  0.00  0.00    -0.347 N 
ATOM     17  C   UNL d   1       5.817  -1.101   0.417  0.00  0.00     0.092 A 
ATOM     18  HN  UNL d   1       7.009  -2.596  -0.374  1.00  0.00     0.167 HD
ATOM     19  C   UNL d   1       4.557  -0.575   0.578  0.00  0.00     0.048 A 
BRANCH  14  20
ATOM     20  S   UNL d   1       5.285  -4.307  -1.743  0.00  0.00    -0.107 SA
ATOM     21  H   UNL d   1       4.014  -4.413  -2.145  0.00  0.00     0.110 HD
ENDBRANCH  14  20
ENDBRANCH   8  12
BRANCH   3  22
ATOM     22  C   UNL d   1      -3.453   0.602   0.024  0.00  0.00     0.450 C 
ATOM     23  F   UNL d   1      -3.713   1.938   0.040  0.00  0.00    -0.163 F 
ATOM     24  F   UNL d   1      -4.058   0.106  -1.091  0.00  0.00    -0.163 F 
ATOM     25  F   UNL d   1      -4.108   0.070   1.093  0.00  0.00    -0.163 F 
ENDBRANCH   3  22
TORSDOF 3
