REMARK  2 active torsions:
REMARK  status: ('A' for Active; 'I' for Inactive)
REMARK    1  A    between atoms: C_7  and  C_8 
REMARK    2  A    between atoms: O_13  and  C_7 
ROOT
ATOM      1  N   UNL d   1       2.015   0.747  -0.004  0.00  0.00    -0.061 NA
ATOM      2  N   UNL d   1       0.956   1.537   0.006  0.00  0.00    -0.292 N 
ATOM      3  HN  UNL d   1       1.005   2.556   0.014  1.00  0.00     0.183 HD
ATOM      4  C   UNL d   1      -0.232   0.816   0.004  0.00  0.00     0.064 A 
ATOM      5  S   UNL d   1       1.619  -0.876  -0.017  0.00  0.00     0.002 SA
ATOM      6  C   UNL d   1      -0.078  -0.573  -0.010  0.00  0.00     0.047 A 
ATOM      7  C   UNL d   1      -2.646   0.489   0.013  0.00  0.00     0.041 A 
ATOM      8  C   UNL d   1      -1.536   1.350   0.015  0.00  0.00     0.049 A 
ATOM      9  C   UNL d   1      -1.169  -1.453  -0.014  0.00  0.00     0.023 A 
ATOM     10  C   UNL d   1      -2.456  -0.898  -0.002  0.00  0.00     0.019 A 
ENDROOT
BRANCH   7  11
ATOM     11  C   UNL d   1      -3.998   1.113   0.032  0.00  0.00     0.293 C 
ATOM     12  O   UNL d   1      -4.175   2.321   0.043  0.00  0.00    -0.259 OA
BRANCH  11  13
ATOM     13  O   UNL d   1      -4.970   0.170   0.040  0.00  0.00    -0.323 OA
ATOM     14  C   UNL d   1      -6.294   0.710   0.065  0.00  0.00     0.213 C 
ENDBRANCH  11  13
ENDBRANCH   7  11
TORSDOF 2
