REMARK  3 active torsions:
REMARK  status: ('A' for Active; 'I' for Inactive)
REMARK    1  A    between atoms: C_2  and  S_1 
REMARK    2  A    between atoms: N_4  and  S_1 
REMARK    3  A    between atoms: C_13  and  N_4 
ROOT
ATOM      1  C   UNL d   1      -0.771  -2.378  -2.645  0.00  0.00    -0.086 C 
ATOM      2  C   UNL d   1      -0.711  -2.872  -3.742  0.00  0.00     0.015 C 
ATOM      3  C   UNL d   1      -0.834  -1.792  -1.276  0.00  0.00     0.096 C 
ATOM      4  C   UNL d   1      -0.917  -2.958  -0.278  0.00  0.00     0.053 C 
ATOM      5  C   UNL d   1      -2.072  -0.900  -1.175  0.00  0.00     0.053 C 
ENDROOT
BRANCH   3   6
ATOM      6  N   UNL d   1       0.396  -0.999  -1.099  0.00  0.00    -0.295 N 
ATOM      7  H   UNL d   1       1.218  -1.342  -1.596  0.00  0.00     0.174 HD
BRANCH   6   8
ATOM      8  S   UNL d   1       0.811  -0.146   0.274  0.00  0.00     0.262 S 
ATOM      9  O   UNL d   1       0.144  -0.731   1.415  0.00  0.00    -0.200 OA
ATOM     10  O   UNL d   1       2.251  -0.021   0.259  0.00  0.00    -0.200 OA
BRANCH   8  11
ATOM     11  C   UNL d   1       0.158   1.494   0.069  0.00  0.00     0.102 A 
ATOM     12  C   UNL d   1      -0.737   1.969   1.045  0.00  0.00     0.052 A 
ATOM     13  C   UNL d   1      -1.140   3.308   1.049  0.00  0.00     0.057 A 
ATOM     14 CL   UNL d   1      -2.224   3.819   2.293  0.00  0.00    -0.083 Cl
ATOM     15  C   UNL d   1      -0.646   4.183   0.080  0.00  0.00     0.057 A 
ATOM     16  C   UNL d   1       0.229   3.707  -0.903  0.00  0.00     0.051 A 
ATOM     17 CL   UNL d   1      -1.061   5.859   0.047  0.00  0.00    -0.082 Cl
ATOM     18  C   UNL d   1       0.633   2.363  -0.915  0.00  0.00     0.059 A 
ATOM     19 CL   UNL d   1       1.701   1.888  -2.183  0.00  0.00    -0.083 Cl
ENDBRANCH   8  11
ENDBRANCH   6   8
ENDBRANCH   3   6
TORSDOF 3
