REMARK  3 active torsions:
REMARK  status: ('A' for Active; 'I' for Inactive)
REMARK    1  A    between atoms: C_4  and  S_1 
REMARK    2  A    between atoms: C_2  and  C_5 
REMARK       I    between atoms: N_3  and  C_2 
REMARK    3  A    between atoms: C_8  and  N_3 
ROOT
ATOM      1  C   UNL d   1      -0.902  -5.081  -2.455  0.00  0.00     0.256 C 
ATOM      2  N   UNL d   1      -2.002  -5.076  -3.301  0.00  0.00    -0.323 N 
ATOM      3  O   UNL d   1      -0.194  -6.057  -2.228  0.00  0.00    -0.267 OA
ATOM      4  H   UNL d   1      -2.438  -4.192  -3.513  0.00  0.00     0.169 HD
ENDROOT
BRANCH   1   5
ATOM      5  C   UNL d   1      -0.508  -3.779  -1.820  0.00  0.00     0.032 A 
ATOM      6  C   UNL d   1      -1.292  -2.616  -1.846  0.00  0.00     0.018 A 
ATOM      7  C   UNL d   1      -0.830  -1.438  -1.243  0.00  0.00     0.024 A 
ATOM      8  C   UNL d   1       0.416  -1.420  -0.611  0.00  0.00     0.058 A 
ATOM      9  C   UNL d   1       1.194  -2.574  -0.545  0.00  0.00     0.024 A 
ATOM     10  C   UNL d   1       0.733  -3.744  -1.153  0.00  0.00     0.018 A 
BRANCH   8  11
ATOM     11  S   UNL d   1       0.992   0.067   0.174  0.00  0.00     0.171 S 
ATOM     12  O   UNL d   1       1.864  -0.325   1.268  0.00  0.00    -0.223 OA
ATOM     13  O   UNL d   1      -0.165   0.910   0.409  0.00  0.00    -0.223 OA
ATOM     14  C   UNL d   1       1.985   0.833  -1.080  0.00  0.00     0.167 C 
ENDBRANCH   8  11
ENDBRANCH   1   5
BRANCH   2  15
ATOM     15  C   UNL d   1      -2.471  -6.175  -4.063  0.00  0.00     0.036 A 
ATOM     16  C   UNL d   1      -2.036  -7.491  -3.881  0.00  0.00     0.053 A 
ATOM     17  C   UNL d   1      -2.482  -8.504  -4.731  0.00  0.00     0.036 A 
ATOM     18 CL   UNL d   1      -1.915 -10.115  -4.513  0.00  0.00    -0.084 Cl
ATOM     19  C   UNL d   1      -3.375  -8.224  -5.762  0.00  0.00     0.024 A 
ATOM     20  C   UNL d   1      -3.847  -6.924  -5.926  0.00  0.00     0.004 A 
ATOM     21  C   UNL d   1      -3.406  -5.907  -5.073  0.00  0.00     0.029 A 
ENDBRANCH   2  15
TORSDOF 3
