REMARK  4 active torsions:
REMARK  status: ('A' for Active; 'I' for Inactive)
REMARK    1  A    between atoms: C_7  and  C_1 
REMARK    2  A    between atoms: C_10  and  C_4 
REMARK    3  A    between atoms: N_9  and  C_7 
REMARK       I    between atoms: C_8  and  N_9 
REMARK    4  A    between atoms: C_12  and  C_8 
ROOT
ATOM      1  C   UNL d   1       0.032  -1.284   0.001  0.00  0.00     0.020 A 
ATOM      2  N   UNL d   1      -1.344   0.532   0.012  0.00  0.00    -0.260 N 
ATOM      3  HN  UNL d   1      -2.172   1.128   0.007  1.00  0.00     0.195 HD
ATOM      4  C   UNL d   1      -1.325  -0.812   0.022  0.00  0.00     0.075 A 
ATOM      5  O   UNL d   1      -0.036   0.948   0.010  0.00  0.00    -0.242 OA
ATOM      6  C   UNL d   1       0.785  -0.127   0.009  0.00  0.00     0.082 A 
ATOM      7  C   UNL d   1       2.234   0.160   0.001  0.00  0.00     0.079 C 
ENDROOT
BRANCH   1   8
ATOM      8  C   UNL d   1       0.539  -2.677  -0.064  0.00  0.00     0.166 C 
BRANCH   8   9
ATOM      9  N   UNL d   1       0.677  -3.206   1.274  0.00  0.00    -0.352 N 
ATOM     10  C   UNL d   1       0.975  -4.538   1.458  0.00  0.00     0.251 C 
ATOM     11  O   UNL d   1       1.167  -5.315   0.527  0.00  0.00    -0.268 OA
ATOM     12  H   UNL d   1       0.722  -2.566   2.055  0.00  0.00     0.163 HD
BRANCH  10  13
ATOM     13  C   UNL d   1       1.072  -5.016   2.865  0.00  0.00     0.032 A 
ATOM     14  C   UNL d   1       0.305  -4.453   3.892  0.00  0.00     0.017 A 
ATOM     15  C   UNL d   1       0.411  -4.950   5.194  0.00  0.00     0.001 A 
ATOM     16  C   UNL d   1       1.277  -6.009   5.472  0.00  0.00     0.000 A 
ATOM     17  C   UNL d   1       2.031  -6.582   4.448  0.00  0.00     0.001 A 
ATOM     18  C   UNL d   1       1.924  -6.092   3.145  0.00  0.00     0.017 A 
ENDBRANCH  10  13
ENDBRANCH   8   9
ENDBRANCH   1   8
BRANCH   4  19
ATOM     19  C   UNL d   1      -2.583  -1.569   0.034  0.00  0.00    -0.007 A 
ATOM     20  C   UNL d   1      -3.728  -1.049  -0.589  0.00  0.00     0.014 A 
ATOM     21  C   UNL d   1      -4.932  -1.762  -0.584  0.00  0.00     0.001 A 
ATOM     22  C   UNL d   1      -5.005  -3.004   0.042  0.00  0.00     0.000 A 
ATOM     23  C   UNL d   1      -3.884  -3.527   0.675  0.00  0.00     0.001 A 
ATOM     24  C   UNL d   1      -2.684  -2.808   0.679  0.00  0.00     0.014 A 
ENDBRANCH   4  19
TORSDOF 4
