REMARK  6 active torsions:
REMARK  status: ('A' for Active; 'I' for Inactive)
REMARK       I    between atoms: N_3  and  C_1 
REMARK    1  A    between atoms: C_5  and  C_1 
REMARK    2  A    between atoms: C_2  and  C_6 
REMARK    3  A    between atoms: C_4  and  N_3 
REMARK    4  A    between atoms: S_7  and  C_5 
REMARK    5  A    between atoms: C_15  and  C_5 
REMARK    6  A    between atoms: C_9  and  S_7 
ROOT
ATOM      1  C   UNL d   1       0.960   0.295  -0.001  0.00  0.00     0.240 C 
ATOM      2  N   UNL d   1       2.074   0.985   0.437  0.00  0.00    -0.324 N 
ATOM      3  O   UNL d   1       0.667   0.255  -1.197  0.00  0.00    -0.272 OA
ATOM      4  H   UNL d   1       2.483   0.714   1.327  0.00  0.00     0.169 HD
ENDROOT
BRANCH   1   5
ATOM      5  C   UNL d   1       0.160  -0.512   1.045  0.00  0.00     0.179 C 
BRANCH   5   6
ATOM      6  S   UNL d   1       0.693  -0.212   2.788  0.00  0.00    -0.093 SA
BRANCH   6   7
ATOM      7  C   UNL d   1       0.154   1.464   3.011  0.00  0.00     0.070 A 
ATOM      8  N   UNL d   1       1.086   2.415   2.777  0.00  0.00    -0.361 N 
ATOM      9  C   UNL d   1       0.715   3.701   2.954  0.00  0.00     0.089 A 
ATOM     10  HN  UNL d   1       2.030   2.170   2.478  1.00  0.00     0.165 HD
ATOM     11  C   UNL d   1      -0.548   4.087   3.368  0.00  0.00     0.017 A 
ATOM     12  C   UNL d   1      -1.486   3.095   3.623  0.00  0.00     0.004 A 
ATOM     13  C   UNL d   1      -1.130   1.759   3.450  0.00  0.00     0.037 A 
ENDBRANCH   6   7
ENDBRANCH   5   6
BRANCH   5  14
ATOM     14  C   UNL d   1      -1.364  -0.454   0.885  0.00  0.00    -0.035 A 
ATOM     15  C   UNL d   1      -2.001   0.438   0.003  0.00  0.00     0.009 A 
ATOM     16  C   UNL d   1      -3.389   0.449  -0.140  0.00  0.00     0.001 A 
ATOM     17  C   UNL d   1      -4.175  -0.410   0.620  0.00  0.00     0.000 A 
ATOM     18  C   UNL d   1      -3.571  -1.295   1.508  0.00  0.00     0.001 A 
ATOM     19  C   UNL d   1      -2.179  -1.328   1.629  0.00  0.00     0.009 A 
ENDBRANCH   5  14
ENDBRANCH   1   5
BRANCH   2  20
ATOM     20  C   UNL d   1       2.774   1.934  -0.334  0.00  0.00     0.057 A 
ATOM     21  C   UNL d   1       2.088   2.796  -1.200  0.00  0.00     0.047 A 
ATOM     22  C   UNL d   1       2.771   3.775  -1.937  0.00  0.00     0.050 A 
ATOM     23  C   UNL d   1       4.170   3.840  -1.839  0.00  0.00     0.018 A 
ATOM     24  C   UNL d   1       4.859   2.988  -0.973  0.00  0.00     0.027 A 
ATOM     25  C   UNL d   1       4.161   2.063  -0.195  0.00  0.00     0.060 A 
ATOM     26 CL   UNL d   1       5.054   1.036   0.870  0.00  0.00    -0.082 Cl
BRANCH  22  27
ATOM     27  C   UNL d   1       2.026   4.757  -2.809  0.00  0.00     0.417 C 
ATOM     28  F   UNL d   1       0.671   4.668  -2.709  0.00  0.00    -0.166 F 
ATOM     29  F   UNL d   1       2.333   6.050  -2.502  0.00  0.00    -0.166 F 
ATOM     30  F   UNL d   1       2.318   4.611  -4.131  0.00  0.00    -0.166 F 
ENDBRANCH  22  27
ENDBRANCH   2  20
TORSDOF 6
