REMARK  6 active torsions:
REMARK  status: ('A' for Active; 'I' for Inactive)
REMARK    1  A    between atoms: C_5  and  N_1 
REMARK    2  A    between atoms: S_2  and  C_7 
REMARK    3  A    between atoms: N_16  and  S_2 
REMARK    4  A    between atoms: C_21  and  N_16 
REMARK    5  A    between atoms: C_22  and  C_21 
REMARK    6  A    between atoms: C_23  and  C_22 
ROOT
ATOM      1  C   UNL d   1       2.876  -1.614   0.118  0.00  0.00     0.067 A 
ATOM      2  C   UNL d   1       5.087  -3.336   0.284  0.00  0.00     0.076 A 
ATOM      3  C   UNL d   1       3.079  -2.612  -0.853  0.00  0.00     0.062 A 
ATOM      4  C   UNL d   1       4.183  -3.466  -0.774  0.00  0.00     0.051 A 
ATOM      5  C   UNL d   1       3.811  -1.477   1.158  0.00  0.00     0.033 A 
ATOM      6  C   UNL d   1       4.903  -2.349   1.255  0.00  0.00     0.027 A 
ATOM      7 CL   UNL d   1       2.073  -2.749  -2.255  0.00  0.00    -0.082 Cl
ENDROOT
BRANCH   1   8
ATOM      8  N   UNL d   1       1.758  -0.749   0.072  0.00  0.00    -0.250 N 
ATOM      9  C   UNL d   1       1.857   0.616   0.029  0.00  0.00     0.232 C 
ATOM     10  C   UNL d   1       0.479   1.198  -0.133  0.00  0.00     0.123 C 
ATOM     11  O   UNL d   1       2.876   1.293   0.050  0.00  0.00    -0.273 OA
ATOM     12  C   UNL d   1      -0.462   0.012   0.076  0.00  0.00     0.050 C 
ATOM     13  C   UNL d   1       0.458  -1.192   0.117  0.00  0.00     0.240 C 
ATOM     14  C   UNL d   1      -1.534  -0.131  -1.004  0.00  0.00     0.020 C 
ATOM     15  C   UNL d   1      -1.289   0.136   1.360  0.00  0.00     0.020 C 
ATOM     16  O   UNL d   1       0.073  -2.344   0.267  0.00  0.00    -0.272 OA
ATOM     17  C   UNL d   1      -2.683   0.763  -0.551  0.00  0.00     0.001 C 
ATOM     18  C   UNL d   1      -2.531   0.927   0.959  0.00  0.00     0.001 C 
ENDBRANCH   1   8
BRANCH   2  19
ATOM     19  S   UNL d   1       6.421  -4.497   0.437  0.00  0.00     0.241 S 
ATOM     20  O   UNL d   1       6.418  -4.968   1.806  0.00  0.00    -0.206 OA
ATOM     21  O   UNL d   1       6.372  -5.410  -0.683  0.00  0.00    -0.206 OA
BRANCH  19  22
ATOM     22  N   UNL d   1       7.807  -3.545   0.272  0.00  0.00    -0.216 NA
ATOM     23  H   UNL d   1       8.508  -3.833   0.958  0.00  0.00     0.139 HD
BRANCH  22  24
ATOM     24  C   UNL d   1       8.280  -3.290  -1.095  0.00  0.00     0.104 C 
BRANCH  24  25
ATOM     25  C   UNL d   1       9.544  -2.430  -1.071  0.00  0.00     0.015 C 
BRANCH  25  26
ATOM     26  C   UNL d   1      10.038  -2.180  -2.498  0.00  0.00    -0.003 C 
ATOM     27  C   UNL d   1      11.303  -1.340  -2.539  0.00  0.00     0.005 C 
ENDBRANCH  25  26
ENDBRANCH  24  25
ENDBRANCH  22  24
ENDBRANCH  19  22
ENDBRANCH   2  19
TORSDOF 6
