REMARK  6 active torsions:
REMARK  status: ('A' for Active; 'I' for Inactive)
REMARK    1  A    between atoms: N_13  and  C_1 
REMARK    2  A    between atoms: N_14  and  C_1 
REMARK    3  A    between atoms: C_2  and  C_11 
REMARK    4  A    between atoms: C_3  and  C_12 
REMARK    5  A    between atoms: N_4  and  N_13 
REMARK    6  A    between atoms: N_6  and  N_14 
ROOT
ATOM      1  C   UNL d   1       1.017  -0.130   0.044  0.00  0.00     0.205 C 
ATOM      2  S   UNL d   1       0.027  -1.408   0.456  0.00  0.00    -0.038 SA
ENDROOT
BRANCH   1   3
ATOM      3  N   UNL d   1       0.478   1.135  -0.099  0.00  0.00    -0.275 N 
ATOM      4  H   UNL d   1      -0.528   1.222   0.015  0.00  0.00     0.189 HD
BRANCH   3   5
ATOM      5  N   UNL d   1       1.195   2.110  -0.741  0.00  0.00    -0.308 N 
ATOM      6  C   UNL d   1       0.545   3.200  -1.002  0.00  0.00     0.126 C 
ATOM      7  HN  UNL d   1       2.175   1.986  -0.995  1.00  0.00     0.186 HD
BRANCH   6   8
ATOM      8  C   UNL d   1       1.179   4.242  -1.771  0.00  0.00     0.021 A 
ATOM      9  S   UNL d   1       0.388   5.742  -1.973  0.00  0.00    -0.101 SA
ATOM     10  C   UNL d   1       1.664   6.354  -2.936  0.00  0.00     0.050 A 
ATOM     11  C   UNL d   1       2.670   5.429  -3.109  0.00  0.00     0.008 A 
ATOM     12  C   UNL d   1       2.390   4.208  -2.432  0.00  0.00     0.021 A 
ENDBRANCH   6   8
ENDBRANCH   3   5
ENDBRANCH   1   3
BRANCH   1  13
ATOM     13  N   UNL d   1       2.376  -0.170  -0.192  0.00  0.00    -0.275 N 
ATOM     14  H   UNL d   1       2.782   0.728  -0.450  0.00  0.00     0.189 HD
BRANCH  13  15
ATOM     15  N   UNL d   1       3.034  -1.332  -0.461  0.00  0.00    -0.308 N 
ATOM     16  C   UNL d   1       4.306  -1.211  -0.683  0.00  0.00     0.126 C 
ATOM     17  HN  UNL d   1       2.560  -2.234  -0.486  1.00  0.00     0.186 HD
BRANCH  16  18
ATOM     18  C   UNL d   1       5.072  -2.359  -1.094  0.00  0.00     0.021 A 
ATOM     19  S   UNL d   1       6.771  -2.241  -1.232  0.00  0.00    -0.101 SA
ATOM     20  C   UNL d   1       6.902  -3.867  -1.755  0.00  0.00     0.050 A 
ATOM     21  C   UNL d   1       5.675  -4.487  -1.830  0.00  0.00     0.008 A 
ATOM     22  C   UNL d   1       4.617  -3.617  -1.440  0.00  0.00     0.021 A 
ENDBRANCH  16  18
ENDBRANCH  13  15
ENDBRANCH   1  13
TORSDOF 6
