REMARK  3 active torsions:
REMARK  status: ('A' for Active; 'I' for Inactive)
REMARK    1  A    between atoms: C_12  and  N_2 
REMARK    2  A    between atoms: C_7  and  C_9 
REMARK    3  A    between atoms: O_14  and  C_7 
ROOT
ATOM      1  N   UNL d   1       2.276   0.060  -0.028  0.00  0.00    -0.019 NA
ATOM      2  N   UNL d   1       1.452   1.128  -0.029  0.00  0.00    -0.270 N 
ATOM      3  N   UNL d   1       1.526  -1.032  -0.011  0.00  0.00    -0.282 N 
ATOM      4  HN  UNL d   1       1.868  -1.993  -0.003  1.00  0.00     0.184 HD
ATOM      5  C   UNL d   1       0.133   0.742  -0.021  0.00  0.00     0.077 A 
ATOM      6  C   UNL d   1       0.213  -0.648  -0.009  0.00  0.00     0.075 A 
ATOM      7  C   UNL d   1      -0.958  -1.419   0.004  0.00  0.00     0.050 A 
ATOM      8  C   UNL d   1      -2.199  -0.761   0.001  0.00  0.00     0.041 A 
ATOM      9  C   UNL d   1      -1.086   1.427  -0.022  0.00  0.00     0.034 A 
ATOM     10  C   UNL d   1      -2.251   0.643  -0.011  0.00  0.00     0.020 A 
ENDROOT
BRANCH   8  11
ATOM     11  C   UNL d   1      -3.434  -1.597   0.009  0.00  0.00     0.293 C 
ATOM     12  O   UNL d   1      -3.430  -2.818   0.017  0.00  0.00    -0.259 OA
BRANCH  11  13
ATOM     13  O   UNL d   1      -4.537  -0.806   0.004  0.00  0.00    -0.323 OA
ATOM     14  C   UNL d   1      -5.779  -1.512   0.007  0.00  0.00     0.213 C 
ENDBRANCH  11  13
ENDBRANCH   8  11
BRANCH   2  15
ATOM     15  C   UNL d   1       2.008   2.474  -0.018  0.00  0.00     0.098 C 
ATOM     16  C   UNL d   1       2.838   2.729   1.241  0.00  0.00     0.033 C 
ATOM     17  C   UNL d   1       2.833   2.764  -1.274  0.00  0.00     0.033 C 
ENDBRANCH   2  15
TORSDOF 3
