REMARK  5 active torsions:
REMARK  status: ('A' for Active; 'I' for Inactive)
REMARK    1  A    between atoms: C_6  and  N_1 
REMARK    2  A    between atoms: C_4  and  C_2 
REMARK       I    between atoms: C_3  and  N_8 
REMARK    3  A    between atoms: C_7  and  C_3 
REMARK       I    between atoms: N_9  and  C_4 
REMARK    4  A    between atoms: N_8  and  N_9 
REMARK    5  A    between atoms: N_21  and  C_10 
ROOT
ATOM      1  C   UNL d   1      -1.940   2.448   0.083  0.00  0.00     0.272 C 
ATOM      2  N   UNL d   1      -3.317   2.470   0.188  0.00  0.00    -0.263 N 
ATOM      3  O   UNL d   1      -1.255   3.469   0.029  0.00  0.00    -0.266 OA
ATOM      4  H   UNL d   1      -3.914   1.651   0.087  0.00  0.00     0.190 HD
ENDROOT
BRANCH   1   5
ATOM      5  C   UNL d   1      -1.303   1.099   0.037  0.00  0.00     0.057 A 
ATOM      6  C   UNL d   1      -1.856   0.050   0.793  0.00  0.00     0.055 A 
ATOM      7  C   UNL d   1      -1.250  -1.213   0.770  0.00  0.00     0.103 A 
ATOM      8  C   UNL d   1      -0.117  -1.446  -0.013  0.00  0.00     0.038 A 
ATOM      9  C   UNL d   1       0.435  -0.397  -0.751  0.00  0.00     0.027 A 
ATOM     10  C   UNL d   1      -0.107   0.898  -0.691  0.00  0.00     0.021 A 
BRANCH   7  11
ATOM     11  N   UNL d   1      -1.808  -2.301   1.584  0.00  0.00    -0.116 N 
ATOM     12  O   UNL d   1      -2.790  -2.040   2.293  0.00  0.00    -0.532 OA
ATOM     13  O   UNL d   1      -1.262  -3.410   1.517  0.00  0.00    -0.532 OA
ENDBRANCH   7  11
BRANCH  10  14
ATOM     14  N   UNL d   1       0.430   1.880  -1.541  0.00  0.00    -0.302 NA
ATOM     15  H   UNL d   1       1.425   1.781  -1.721  0.00  0.00     0.124 HD
ATOM     16  H   UNL d   1       0.201   2.828  -1.219  0.00  0.00     0.124 HD
ENDBRANCH  10  14
ENDBRANCH   1   5
BRANCH   2  17
ATOM     17  N   UNL d   1      -3.975   3.703   0.242  0.00  0.00    -0.261 N 
ATOM     18  C   UNL d   1      -5.352   3.729   0.355  0.00  0.00     0.293 C 
ATOM     19  O   UNL d   1      -6.013   2.689   0.384  0.00  0.00    -0.264 OA
ATOM     20  H   UNL d   1      -3.411   4.552   0.245  0.00  0.00     0.190 HD
BRANCH  18  21
ATOM     21  C   UNL d   1      -5.928   5.054   0.430  0.00  0.00     0.144 A 
ATOM     22  O   UNL d   1      -5.112   6.154   0.352  0.00  0.00    -0.317 OA
ATOM     23  C   UNL d   1      -5.910   7.251   0.433  0.00  0.00     0.143 A 
ATOM     24  C   UNL d   1      -7.227   6.882   0.568  0.00  0.00     0.027 A 
ATOM     25  C   UNL d   1      -7.240   5.466   0.570  0.00  0.00     0.045 A 
ENDBRANCH  18  21
ENDBRANCH   2  17
TORSDOF 5
