REMARK  3 active torsions:
REMARK  status: ('A' for Active; 'I' for Inactive)
REMARK    1  A    between atoms: C_3  and  S_1 
REMARK    2  A    between atoms: N_11  and  S_1 
REMARK    3  A    between atoms: N_2  and  C_5 
ROOT
ATOM      1  C   UNL d   1       0.475  -1.462  -0.965  0.00  0.00     0.082 A 
ATOM      2  C   UNL d   1      -0.273  -1.343  -2.151  0.00  0.00     0.061 A 
ATOM      3  C   UNL d   1      -0.623  -2.488  -2.871  0.00  0.00     0.104 A 
ATOM      4  C   UNL d   1       0.878  -2.727  -0.495  0.00  0.00    -0.039 A 
ATOM      5  C   UNL d   1      -0.225  -3.751  -2.427  0.00  0.00     0.037 A 
ATOM      6  C   UNL d   1       0.522  -3.862  -1.251  0.00  0.00     0.011 A 
ATOM      7  C   UNL d   1       1.686  -2.966   0.752  0.00  0.00     0.050 C 
ENDROOT
BRANCH   1   8
ATOM      8  S   UNL d   1       0.843   0.050  -0.104  0.00  0.00     0.239 S 
ATOM      9  O   UNL d   1       0.130   1.139  -0.740  0.00  0.00    -0.206 OA
ATOM     10  O   UNL d   1       2.256   0.109   0.160  0.00  0.00    -0.206 OA
BRANCH   8  11
ATOM     11  N   UNL d   1       0.058  -0.165   1.366  0.00  0.00    -0.225 NA
ATOM     12  H   UNL d   1      -0.867   0.263   1.342  0.00  0.00     0.136 HD
ATOM     13  H   UNL d   1       0.651   0.207   2.111  0.00  0.00     0.136 HD
ENDBRANCH   8  11
ENDBRANCH   1   8
BRANCH   3  14
ATOM     14  N   UNL d   1      -1.421  -2.364  -4.098  0.00  0.00    -0.116 N 
ATOM     15  O   UNL d   1      -1.775  -1.228  -4.442  0.00  0.00    -0.532 OA
ATOM     16  O   UNL d   1      -1.698  -3.404  -4.712  0.00  0.00    -0.532 OA
ENDBRANCH   3  14
TORSDOF 3
