REMARK  4 active torsions:
REMARK  status: ('A' for Active; 'I' for Inactive)
REMARK    1  A    between atoms: C_9  and  C_2 
REMARK    2  A    between atoms: N_11  and  C_3 
REMARK    3  A    between atoms: C_8  and  C_10 
REMARK    4  A    between atoms: C_13  and  N_11 
ROOT
ATOM      1  S   UNL d   1      -1.518  -0.568  -0.559  0.00  0.00    -0.033 SA
ATOM      2  C   UNL d   1      -0.975   1.013  -0.145  0.00  0.00     0.103 A 
ATOM      3  C   UNL d   1      -0.021  -1.179   0.035  0.00  0.00     0.166 A 
ATOM      4  N   UNL d   1       0.211   1.023   0.426  0.00  0.00    -0.291 N 
ATOM      5  HN  UNL d   1       0.677   1.870   0.750  1.00  0.00     0.187 HD
ATOM      6  N   UNL d   1       0.750  -0.234   0.539  0.00  0.00    -0.279 N 
ATOM      7  HN  UNL d   1       1.657  -0.419   0.968  1.00  0.00     0.189 HD
ENDROOT
BRANCH   3   8
ATOM      8  N   UNL d   1       0.266  -2.502  -0.024  0.00  0.00    -0.335 N 
ATOM      9  H   UNL d   1      -0.468  -3.156  -0.268  0.00  0.00     0.168 HD
BRANCH   8  10
ATOM     10  C   UNL d   1       1.558  -3.052   0.052  0.00  0.00     0.034 A 
ATOM     11  C   UNL d   1       1.735  -4.316   0.629  0.00  0.00     0.045 A 
ATOM     12  C   UNL d   1       3.022  -4.855   0.820  0.00  0.00     0.050 A 
ATOM     13  C   UNL d   1       4.139  -4.121   0.396  0.00  0.00     0.016 A 
ATOM     14  C   UNL d   1       3.979  -2.868  -0.184  0.00  0.00     0.003 A 
ATOM     15  C   UNL d   1       2.699  -2.336  -0.339  0.00  0.00     0.029 A 
BRANCH  12  16
ATOM     16  C   UNL d   1       3.221  -6.185   1.500  0.00  0.00     0.417 C 
ATOM     17  F   UNL d   1       2.058  -6.782   1.884  0.00  0.00    -0.166 F 
ATOM     18  F   UNL d   1       3.857  -7.088   0.703  0.00  0.00    -0.166 F 
ATOM     19  F   UNL d   1       3.978  -6.085   2.628  0.00  0.00    -0.166 F 
ENDBRANCH  12  16
ENDBRANCH   8  10
ENDBRANCH   3   8
BRANCH   2  20
ATOM     20  C   UNL d   1      -1.743   2.221  -0.448  0.00  0.00     0.015 A 
ATOM     21  C   UNL d   1      -1.085   3.449  -0.522  0.00  0.00     0.101 A 
ATOM     22  N   UNL d   1      -1.686   4.632  -0.802  0.00  0.00    -0.374 N 
ATOM     23  C   UNL d   1      -3.017   4.599  -1.008  0.00  0.00     0.087 A 
ATOM     24  HN  UNL d   1      -1.157   5.503  -0.855  1.00  0.00     0.164 HD
ATOM     25  C   UNL d   1      -3.772   3.441  -0.947  0.00  0.00     0.018 A 
ATOM     26  C   UNL d   1      -3.125   2.238  -0.664  0.00  0.00     0.017 A 
ENDBRANCH   2  20
TORSDOF 4
