REMARK  5 active torsions:
REMARK  status: ('A' for Active; 'I' for Inactive)
REMARK    1  A    between atoms: S_3  and  C_1 
REMARK    2  A    between atoms: C_7  and  S_3 
REMARK    3  A    between atoms: C_4  and  C_7 
REMARK       I    between atoms: N_9  and  C_4 
REMARK    4  A    between atoms: C_16  and  C_7 
REMARK    5  A    between atoms: C_15  and  N_9 
ROOT
ATOM      1  C   UNL d   1       0.014   1.386   0.054  0.00  0.00     0.092 A 
ATOM      2  C   UNL d   1       0.807   0.222   0.001  0.00  0.00     0.084 A 
ATOM      3  N   UNL d   1      -1.335   1.347   0.146  0.00  0.00    -0.353 N 
ATOM      4  HN  UNL d   1      -1.887   2.205   0.172  1.00  0.00     0.166 HD
ATOM      5  C   UNL d   1       0.179  -1.032   0.073  0.00  0.00    -0.037 A 
ATOM      6  C   UNL d   1       2.230   0.312  -0.107  0.00  0.00     0.103 C 
ATOM      7  N   UNL d   1       3.390   0.344  -0.193  0.00  0.00    -0.191 NA
ATOM      8  C   UNL d   1      -1.929   0.127   0.203  0.00  0.00     0.006 A 
ATOM      9  C   UNL d   1      -1.212  -1.067   0.177  0.00  0.00     0.033 A 
ATOM     10  C   UNL d   1       0.931  -2.337   0.091  0.00  0.00     0.050 C 
ATOM     11  C   UNL d   1      -3.422   0.072   0.354  0.00  0.00     0.068 C 
ENDROOT
BRANCH   1  12
ATOM     12  S   UNL d   1       0.806   2.983   0.181  0.00  0.00    -0.091 SA
BRANCH  12  13
ATOM     13  C   UNL d   1      -0.529   4.238  -0.184  0.00  0.00     0.178 C 
BRANCH  13  14
ATOM     14  C   UNL d   1      -1.509   4.423   1.000  0.00  0.00     0.236 C 
ATOM     15  N   UNL d   1      -1.042   4.042   2.249  0.00  0.00    -0.352 N 
ATOM     16  H   UNL d   1      -0.195   3.485   2.205  0.00  0.00     0.163 HD
ATOM     17  O   UNL d   1      -2.624   4.919   0.835  0.00  0.00    -0.272 OA
BRANCH  15  18
ATOM     18  C   UNL d   1      -1.871   3.862   3.454  0.00  0.00     0.022 C 
ATOM     19  C   UNL d   1      -2.910   2.752   3.222  0.00  0.00     0.037 C 
ATOM     20  C   UNL d   1      -0.938   3.449   4.610  0.00  0.00     0.037 C 
ATOM     21  C   UNL d   1      -2.593   5.149   3.883  0.00  0.00     0.037 C 
ENDBRANCH  15  18
ENDBRANCH  13  14
BRANCH  13  22
ATOM     22  C   UNL d   1       0.232   5.509  -0.587  0.00  0.00    -0.035 A 
ATOM     23  C   UNL d   1       0.794   6.372   0.371  0.00  0.00     0.009 A 
ATOM     24  C   UNL d   1       1.742   7.331  -0.001  0.00  0.00     0.001 A 
ATOM     25  C   UNL d   1       2.128   7.458  -1.333  0.00  0.00     0.000 A 
ATOM     26  C   UNL d   1       1.531   6.661  -2.305  0.00  0.00     0.001 A 
ATOM     27  C   UNL d   1       0.585   5.699  -1.938  0.00  0.00     0.009 A 
ENDBRANCH  13  22
ENDBRANCH  12  13
ENDBRANCH   1  12
TORSDOF 5
