REMARK  3 active torsions:
REMARK  status: ('A' for Active; 'I' for Inactive)
REMARK    1  A    between atoms: C_6  and  C_1 
REMARK    2  A    between atoms: O_8  and  C_6 
REMARK    3  A    between atoms: C_11  and  O_8 
ROOT
ATOM      1  C   UNL d   1      -0.806  -1.188  -0.008  0.00  0.00     0.114 A 
ATOM      2  C   UNL d   1      -1.223   0.137  -0.053  0.00  0.00    -0.027 A 
ATOM      3  N   UNL d   1       0.573  -1.171  -0.041  0.00  0.00    -0.355 N 
ATOM      4  C   UNL d   1      -0.052   0.947  -0.075  0.00  0.00     0.033 A 
ATOM      5  C   UNL d   1       1.044   0.115  -0.050  0.00  0.00     0.006 A 
ATOM      6  C   UNL d   1      -2.617   0.668  -0.039  0.00  0.00     0.050 C 
ATOM      7  C   UNL d   1       2.493   0.432  -0.021  0.00  0.00     0.068 C 
ATOM      8  H   UNL d   1       1.142  -2.008  -0.013  0.00  0.00     0.166 HD
ENDROOT
BRANCH   1   9
ATOM      9  C   UNL d   1      -1.584  -2.402   0.103  0.00  0.00     0.310 C 
ATOM     10  O   UNL d   1      -2.804  -2.479   0.149  0.00  0.00    -0.258 OA
BRANCH   9  11
ATOM     11  O   UNL d   1      -0.735  -3.464   0.240  0.00  0.00    -0.317 OA
BRANCH  11  12
ATOM     12  C   UNL d   1      -1.344  -4.667   0.727  0.00  0.00     0.175 C 
ATOM     13  C   UNL d   1      -1.297  -4.645   2.244  0.00  0.00     0.034 C 
ENDBRANCH  11  12
ENDBRANCH   9  11
ENDBRANCH   1   9
TORSDOF 3
