REMARK  6 active torsions:
REMARK  status: ('A' for Active; 'I' for Inactive)
REMARK       I    between atoms: N_2  and  C_1 
REMARK    1  A    between atoms: C_11  and  C_1 
REMARK    2  A    between atoms: C_12  and  N_2 
REMARK    3  A    between atoms: C_3  and  S_6 
REMARK    4  A    between atoms: S_6  and  C_11 
REMARK    5  A    between atoms: C_13  and  C_7 
REMARK    6  A    between atoms: C_18  and  C_13 
ROOT
ATOM      1  C   UNL d   1      -0.849   0.507   0.960  0.00  0.00     0.231 C 
ATOM      2  N   UNL d   1       0.187   1.190   0.342  0.00  0.00    -0.327 N 
ATOM      3  O   UNL d   1      -1.593   0.954   1.832  0.00  0.00    -0.272 OA
ATOM      4  H   UNL d   1       0.579   0.751  -0.484  0.00  0.00     0.169 HD
ENDROOT
BRANCH   2   5
ATOM      5  C   UNL d   1       0.723   2.445   0.708  0.00  0.00     0.034 A 
ATOM      6  C   UNL d   1       0.254   3.204   1.777  0.00  0.00     0.030 A 
ATOM      7  C   UNL d   1       0.898   4.389   2.154  0.00  0.00     0.010 A 
ATOM      8  C   UNL d   1       2.048   4.831   1.489  0.00  0.00    -0.054 A 
ATOM      9  C   UNL d   1       2.482   4.096   0.376  0.00  0.00     0.010 A 
ATOM     10  C   UNL d   1       1.824   2.920  -0.013  0.00  0.00     0.030 A 
BRANCH   8  11
ATOM     11  C   UNL d   1       2.849   6.032   1.973  0.00  0.00     0.014 C 
ATOM     12  C   UNL d   1       2.960   6.066   3.507  0.00  0.00     0.015 C 
BRANCH  11  13
ATOM     13  C   UNL d   1       2.305   7.382   1.470  0.00  0.00     0.004 C 
ATOM     14  C   UNL d   1       2.440   7.574  -0.034  0.00  0.00     0.006 C 
ENDBRANCH  11  13
ENDBRANCH   8  11
ENDBRANCH   2   5
BRANCH   1  15
ATOM     15  C   UNL d   1      -0.991  -0.934   0.483  0.00  0.00     0.184 C 
BRANCH  15  16
ATOM     16  S   UNL d   1      -2.523  -1.162  -0.461  0.00  0.00    -0.103 SA
BRANCH  16  17
ATOM     17  C   UNL d   1      -2.192  -0.057  -1.815  0.00  0.00     0.069 A 
ATOM     18  N   UNL d   1      -0.914   0.029  -2.259  0.00  0.00    -0.361 N 
ATOM     19  C   UNL d   1      -0.687   0.861  -3.300  0.00  0.00     0.089 A 
ATOM     20  HN  UNL d   1      -0.161  -0.508  -1.829  1.00  0.00     0.165 HD
ATOM     21  C   UNL d   1      -1.669   1.626  -3.906  0.00  0.00     0.017 A 
ATOM     22  C   UNL d   1      -2.970   1.525  -3.429  0.00  0.00     0.004 A 
ATOM     23  C   UNL d   1      -3.241   0.663  -2.372  0.00  0.00     0.037 A 
ENDBRANCH  16  17
ENDBRANCH  15  16
ENDBRANCH   1  15
TORSDOF 6
