REMARK  5 active torsions:
REMARK  status: ('A' for Active; 'I' for Inactive)
REMARK    1  A    between atoms: C_4  and  C_1 
REMARK       I    between atoms: C_2  and  N_10 
REMARK    2  A    between atoms: C_7  and  C_2 
REMARK    3  A    between atoms: C_3  and  C_11 
REMARK    4  A    between atoms: N_23  and  C_3 
REMARK    5  A    between atoms: N_10  and  N_5 
ROOT
ATOM      1  C   UNL d   1      -0.185   2.755   4.856  0.00  0.00     0.119 C 
ATOM      2  N   UNL d   1      -0.101   4.047   4.987  0.00  0.00    -0.285 N 
ATOM      3  HN  UNL d   1      -0.401   4.510   5.844  1.00  0.00     0.188 HD
ENDROOT
BRANCH   1   4
ATOM      4  C   UNL d   1      -0.721   1.967   6.043  0.00  0.00     0.071 A 
ATOM      5  C   UNL d   1      -1.061   2.602   7.231  0.00  0.00     0.034 A 
ATOM      6  C   UNL d   1      -1.529   1.822   8.287  0.00  0.00     0.020 A 
ATOM      7  C   UNL d   1      -1.640   0.435   8.134  0.00  0.00     0.063 A 
ATOM      8  C   UNL d   1      -1.291  -0.103   6.900  0.00  0.00     0.104 A 
ATOM      9  N   UNL d   1      -0.843   0.624   5.845  0.00  0.00    -0.362 N 
ATOM     10  HN  UNL d   1      -0.610   0.189   4.953  1.00  0.00     0.165 HD
BRANCH   7  11
ATOM     11  C   UNL d   1      -2.108  -0.439   9.259  0.00  0.00     0.418 C 
ATOM     12  F   UNL d   1      -2.133  -1.764   8.945  0.00  0.00    -0.166 F 
ATOM     13  F   UNL d   1      -3.368  -0.131   9.671  0.00  0.00    -0.166 F 
ATOM     14  F   UNL d   1      -1.319  -0.334  10.363  0.00  0.00    -0.166 F 
ENDBRANCH   7  11
ENDBRANCH   1   4
BRANCH   1  15
ATOM     15  N   UNL d   1       0.159   2.036   3.729  0.00  0.00    -0.286 NA
ATOM     16  H   UNL d   1      -0.227   1.090   3.738  0.00  0.00     0.125 HD
ATOM     17  H   UNL d   1       0.035   2.491   2.838  0.00  0.00     0.125 HD
ENDBRANCH   1  15
BRANCH   2  18
ATOM     18  N   UNL d   1       0.401   4.761   3.941  0.00  0.00    -0.264 N 
ATOM     19  C   UNL d   1       0.608   6.133   4.036  0.00  0.00     0.277 C 
ATOM     20  O   UNL d   1       0.348   6.786   5.051  0.00  0.00    -0.265 OA
ATOM     21  H   UNL d   1       0.724   4.274   3.117  0.00  0.00     0.190 HD
BRANCH  19  22
ATOM     22  C   UNL d   1       1.161   6.759   2.836  0.00  0.00     0.074 A 
ATOM     23  S   UNL d   1       1.514   5.866   1.411  0.00  0.00    -0.097 SA
ATOM     24  C   UNL d   1       2.054   7.259   0.582  0.00  0.00     0.050 A 
ATOM     25  C   UNL d   1       1.973   8.388   1.364  0.00  0.00     0.009 A 
ATOM     26  C   UNL d   1       1.460   8.099   2.662  0.00  0.00     0.025 A 
ENDBRANCH  19  22
ENDBRANCH   2  18
TORSDOF 5
