REMARK  2 active torsions:
REMARK  status: ('A' for Active; 'I' for Inactive)
REMARK    1  A    between atoms: N_2  and  C_1 
REMARK    2  A    between atoms: C_8  and  N_2 
ROOT
ATOM      1  C   UNL d   1      -0.659   1.673  -0.030  0.00  0.00     0.047 A 
ATOM      2  N   UNL d   1      -1.031  -1.100  -0.078  0.00  0.00    -0.359 N 
ATOM      3  HN  UNL d   1      -1.171  -2.110  -0.083  1.00  0.00     0.166 HD
ATOM      4  C   UNL d   1       0.462   0.809  -0.045  0.00  0.00     0.017 A 
ATOM      5  C   UNL d   1       0.207  -0.581  -0.063  0.00  0.00     0.044 A 
ATOM      6  C   UNL d   1      -1.940   1.118  -0.081  0.00  0.00     0.055 A 
ATOM      7  C   UNL d   1      -2.086  -0.259  -0.085  0.00  0.00     0.007 A 
ATOM      8  C   UNL d   1       1.803   1.257  -0.007  0.00  0.00     0.016 A 
ATOM      9  C   UNL d   1       1.282  -1.458  -0.044  0.00  0.00     0.030 A 
ATOM     10  C   UNL d   1      -3.457  -0.863  -0.060  0.00  0.00     0.068 C 
ATOM     11  C   UNL d   1       2.866   0.353   0.009  0.00  0.00     0.001 A 
ATOM     12  C   UNL d   1       2.603  -1.010  -0.009  0.00  0.00     0.002 A 
ENDROOT
BRANCH   1  13
ATOM     13  N   UNL d   1      -0.493   3.081   0.057  0.00  0.00    -0.354 N 
ATOM     14  H   UNL d   1       0.055   3.460  -0.713  0.00  0.00     0.166 HD
BRANCH  13  15
ATOM     15  C   UNL d   1      -1.347   4.032   0.662  0.00  0.00     0.054 A 
ATOM     16  C   UNL d   1      -1.430   5.353   0.186  0.00  0.00     0.060 A 
ATOM     17 CL   UNL d   1      -0.502   5.859  -1.183  0.00  0.00    -0.082 Cl
ATOM     18  C   UNL d   1      -2.274   6.288   0.797  0.00  0.00     0.026 A 
ATOM     19  C   UNL d   1      -3.044   5.918   1.900  0.00  0.00     0.002 A 
ATOM     20  C   UNL d   1      -2.963   4.621   2.397  0.00  0.00     0.002 A 
ATOM     21  C   UNL d   1      -2.115   3.693   1.789  0.00  0.00     0.031 A 
ENDBRANCH  13  15
ENDBRANCH   1  13
TORSDOF 2
