REMARK  4 active torsions:
REMARK  status: ('A' for Active; 'I' for Inactive)
REMARK    1  A    between atoms: N_9  and  C_1 
REMARK    2  A    between atoms: C_15  and  N_4 
REMARK    3  A    between atoms: C_18  and  C_7 
REMARK    4  A    between atoms: C_17  and  C_8 
ROOT
ATOM      1  C   UNL d   1       0.833  -5.193   3.023  0.00  0.00     0.185 C 
ATOM      2  C   UNL d   1       1.098  -3.731   3.129  0.00  0.00    -0.002 C 
ATOM      3  C   UNL d   1       0.073  -5.688   1.827  0.00  0.00    -0.002 C 
ATOM      4  N   UNL d   1      -0.476  -2.611  -0.051  0.00  0.00    -0.350 N 
ATOM      5  HN  UNL d   1      -0.967  -3.025  -0.844  1.00  0.00     0.166 HD
ATOM      6  C   UNL d   1      -0.107  -3.346   0.965  0.00  0.00     0.034 C 
ATOM      7  C   UNL d   1       0.562  -2.901   2.223  0.00  0.00     0.041 C 
ATOM      8  C   UNL d   1      -0.345  -4.814   0.894  0.00  0.00     0.041 C 
ATOM      9  O   UNL d   1       1.199  -5.961   3.902  0.00  0.00    -0.287 OA
ENDROOT
BRANCH   4  10
ATOM     10  C   UNL d   1      -0.187  -1.267  -0.026  0.00  0.00     0.127 C 
ATOM     11  C   UNL d   1       1.164  -0.660   0.234  0.00  0.00     0.295 C 
ATOM     12  N   UNL d   1       0.961   0.704   0.372  0.00  0.00    -0.217 N 
ATOM     13  O   UNL d   1       2.203  -1.302   0.364  0.00  0.00    -0.264 OA
ATOM     14  N   UNL d   1      -0.371   1.022   0.028  0.00  0.00    -0.289 N 
ATOM     15  C   UNL d   1      -0.963  -0.204  -0.335  0.00  0.00     0.057 C 
ATOM     16  C   UNL d   1      -0.561   2.289  -0.679  0.00  0.00     0.178 C 
ATOM     17  C   UNL d   1      -2.282  -0.319  -1.026  0.00  0.00     0.072 C 
BRANCH  12  18
ATOM     18  C   UNL d   1       1.915   1.635   0.804  0.00  0.00     0.060 A 
ATOM     19  C   UNL d   1       3.208   1.573   0.273  0.00  0.00     0.031 A 
ATOM     20  C   UNL d   1       4.185   2.478   0.681  0.00  0.00     0.002 A 
ATOM     21  C   UNL d   1       3.888   3.419   1.663  0.00  0.00     0.000 A 
ATOM     22  C   UNL d   1       2.610   3.467   2.223  0.00  0.00     0.002 A 
ATOM     23  C   UNL d   1       1.616   2.591   1.779  0.00  0.00     0.031 A 
ENDBRANCH  12  18
ENDBRANCH   4  10
BRANCH   2  24
ATOM     24  C   UNL d   1       1.985  -3.261   4.280  0.00  0.00     0.014 C 
ATOM     25  C   UNL d   1       3.463  -3.375   3.880  0.00  0.00     0.015 C 
ATOM     26  C   UNL d   1       1.714  -1.825   4.756  0.00  0.00     0.015 C 
ENDBRANCH   2  24
BRANCH   3  27
ATOM     27  C   UNL d   1      -0.139  -7.195   1.760  0.00  0.00     0.014 C 
ATOM     28  C   UNL d   1      -1.479  -7.584   2.393  0.00  0.00     0.015 C 
ATOM     29  C   UNL d   1      -0.032  -7.787   0.350  0.00  0.00     0.015 C 
ENDBRANCH   3  27
TORSDOF 4
