REMARK  5 active torsions:
REMARK  status: ('A' for Active; 'I' for Inactive)
REMARK    1  A    between atoms: C_2  and  S_1 
REMARK    2  A    between atoms: N_7  and  S_1 
REMARK    3  A    between atoms: N_3  and  C_6 
REMARK    4  A    between atoms: N_8  and  C_13 
REMARK    5  A    between atoms: C_9  and  N_12 
ROOT
ATOM      1  C   UNL d   1      -4.517  -0.251  -2.684  0.00  0.00     0.063 A 
ATOM      2  C   UNL d   1      -3.733  -0.954  -1.710  0.00  0.00     0.038 A 
ATOM      3  C   UNL d   1      -5.900  -0.541  -2.717  0.00  0.00     0.068 A 
ATOM      4  C   UNL d   1      -6.482  -1.570  -1.962  0.00  0.00     0.105 A 
ATOM      5  C   UNL d   1      -4.370  -1.976  -0.946  0.00  0.00     0.028 A 
ATOM      6  C   UNL d   1      -5.714  -2.307  -1.082  0.00  0.00     0.038 A 
ENDROOT
BRANCH   2   7
ATOM      7  N   UNL d   1      -2.392  -0.645  -1.395  0.00  0.00    -0.278 NA
ATOM      8  C   UNL d   1      -1.533  -1.722  -0.845  0.00  0.00     0.116 C 
ATOM      9  C   UNL d   1      -0.054  -1.332  -0.950  0.00  0.00     0.150 C 
ATOM     10  N   UNL d   1       0.243   0.005  -0.383  0.00  0.00    -0.303 N 
ATOM     11  C   UNL d   1      -0.803   1.063  -0.514  0.00  0.00     0.150 C 
ATOM     12  C   UNL d   1      -2.260   0.570  -0.562  0.00  0.00     0.116 C 
BRANCH  10  13
ATOM     13  S   UNL d   1       1.315   0.091   0.914  0.00  0.00     0.278 S 
ATOM     14  O   UNL d   1       0.548  -0.046   2.135  0.00  0.00    -0.199 OA
ATOM     15  O   UNL d   1       2.445  -0.764   0.629  0.00  0.00    -0.199 OA
BRANCH  13  16
ATOM     16  C   UNL d   1       1.977   1.714   0.954  0.00  0.00     0.165 A 
ATOM     17  N   UNL d   1       1.184   2.843   1.125  0.00  0.00    -0.340 N 
ATOM     18  C   UNL d   1       1.994   3.865   0.980  0.00  0.00     0.183 A 
ATOM     19  HN  UNL d   1       0.184   2.872   1.321  1.00  0.00     0.167 HD
ATOM     20  N   UNL d   1       3.271   3.454   0.729  0.00  0.00    -0.354 N 
ATOM     21  C   UNL d   1       3.286   2.088   0.713  0.00  0.00     0.135 A 
ATOM     22  C   UNL d   1       4.383   4.337   0.483  0.00  0.00     0.156 C 
ENDBRANCH  13  16
ENDBRANCH  10  13
ENDBRANCH   2   7
BRANCH   1  23
ATOM     23  N   UNL d   1      -4.003   0.750  -3.630  0.00  0.00    -0.318 N 
ATOM     24  C   UNL d   1      -2.673   1.021  -3.986  0.00  0.00     0.013 C 
ATOM     25  C   UNL d   1      -2.601   2.317  -4.459  0.00  0.00     0.027 C 
ATOM     26  C   UNL d   1      -1.545   0.053  -3.997  0.00  0.00     0.068 C 
ATOM     27  C   UNL d   1      -3.908   2.707  -4.766  0.00  0.00     0.027 C 
ATOM     28  C   UNL d   1      -4.738   1.642  -4.457  0.00  0.00     0.013 C 
ATOM     29  C   UNL d   1      -6.126   1.507  -4.985  0.00  0.00     0.068 C 
ENDBRANCH   1  23
BRANCH   4  30
ATOM     30  N   UNL d   1      -7.911  -1.876  -2.123  0.00  0.00    -0.116 N 
ATOM     31  O   UNL d   1      -8.576  -1.156  -2.882  0.00  0.00    -0.532 OA
ATOM     32  O   UNL d   1      -8.366  -2.845  -1.498  0.00  0.00    -0.532 OA
ENDBRANCH   4  30
TORSDOF 5
