REMARK  5 active torsions:
REMARK  status: ('A' for Active; 'I' for Inactive)
REMARK    1  A    between atoms: N_3  and  C_1 
REMARK    2  A    between atoms: N_6  and  C_1 
REMARK    3  A    between atoms: C_2  and  N_3 
REMARK       I    between atoms: C_4  and  N_5 
REMARK    4  A    between atoms: C_13  and  C_4 
REMARK    5  A    between atoms: N_5  and  N_6 
ROOT
ATOM      1  N   UNL d   1       2.067   0.958   0.077  0.00  0.00    -0.273 N 
ATOM      2  H   UNL d   1       2.293   1.559  -0.716  0.00  0.00     0.189 HD
ENDROOT
BRANCH   1   3
ATOM      3  N   UNL d   1       2.891   1.073   1.197  0.00  0.00    -0.264 N 
ATOM      4  C   UNL d   1       3.753   2.147   1.258  0.00  0.00     0.270 C 
ATOM      5  O   UNL d   1       3.675   3.132   0.530  0.00  0.00    -0.266 OA
ATOM      6  H   UNL d   1       2.941   0.271   1.819  0.00  0.00     0.190 HD
BRANCH   4   7
ATOM      7  C   UNL d   1       4.839   2.047   2.257  0.00  0.00     0.036 A 
ATOM      8  C   UNL d   1       5.568   0.868   2.409  0.00  0.00     0.034 A 
ATOM      9  C   UNL d   1       6.616   0.875   3.310  0.00  0.00     0.088 A 
ATOM     10  N   UNL d   1       6.960   1.951   4.050  0.00  0.00    -0.375 N 
ATOM     11  C   UNL d   1       6.241   3.081   3.869  0.00  0.00     0.088 A 
ATOM     12  HN  UNL d   1       7.731   1.913   4.716  1.00  0.00     0.164 HD
ATOM     13  C   UNL d   1       5.184   3.183   2.986  0.00  0.00     0.034 A 
ENDBRANCH   4   7
ENDBRANCH   1   3
BRANCH   1  14
ATOM     14  C   UNL d   1       0.909   0.224   0.072  0.00  0.00     0.191 C 
ATOM     15  S   UNL d   1       0.126  -0.341   1.438  0.00  0.00    -0.039 SA
BRANCH  14  16
ATOM     16  N   UNL d   1       0.365  -0.032  -1.161  0.00  0.00    -0.331 N 
ATOM     17  H   UNL d   1      -0.622  -0.261  -1.137  0.00  0.00     0.168 HD
BRANCH  16  18
ATOM     18  C   UNL d   1       1.002  -0.069  -2.426  0.00  0.00     0.046 A 
ATOM     19  C   UNL d   1       2.327  -0.546  -2.598  0.00  0.00    -0.035 A 
ATOM     20  C   UNL d   1       2.930  -0.475  -3.866  0.00  0.00     0.009 A 
ATOM     21  C   UNL d   1       3.143  -1.232  -1.531  0.00  0.00     0.050 C 
ATOM     22  C   UNL d   1       2.222  -0.026  -4.968  0.00  0.00     0.001 A 
ATOM     23  C   UNL d   1       0.889   0.342  -4.824  0.00  0.00     0.009 A 
ATOM     24  C   UNL d   1       0.260   0.315  -3.566  0.00  0.00    -0.035 A 
ATOM     25  C   UNL d   1      -1.178   0.769  -3.541  0.00  0.00     0.050 C 
ENDBRANCH  16  18
ENDBRANCH  14  16
ENDBRANCH   1  14
TORSDOF 5
