REMARK  7 active torsions:
REMARK  status: ('A' for Active; 'I' for Inactive)
REMARK       I    between atoms: N_6  and  C_1 
REMARK    1  A    between atoms: C_16  and  C_1 
REMARK    2  A    between atoms: C_2  and  C_17 
REMARK       I    between atoms: N_3  and  C_2 
REMARK    3  A    between atoms: C_11  and  N_3 
REMARK    4  A    between atoms: C_12  and  C_4 
REMARK    5  A    between atoms: N_13  and  N_6 
REMARK    6  A    between atoms: S_10  and  C_16 
REMARK    7  A    between atoms: C_17  and  S_10 
ROOT
ATOM      1  C   UNL d   1       5.127  -3.425  -4.013  0.00  0.00     0.231 C 
ATOM      2  N   UNL d   1       4.465  -2.296  -3.567  0.00  0.00    -0.327 N 
ATOM      3  O   UNL d   1       4.612  -4.326  -4.673  0.00  0.00    -0.272 OA
ATOM      4  H   UNL d   1       5.021  -1.517  -3.237  0.00  0.00     0.169 HD
ENDROOT
BRANCH   2   5
ATOM      5  C   UNL d   1       3.070  -2.087  -3.607  0.00  0.00     0.034 A 
ATOM      6  C   UNL d   1       2.142  -3.108  -3.812  0.00  0.00     0.030 A 
ATOM      7  C   UNL d   1       0.771  -2.842  -3.756  0.00  0.00     0.010 A 
ATOM      8  C   UNL d   1       0.283  -1.555  -3.485  0.00  0.00    -0.054 A 
ATOM      9  C   UNL d   1       1.227  -0.526  -3.363  0.00  0.00     0.010 A 
ATOM     10  C   UNL d   1       2.601  -0.791  -3.392  0.00  0.00     0.030 A 
BRANCH   8  11
ATOM     11  C   UNL d   1      -1.225  -1.342  -3.344  0.00  0.00     0.018 C 
ATOM     12  C   UNL d   1      -1.689   0.091  -3.004  0.00  0.00     0.009 C 
ATOM     13  C   UNL d   1      -1.389   0.508  -1.560  0.00  0.00     0.001 C 
ATOM     14  C   UNL d   1      -1.888  -0.506  -0.536  0.00  0.00     0.000 C 
ATOM     15  C   UNL d   1      -1.481  -1.936  -0.875  0.00  0.00     0.001 C 
ATOM     16  C   UNL d   1      -1.859  -2.302  -2.309  0.00  0.00     0.009 C 
ENDBRANCH   8  11
ENDBRANCH   2   5
BRANCH   1  17
ATOM     17  C   UNL d   1       6.612  -3.455  -3.672  0.00  0.00     0.177 C 
BRANCH  17  18
ATOM     18  S   UNL d   1       7.044  -4.883  -2.620  0.00  0.00    -0.150 SA
BRANCH  18  19
ATOM     19  C   UNL d   1       6.550  -6.298  -3.673  0.00  0.00     0.178 C 
BRANCH  19  20
ATOM     20  C   UNL d   1       7.201  -6.252  -5.044  0.00  0.00     0.240 C 
ATOM     21  O   UNL d   1       8.369  -6.584  -5.247  0.00  0.00    -0.271 OA
ATOM     22  N   UNL d   1       6.376  -5.770  -6.054  0.00  0.00    -0.293 N 
ATOM     23  H   UNL d   1       5.443  -5.402  -5.822  0.00  0.00     0.183 HD
BRANCH  22  24
ATOM     24  N   UNL d   1       6.892  -5.595  -7.356  0.00  0.00    -0.247 NA
ATOM     25  H   UNL d   1       7.799  -6.082  -7.384  0.00  0.00     0.143 HD
ATOM     26  H   UNL d   1       7.128  -4.608  -7.479  0.00  0.00     0.143 HD
ENDBRANCH  22  24
ENDBRANCH  19  20
ENDBRANCH  18  19
ENDBRANCH  17  18
ENDBRANCH   1  17
TORSDOF 7
