REMARK  5 active torsions:
REMARK  status: ('A' for Active; 'I' for Inactive)
REMARK       I    between atoms: N_2  and  C_1 
REMARK    1  A    between atoms: C_7  and  C_1 
REMARK    2  A    between atoms: C_3  and  N_2 
REMARK    3  A    between atoms: N_4  and  C_7 
REMARK    4  A    between atoms: O_6  and  C_5 
REMARK    5  A    between atoms: C_9  and  O_6 
ROOT
ATOM      1  C   UNL d   1       0.971  -2.018   1.359  0.00  0.00     0.069 C 
ATOM      2  C   UNL d   1       1.316  -3.333   0.988  0.00  0.00     0.102 C 
ATOM      3  C   UNL d   1       1.240  -1.587   2.666  0.00  0.00     0.032 C 
ATOM      4  C   UNL d   1       2.087  -4.113   1.866  0.00  0.00     0.039 C 
ATOM      5  C   UNL d   1       1.952  -2.398   3.552  0.00  0.00     0.002 C 
ATOM      6  C   UNL d   1       2.400  -3.648   3.142  0.00  0.00     0.003 C 
ENDROOT
BRANCH   1   7
ATOM      7  N   UNL d   1       0.363  -1.067   0.503  0.00  0.00    -0.323 N 
ATOM      8  C   UNL d   1       0.742  -0.870  -0.818  0.00  0.00     0.250 C 
ATOM      9  O   UNL d   1       1.634  -1.465  -1.417  0.00  0.00    -0.271 OA
ATOM     10  H   UNL d   1      -0.008  -0.229   0.936  0.00  0.00     0.169 HD
BRANCH   8  11
ATOM     11  C   UNL d   1      -0.037   0.271  -1.488  0.00  0.00     0.374 C 
BRANCH  11  12
ATOM     12  N   UNL d   1       0.393   1.618  -1.011  0.00  0.00     0.097 N 
ATOM     13  C   UNL d   1      -0.484   2.627  -1.643  0.00  0.00     0.273 C 
ATOM     14  C   UNL d   1      -0.088   4.063  -1.291  0.00  0.00     0.030 C 
ATOM     15  C   UNL d   1       1.361   4.341  -1.667  0.00  0.00     0.003 C 
ATOM     16  C   UNL d   1       2.262   3.289  -1.029  0.00  0.00     0.030 C 
ATOM     17  C   UNL d   1       1.805   1.867  -1.379  0.00  0.00     0.273 C 
ENDBRANCH  11  12
ENDBRANCH   8  11
ENDBRANCH   1   7
BRANCH   2  18
ATOM     18  O   UNL d   1       0.864  -3.831  -0.221  0.00  0.00    -0.309 OA
BRANCH  18  19
ATOM     19  C   UNL d   1       0.601  -5.182  -0.329  0.00  0.00     0.076 A 
ATOM     20  C   UNL d   1      -0.141  -5.901   0.615  0.00  0.00     0.037 A 
ATOM     21  C   UNL d   1      -0.337  -7.275   0.450  0.00  0.00     0.003 A 
ATOM     22  C   UNL d   1       0.171  -7.924  -0.676  0.00  0.00     0.000 A 
ATOM     23  C   UNL d   1       0.865  -7.197  -1.644  0.00  0.00     0.003 A 
ATOM     24  C   UNL d   1       1.075  -5.826  -1.474  0.00  0.00     0.037 A 
ENDBRANCH  18  19
ENDBRANCH   2  18
TORSDOF 5
