REMARK  6 active torsions:
REMARK  status: ('A' for Active; 'I' for Inactive)
REMARK    1  A    between atoms: C_4  and  S_1 
REMARK    2  A    between atoms: N_8  and  S_1 
REMARK    3  A    between atoms: S_2  and  N_3 
REMARK    4  A    between atoms: C_7  and  S_2 
REMARK    5  A    between atoms: N_3  and  C_5 
REMARK    6  A    between atoms: C_24  and  C_20 
ROOT
ATOM      1  C   UNL d   1       0.509   1.748   0.542  0.00  0.00     0.081 A 
ATOM      2  C   UNL d   1       0.688   4.161   0.589  0.00  0.00     0.050 A 
ATOM      3  C   UNL d   1       1.147   2.923   0.131  0.00  0.00     0.055 A 
ATOM      4  C   UNL d   1      -0.388   4.220   1.494  0.00  0.00    -0.035 A 
ATOM      5  C   UNL d   1      -0.618   1.798   1.361  0.00  0.00     0.026 A 
ATOM      6  C   UNL d   1      -1.050   3.029   1.848  0.00  0.00     0.010 A 
ATOM      7  C   UNL d   1      -0.820   5.491   2.173  0.00  0.00     0.050 C 
ENDROOT
BRANCH   2   8
ATOM      8  N   UNL d   1       1.420   5.323   0.214  0.00  0.00    -0.280 N 
ATOM      9  H   UNL d   1       2.370   5.436   0.556  0.00  0.00     0.179 HD
BRANCH   8  10
ATOM     10  S   UNL d   1       1.119   6.163  -1.212  0.00  0.00     0.263 S 
ATOM     11  O   UNL d   1      -0.229   6.702  -1.152  0.00  0.00    -0.200 OA
ATOM     12  O   UNL d   1       2.253   7.046  -1.394  0.00  0.00    -0.200 OA
BRANCH  10  13
ATOM     13  C   UNL d   1       1.163   4.961  -2.524  0.00  0.00     0.079 A 
ATOM     14  C   UNL d   1      -0.034   4.404  -2.986  0.00  0.00     0.026 A 
ATOM     15  C   UNL d   1      -0.010   3.445  -4.004  0.00  0.00     0.009 A 
ATOM     16  C   UNL d   1       1.202   3.049  -4.584  0.00  0.00    -0.058 A 
ATOM     17  C   UNL d   1       2.391   3.658  -4.152  0.00  0.00     0.009 A 
ATOM     18  C   UNL d   1       2.373   4.625  -3.138  0.00  0.00     0.026 A 
BRANCH  16  19
ATOM     19  C   UNL d   1       1.222   1.978  -5.651  0.00  0.00     0.034 C 
ATOM     20  C   UNL d   1       1.366   0.575  -5.077  0.00  0.00     0.010 C 
ENDBRANCH  16  19
ENDBRANCH  10  13
ENDBRANCH   8  10
ENDBRANCH   2   8
BRANCH   1  21
ATOM     21  S   UNL d   1       1.119   0.167   0.002  0.00  0.00     0.260 S 
ATOM     22  O   UNL d   1       1.935   0.398  -1.171  0.00  0.00    -0.200 OA
ATOM     23  O   UNL d   1      -0.009  -0.739  -0.037  0.00  0.00    -0.200 OA
BRANCH  21  24
ATOM     24  N   UNL d   1       2.143  -0.309   1.278  0.00  0.00    -0.315 N 
ATOM     25  C   UNL d   1       3.399   0.441   1.442  0.00  0.00     0.162 C 
ATOM     26  C   UNL d   1       1.507  -0.675   2.555  0.00  0.00     0.162 C 
ENDBRANCH  21  24
ENDBRANCH   1  21
TORSDOF 6
