REMARK  6 active torsions:
REMARK  status: ('A' for Active; 'I' for Inactive)
REMARK    1  A    between atoms: C_4  and  N_1 
REMARK       I    between atoms: C_2  and  N_5 
REMARK    2  A    between atoms: C_3  and  C_2 
REMARK    3  A    between atoms: N_6  and  C_3 
REMARK    4  A    between atoms: N_5  and  C_13 
REMARK    5  A    between atoms: C_18  and  N_6 
REMARK    6  A    between atoms: C_9  and  C_18 
ROOT
ATOM      1  C   UNL d   1       0.956   2.332  -4.488  0.00  0.00     0.283 C 
ATOM      2  N   UNL d   1       0.484   3.097  -3.438  0.00  0.00    -0.321 N 
ATOM      3  O   UNL d   1       0.736   2.486  -5.682  0.00  0.00    -0.265 OA
ATOM      4  H   UNL d   1       0.953   2.976  -2.546  0.00  0.00     0.169 HD
ENDROOT
BRANCH   1   5
ATOM      5  C   UNL d   1       1.951   1.257  -4.061  0.00  0.00     0.165 C 
ATOM      6  S   UNL d   1       1.348   0.033  -3.102  0.00  0.00    -0.055 SA
BRANCH   5   7
ATOM      7  N   UNL d   1       3.246   1.428  -4.498  0.00  0.00    -0.370 N 
ATOM      8  H   UNL d   1       3.441   2.196  -5.136  0.00  0.00     0.161 HD
BRANCH   7   9
ATOM      9  C   UNL d   1       4.363   0.568  -4.142  0.00  0.00     0.185 C 
BRANCH   9  10
ATOM     10  C   UNL d   1       5.634   1.141  -4.649  0.00  0.00     0.070 A 
ATOM     11  O   UNL d   1       5.852   2.469  -4.407  0.00  0.00    -0.325 OA
ATOM     12  C   UNL d   1       7.074   2.771  -4.916  0.00  0.00     0.142 A 
ATOM     13  C   UNL d   1       7.647   1.658  -5.485  0.00  0.00     0.027 A 
ATOM     14  C   UNL d   1       6.716   0.604  -5.316  0.00  0.00     0.036 A 
ENDBRANCH   9  10
ENDBRANCH   7   9
ENDBRANCH   5   7
ENDBRANCH   1   5
BRANCH   2  15
ATOM     15  C   UNL d   1      -0.569   4.027  -3.492  0.00  0.00     0.037 A 
ATOM     16  C   UNL d   1      -0.621   5.005  -2.502  0.00  0.00     0.065 A 
ATOM     17  C   UNL d   1      -1.678   5.928  -2.490  0.00  0.00     0.105 A 
ATOM     18  C   UNL d   1      -2.712   5.848  -3.429  0.00  0.00     0.036 A 
ATOM     19  C   UNL d   1      -2.666   4.851  -4.403  0.00  0.00     0.005 A 
ATOM     20  C   UNL d   1      -1.589   3.956  -4.450  0.00  0.00     0.029 A 
BRANCH  17  21
ATOM     21  N   UNL d   1      -1.690   6.996  -1.485  0.00  0.00    -0.116 N 
ATOM     22  O   UNL d   1      -0.720   7.076  -0.716  0.00  0.00    -0.532 OA
ATOM     23  O   UNL d   1      -2.668   7.757  -1.460  0.00  0.00    -0.532 OA
ENDBRANCH  17  21
ENDBRANCH   2  15
TORSDOF 6
