REMARK  4 active torsions:
REMARK  status: ('A' for Active; 'I' for Inactive)
REMARK    1  A    between atoms: C_7  and  C_1 
REMARK    2  A    between atoms: C_8  and  C_3 
REMARK       I    between atoms: N_10  and  C_7 
REMARK    3  A    between atoms: N_9  and  C_13 
REMARK    4  A    between atoms: C_18  and  N_10 
ROOT
ATOM      1  C   UNL d   1       0.327  -4.395  -0.844  0.00  0.00     0.265 C 
ATOM      2  N   UNL d   1       0.864  -3.372  -0.071  0.00  0.00    -0.322 N 
ATOM      3  O   UNL d   1       1.014  -5.197  -1.471  0.00  0.00    -0.267 OA
ATOM      4  H   UNL d   1       0.219  -2.846   0.500  0.00  0.00     0.169 HD
ENDROOT
BRANCH   1   5
ATOM      5  C   UNL d   1      -1.124  -4.497  -0.883  0.00  0.00     0.097 A 
ATOM      6  S   UNL d   1      -2.185  -3.579   0.098  0.00  0.00    -0.063 SA
ATOM      7  C   UNL d   1      -3.541  -4.413  -0.569  0.00  0.00     0.103 A 
ATOM      8  N   UNL d   1      -3.234  -5.287  -1.510  0.00  0.00    -0.351 N 
ATOM      9  C   UNL d   1      -1.865  -5.339  -1.700  0.00  0.00     0.029 A 
ATOM     10  HN  UNL d   1      -3.914  -5.846  -2.025  1.00  0.00     0.166 HD
ATOM     11  C   UNL d   1      -1.337  -6.279  -2.729  0.00  0.00     0.070 C 
BRANCH   7  12
ATOM     12  C   UNL d   1      -4.908  -4.189  -0.085  0.00  0.00     0.081 A 
ATOM     13  N   UNL d   1      -5.141  -3.127   0.734  0.00  0.00    -0.361 N 
ATOM     14  C   UNL d   1      -6.416  -2.994   1.169  0.00  0.00     0.105 A 
ATOM     15  HN  UNL d   1      -4.403  -2.476   1.002  1.00  0.00     0.165 HD
ATOM     16  C   UNL d   1      -7.426  -3.875   0.817  0.00  0.00     0.104 A 
ATOM     17  N   UNL d   1      -7.211  -4.929   0.001  0.00  0.00    -0.372 N 
ATOM     18  C   UNL d   1      -5.933  -5.062  -0.443  0.00  0.00     0.120 A 
ATOM     19  HN  UNL d   1      -7.953  -5.578  -0.262  1.00  0.00     0.164 HD
ENDBRANCH   7  12
ENDBRANCH   1   5
BRANCH   2  20
ATOM     20  C   UNL d   1       2.232  -3.006  -0.009  0.00  0.00     0.035 A 
ATOM     21  C   UNL d   1       3.209  -3.547  -0.843  0.00  0.00     0.032 A 
ATOM     22  C   UNL d   1       4.548  -3.143  -0.759  0.00  0.00     0.031 A 
ATOM     23  C   UNL d   1       4.970  -2.176   0.154  0.00  0.00     0.030 A 
ATOM     24  C   UNL d   1       3.977  -1.637   0.989  0.00  0.00     0.031 A 
ATOM     25  C   UNL d   1       2.629  -2.039   0.913  0.00  0.00     0.032 A 
BRANCH  23  26
ATOM     26  N   UNL d   1       6.296  -1.793   0.279  0.00  0.00    -0.377 N 
ATOM     27  C   UNL d   1       7.402  -2.644  -0.202  0.00  0.00     0.149 C 
ATOM     28  C   UNL d   1       7.968  -2.119  -1.529  0.00  0.00     0.187 C 
ATOM     29  O   UNL d   1       8.384  -0.749  -1.406  0.00  0.00    -0.388 OA
ATOM     30  C   UNL d   1       7.262   0.075  -1.045  0.00  0.00     0.187 C 
ATOM     31  C   UNL d   1       6.631  -0.354   0.293  0.00  0.00     0.149 C 
ENDBRANCH  23  26
ENDBRANCH   2  20
TORSDOF 4
