REMARK  6 active torsions:
REMARK  status: ('A' for Active; 'I' for Inactive)
REMARK    1  A    between atoms: C_11  and  C_1 
REMARK    2  A    between atoms: C_5  and  O_10 
REMARK    3  A    between atoms: C_14  and  C_5 
REMARK    4  A    between atoms: O_10  and  N_6 
REMARK    5  A    between atoms: C_9  and  C_11 
REMARK    6  A    between atoms: N_17  and  C_9 
ROOT
ATOM      1  N   UNL d   1       4.194  -1.197  -0.067  0.00  0.00    -0.245 N 
ATOM      2  HN  UNL d   1       5.210  -1.120  -0.109  1.00  0.00     0.196 HD
ATOM      3  C   UNL d   1       3.576  -2.333  -0.002  0.00  0.00     0.100 C 
ENDROOT
BRANCH   3   4
ATOM      4  C   UNL d   1       4.468  -3.575  -0.011  0.00  0.00     0.117 C 
BRANCH   4   5
ATOM      5  C   UNL d   1       4.646  -4.194  -1.377  0.00  0.00    -0.033 A 
ATOM      6  C   UNL d   1       5.265  -3.565  -2.537  0.00  0.00    -0.010 A 
ATOM      7  C   UNL d   1       5.341  -4.449  -3.622  0.00  0.00     0.015 A 
ATOM      8  C   UNL d   1       5.797  -2.261  -2.728  0.00  0.00     0.037 A 
ATOM      9  C   UNL d   1       5.909  -4.073  -4.858  0.00  0.00     0.021 A 
ATOM     10  S   UNL d   1       4.679  -5.986  -3.234  0.00  0.00    -0.101 SA
ATOM     11  C   UNL d   1       6.402  -2.778  -5.014  0.00  0.00     0.025 A 
ATOM     12  C   UNL d   1       6.342  -1.882  -3.959  0.00  0.00     0.035 A 
ATOM     13 CL   UNL d   1       6.945  -0.283  -4.171  0.00  0.00    -0.084 Cl
ATOM     14  C   UNL d   1       4.302  -5.505  -1.649  0.00  0.00     0.058 A 
ENDBRANCH   4   5
ENDBRANCH   3   4
BRANCH   3  15
ATOM     15  N   UNL d   1       2.216  -2.497   0.089  0.00  0.00    -0.387 N 
ATOM     16  H   UNL d   1       1.676  -1.674  -0.149  0.00  0.00     0.157 HD
ATOM     17  H   UNL d   1       1.826  -3.370  -0.248  0.00  0.00     0.157 HD
ENDBRANCH   3  15
BRANCH   1  18
ATOM     18  O   UNL d   1       3.341  -0.078  -0.074  0.00  0.00    -0.193 OA
BRANCH  18  19
ATOM     19  C   UNL d   1       4.123   1.043  -0.161  0.00  0.00     0.315 C 
ATOM     20  O   UNL d   1       5.348   1.085  -0.219  0.00  0.00    -0.257 OA
BRANCH  19  21
ATOM     21  C   UNL d   1       3.311   2.285  -0.146  0.00  0.00     0.041 A 
ATOM     22  C   UNL d   1       1.957   2.316  -0.498  0.00  0.00     0.017 A 
ATOM     23  C   UNL d   1       1.273   3.535  -0.517  0.00  0.00     0.001 A 
ATOM     24  C   UNL d   1       1.933   4.721  -0.181  0.00  0.00     0.000 A 
ATOM     25  C   UNL d   1       3.278   4.693   0.178  0.00  0.00     0.001 A 
ATOM     26  C   UNL d   1       3.966   3.481   0.194  0.00  0.00     0.017 A 
ENDBRANCH  19  21
ENDBRANCH  18  19
ENDBRANCH   1  18
TORSDOF 6
