REMARK  4 active torsions:
REMARK  status: ('A' for Active; 'I' for Inactive)
REMARK    1  A    between atoms: N_5  and  C_1 
REMARK    2  A    between atoms: N_6  and  C_1 
REMARK    3  A    between atoms: C_10  and  N_5 
REMARK    4  A    between atoms: C_14  and  N_6 
ROOT
ATOM      1  N   UNL d   1       0.507  -1.289  -0.267  0.00  0.00    -0.333 N 
ATOM      2  H   UNL d   1      -0.491  -1.270  -0.449  0.00  0.00     0.168 HD
ENDROOT
BRANCH   1   3
ATOM      3  C   UNL d   1       1.031  -0.042  -0.017  0.00  0.00     0.176 C 
ATOM      4  S   UNL d   1       2.479   0.570  -0.587  0.00  0.00    -0.041 SA
BRANCH   3   5
ATOM      5  N   UNL d   1       0.174   0.816   0.631  0.00  0.00    -0.333 N 
ATOM      6  H   UNL d   1       0.379   1.802   0.498  0.00  0.00     0.168 HD
BRANCH   5   7
ATOM      7  C   UNL d   1      -0.763   0.503   1.637  0.00  0.00     0.034 A 
ATOM      8  C   UNL d   1      -0.697  -0.678   2.386  0.00  0.00     0.031 A 
ATOM      9  C   UNL d   1      -1.607  -0.914   3.419  0.00  0.00     0.026 A 
ATOM     10  C   UNL d   1      -2.594   0.027   3.699  0.00  0.00     0.034 A 
ATOM     11  C   UNL d   1      -2.665   1.210   2.964  0.00  0.00     0.026 A 
ATOM     12 CL   UNL d   1      -3.717  -0.264   4.966  0.00  0.00    -0.084 Cl
ATOM     13  C   UNL d   1      -1.738   1.455   1.946  0.00  0.00     0.031 A 
ENDBRANCH   5   7
ENDBRANCH   3   5
ENDBRANCH   1   3
BRANCH   1  14
ATOM     14  C   UNL d   1       1.176  -2.488  -0.580  0.00  0.00     0.035 A 
ATOM     15  C   UNL d   1       2.410  -2.812  -0.014  0.00  0.00     0.047 A 
ATOM     16  C   UNL d   1       2.947  -4.051  -0.320  0.00  0.00     0.050 A 
ATOM     17  C   UNL d   1       4.171  -4.654   0.187  0.00  0.00     0.294 A 
ATOM     18  C   UNL d   1       2.326  -4.948  -1.163  0.00  0.00    -0.018 A 
ATOM     19  O   UNL d   1       4.272  -5.884  -0.401  0.00  0.00    -0.313 OA
ATOM     20  O   UNL d   1       4.937  -4.171   0.995  0.00  0.00    -0.259 OA
ATOM     21  C   UNL d   1       3.168  -6.153  -1.291  0.00  0.00     0.218 A 
ATOM     22  C   UNL d   1       1.100  -4.647  -1.725  0.00  0.00     0.012 A 
ATOM     23  C   UNL d   1       0.514  -3.416  -1.407  0.00  0.00     0.030 A 
ENDBRANCH   1  14
TORSDOF 4
