REMARK  3 active torsions:
REMARK  status: ('A' for Active; 'I' for Inactive)
REMARK    1  A    between atoms: N_2  and  C_1 
REMARK    2  A    between atoms: N_4  and  C_1 
REMARK    3  A    between atoms: C_6  and  N_4 
ROOT
ATOM      1  N   UNL d   1       0.347  -1.052  -0.860  0.00  0.00    -0.323 N 
ATOM      2  C   UNL d   1      -0.724  -0.737  -1.792  0.00  0.00     0.049 C 
ATOM      3  C   UNL d   1      -1.385  -1.797  -2.465  0.00  0.00    -0.031 C 
ATOM      4  C   UNL d   1      -1.110   0.586  -2.120  0.00  0.00    -0.035 C 
ATOM      5  C   UNL d   1       0.650  -2.481  -0.666  0.00  0.00     0.132 C 
ATOM      6  C   UNL d   1       0.523  -3.291  -1.933  0.00  0.00     0.025 C 
ATOM      7  C   UNL d   1      -2.983  -0.258  -3.443  0.00  0.00     0.001 C 
ATOM      8  C   UNL d   1      -2.525  -1.553  -3.251  0.00  0.00     0.009 C 
ATOM      9  C   UNL d   1      -0.924  -3.228  -2.367  0.00  0.00     0.042 C 
ATOM     10  C   UNL d   1      -2.265   0.801  -2.903  0.00  0.00     0.009 C 
ATOM     11  C   UNL d   1      -0.345   1.829  -1.748  0.00  0.00     0.050 C 
ENDROOT
BRANCH   1  12
ATOM     12  C   UNL d   1       0.630  -0.274   0.269  0.00  0.00     0.179 C 
ATOM     13  S   UNL d   1      -0.520   0.309   1.356  0.00  0.00    -0.040 SA
BRANCH  12  14
ATOM     14  N   UNL d   1       1.945  -0.188   0.672  0.00  0.00    -0.333 N 
ATOM     15  H   UNL d   1       2.038   0.082   1.646  0.00  0.00     0.168 HD
BRANCH  14  16
ATOM     16  C   UNL d   1       3.142  -0.459  -0.022  0.00  0.00     0.035 A 
ATOM     17  C   UNL d   1       4.273  -0.762   0.744  0.00  0.00     0.053 A 
ATOM     18  C   UNL d   1       5.469  -1.109   0.114  0.00  0.00     0.036 A 
ATOM     19 CL   UNL d   1       6.832  -1.562   1.063  0.00  0.00    -0.084 Cl
ATOM     20  C   UNL d   1       5.564  -1.115  -1.275  0.00  0.00     0.024 A 
ATOM     21  C   UNL d   1       4.452  -0.768  -2.040  0.00  0.00     0.004 A 
ATOM     22  C   UNL d   1       3.245  -0.444  -1.415  0.00  0.00     0.029 A 
ENDBRANCH  14  16
ENDBRANCH  12  14
ENDBRANCH   1  12
TORSDOF 3
