REMARK  5 active torsions:
REMARK  status: ('A' for Active; 'I' for Inactive)
REMARK    1  A    between atoms: C_12  and  C_1 
REMARK    2  A    between atoms: C_4  and  C_6 
REMARK       I    between atoms: N_11  and  C_4 
REMARK    3  A    between atoms: S_10  and  C_12 
REMARK    4  A    between atoms: C_16  and  S_10 
REMARK    5  A    between atoms: C_13  and  C_16 
ROOT
ATOM      1  C   UNL d   1      -0.577  -5.551   0.193  0.00  0.00     0.112 C 
ENDROOT
BRANCH   1   2
ATOM      2  C   UNL d   1      -1.954  -6.164   0.112  0.00  0.00    -0.048 A 
ATOM      3  C   UNL d   1      -2.503  -6.832   1.217  0.00  0.00     0.025 A 
ATOM      4  C   UNL d   1      -3.800  -7.364   1.162  0.00  0.00     0.032 A 
ATOM      5  C   UNL d   1      -4.551  -7.244  -0.013  0.00  0.00     0.017 A 
ATOM      6  C   UNL d   1      -4.012  -6.582  -1.118  0.00  0.00     0.002 A 
ATOM      7  C   UNL d   1      -2.726  -6.041  -1.054  0.00  0.00     0.008 A 
BRANCH   4   8
ATOM      8  C   UNL d   1      -4.328  -8.063   2.362  0.00  0.00     0.249 C 
ATOM      9  O   UNL d   1      -3.584  -8.568   3.192  0.00  0.00    -0.268 OA
ATOM     10  N   UNL d   1      -5.686  -8.089   2.528  0.00  0.00    -0.366 N 
ATOM     11  H   UNL d   1      -6.302  -7.470   2.021  0.00  0.00     0.159 HD
ATOM     12  H   UNL d   1      -6.019  -8.466   3.406  0.00  0.00     0.159 HD
ENDBRANCH   4   8
ENDBRANCH   1   2
BRANCH   1  13
ATOM     13  S   UNL d   1      -0.669  -3.810   0.715  0.00  0.00    -0.160 SA
BRANCH  13  14
ATOM     14  C   UNL d   1       1.110  -3.426   0.747  0.00  0.00     0.114 C 
BRANCH  14  15
ATOM     15  C   UNL d   1       1.326  -1.976   1.078  0.00  0.00    -0.031 A 
ATOM     16  C   UNL d   1       1.289  -0.966   0.134  0.00  0.00     0.059 A 
ATOM     17  S   UNL d   1       1.562   0.577   0.793  0.00  0.00    -0.101 SA
ATOM     18  C   UNL d   1       1.747  -0.055   2.381  0.00  0.00     0.015 A 
ATOM     19  C   UNL d   1       1.601  -1.446   2.402  0.00  0.00    -0.011 A 
ATOM     20  C   UNL d   1       2.014   0.684   3.553  0.00  0.00     0.019 A 
ATOM     21  C   UNL d   1       1.731  -2.098   3.657  0.00  0.00     0.013 A 
ATOM     22  C   UNL d   1       2.000  -1.369   4.821  0.00  0.00     0.001 A 
ATOM     23  C   UNL d   1       2.138   0.009   4.767  0.00  0.00     0.001 A 
ENDBRANCH  14  15
ENDBRANCH  13  14
ENDBRANCH   1  13
TORSDOF 5
