REMARK  5 active torsions:
REMARK  status: ('A' for Active; 'I' for Inactive)
REMARK    1  A    between atoms: C_2  and  C_1 
REMARK       I    between atoms: N_7  and  C_2 
REMARK    2  A    between atoms: N_3  and  N_7 
REMARK    3  A    between atoms: C_5  and  C_10 
REMARK    4  A    between atoms: N_11  and  C_6 
REMARK    5  A    between atoms: O_12  and  C_9 
ROOT
ATOM      1  C   UNL d   1       0.855   2.567  -0.019  0.00  0.00     0.271 C 
ATOM      2  N   UNL d   1       0.250   3.815   0.092  0.00  0.00    -0.266 N 
ATOM      3  O   UNL d   1       0.241   1.502   0.041  0.00  0.00    -0.266 OA
ATOM      4  H   UNL d   1       0.763   4.671  -0.085  0.00  0.00     0.190 HD
ENDROOT
BRANCH   2   5
ATOM      5  N   UNL d   1      -1.105   3.851   0.217  0.00  0.00    -0.308 N 
ATOM      6  C   UNL d   1      -1.673   5.012   0.258  0.00  0.00     0.121 C 
ATOM      7  HN  UNL d   1      -1.652   2.993   0.277  1.00  0.00     0.186 HD
BRANCH   6   8
ATOM      8  C   UNL d   1      -3.148   5.108   0.334  0.00  0.00     0.014 A 
ATOM      9  C   UNL d   1      -3.964   3.969   0.351  0.00  0.00     0.077 A 
ATOM     10  C   UNL d   1      -5.351   4.098   0.384  0.00  0.00     0.037 A 
ATOM     11  C   UNL d   1      -5.932   5.365   0.399  0.00  0.00     0.003 A 
ATOM     12  C   UNL d   1      -5.125   6.504   0.390  0.00  0.00     0.001 A 
ATOM     13  C   UNL d   1      -3.733   6.379   0.359  0.00  0.00     0.015 A 
BRANCH   9  14
ATOM     14  O   UNL d   1      -3.479   2.689   0.332  0.00  0.00    -0.360 OA
ATOM     15  H   UNL d   1      -2.495   2.728   0.290  0.00  0.00     0.217 HD
ENDBRANCH   9  14
ENDBRANCH   6   8
ENDBRANCH   2   5
BRANCH   1  16
ATOM     16  C   UNL d   1       2.332   2.548  -0.239  0.00  0.00     0.054 A 
ATOM     17  C   UNL d   1       2.912   1.483  -0.966  0.00  0.00     0.021 A 
ATOM     18  C   UNL d   1       4.299   1.481  -1.167  0.00  0.00     0.024 A 
ATOM     19  C   UNL d   1       5.109   2.457  -0.586  0.00  0.00     0.002 A 
ATOM     20  C   UNL d   1       4.539   3.474   0.175  0.00  0.00     0.001 A 
ATOM     21  C   UNL d   1       3.153   3.523   0.349  0.00  0.00     0.019 A 
BRANCH  17  22
ATOM     22  N   UNL d   1       2.135   0.553  -1.689  0.00  0.00    -0.302 NA
ATOM     23  H   UNL d   1       1.202   0.450  -1.267  0.00  0.00     0.124 HD
ATOM     24  H   UNL d   1       2.582  -0.349  -1.808  0.00  0.00     0.124 HD
ENDBRANCH  17  22
ENDBRANCH   1  16
TORSDOF 5
