REMARK  4 active torsions:
REMARK  status: ('A' for Active; 'I' for Inactive)
REMARK    1  A    between atoms: C_2  and  C_1 
REMARK       I    between atoms: N_3  and  C_1 
REMARK    2  A    between atoms: C_5  and  N_3 
REMARK    3  A    between atoms: C_4  and  C_6 
REMARK    4  A    between atoms: C_7  and  C_5 
ROOT
ATOM      1  C   UNL d   1       0.817   0.194  -0.411  0.00  0.00     0.259 C 
ATOM      2  N   UNL d   1       0.078   0.890   0.538  0.00  0.00    -0.308 N 
ATOM      3  O   UNL d   1       0.362  -0.564  -1.256  0.00  0.00    -0.267 OA
ATOM      4  H   UNL d   1       0.594   1.437   1.212  0.00  0.00     0.170 HD
ENDROOT
BRANCH   1   5
ATOM      5  C   UNL d   1       2.272   0.404  -0.354  0.00  0.00     0.062 A 
ATOM      6  C   UNL d   1       3.191  -0.646  -0.248  0.00  0.00     0.066 A 
ATOM      7  C   UNL d   1       4.560  -0.328  -0.297  0.00  0.00     0.034 A 
ATOM      8  C   UNL d   1       4.943   0.998  -0.417  0.00  0.00     0.088 A 
ATOM      9  N   UNL d   1       4.067   2.019  -0.497  0.00  0.00    -0.374 N 
ATOM     10  C   UNL d   1       2.753   1.701  -0.487  0.00  0.00     0.105 A 
ATOM     11  HN  UNL d   1       4.380   2.988  -0.563  1.00  0.00     0.164 HD
BRANCH   6  12
ATOM     12  C   UNL d   1       2.786  -2.086  -0.091  0.00  0.00     0.418 C 
ATOM     13  F   UNL d   1       1.558  -2.273   0.458  0.00  0.00    -0.166 F 
ATOM     14  F   UNL d   1       2.815  -2.773  -1.263  0.00  0.00    -0.166 F 
ATOM     15  F   UNL d   1       3.641  -2.751   0.742  0.00  0.00    -0.166 F 
ENDBRANCH   6  12
ENDBRANCH   1   5
BRANCH   2  16
ATOM     16  C   UNL d   1      -1.301   0.959   0.607  0.00  0.00     0.112 C 
ATOM     17  N   UNL d   1      -2.060   0.413  -0.279  0.00  0.00    -0.385 N 
ATOM     18  H   UNL d   1      -1.475  -0.086  -0.971  0.00  0.00     0.157 HD
ATOM     19  HN  UNL d   1      -3.078   0.464  -0.296  1.00  0.00     0.157 HD
BRANCH  16  20
ATOM     20  C   UNL d   1      -1.891   1.716   1.746  0.00  0.00     0.008 A 
ATOM     21  C   UNL d   1      -3.145   2.321   1.578  0.00  0.00     0.017 A 
ATOM     22  C   UNL d   1      -3.750   3.000   2.641  0.00  0.00     0.025 A 
ATOM     23  C   UNL d   1      -3.107   3.068   3.874  0.00  0.00     0.034 A 
ATOM     24  C   UNL d   1      -1.862   2.465   4.054  0.00  0.00     0.025 A 
ATOM     25 CL   UNL d   1      -3.859   3.878   5.191  0.00  0.00    -0.084 Cl
ATOM     26  C   UNL d   1      -1.254   1.785   2.993  0.00  0.00     0.017 A 
ENDBRANCH  16  20
ENDBRANCH   2  16
TORSDOF 4
