REMARK  2 active torsions:
REMARK  status: ('A' for Active; 'I' for Inactive)
REMARK    1  A    between atoms: C_8  and  C_2 
REMARK    2  A    between atoms: S_9  and  C_5 
ROOT
ATOM      1  N   UNL d   1      -0.628   0.989  -0.533  0.00  0.00    -0.320 N 
ATOM      2  C   UNL d   1      -1.863   0.703  -0.003  0.00  0.00     0.132 A 
ATOM      3  N   UNL d   1      -1.794  -0.485   0.570  0.00  0.00    -0.283 N 
ATOM      4  HN  UNL d   1      -2.554  -0.952   1.065  1.00  0.00     0.188 HD
ATOM      5  C   UNL d   1       0.159  -0.085  -0.268  0.00  0.00     0.157 A 
ATOM      6  N   UNL d   1      -0.523  -0.988   0.388  0.00  0.00    -0.278 N 
ATOM      7  HN  UNL d   1      -0.179  -1.895   0.705  1.00  0.00     0.189 HD
ATOM      8  H   UNL d   1      -0.355   1.838  -1.000  0.00  0.00     0.169 HD
ENDROOT
BRANCH   2   9
ATOM      9  C   UNL d   1      -3.020   1.592  -0.049  0.00  0.00     0.009 A 
ATOM     10  C   UNL d   1      -3.198   2.524  -1.083  0.00  0.00     0.017 A 
ATOM     11  C   UNL d   1      -4.324   3.354  -1.105  0.00  0.00     0.025 A 
ATOM     12  C   UNL d   1      -5.277   3.261  -0.093  0.00  0.00     0.034 A 
ATOM     13  C   UNL d   1      -5.117   2.341   0.939  0.00  0.00     0.025 A 
ATOM     14 CL   UNL d   1      -6.661   4.282  -0.127  0.00  0.00    -0.084 Cl
ATOM     15  C   UNL d   1      -3.995   1.507   0.956  0.00  0.00     0.017 A 
ENDBRANCH   2   9
BRANCH   5  16
ATOM     16  S   UNL d   1       1.807  -0.164  -0.755  0.00  0.00    -0.106 SA
ATOM     17  H   UNL d   1       1.971   1.080  -1.222  0.00  0.00     0.110 HD
ENDBRANCH   5  16
TORSDOF 2
