REMARK  5 active torsions:
REMARK  status: ('A' for Active; 'I' for Inactive)
REMARK    1  A    between atoms: N_2  and  S_1 
REMARK    2  A    between atoms: C_3  and  S_1 
REMARK    3  A    between atoms: C_10  and  N_4 
REMARK    4  A    between atoms: C_16  and  C_10 
REMARK    5  A    between atoms: C_17  and  C_10 
ROOT
ATOM      1  N   UNL d   1       0.147   1.157   0.314  0.00  0.00    -0.303 N 
ATOM      2  N   UNL d   1       0.005   3.504   2.167  0.00  0.00     0.105 N 
ATOM      3  C   UNL d   1       0.108   2.552  -0.218  0.00  0.00     0.165 C 
ATOM      4  C   UNL d   1      -0.247   1.014   1.740  0.00  0.00     0.165 C 
ATOM      5  C   UNL d   1       0.342   2.127   2.622  0.00  0.00     0.294 C 
ATOM      6  C   UNL d   1       0.567   3.619   0.800  0.00  0.00     0.294 C 
ENDROOT
BRANCH   2   7
ATOM      7  C   UNL d   1      -1.468   3.755   2.238  0.00  0.00     0.289 C 
BRANCH   7   8
ATOM      8  C   UNL d   1      -2.021   3.561   3.659  0.00  0.00    -0.021 A 
ATOM      9  C   UNL d   1      -1.550   4.331   4.736  0.00  0.00     0.010 A 
ATOM     10  C   UNL d   1      -2.087   4.173   6.015  0.00  0.00     0.001 A 
ATOM     11  C   UNL d   1      -3.091   3.235   6.239  0.00  0.00     0.000 A 
ATOM     12  C   UNL d   1      -3.555   2.447   5.187  0.00  0.00     0.001 A 
ATOM     13  C   UNL d   1      -3.027   2.610   3.904  0.00  0.00     0.010 A 
ENDBRANCH   7   8
BRANCH   7  14
ATOM     14  C   UNL d   1      -1.953   5.106   1.695  0.00  0.00    -0.021 A 
ATOM     15  C   UNL d   1      -3.216   5.169   1.073  0.00  0.00     0.010 A 
ATOM     16  C   UNL d   1      -3.742   6.384   0.633  0.00  0.00     0.001 A 
ATOM     17  C   UNL d   1      -3.016   7.557   0.810  0.00  0.00     0.000 A 
ATOM     18  C   UNL d   1      -1.768   7.517   1.431  0.00  0.00     0.001 A 
ATOM     19  C   UNL d   1      -1.242   6.301   1.876  0.00  0.00     0.010 A 
ENDBRANCH   7  14
ENDBRANCH   2   7
BRANCH   1  20
ATOM     20  S   UNL d   1       1.402   0.152  -0.214  0.00  0.00     0.267 S 
ATOM     21  O   UNL d   1       1.296  -1.131   0.441  0.00  0.00    -0.200 OA
ATOM     22  O   UNL d   1       2.629   0.923  -0.175  0.00  0.00    -0.200 OA
BRANCH  20  23
ATOM     23  C   UNL d   1       1.132  -0.199  -1.940  0.00  0.00     0.120 A 
ATOM     24  S   UNL d   1      -0.397  -0.858  -2.342  0.00  0.00    -0.088 SA
ATOM     25  C   UNL d   1       0.020  -0.981  -3.998  0.00  0.00     0.051 A 
ATOM     26  C   UNL d   1       1.292  -0.514  -4.245  0.00  0.00     0.009 A 
ATOM     27  C   UNL d   1       1.934  -0.062  -3.056  0.00  0.00     0.033 A 
ENDBRANCH  20  23
ENDBRANCH   1  20
TORSDOF 5
