REMARK  2 active torsions:
REMARK  status: ('A' for Active; 'I' for Inactive)
REMARK    1  A    between atoms: C_6  and  N_1 
REMARK    2  A    between atoms: C_15  and  C_6 
ROOT
ATOM      1  N   UNL d   1       0.086  -1.570  -0.070  0.00  0.00    -0.341 N 
ATOM      2  C   UNL d   1      -0.714   0.514   0.016  0.00  0.00     0.005 A 
ATOM      3  C   UNL d   1       0.714   0.572  -0.025  0.00  0.00     0.005 A 
ATOM      4  C   UNL d   1      -1.083  -0.830  -0.018  0.00  0.00     0.046 A 
ATOM      5  C   UNL d   1       1.188  -0.737  -0.145  0.00  0.00     0.046 A 
ATOM      6  C   UNL d   1       2.556  -1.019  -0.295  0.00  0.00     0.032 A 
ATOM      7  C   UNL d   1      -2.430  -1.234  -0.002  0.00  0.00     0.032 A 
ATOM      8  C   UNL d   1       1.641   1.634   0.007  0.00  0.00     0.038 A 
ATOM      9  C   UNL d   1      -1.722   1.500   0.070  0.00  0.00     0.038 A 
ATOM     10  C   UNL d   1      -3.062   1.104   0.074  0.00  0.00     0.035 A 
ATOM     11  C   UNL d   1       3.005   1.355  -0.104  0.00  0.00     0.035 A 
ATOM     12  C   UNL d   1       3.457   0.050  -0.272  0.00  0.00     0.026 A 
ATOM     13  C   UNL d   1      -3.412  -0.240   0.038  0.00  0.00     0.026 A 
ATOM     14 CL   UNL d   1       4.141   2.647  -0.036  0.00  0.00    -0.084 Cl
ATOM     15 CL   UNL d   1      -4.298   2.304   0.112  0.00  0.00    -0.084 Cl
ENDROOT
BRANCH   1  16
ATOM     16  C   UNL d   1       0.148  -3.029   0.032  0.00  0.00     0.168 C 
BRANCH  16  17
ATOM     17  C   UNL d   1      -0.181  -3.775  -1.241  0.00  0.00    -0.040 A 
ATOM     18  C   UNL d   1      -0.313  -3.159  -2.494  0.00  0.00     0.009 A 
ATOM     19  C   UNL d   1      -0.675  -3.902  -3.619  0.00  0.00     0.001 A 
ATOM     20  C   UNL d   1      -0.887  -5.274  -3.515  0.00  0.00     0.000 A 
ATOM     21  C   UNL d   1      -0.719  -5.910  -2.288  0.00  0.00     0.001 A 
ATOM     22  C   UNL d   1      -0.365  -5.167  -1.161  0.00  0.00     0.009 A 
ENDBRANCH  16  17
ENDBRANCH   1  16
TORSDOF 2
