REMARK  2 active torsions:
REMARK  status: ('A' for Active; 'I' for Inactive)
REMARK    1  A    between atoms: N_3  and  C_1 
REMARK    2  A    between atoms: O_13  and  C_7 
ROOT
ATOM      1  C   UNL d   1      -0.705   1.173   0.006  0.00  0.00     0.132 A 
ATOM      2  C   UNL d   1      -0.737  -1.235  -0.006  0.00  0.00     0.103 A 
ATOM      3  C   UNL d   1      -1.459  -0.026  -0.004  0.00  0.00    -0.002 A 
ATOM      4  N   UNL d   1       1.375  -0.032   0.010  0.00  0.00    -0.337 N 
ATOM      5  HN  UNL d   1       2.395  -0.055   0.014  1.00  0.00     0.168 HD
ATOM      6  C   UNL d   1       0.650  -1.164   0.002  0.00  0.00     0.162 A 
ATOM      7  C   UNL d   1       0.695   1.144   0.013  0.00  0.00     0.041 A 
ATOM      8  C   UNL d   1      -1.371  -2.517  -0.007  0.00  0.00     0.104 C 
ATOM      9  N   UNL d   1      -1.928  -3.536  -0.002  0.00  0.00    -0.191 NA
ATOM     10  C   UNL d   1      -2.968  -0.010  -0.002  0.00  0.00     0.052 C 
ATOM     11  C   UNL d   1       1.558   2.373   0.005  0.00  0.00     0.071 C 
ENDROOT
BRANCH   6  12
ATOM     12  O   UNL d   1       1.427  -2.275   0.002  0.00  0.00    -0.345 OA
ATOM     13  H   UNL d   1       2.318  -1.879   0.009  0.00  0.00     0.219 HD
ENDBRANCH   6  12
BRANCH   1  14
ATOM     14  N   UNL d   1      -1.376   2.459   0.007  0.00  0.00    -0.113 N 
ATOM     15  O   UNL d   1      -2.085   2.727  -0.970  0.00  0.00    -0.532 OA
ATOM     16  O   UNL d   1      -1.190   3.192   0.986  0.00  0.00    -0.532 OA
ENDBRANCH   1  14
TORSDOF 2
