REMARK  7 active torsions:
REMARK  status: ('A' for Active; 'I' for Inactive)
REMARK    1  A    between atoms: C_5  and  C_1 
REMARK    2  A    between atoms: O_15  and  C_1 
REMARK    3  A    between atoms: C_24  and  N_2 
REMARK    4  A    between atoms: C_6  and  C_26 
REMARK    5  A    between atoms: C_7  and  C_6 
REMARK    6  A    between atoms: C_25  and  C_24 
REMARK    7  A    between atoms: C_26  and  C_25 
ROOT
ATOM      1  C   UNL d   1      -1.128  -0.088  -0.597  0.00  0.00     0.088 C 
ATOM      2  N   UNL d   1       1.708  -0.141   0.173  0.00  0.00     0.088 N 
ATOM      3  C   UNL d   1      -0.241   1.170  -0.624  0.00  0.00     0.073 C 
ATOM      4  C   UNL d   1      -0.265  -1.361  -0.620  0.00  0.00     0.073 C 
ATOM      5  C   UNL d   1       0.863  -1.321   0.404  0.00  0.00     0.276 C 
ATOM      6  C   UNL d   1       0.929   1.094   0.365  0.00  0.00     0.276 C 
ENDROOT
BRANCH   2   7
ATOM      7  C   UNL d   1       2.909  -0.147   1.026  0.00  0.00     0.272 C 
BRANCH   7   8
ATOM      8  C   UNL d   1       3.861  -1.325   0.752  0.00  0.00     0.038 C 
BRANCH   8   9
ATOM      9  C   UNL d   1       4.326  -1.388  -0.706  0.00  0.00     0.085 C 
BRANCH   9  10
ATOM     10  C   UNL d   1       5.141  -2.638  -0.999  0.00  0.00     0.159 C 
ATOM     11  O   UNL d   1       5.341  -3.506  -0.152  0.00  0.00    -0.292 OA
BRANCH  10  12
ATOM     12  C   UNL d   1       5.718  -2.810  -2.370  0.00  0.00     0.010 A 
ATOM     13  C   UNL d   1       5.504  -1.877  -3.395  0.00  0.00     0.018 A 
ATOM     14  C   UNL d   1       6.090  -2.067  -4.651  0.00  0.00     0.043 A 
ATOM     15  C   UNL d   1       6.882  -3.186  -4.882  0.00  0.00     0.116 A 
ATOM     16  C   UNL d   1       7.093  -4.128  -3.884  0.00  0.00     0.043 A 
ATOM     17  F   UNL d   1       7.450  -3.354  -6.082  0.00  0.00    -0.206 F 
ATOM     18  C   UNL d   1       6.510  -3.943  -2.628  0.00  0.00     0.018 A 
ENDBRANCH  10  12
ENDBRANCH   9  10
ENDBRANCH   8   9
ENDBRANCH   7   8
ENDBRANCH   2   7
BRANCH   1  19
ATOM     19  C   UNL d   1      -2.143  -0.036  -1.749  0.00  0.00    -0.024 A 
ATOM     20  C   UNL d   1      -1.848  -0.538  -3.031  0.00  0.00     0.012 A 
ATOM     21  C   UNL d   1      -2.786  -0.481  -4.068  0.00  0.00     0.024 A 
ATOM     22  C   UNL d   1      -4.029   0.098  -3.845  0.00  0.00     0.034 A 
ATOM     23  C   UNL d   1      -4.343   0.622  -2.596  0.00  0.00     0.024 A 
ATOM     24 CL   UNL d   1      -5.180   0.173  -5.122  0.00  0.00    -0.084 Cl
ATOM     25  C   UNL d   1      -3.405   0.557  -1.560  0.00  0.00     0.012 A 
ENDBRANCH   1  19
BRANCH   1  26
ATOM     26  O   UNL d   1      -1.883  -0.100   0.628  0.00  0.00    -0.385 OA
ATOM     27  H   UNL d   1      -1.267  -0.081   1.377  0.00  0.00     0.211 HD
ENDBRANCH   1  26
TORSDOF 7
