REMARK  3 active torsions:
REMARK  status: ('A' for Active; 'I' for Inactive)
REMARK    1  A    between atoms: N_9  and  C_2 
REMARK    2  A    between atoms: C_19  and  C_3 
REMARK       I    between atoms: C_4  and  N_8 
REMARK    3  A    between atoms: C_5  and  C_4 
ROOT
ATOM      1  C   UNL d   1       2.265   0.224  -0.420  0.00  0.00     0.048 A 
ATOM      2  C   UNL d   1       1.539   1.434  -0.240  0.00  0.00     0.097 A 
ATOM      3  C   UNL d   1       3.646  -0.197  -0.207  0.00  0.00    -0.003 A 
ATOM      4  C   UNL d   1       1.513  -0.849  -0.889  0.00  0.00     0.089 A 
ATOM      5  C   UNL d   1       3.830  -1.528  -0.548  0.00  0.00     0.065 A 
ATOM      6  S   UNL d   1       2.412  -2.274  -1.115  0.00  0.00    -0.082 SA
ATOM      7  N   UNL d   1       0.202   1.418  -0.492  0.00  0.00    -0.342 N 
ATOM      8  HN  UNL d   1      -0.353   2.261  -0.349  1.00  0.00     0.167 HD
ATOM      9  N   UNL d   1       0.199  -0.869  -1.163  0.00  0.00    -0.346 N 
ATOM     10  HN  UNL d   1      -0.296  -1.690  -1.512  1.00  0.00     0.167 HD
ATOM     11  C   UNL d   1      -0.384   0.298  -0.926  0.00  0.00     0.182 A 
ENDROOT
BRANCH   2  12
ATOM     12  N   UNL d   1       2.104   2.634   0.246  0.00  0.00    -0.265 NA
ATOM     13  C   UNL d   1       1.082   3.466   0.918  0.00  0.00     0.117 C 
ATOM     14  C   UNL d   1       1.712   4.735   1.498  0.00  0.00     0.141 C 
ATOM     15  N   UNL d   1       2.492   5.500   0.517  0.00  0.00    -0.346 N 
ATOM     16  C   UNL d   1       2.767   6.869   0.647  0.00  0.00     0.257 C 
ATOM     17  C   UNL d   1       3.428   4.685  -0.276  0.00  0.00     0.141 C 
ATOM     18  O   UNL d   1       3.736   7.414   0.132  0.00  0.00    -0.267 OA
ATOM     19  C   UNL d   1       2.785   3.390  -0.834  0.00  0.00     0.117 C 
BRANCH  16  20
ATOM     20  C   UNL d   1       1.789   7.732   1.351  0.00  0.00     0.075 A 
ATOM     21  C   UNL d   1       1.674   7.742   2.746  0.00  0.00     0.051 A 
ATOM     22 CL   UNL d   1       2.762   6.888   3.785  0.00  0.00    -0.083 Cl
ATOM     23  C   UNL d   1       0.656   8.479   3.364  0.00  0.00     0.025 A 
ATOM     24  C   UNL d   1      -0.190   9.286   2.605  0.00  0.00     0.003 A 
ATOM     25  C   UNL d   1      -0.009   9.366   1.226  0.00  0.00     0.025 A 
ATOM     26  C   UNL d   1       0.971   8.589   0.596  0.00  0.00     0.051 A 
ATOM     27 CL   UNL d   1       1.097   8.736  -1.123  0.00  0.00    -0.083 Cl
ENDBRANCH  16  20
ENDBRANCH   2  12
BRANCH   3  28
ATOM     28  C   UNL d   1       4.781   0.556   0.332  0.00  0.00    -0.024 A 
ATOM     29  C   UNL d   1       4.646   1.319   1.497  0.00  0.00     0.012 A 
ATOM     30  C   UNL d   1       5.736   2.025   2.014  0.00  0.00     0.001 A 
ATOM     31  C   UNL d   1       6.978   1.954   1.388  0.00  0.00     0.000 A 
ATOM     32  C   UNL d   1       7.133   1.179   0.241  0.00  0.00     0.001 A 
ATOM     33  C   UNL d   1       6.039   0.490  -0.289  0.00  0.00     0.012 A 
ENDBRANCH   3  28
TORSDOF 3
