REMARK  3 active torsions:
REMARK  status: ('A' for Active; 'I' for Inactive)
REMARK    1  A    between atoms: C_3  and  C_1 
REMARK       I    between atoms: C_2  and  N_6 
REMARK    2  A    between atoms: C_9  and  C_2 
REMARK       I    between atoms: N_7  and  C_3 
REMARK    3  A    between atoms: N_6  and  N_7 
ROOT
ATOM      1  C   UNL d   1      -1.532   2.483  -0.026  0.00  0.00     0.277 C 
ATOM      2  N   UNL d   1      -0.962   3.741  -0.105  0.00  0.00    -0.263 N 
ATOM      3  O   UNL d   1      -2.757   2.351   0.018  0.00  0.00    -0.265 OA
ATOM      4  H   UNL d   1       0.047   3.879  -0.165  0.00  0.00     0.190 HD
ENDROOT
BRANCH   2   5
ATOM      5  N   UNL d   1      -1.775   4.876  -0.188  0.00  0.00    -0.265 N 
ATOM      6  C   UNL d   1      -1.172   6.120  -0.188  0.00  0.00     0.269 C 
ATOM      7  O   UNL d   1       0.059   6.231  -0.191  0.00  0.00    -0.269 OA
ATOM      8  H   UNL d   1      -2.781   4.740  -0.063  0.00  0.00     0.190 HD
BRANCH   6   9
ATOM      9  C   UNL d   1      -2.090   7.334  -0.266  0.00  0.00     0.271 C 
ATOM     10 CL   UNL d   1      -2.458   7.661  -1.971  0.00  0.00    -0.098 Cl
ATOM     11 CL   UNL d   1      -3.585   7.077   0.659  0.00  0.00    -0.098 Cl
ENDBRANCH   6   9
ENDBRANCH   2   5
BRANCH   1  12
ATOM     12  C   UNL d   1      -0.603   1.358   0.010  0.00  0.00     0.074 A 
ATOM     13  S   UNL d   1       1.096   1.571  -0.047  0.00  0.00    -0.096 SA
ATOM     14  C   UNL d   1       1.384  -0.109   0.061  0.00  0.00     0.057 A 
ATOM     15  C   UNL d   1       0.219  -0.847   0.136  0.00  0.00    -0.054 A 
ATOM     16  C   UNL d   1      -0.926   0.015   0.093  0.00  0.00     0.031 A 
ATOM     17  C   UNL d   1       0.169  -2.333   0.252  0.00  0.00     0.048 C 
ENDBRANCH   1  12
TORSDOF 3
