REMARK  5 active torsions:
REMARK  status: ('A' for Active; 'I' for Inactive)
REMARK    1  A    between atoms: C_9  and  C_5 
REMARK    2  A    between atoms: O_11  and  C_5 
REMARK    3  A    between atoms: C_14  and  C_7 
REMARK    4  A    between atoms: C_16  and  C_8 
REMARK    5  A    between atoms: C_18  and  O_11 
ROOT
ATOM      1  C   UNL d   1      -2.420   0.680  -0.371  0.00  0.00     0.049 A 
ATOM      2  C   UNL d   1      -1.263   1.502   0.127  0.00  0.00     0.004 C 
ATOM      3  N   UNL d   1      -3.659   1.085  -0.008  0.00  0.00    -0.355 N 
ATOM      4  HN  UNL d   1      -3.783   1.937   0.539  1.00  0.00     0.166 HD
ATOM      5  C   UNL d   1      -1.344   2.796   0.534  0.00  0.00     0.101 C 
ATOM      6  C   UNL d   1      -2.205  -0.485  -1.145  0.00  0.00    -0.020 A 
ATOM      7  C   UNL d   1      -3.320  -1.286  -1.517  0.00  0.00    -0.015 A 
ATOM      8  C   UNL d   1      -4.731   0.347  -0.376  0.00  0.00     0.043 A 
ATOM      9  C   UNL d   1      -4.587  -0.830  -1.113  0.00  0.00     0.043 A 
ATOM     10  C   UNL d   1       0.050   0.744   0.091  0.00  0.00     0.044 C 
ATOM     11  C   UNL d   1      -0.796  -0.877  -1.546  0.00  0.00     0.042 C 
ATOM     12  C   UNL d   1       0.253   0.188  -1.302  0.00  0.00     0.009 C 
ENDROOT
BRANCH   5  13
ATOM     13  C   UNL d   1      -0.139   3.499   0.889  0.00  0.00     0.039 A 
ATOM     14  S   UNL d   1       0.696   4.457  -0.277  0.00  0.00    -0.099 SA
ATOM     15  C   UNL d   1       1.972   4.808   0.812  0.00  0.00     0.050 A 
ATOM     16  C   UNL d   1       1.758   4.256   2.056  0.00  0.00     0.008 A 
ATOM     17  C   UNL d   1       0.563   3.483   2.087  0.00  0.00     0.022 A 
ENDBRANCH   5  13
BRANCH   5  18
ATOM     18  O   UNL d   1      -2.538   3.522   0.483  0.00  0.00    -0.309 OA
BRANCH  18  19
ATOM     19  C   UNL d   1      -2.790   4.521   1.397  0.00  0.00     0.076 A 
ATOM     20  C   UNL d   1      -3.460   5.654   0.934  0.00  0.00     0.039 A 
ATOM     21  C   UNL d   1      -3.698   6.726   1.801  0.00  0.00     0.026 A 
ATOM     22  C   UNL d   1      -3.257   6.663   3.121  0.00  0.00     0.034 A 
ATOM     23  C   UNL d   1      -2.641   5.511   3.604  0.00  0.00     0.026 A 
ATOM     24 CL   UNL d   1      -3.474   8.012   4.166  0.00  0.00    -0.084 Cl
ATOM     25  C   UNL d   1      -2.454   4.423   2.749  0.00  0.00     0.039 A 
ENDBRANCH  18  19
ENDBRANCH   5  18
BRANCH   8  26
ATOM     26  C   UNL d   1      -6.056   0.861   0.043  0.00  0.00    -0.009 A 
ATOM     27  C   UNL d   1      -6.300   2.245   0.137  0.00  0.00     0.013 A 
ATOM     28  C   UNL d   1      -7.549   2.742   0.534  0.00  0.00     0.001 A 
ATOM     29  C   UNL d   1      -8.582   1.867   0.850  0.00  0.00     0.000 A 
ATOM     30  C   UNL d   1      -8.371   0.494   0.766  0.00  0.00     0.001 A 
ATOM     31  C   UNL d   1      -7.123   0.002   0.368  0.00  0.00     0.013 A 
ENDBRANCH   8  26
BRANCH   7  32
ATOM     32  C   UNL d   1      -3.222  -2.535  -2.335  0.00  0.00    -0.025 A 
ATOM     33  C   UNL d   1      -2.220  -3.505  -2.122  0.00  0.00     0.012 A 
ATOM     34  C   UNL d   1      -2.046  -4.595  -2.982  0.00  0.00     0.001 A 
ATOM     35  C   UNL d   1      -2.931  -4.799  -4.032  0.00  0.00     0.000 A 
ATOM     36  C   UNL d   1      -3.996  -3.919  -4.207  0.00  0.00     0.001 A 
ATOM     37  C   UNL d   1      -4.127  -2.797  -3.378  0.00  0.00     0.012 A 
ENDBRANCH   7  32
TORSDOF 5
