REMARK  2 active torsions:
REMARK  status: ('A' for Active; 'I' for Inactive)
REMARK    1  A    between atoms: C_2  and  C_1 
REMARK    2  A    between atoms: O_8  and  C_2 
ROOT
ATOM      1  C   UNL d   1      -1.442  -0.173  -0.071  0.00  0.00     0.055 A 
ATOM      2  C   UNL d   1      -0.637  -1.324  -0.068  0.00  0.00     0.023 A 
ATOM      3  C   UNL d   1      -0.823   1.091  -0.039  0.00  0.00     0.043 A 
ATOM      4  C   UNL d   1       0.759  -1.198  -0.012  0.00  0.00     0.021 A 
ATOM      5  C   UNL d   1       0.564   1.202   0.003  0.00  0.00     0.035 A 
ATOM      6  I   UNL d   1      -1.360  -3.292  -0.214  0.00  0.00    -0.043 I 
ATOM      7  C   UNL d   1       1.358   0.062   0.024  0.00  0.00     0.025 A 
ATOM      8 CL   UNL d   1       1.302   2.757   0.027  0.00  0.00    -0.084 Cl
ENDROOT
BRANCH   1   9
ATOM      9  C   UNL d   1      -2.929  -0.137  -0.140  0.00  0.00     0.177 C 
ATOM     10  O   UNL d   1      -3.523   0.771  -0.699  0.00  0.00    -0.646 OA
BRANCH   9  11
ATOM     11  O   UNL d   1      -3.569  -1.099   0.549  0.00  0.00    -0.773 OA
ATOM     12  H   UNL d   1      -2.997  -1.793   0.927  0.00  0.00     0.167 HD
ENDBRANCH   9  11
ENDBRANCH   1   9
TORSDOF 2
