REMARK  7 active torsions:
REMARK  status: ('A' for Active; 'I' for Inactive)
REMARK    1  A    between atoms: C_12  and  C_1 
REMARK    2  A    between atoms: C_5  and  N_3 
REMARK    3  A    between atoms: N_10  and  C_5 
REMARK    4  A    between atoms: C_17  and  N_10 
REMARK    5  A    between atoms: C_11  and  C_15 
REMARK    6  A    between atoms: O_20  and  C_11 
REMARK    7  A    between atoms: C_27  and  O_20 
ROOT
ATOM      1  C   UNL d   1      -0.878  -1.507  -0.464  0.00  0.00     0.139 C 
ATOM      2  N   UNL d   1      -1.599  -0.398  -1.122  0.00  0.00    -0.216 NA
ATOM      3  N   UNL d   1      -1.722  -1.818   0.720  0.00  0.00    -0.227 NA
ATOM      4  C   UNL d   1      -0.720   0.613  -1.513  0.00  0.00     0.236 C 
ATOM      5  C   UNL d   1       0.445  -0.822  -0.124  0.00  0.00     0.000 A 
ATOM      6  C   UNL d   1       0.558   0.360  -0.857  0.00  0.00     0.036 A 
ATOM      7  C   UNL d   1      -2.675   0.071  -0.252  0.00  0.00     0.116 C 
ATOM      8  C   UNL d   1      -2.309  -0.531   1.105  0.00  0.00     0.115 C 
ATOM      9  O   UNL d   1      -0.991   1.633  -2.118  0.00  0.00    -0.274 OA
ATOM     10  C   UNL d   1       1.484  -1.198   0.716  0.00  0.00     0.012 A 
ATOM     11  C   UNL d   1       1.653   1.201  -0.792  0.00  0.00     0.017 A 
ATOM     12  C   UNL d   1       2.613  -0.369   0.792  0.00  0.00     0.001 A 
ATOM     13  C   UNL d   1       2.698   0.820   0.043  0.00  0.00     0.001 A 
ENDROOT
BRANCH   3  14
ATOM     14  C   UNL d   1      -2.700  -2.833   0.780  0.00  0.00     0.155 C 
ATOM     15  S   UNL d   1      -3.138  -3.475   2.278  0.00  0.00    -0.047 SA
BRANCH  14  16
ATOM     16  N   UNL d   1      -3.253  -3.229  -0.427  0.00  0.00    -0.338 N 
ATOM     17  H   UNL d   1      -2.592  -3.628  -1.082  0.00  0.00     0.168 HD
BRANCH  16  18
ATOM     18  C   UNL d   1      -4.575  -3.685  -0.637  0.00  0.00     0.033 A 
ATOM     19  C   UNL d   1      -5.669  -3.070  -0.027  0.00  0.00     0.030 A 
ATOM     20  C   UNL d   1      -6.958  -3.570  -0.230  0.00  0.00     0.020 A 
ATOM     21  C   UNL d   1      -7.166  -4.695  -1.036  0.00  0.00     0.039 A 
ATOM     22  C   UNL d   1      -6.078  -5.266  -1.708  0.00  0.00     0.020 A 
ATOM     23  C   UNL d   1      -4.790  -4.746  -1.526  0.00  0.00     0.030 A 
BRANCH  21  24
ATOM     24  C   UNL d   1      -8.538  -5.281  -1.073  0.00  0.00     0.293 C 
ATOM     25  O   UNL d   1      -9.475  -4.811  -0.444  0.00  0.00    -0.259 OA
BRANCH  24  26
ATOM     26  O   UNL d   1      -8.563  -6.421  -1.800  0.00  0.00    -0.318 OA
BRANCH  26  27
ATOM     27  C   UNL d   1      -9.743  -7.229  -1.635  0.00  0.00     0.174 C 
ATOM     28  C   UNL d   1     -10.904  -6.726  -2.472  0.00  0.00     0.034 C 
ENDBRANCH  26  27
ENDBRANCH  24  26
ENDBRANCH  21  24
ENDBRANCH  16  18
ENDBRANCH  14  16
ENDBRANCH   3  14
BRANCH   1  29
ATOM     29  C   UNL d   1      -0.550  -2.713  -1.361  0.00  0.00    -0.015 A 
ATOM     30  C   UNL d   1      -0.755  -2.693  -2.752  0.00  0.00     0.011 A 
ATOM     31  C   UNL d   1      -0.490  -3.825  -3.529  0.00  0.00     0.001 A 
ATOM     32  C   UNL d   1      -0.011  -4.991  -2.935  0.00  0.00     0.000 A 
ATOM     33  C   UNL d   1       0.217  -5.029  -1.564  0.00  0.00     0.001 A 
ATOM     34  C   UNL d   1      -0.042  -3.900  -0.786  0.00  0.00     0.011 A 
ENDBRANCH   1  29
TORSDOF 7
