REMARK  2 active torsions:
REMARK  status: ('A' for Active; 'I' for Inactive)
REMARK    1  A    between atoms: C_11  and  C_1 
REMARK    2  A    between atoms: C_12  and  C_4 
REMARK       I    between atoms: N_13  and  C_11 
ROOT
ATOM      1  C   UNL d   1      -2.133   0.085  -0.279  0.00  0.00     0.100 A 
ATOM      2  C   UNL d   1       0.089  -0.860  -0.638  0.00  0.00     0.172 A 
ATOM      3  N   UNL d   1       0.092   0.331   0.023  0.00  0.00    -0.235 N 
ATOM      4  C   UNL d   1       2.054  -0.435  -0.076  0.00  0.00     0.207 A 
ATOM      5  N   UNL d   1       1.272  -1.395  -0.719  0.00  0.00    -0.316 N 
ATOM      6  HN  UNL d   1       1.553  -2.280  -1.141  1.00  0.00     0.169 HD
ATOM      7  N   UNL d   1       1.358   0.644   0.370  0.00  0.00    -0.273 N 
ATOM      8  HN  UNL d   1       1.704   1.478   0.846  1.00  0.00     0.189 HD
ATOM      9  C   UNL d   1      -1.162   0.900   0.201  0.00  0.00     0.055 A 
ATOM     10  S   UNL d   1      -1.491  -1.328  -1.137  0.00  0.00    -0.044 SA
ATOM     11  C   UNL d   1      -1.305   2.242   0.832  0.00  0.00     0.072 C 
ENDROOT
BRANCH   1  12
ATOM     12  C   UNL d   1      -3.595   0.404  -0.268  0.00  0.00     0.262 C 
ATOM     13  N   UNL d   1      -4.548  -0.583   0.005  0.00  0.00    -0.347 N 
ATOM     14  C   UNL d   1      -5.940  -0.252  -0.323  0.00  0.00     0.126 C 
ATOM     15  C   UNL d   1      -4.267  -2.009   0.205  0.00  0.00     0.126 C 
ATOM     16  C   UNL d   1      -6.950  -0.943   0.587  0.00  0.00     0.020 C 
ATOM     17  C   UNL d   1      -6.721  -2.447   0.615  0.00  0.00     0.003 C 
ATOM     18  C   UNL d   1      -5.298  -2.736   1.063  0.00  0.00     0.020 C 
ATOM     19  O   UNL d   1      -3.921   1.576  -0.477  0.00  0.00    -0.267 OA
ENDBRANCH   1  12
BRANCH   4  20
ATOM     20  C   UNL d   1       3.550  -0.604   0.096  0.00  0.00     0.450 C 
ATOM     21  F   UNL d   1       3.963  -1.878  -0.155  0.00  0.00    -0.163 F 
ATOM     22  F   UNL d   1       4.253   0.202  -0.746  0.00  0.00    -0.163 F 
ATOM     23  F   UNL d   1       3.967  -0.312   1.359  0.00  0.00    -0.163 F 
ENDBRANCH   4  20
TORSDOF 2
