REMARK  2 active torsions:
REMARK  status: ('A' for Active; 'I' for Inactive)
REMARK    1  A    between atoms: C_2  and  C_1 
REMARK       I    between atoms: N_3  and  C_1 
REMARK    2  A    between atoms: C_4  and  N_3 
ROOT
ATOM      1  C   UNL d   1       0.996   0.316  -0.024  0.00  0.00     0.257 C 
ATOM      2  N   UNL d   1       0.444   0.057   1.216  0.00  0.00    -0.321 N 
ATOM      3  O   UNL d   1       2.024   0.972  -0.180  0.00  0.00    -0.267 OA
ATOM      4  H   UNL d   1      -0.193  -0.729   1.308  0.00  0.00     0.169 HD
ENDROOT
BRANCH   1   5
ATOM      5  C   UNL d   1       0.306  -0.219  -1.243  0.00  0.00     0.054 A 
ATOM      6  C   UNL d   1      -0.873  -0.978  -1.285  0.00  0.00     0.049 A 
ATOM      7 CL   UNL d   1      -1.693  -1.595   0.106  0.00  0.00    -0.083 Cl
ATOM      8  C   UNL d   1      -1.464  -1.294  -2.521  0.00  0.00     0.025 A 
ATOM      9  C   UNL d   1      -0.889  -0.872  -3.720  0.00  0.00     0.002 A 
ATOM     10  C   UNL d   1       0.294  -0.149  -3.696  0.00  0.00     0.001 A 
ATOM     11  C   UNL d   1       0.884   0.171  -2.472  0.00  0.00     0.019 A 
ENDBRANCH   1   5
BRANCH   2  12
ATOM     12  C   UNL d   1       0.777   0.726   2.421  0.00  0.00     0.056 A 
ATOM     13  C   UNL d   1       0.470   0.128   3.654  0.00  0.00     0.060 A 
ATOM     14 CL   UNL d   1      -0.238  -1.449   3.737  0.00  0.00    -0.082 Cl
ATOM     15  C   UNL d   1       0.761   0.786   4.855  0.00  0.00     0.026 A 
ATOM     16  C   UNL d   1       1.328   2.059   4.836  0.00  0.00     0.002 A 
ATOM     17  C   UNL d   1       1.612   2.672   3.618  0.00  0.00     0.002 A 
ATOM     18  C   UNL d   1       1.343   2.005   2.418  0.00  0.00     0.031 A 
ENDBRANCH   2  12
TORSDOF 2
