REMARK  7 active torsions:
REMARK  status: ('A' for Active; 'I' for Inactive)
REMARK       I    between atoms: N_2  and  C_1 
REMARK    1  A    between atoms: C_9  and  C_1 
REMARK    2  A    between atoms: C_5  and  N_2 
REMARK    3  A    between atoms: C_3  and  C_8 
REMARK    4  A    between atoms: O_16  and  C_3 
REMARK    5  A    between atoms: N_4  and  C_9 
REMARK    6  A    between atoms: O_7  and  C_6 
REMARK    7  A    between atoms: C_17  and  O_7 
ROOT
ATOM      1  C   UNL d   1       0.811  -0.779   0.230  0.00  0.00     0.250 C 
ATOM      2  N   UNL d   1       0.261   0.160   1.066  0.00  0.00    -0.323 N 
ATOM      3  O   UNL d   1       1.959  -1.158   0.472  0.00  0.00    -0.271 OA
ATOM      4  H   UNL d   1       0.977   0.646   1.591  0.00  0.00     0.169 HD
ENDROOT
BRANCH   2   5
ATOM      5  C   UNL d   1      -1.030   0.708   1.035  0.00  0.00     0.069 A 
ATOM      6  C   UNL d   1      -2.233  -0.021   0.955  0.00  0.00     0.102 A 
ATOM      7  C   UNL d   1      -3.436   0.675   0.759  0.00  0.00     0.039 A 
ATOM      8  C   UNL d   1      -3.459   2.067   0.688  0.00  0.00     0.003 A 
ATOM      9  C   UNL d   1      -2.281   2.786   0.844  0.00  0.00     0.002 A 
ATOM     10  C   UNL d   1      -1.077   2.111   1.046  0.00  0.00     0.032 A 
BRANCH   6  11
ATOM     11  O   UNL d   1      -2.407  -1.388   0.919  0.00  0.00    -0.309 OA
BRANCH  11  12
ATOM     12  C   UNL d   1      -1.677  -2.268   1.677  0.00  0.00     0.076 A 
ATOM     13  C   UNL d   1      -1.049  -1.982   2.886  0.00  0.00     0.037 A 
ATOM     14  C   UNL d   1      -0.288  -2.969   3.523  0.00  0.00     0.003 A 
ATOM     15  C   UNL d   1      -0.194  -4.251   2.980  0.00  0.00     0.000 A 
ATOM     16  C   UNL d   1      -0.873  -4.559   1.805  0.00  0.00     0.003 A 
ATOM     17  C   UNL d   1      -1.617  -3.570   1.161  0.00  0.00     0.037 A 
ENDBRANCH  11  12
ENDBRANCH   6  11
ENDBRANCH   2   5
BRANCH   1  18
ATOM     18  C   UNL d   1       0.024  -1.251  -1.001  0.00  0.00     0.374 C 
BRANCH  18  19
ATOM     19  N   UNL d   1       0.652  -0.852  -2.291  0.00  0.00     0.097 N 
ATOM     20  C   UNL d   1       1.905  -1.588  -2.506  0.00  0.00     0.273 C 
ATOM     21  C   UNL d   1       2.507  -1.290  -3.879  0.00  0.00     0.045 C 
ATOM     22  C   UNL d   1       1.522  -1.558  -5.018  0.00  0.00     0.087 C 
ATOM     23  C   UNL d   1       0.214  -0.815  -4.741  0.00  0.00     0.045 C 
ATOM     24  C   UNL d   1      -0.331  -1.137  -3.353  0.00  0.00     0.273 C 
BRANCH  22  25
ATOM     25  C   UNL d   1       1.287  -3.048  -5.240  0.00  0.00     0.143 C 
ATOM     26  O   UNL d   1       0.203  -3.613  -5.161  0.00  0.00    -0.650 OA
BRANCH  25  27
ATOM     27  O   UNL d   1       2.405  -3.717  -5.596  0.00  0.00    -0.776 OA
ATOM     28  H   UNL d   1       3.196  -3.156  -5.683  0.00  0.00     0.167 HD
ENDBRANCH  25  27
ENDBRANCH  22  25
ENDBRANCH  18  19
ENDBRANCH   1  18
TORSDOF 7
