REMARK  2 active torsions:
REMARK  status: ('A' for Active; 'I' for Inactive)
REMARK    1  A    between atoms: C_5  and  C_1 
REMARK    2  A    between atoms: C_7  and  C_2 
ROOT
ATOM      1  N   UNL d   1       7.745   0.138  -0.463  0.00  0.00    -0.191 NA
ATOM      2  C   UNL d   1       6.593   0.124  -0.322  0.00  0.00     0.099 C 
ATOM      3  C   UNL d   1       2.374   0.073   0.108  0.00  0.00     0.018 A 
ATOM      4  C   UNL d   1       5.168   0.107  -0.154  0.00  0.00     0.044 A 
ATOM      5  C   UNL d   1       3.060   1.290   0.055  0.00  0.00     0.022 A 
ATOM      6  C   UNL d   1       3.089  -1.127   0.050  0.00  0.00     0.022 A 
ATOM      7  C   UNL d   1       4.483  -1.111  -0.080  0.00  0.00     0.024 A 
ATOM      8  C   UNL d   1       4.453   1.308  -0.078  0.00  0.00     0.024 A 
ENDROOT
BRANCH   3   9
ATOM      9  C   UNL d   1       0.943   0.055   0.178  0.00  0.00    -0.061 C 
ATOM     10  C   UNL d   1      -0.259   0.038   0.176  0.00  0.00    -0.061 C 
BRANCH  10  11
ATOM     11  C   UNL d   1      -1.690   0.018   0.107  0.00  0.00     0.018 A 
ATOM     12  C   UNL d   1      -2.374  -1.199   0.056  0.00  0.00     0.020 A 
ATOM     13  C   UNL d   1      -3.767  -1.218  -0.065  0.00  0.00     0.001 A 
ATOM     14  C   UNL d   1      -4.478  -0.020  -0.130  0.00  0.00     0.000 A 
ATOM     15  C   UNL d   1      -3.800   1.197  -0.067  0.00  0.00     0.001 A 
ATOM     16  C   UNL d   1      -2.407   1.216   0.052  0.00  0.00     0.020 A 
ENDBRANCH  10  11
ENDBRANCH   3   9
TORSDOF 2
