REMARK  5 active torsions:
REMARK  status: ('A' for Active; 'I' for Inactive)
REMARK       I    between atoms: N_2  and  C_1 
REMARK       I    between atoms: N_4  and  C_1 
REMARK    1  A    between atoms: C_3  and  N_2 
REMARK    2  A    between atoms: C_8  and  N_4 
REMARK    3  A    between atoms: S_7  and  C_6 
REMARK    4  A    between atoms: C_9  and  C_8 
REMARK    5  A    between atoms: O_15  and  C_10 
ROOT
ATOM      1  C   UNL d   1       0.963   0.327  -0.399  0.00  0.00     0.321 C 
ATOM      2  N   UNL d   1       0.324  -0.528  -1.255  0.00  0.00    -0.308 N 
ATOM      3  N   UNL d   1       0.170   1.140   0.344  0.00  0.00    -0.339 N 
ATOM      4  O   UNL d   1       2.180   0.435  -0.278  0.00  0.00    -0.247 OA
ATOM      5  H   UNL d   1      -0.520  -0.168  -1.686  0.00  0.00     0.170 HD
ATOM      6  H   UNL d   1       0.708   1.764   0.932  0.00  0.00     0.164 HD
ENDROOT
BRANCH   2   7
ATOM      7  C   UNL d   1       0.999  -1.523  -1.997  0.00  0.00     0.053 A 
ATOM      8  C   UNL d   1       0.599  -1.821  -3.314  0.00  0.00     0.027 A 
ATOM      9  C   UNL d   1       1.280  -2.817  -4.027  0.00  0.00     0.021 A 
ATOM     10  C   UNL d   1       2.330  -3.527  -3.435  0.00  0.00     0.002 A 
ATOM     11  C   UNL d   1       2.701  -3.252  -2.122  0.00  0.00     0.002 A 
ATOM     12  C   UNL d   1       2.042  -2.252  -1.410  0.00  0.00     0.031 A 
BRANCH   8  13
ATOM     13  S   UNL d   1      -0.746  -0.971  -4.143  0.00  0.00    -0.132 SA
ATOM     14  C   UNL d   1       0.022   0.652  -4.406  0.00  0.00     0.095 C 
ENDBRANCH   8  13
ENDBRANCH   2   7
BRANCH   3  15
ATOM     15  C   UNL d   1      -1.238   1.013   0.641  0.00  0.00     0.162 C 
BRANCH  15  16
ATOM     16  C   UNL d   1      -1.956   2.306   0.364  0.00  0.00    -0.040 A 
ATOM     17  C   UNL d   1      -1.936   2.864  -0.922  0.00  0.00     0.011 A 
ATOM     18  C   UNL d   1      -2.611   4.055  -1.199  0.00  0.00     0.037 A 
ATOM     19  C   UNL d   1      -3.322   4.706  -0.193  0.00  0.00     0.068 A 
ATOM     20  C   UNL d   1      -3.342   4.158   1.092  0.00  0.00     0.037 A 
ATOM     21  C   UNL d   1      -2.667   2.967   1.372  0.00  0.00     0.011 A 
BRANCH  19  22
ATOM     22  O   UNL d   1      -4.028   5.870  -0.334  0.00  0.00    -0.356 OA
ATOM     23  C   UNL d   1      -4.076   6.432  -1.639  0.00  0.00     0.210 C 
ENDBRANCH  19  22
ENDBRANCH  15  16
ENDBRANCH   3  15
TORSDOF 5
