REMARK  5 active torsions:
REMARK  status: ('A' for Active; 'I' for Inactive)
REMARK    1  A    between atoms: N_9  and  C_1 
REMARK       I    between atoms: C_2  and  N_8 
REMARK       I    between atoms: N_13  and  C_2 
REMARK    2  A    between atoms: C_6  and  C_3 
REMARK    3  A    between atoms: C_11  and  O_19 
REMARK    4  A    between atoms: C_23  and  N_13 
REMARK    5  A    between atoms: O_19  and  C_27 
ROOT
ATOM      1  C   UNL d   1      -0.847  -6.976   0.929  0.00  0.00     0.323 C 
ATOM      2  N   UNL d   1      -0.908  -5.651   0.519  0.00  0.00    -0.331 N 
ATOM      3  N   UNL d   1      -0.993  -2.816   0.091  0.00  0.00    -0.377 N 
ATOM      4  N   UNL d   1      -1.696  -7.848   0.291  0.00  0.00    -0.309 N 
ATOM      5  O   UNL d   1      -0.077  -7.309   1.827  0.00  0.00    -0.247 OA
ATOM      6  C   UNL d   1      -1.599  -5.093  -0.661  0.00  0.00     0.147 C 
ATOM      7  C   UNL d   1       0.095  -4.747   1.112  0.00  0.00     0.147 C 
ATOM      8  C   UNL d   1      -2.095  -3.639  -0.441  0.00  0.00     0.143 C 
ATOM      9  C   UNL d   1      -0.484  -3.352   1.374  0.00  0.00     0.143 C 
ATOM     10  H   UNL d   1      -2.283  -7.481  -0.436  0.00  0.00     0.170 HD
ENDROOT
BRANCH   4  11
ATOM     11  C   UNL d   1      -1.836  -9.234   0.538  0.00  0.00     0.036 A 
ATOM     12  C   UNL d   1      -1.117  -9.940   1.506  0.00  0.00     0.032 A 
ATOM     13  C   UNL d   1      -1.302 -11.318   1.688  0.00  0.00     0.039 A 
ATOM     14  C   UNL d   1      -2.234 -12.008   0.919  0.00  0.00     0.078 A 
ATOM     15  C   UNL d   1      -2.949 -11.308  -0.057  0.00  0.00     0.039 A 
ATOM     16  C   UNL d   1      -2.755  -9.935  -0.245  0.00  0.00     0.032 A 
BRANCH  14  17
ATOM     17  O   UNL d   1      -2.558 -13.328   1.016  0.00  0.00    -0.255 OA
BRANCH  17  18
ATOM     18  C   UNL d   1      -1.972 -14.097   2.052  0.00  0.00     0.530 C 
ATOM     19  F   UNL d   1      -2.048 -13.481   3.251  0.00  0.00    -0.144 F 
ATOM     20  F   UNL d   1      -2.644 -15.266   2.147  0.00  0.00    -0.144 F 
ATOM     21  F   UNL d   1      -0.682 -14.374   1.767  0.00  0.00    -0.144 F 
ENDBRANCH  17  18
ENDBRANCH  14  17
ENDBRANCH   4  11
BRANCH   3  22
ATOM     22  C   UNL d   1      -1.057  -1.415   0.040  0.00  0.00     0.045 A 
ATOM     23  C   UNL d   1      -2.275  -0.732   0.037  0.00  0.00     0.064 A 
ATOM     24  C   UNL d   1      -2.291   0.657   0.033  0.00  0.00     0.119 A 
ATOM     25  N   UNL d   1      -1.149   1.396   0.051  0.00  0.00    -0.352 N 
ATOM     26  C   UNL d   1       0.032   0.762   0.032  0.00  0.00     0.045 A 
ATOM     27  HN  UNL d   1      -1.190   2.415   0.077  1.00  0.00     0.166 HD
ATOM     28  C   UNL d   1       0.142  -0.644  -0.001  0.00  0.00     0.017 A 
ATOM     29  C   UNL d   1       1.191   1.527   0.036  0.00  0.00     0.030 A 
ATOM     30  C   UNL d   1       1.437  -1.212  -0.097  0.00  0.00     0.016 A 
ATOM     31  C   UNL d   1       2.587  -0.426  -0.087  0.00  0.00     0.001 A 
ATOM     32  C   UNL d   1       2.463   0.951  -0.011  0.00  0.00     0.002 A 
BRANCH  24  33
ATOM     33  C   UNL d   1      -3.637   1.373  -0.001  0.00  0.00     0.432 C 
ATOM     34  F   UNL d   1      -3.559   2.732   0.010  0.00  0.00    -0.165 F 
ATOM     35  F   UNL d   1      -4.364   1.050  -1.109  0.00  0.00    -0.165 F 
ATOM     36  F   UNL d   1      -4.429   1.037   1.060  0.00  0.00    -0.165 F 
ENDBRANCH  24  33
ENDBRANCH   3  22
TORSDOF 5
