REMARK  0 active torsions:
REMARK  status: ('A' for Active; 'I' for Inactive)
ROOT
ATOM      1  C   UNL d   1       0.730   0.755   1.121  0.00  0.00     0.020 C 
ATOM      2  C   UNL d   1      -1.507   0.282   0.104  0.00  0.00     0.020 C 
ATOM      3  C   UNL d   1      -0.778   1.037   1.228  0.00  0.00     0.042 C 
ATOM      4  C   UNL d   1       0.520   0.485  -1.371  0.00  0.00    -0.011 C 
ATOM      5  C   UNL d   1       0.253  -1.515   0.148  0.00  0.00    -0.011 C 
ATOM      6  C   UNL d   1       0.987  -0.754   1.269  0.00  0.00     0.026 C 
ATOM      7  C   UNL d   1       1.253   1.236  -0.243  0.00  0.00     0.026 C 
ATOM      8  C   UNL d   1      -0.992   0.762  -1.263  0.00  0.00     0.026 C 
ATOM      9  C   UNL d   1      -1.257  -1.229   0.249  0.00  0.00     0.026 C 
ATOM     10  C   UNL d   1       0.770  -1.026  -1.217  0.00  0.00     0.009 C 
ATOM     11 BR   UNL d   1      -3.424   0.632   0.229  0.00  0.00    -0.085 Br
ATOM     12 BR   UNL d   1       1.668   1.709   2.543  0.00  0.00    -0.085 Br
ENDROOT
TORSDOF 0
