REMARK  5 active torsions:
REMARK  status: ('A' for Active; 'I' for Inactive)
REMARK       I    between atoms: N_3  and  C_1 
REMARK    1  A    between atoms: C_7  and  C_1 
REMARK    2  A    between atoms: C_2  and  C_8 
REMARK    3  A    between atoms: O_9  and  C_2 
REMARK    4  A    between atoms: C_6  and  N_3 
REMARK    5  A    between atoms: C_8  and  C_7 
ROOT
ATOM      1  C   UNL d   1       1.041   0.099   0.079  0.00  0.00     0.222 C 
ATOM      2  N   UNL d   1       0.316   1.141  -0.456  0.00  0.00    -0.327 N 
ATOM      3  O   UNL d   1       2.268   0.032   0.149  0.00  0.00    -0.273 OA
ATOM      4  H   UNL d   1      -0.687   1.167  -0.255  0.00  0.00     0.169 HD
ENDROOT
BRANCH   2   5
ATOM      5  C   UNL d   1       0.786   2.146  -1.330  0.00  0.00     0.034 A 
ATOM      6  C   UNL d   1       2.040   2.103  -1.939  0.00  0.00     0.030 A 
ATOM      7  C   UNL d   1       2.376   3.026  -2.937  0.00  0.00     0.009 A 
ATOM      8  C   UNL d   1       1.466   4.010  -3.334  0.00  0.00    -0.062 A 
ATOM      9  C   UNL d   1       0.244   4.109  -2.662  0.00  0.00     0.009 A 
ATOM     10  C   UNL d   1       1.806   4.926  -4.472  0.00  0.00     0.048 C 
ATOM     11  C   UNL d   1      -0.097   3.175  -1.676  0.00  0.00     0.030 A 
ENDBRANCH   2   5
BRANCH   1  12
ATOM     12  C   UNL d   1       0.195  -1.060   0.583  0.00  0.00     0.113 C 
BRANCH  12  13
ATOM     13  C   UNL d   1      -0.521  -0.793   1.901  0.00  0.00     0.119 C 
BRANCH  13  14
ATOM     14  C   UNL d   1      -1.770   0.029   1.723  0.00  0.00     0.139 C 
ATOM     15  O   UNL d   1      -2.075   0.616   0.693  0.00  0.00    -0.650 OA
BRANCH  14  16
ATOM     16  O   UNL d   1      -2.524   0.093   2.839  0.00  0.00    -0.776 OA
ATOM     17  H   UNL d   1      -2.159  -0.398   3.601  0.00  0.00     0.167 HD
ENDBRANCH  14  16
ENDBRANCH  13  14
ENDBRANCH  12  13
ENDBRANCH   1  12
TORSDOF 5
