REMARK  9 active torsions:
REMARK  status: ('A' for Active; 'I' for Inactive)
REMARK    1  A    between atoms: N_2  and  C_1 
REMARK    2  A    between atoms: C_3  and  C_1 
REMARK    3  A    between atoms: N_5  and  C_1 
REMARK    4  A    between atoms: C_6  and  C_1 
REMARK       I    between atoms: C_4  and  N_2 
REMARK    5  A    between atoms: C_7  and  C_4 
REMARK    6  A    between atoms: C_14  and  N_5 
REMARK    7  A    between atoms: O_16  and  C_6 
REMARK    8  A    between atoms: C_18  and  C_14 
REMARK    9  A    between atoms: C_22  and  O_16 
ROOT
ATOM      1  C   UNL d   1       1.110  -0.040   0.007  0.00  0.00     0.416 C 
ENDROOT
BRANCH   1   2
ATOM      2  N   UNL d   1       0.693   0.064  -1.432  0.00  0.00    -0.306 N 
ATOM      3  C   UNL d   1       0.984   1.087  -2.307  0.00  0.00     0.254 C 
ATOM      4  O   UNL d   1       1.538   2.137  -1.997  0.00  0.00    -0.268 OA
ATOM      5  H   UNL d   1       0.433  -0.824  -1.843  0.00  0.00     0.166 HD
BRANCH   3   6
ATOM      6  C   UNL d   1       0.621   0.845  -3.741  0.00  0.00     0.033 A 
ATOM      7  C   UNL d   1      -0.425  -0.009  -4.114  0.00  0.00     0.041 A 
ATOM      8  C   UNL d   1      -0.706  -0.217  -5.467  0.00  0.00     0.035 A 
ATOM      9 CL   UNL d   1      -1.993  -1.268  -5.919  0.00  0.00    -0.084 Cl
ATOM     10  C   UNL d   1       0.039   0.423  -6.460  0.00  0.00     0.024 A 
ATOM     11  C   UNL d   1       1.063   1.292  -6.093  0.00  0.00     0.003 A 
ATOM     12  C   UNL d   1       1.349   1.508  -4.740  0.00  0.00     0.017 A 
ENDBRANCH   3   6
ENDBRANCH   1   2
BRANCH   1  13
ATOM     13  C   UNL d   1       0.561  -1.428   0.559  0.00  0.00     0.453 C 
ATOM     14  F   UNL d   1      -0.068  -2.104  -0.450  0.00  0.00    -0.166 F 
ATOM     15  F   UNL d   1       1.488  -2.281   1.039  0.00  0.00    -0.166 F 
ATOM     16  F   UNL d   1      -0.376  -1.266   1.526  0.00  0.00    -0.166 F 
ENDBRANCH   1  13
BRANCH   1  17
ATOM     17  N   UNL d   1       0.580   1.198   0.637  0.00  0.00     0.136 N 
ATOM     18  H   UNL d   1      -0.418   1.258   0.450  0.00  0.00     0.320 HD
BRANCH  17  19
ATOM     19  C   UNL d   1       0.815   1.334   2.071  0.00  0.00     0.312 C 
BRANCH  19  20
ATOM     20  C   UNL d   1       0.197   2.602   2.618  0.00  0.00    -0.030 A 
ATOM     21  C   UNL d   1      -0.811   2.551   3.591  0.00  0.00     0.009 A 
ATOM     22  C   UNL d   1      -1.326   3.728   4.141  0.00  0.00     0.001 A 
ATOM     23  C   UNL d   1      -0.840   4.965   3.723  0.00  0.00     0.000 A 
ATOM     24  C   UNL d   1       0.152   5.029   2.746  0.00  0.00     0.001 A 
ATOM     25  C   UNL d   1       0.665   3.854   2.194  0.00  0.00     0.009 A 
ENDBRANCH  19  20
ENDBRANCH  17  19
ENDBRANCH   1  17
BRANCH   1  26
ATOM     26  C   UNL d   1       2.665  -0.132   0.097  0.00  0.00     0.329 C 
ATOM     27  O   UNL d   1       3.447   0.077  -0.824  0.00  0.00    -0.260 OA
BRANCH  26  28
ATOM     28  O   UNL d   1       3.069  -0.483   1.359  0.00  0.00    -0.318 OA
BRANCH  28  29
ATOM     29  C   UNL d   1       4.483  -0.625   1.566  0.00  0.00     0.174 C 
ATOM     30  C   UNL d   1       5.010   0.666   2.155  0.00  0.00     0.034 C 
ENDBRANCH  28  29
ENDBRANCH  26  28
ENDBRANCH   1  26
TORSDOF 9
