REMARK  7 active torsions:
REMARK  status: ('A' for Active; 'I' for Inactive)
REMARK    1  A    between atoms: C_2  and  C_1 
REMARK    2  A    between atoms: O_3  and  C_2 
REMARK    3  A    between atoms: C_8  and  O_3 
REMARK    4  A    between atoms: C_4  and  C_8 
REMARK    5  A    between atoms: C_10  and  C_4 
REMARK    6  A    between atoms: O_12  and  C_5 
REMARK    7  A    between atoms: O_11  and  C_6 
ROOT
ATOM      1  C   UNL d   1       3.109  -0.120   0.524  0.00  0.00     0.299 C 
ATOM      2  O   UNL d   1       3.896  -1.053   0.487  0.00  0.00    -0.259 OA
ENDROOT
BRANCH   1   3
ATOM      3  C   UNL d   1       1.706  -0.132   0.041  0.00  0.00     0.106 C 
ATOM      4  C   UNL d   1       0.873  -1.230   0.309  0.00  0.00     0.087 C 
ATOM      5  C   UNL d   1      -0.511  -1.130   0.115  0.00  0.00     0.038 C 
ATOM      6  C   UNL d   1      -1.071   0.045  -0.384  0.00  0.00     0.006 C 
ATOM      7  C   UNL d   1      -0.242   1.106  -0.739  0.00  0.00     0.038 C 
ATOM      8  C   UNL d   1       1.142   1.005  -0.568  0.00  0.00     0.087 C 
BRANCH   4   9
ATOM      9  O   UNL d   1       1.307  -2.401   0.875  0.00  0.00    -0.355 OA
ATOM     10  C   UNL d   1       2.084  -3.187  -0.036  0.00  0.00     0.210 C 
ENDBRANCH   4   9
BRANCH   8  11
ATOM     11  O   UNL d   1       1.864   2.097  -0.983  0.00  0.00    -0.355 OA
ATOM     12  C   UNL d   1       2.754   1.757  -2.050  0.00  0.00     0.210 C 
ENDBRANCH   8  11
ENDBRANCH   1   3
BRANCH   1  13
ATOM     13  O   UNL d   1       3.335   1.077   1.116  0.00  0.00    -0.309 OA
BRANCH  13  14
ATOM     14  C   UNL d   1       4.588   1.227   1.770  0.00  0.00     0.263 C 
BRANCH  14  15
ATOM     15  C   UNL d   1       5.803   1.477   0.871  0.00  0.00     0.183 C 
ATOM     16  O   UNL d   1       5.740   1.485  -0.355  0.00  0.00    -0.290 OA
BRANCH  15  17
ATOM     17  C   UNL d   1       7.114   1.758   1.542  0.00  0.00     0.012 A 
ATOM     18  C   UNL d   1       7.219   1.939   2.927  0.00  0.00     0.015 A 
ATOM     19  C   UNL d   1       8.456   2.240   3.508  0.00  0.00     0.001 A 
ATOM     20  C   UNL d   1       9.590   2.357   2.711  0.00  0.00     0.000 A 
ATOM     21  C   UNL d   1       9.497   2.170   1.334  0.00  0.00     0.001 A 
ATOM     22  C   UNL d   1       8.264   1.875   0.748  0.00  0.00     0.015 A 
ENDBRANCH  15  17
ENDBRANCH  14  15
ENDBRANCH  13  14
ENDBRANCH   1  13
TORSDOF 7
