REMARK  3 active torsions:
REMARK  status: ('A' for Active; 'I' for Inactive)
REMARK    1  A    between atoms: C_2  and  C_1 
REMARK       I    between atoms: N_3  and  C_1 
REMARK    2  A    between atoms: C_7  and  N_3 
REMARK    3  A    between atoms: O_8  and  N_4 
ROOT
ATOM      1  C   UNL d   1       0.940   0.921  -2.166  0.00  0.00     0.270 C 
ATOM      2  N   UNL d   1       0.256   1.100  -3.350  0.00  0.00    -0.322 N 
ATOM      3  O   UNL d   1       0.495   0.869  -1.030  0.00  0.00    -0.266 OA
ATOM      4  H   UNL d   1       0.829   1.024  -4.186  0.00  0.00     0.169 HD
ENDROOT
BRANCH   1   5
ATOM      5  C   UNL d   1       2.447   0.771  -2.373  0.00  0.00     0.096 C 
ATOM      6  N   UNL d   1       2.874   0.482  -3.572  0.00  0.00    -0.268 N 
ATOM      7  HN  UNL d   1       2.273   0.367  -4.388  1.00  0.00     0.194 HD
ATOM      8  C   UNL d   1       3.324   0.949  -1.161  0.00  0.00     0.076 C 
BRANCH   6   9
ATOM      9  O   UNL d   1       4.269   0.353  -3.585  0.00  0.00    -0.290 OA
ATOM     10  H   UNL d   1       4.457   0.084  -4.504  0.00  0.00     0.244 HD
ENDBRANCH   6   9
ENDBRANCH   1   5
BRANCH   2  11
ATOM     11  C   UNL d   1      -1.124   1.317  -3.515  0.00  0.00     0.035 A 
ATOM     12  C   UNL d   1      -2.010   1.492  -2.449  0.00  0.00     0.029 A 
ATOM     13  C   UNL d   1      -3.371   1.705  -2.685  0.00  0.00     0.002 A 
ATOM     14  C   UNL d   1      -3.859   1.744  -3.988  0.00  0.00     0.000 A 
ATOM     15  C   UNL d   1      -2.984   1.577  -5.058  0.00  0.00     0.002 A 
ATOM     16  C   UNL d   1      -1.621   1.369  -4.823  0.00  0.00     0.029 A 
ENDBRANCH   2  11
TORSDOF 3
