REMARK  11 active torsions:
REMARK  status: ('A' for Active; 'I' for Inactive)
REMARK    1  A    between atoms: C_3  and  C_28 
REMARK    2  A    between atoms: C_11  and  C_7 
REMARK    3  A    between atoms: C_16  and  C_11 
REMARK    4  A    between atoms: O_29  and  C_11 
REMARK    5  A    between atoms: C_13  and  O_32 
REMARK    6  A    between atoms: C_17  and  C_16 
REMARK    7  A    between atoms: C_23  and  C_19 
REMARK    8  A    between atoms: C_20  and  O_24 
REMARK    9  A    between atoms: C_21  and  O_35 
REMARK   10  A    between atoms: O_24  and  C_23 
REMARK   11  A    between atoms: O_37  and  C_28 
ROOT
ATOM      1  C   UNL d   1      -0.381   0.147   1.603  0.00  0.00    -0.028 C 
ATOM      2  C   UNL d   1       0.840  -0.453   0.789  0.00  0.00    -0.021 C 
ATOM      3  C   UNL d   1       0.072   2.697   0.978  0.00  0.00     0.053 C 
ATOM      4  C   UNL d   1      -0.890   1.455   0.953  0.00  0.00     0.017 C 
ATOM      5  C   UNL d   1      -2.285   3.913   0.236  0.00  0.00    -0.068 C 
ATOM      6  C   UNL d   1      -0.721   3.930   0.142  0.00  0.00     0.033 C 
ATOM      7  C   UNL d   1       0.913  -1.881   1.541  0.00  0.00     0.066 C 
ATOM      8  C   UNL d   1       1.381   2.104   0.324  0.00  0.00     0.139 C 
ATOM      9  C   UNL d   1      -3.125   5.129  -0.265  0.00  0.00     0.002 C 
ATOM     10  C   UNL d   1       1.931   0.665   0.833  0.00  0.00     0.089 C 
ATOM     11  C   UNL d   1      -1.419  -0.990   1.535  0.00  0.00     0.042 C 
ATOM     12  C   UNL d   1      -0.612  -2.274   1.610  0.00  0.00     0.127 C 
ATOM     13  C   UNL d   1      -2.933   2.900   0.821  0.00  0.00    -0.022 C 
ATOM     14  C   UNL d   1      -2.321   1.709   1.409  0.00  0.00     0.034 C 
ATOM     15  C   UNL d   1      -0.241   5.368   0.546  0.00  0.00     0.013 C 
ATOM     16  C   UNL d   1      -2.541   6.409   0.378  0.00  0.00     0.130 C 
ATOM     17  O   UNL d   1       2.022   2.764  -0.500  0.00  0.00    -0.297 OA
ATOM     18  C   UNL d   1      -1.061   6.562   0.049  0.00  0.00     0.033 C 
ATOM     19  C   UNL d   1      -0.096   0.349   3.133  0.00  0.00     0.016 C 
ATOM     20  C   UNL d   1       0.608  -0.674  -0.733  0.00  0.00     0.017 C 
ATOM     21  C   UNL d   1      -3.093   5.226  -1.803  0.00  0.00     0.022 C 
ATOM     22  C   UNL d   1      -4.639   5.075   0.123  0.00  0.00     0.022 C 
ENDROOT
BRANCH   7  23
ATOM     23  C   UNL d   1       1.704  -3.189   1.158  0.00  0.00     0.125 C 
ATOM     24  C   UNL d   1       3.215  -3.017   1.255  0.00  0.00     0.055 C 
BRANCH  23  25
ATOM     25  C   UNL d   1       1.317  -4.309   2.220  0.00  0.00     0.183 C 
ATOM     26  O   UNL d   1       1.274  -4.051   3.428  0.00  0.00    -0.290 OA
BRANCH  25  27
ATOM     27  C   UNL d   1       0.967  -5.692   1.746  0.00  0.00     0.052 C 
ATOM     28  C   UNL d   1       0.317  -6.552   2.567  0.00  0.00     0.014 C 
BRANCH  28  29
ATOM     29  C   UNL d   1      -0.046  -8.010   2.321  0.00  0.00     0.081 C 
ATOM     30  C   UNL d   1      -1.549  -8.218   2.612  0.00  0.00     0.051 C 
ATOM     31  C   UNL d   1       0.220  -8.570   0.915  0.00  0.00     0.051 C 
BRANCH  29  32
ATOM     32  O   UNL d   1       0.606  -8.825   3.330  0.00  0.00    -0.307 OA
BRANCH  32  33
ATOM     33  C   UNL d   1       1.959  -8.940   3.342  0.00  0.00     0.255 C 
ATOM     34  O   UNL d   1       2.734  -8.439   2.545  0.00  0.00    -0.266 OA
ATOM     35  C   UNL d   1       2.401  -9.771   4.503  0.00  0.00     0.126 C 
ENDBRANCH  32  33
ENDBRANCH  29  32
ENDBRANCH  28  29
ENDBRANCH  25  27
ENDBRANCH  23  25
BRANCH  23  36
ATOM     36  O   UNL d   1       1.418  -3.603  -0.174  0.00  0.00    -0.382 OA
ATOM     37  H   UNL d   1       0.449  -3.750  -0.194  0.00  0.00     0.211 HD
ENDBRANCH  23  36
ENDBRANCH   7  23
BRANCH  12  38
ATOM     38  O   UNL d   1      -0.995  -3.140   0.534  0.00  0.00    -0.395 OA
ATOM     39  H   UNL d   1      -1.293  -2.597  -0.220  0.00  0.00     0.210 HD
ENDBRANCH  12  38
BRANCH   3  40
ATOM     40  C   UNL d   1       0.593   3.320   2.307  0.00  0.00     0.182 C 
BRANCH  40  41
ATOM     41  O   UNL d   1       1.527   2.558   3.050  0.00  0.00    -0.400 OA
ATOM     42  H   UNL d   1       2.247   3.156   3.329  0.00  0.00     0.209 HD
ENDBRANCH  40  41
ENDBRANCH   3  40
BRANCH  16  43
ATOM     43  O   UNL d   1      -2.713   6.404   1.805  0.00  0.00    -0.395 OA
ATOM     44  H   UNL d   1      -2.563   5.499   2.126  0.00  0.00     0.210 HD
ENDBRANCH  16  43
TORSDOF 11
