REMARK  2 active torsions:
REMARK  status: ('A' for Active; 'I' for Inactive)
REMARK    1  A    between atoms: C_7  and  C_1 
REMARK    2  A    between atoms: O_15  and  C_7 
ROOT
ATOM      1  C   UNL d   1       2.454  -0.703   0.001  0.00  0.00     0.114 A 
ATOM      2  C   UNL d   1       2.447   0.768  -0.001  0.00  0.00     0.305 A 
ATOM      3  O   UNL d   1       1.217   1.410  -0.001  0.00  0.00    -0.272 OA
ATOM      4  C   UNL d   1       1.300  -1.391   0.000  0.00  0.00     0.039 A 
ATOM      5  C   UNL d   1       0.019  -0.699  -0.001  0.00  0.00     0.002 A 
ATOM      6  C   UNL d   1       0.001   0.694  -0.001  0.00  0.00     0.111 A 
ATOM      7  C   UNL d   1      -1.205   1.400  -0.001  0.00  0.00     0.070 A 
ATOM      8  C   UNL d   1      -2.412   0.703  -0.001  0.00  0.00     0.050 A 
ATOM      9  C   UNL d   1      -1.192  -1.396  -0.001  0.00  0.00     0.038 A 
ATOM     10  O   UNL d   1       3.504   1.396  -0.001  0.00  0.00    -0.259 OA
ATOM     11  C   UNL d   1      -2.398  -0.691  -0.001  0.00  0.00     0.036 A 
ATOM     12 CL   UNL d   1      -1.238   3.122  -0.001  0.00  0.00    -0.081 Cl
ATOM     13 CL   UNL d   1      -3.886  -1.556  -0.000  0.00  0.00    -0.084 Cl
ENDROOT
BRANCH   1  14
ATOM     14  C   UNL d   1       3.713  -1.486   0.003  0.00  0.00     0.182 C 
ATOM     15  O   UNL d   1       3.733  -2.710   0.003  0.00  0.00    -0.646 OA
BRANCH  14  16
ATOM     16  O   UNL d   1       4.851  -0.761   0.004  0.00  0.00    -0.772 OA
ATOM     17  H   UNL d   1       4.736   0.220   0.003  0.00  0.00     0.167 HD
ENDBRANCH  14  16
ENDBRANCH   1  14
TORSDOF 2
