REMARK  8 active torsions:
REMARK  status: ('A' for Active; 'I' for Inactive)
REMARK    1  A    between atoms: N_2  and  C_1 
REMARK    2  A    between atoms: C_3  and  C_1 
REMARK    3  A    between atoms: C_5  and  C_1 
REMARK    4  A    between atoms: N_6  and  C_1 
REMARK       I    between atoms: C_4  and  N_2 
REMARK    5  A    between atoms: C_7  and  C_4 
REMARK    6  A    between atoms: O_18  and  C_5 
REMARK    7  A    between atoms: C_17  and  N_6 
REMARK    8  A    between atoms: C_19  and  O_18 
ROOT
ATOM      1  C   UNL d   1       0.891   0.096   0.019  0.00  0.00     0.297 C 
ENDROOT
BRANCH   1   2
ATOM      2  N   UNL d   1       0.422   0.380  -1.336  0.00  0.00    -0.313 N 
ATOM      3  C   UNL d   1       0.239  -0.559  -2.313  0.00  0.00     0.277 C 
ATOM      4  O   UNL d   1       0.469  -1.749  -2.127  0.00  0.00    -0.265 OA
ATOM      5  H   UNL d   1       0.179   1.337  -1.567  0.00  0.00     0.166 HD
BRANCH   3   6
ATOM      6  C   UNL d   1      -0.260  -0.005  -3.555  0.00  0.00     0.142 A 
ATOM      7  O   UNL d   1      -0.258   1.360  -3.723  0.00  0.00    -0.317 OA
ATOM      8  C   UNL d   1      -0.737   1.614  -4.967  0.00  0.00     0.143 A 
ATOM      9  C   UNL d   1      -1.075   0.443  -5.601  0.00  0.00     0.027 A 
ATOM     10  C   UNL d   1      -0.771  -0.601  -4.692  0.00  0.00     0.045 A 
ENDBRANCH   3   6
ENDBRANCH   1   2
BRANCH   1  11
ATOM     11  C   UNL d   1       0.246  -1.150   0.731  0.00  0.00     0.442 C 
ATOM     12  F   UNL d   1      -0.922  -1.529   0.162  0.00  0.00    -0.166 F 
ATOM     13  F   UNL d   1       1.079  -2.223   0.700  0.00  0.00    -0.166 F 
ATOM     14  F   UNL d   1      -0.034  -0.936   2.046  0.00  0.00    -0.166 F 
ENDBRANCH   1  11
BRANCH   1  15
ATOM     15  C   UNL d   1       0.448   1.261   0.929  0.00  0.00     0.318 C 
ATOM     16  O   UNL d   1      -0.527   1.977   0.692  0.00  0.00    -0.260 OA
BRANCH  15  17
ATOM     17  O   UNL d   1       1.268   1.421   2.009  0.00  0.00    -0.318 OA
BRANCH  17  18
ATOM     18  C   UNL d   1       0.978   2.518   2.886  0.00  0.00     0.174 C 
ATOM     19  C   UNL d   1       1.481   3.826   2.302  0.00  0.00     0.034 C 
ENDBRANCH  17  18
ENDBRANCH  15  17
ENDBRANCH   1  15
BRANCH   1  20
ATOM     20  N   UNL d   1       2.377   0.008  -0.077  0.00  0.00    -0.348 N 
ATOM     21  H   UNL d   1       2.704  -0.943  -0.240  0.00  0.00     0.163 HD
BRANCH  20  22
ATOM     22  C   UNL d   1       3.276   1.008  -0.403  0.00  0.00     0.030 A 
ATOM     23  C   UNL d   1       2.919   2.308  -0.778  0.00  0.00     0.029 A 
ATOM     24  C   UNL d   1       3.883   3.300  -0.996  0.00  0.00     0.002 A 
ATOM     25  C   UNL d   1       5.231   3.016  -0.817  0.00  0.00     0.000 A 
ATOM     26  C   UNL d   1       5.612   1.738  -0.424  0.00  0.00     0.002 A 
ATOM     27  C   UNL d   1       4.642   0.751  -0.219  0.00  0.00     0.029 A 
ENDBRANCH  20  22
ENDBRANCH   1  20
TORSDOF 8
