REMARK  3 active torsions:
REMARK  status: ('A' for Active; 'I' for Inactive)
REMARK    1  A    between atoms: C_3  and  C_1 
REMARK    2  A    between atoms: N_4  and  N_11 
REMARK    3  A    between atoms: N_11  and  C_6 
ROOT
ATOM      1  N   UNL d   1      -0.762  -0.801  -5.446  0.00  0.00    -0.284 N 
ATOM      2  H   UNL d   1      -0.713  -1.792  -5.652  0.00  0.00     0.188 HD
ENDROOT
BRANCH   1   3
ATOM      3  N   UNL d   1      -1.104   0.159  -6.317  0.00  0.00    -0.306 N 
ATOM      4  C   UNL d   1      -1.425  -0.132  -7.537  0.00  0.00     0.012 C 
ATOM      5  C   UNL d   1      -1.812   1.023  -8.456  0.00  0.00     0.034 C 
ATOM      6  C   UNL d   1      -1.476  -1.502  -8.197  0.00  0.00     0.034 C 
ATOM      7  C   UNL d   1      -0.840   1.013  -9.641  0.00  0.00     0.015 C 
ATOM      8  C   UNL d   1      -3.247   0.765  -8.932  0.00  0.00     0.015 C 
ATOM      9  C   UNL d   1      -0.915  -0.340 -10.373  0.00  0.00    -0.013 C 
ATOM     10  C   UNL d   1      -0.513  -1.462  -9.395  0.00  0.00     0.015 C 
ATOM     11  C   UNL d   1      -2.355  -0.577 -10.858  0.00  0.00     0.009 C 
ATOM     12  C   UNL d   1      -3.324  -0.589  -9.664  0.00  0.00    -0.013 C 
ATOM     13  C   UNL d   1      -2.918  -1.711  -8.686  0.00  0.00     0.015 C 
ATOM     14  HN  UNL d   1      -1.111   1.133  -6.013  1.00  0.00     0.186 HD
ENDBRANCH   1   3
BRANCH   1  15
ATOM     15  C   UNL d   1      -0.380  -0.516  -4.129  0.00  0.00     0.141 A 
ATOM     16  N   UNL d   1      -0.042  -1.624  -3.410  0.00  0.00    -0.349 N 
ATOM     17  C   UNL d   1       0.350  -1.471  -2.122  0.00  0.00     0.106 A 
ATOM     18  HN  UNL d   1      -0.083  -2.550  -3.835  1.00  0.00     0.167 HD
ATOM     19  C   UNL d   1       0.434  -0.251  -1.476  0.00  0.00     0.065 A 
ATOM     20  C   UNL d   1       0.082   0.880  -2.212  0.00  0.00     0.045 A 
ATOM     21  C   UNL d   1      -0.329   0.760  -3.545  0.00  0.00     0.080 A 
ATOM     22 CL   UNL d   1      -0.738   2.245  -4.332  0.00  0.00    -0.080 Cl
BRANCH  19  23
ATOM     23  C   UNL d   1       0.884  -0.176  -0.052  0.00  0.00     0.418 C 
ATOM     24  F   UNL d   1       0.945   1.097   0.430  0.00  0.00    -0.166 F 
ATOM     25  F   UNL d   1       2.126  -0.702   0.131  0.00  0.00    -0.166 F 
ATOM     26  F   UNL d   1       0.061  -0.855   0.792  0.00  0.00    -0.166 F 
ENDBRANCH  19  23
ENDBRANCH   1  15
TORSDOF 3
