REMARK  2 active torsions:
REMARK  status: ('A' for Active; 'I' for Inactive)
REMARK    1  A    between atoms: C_12  and  C_5 
REMARK    2  A    between atoms: C_13  and  C_9 
ROOT
ATOM      1  N   UNL d   1       0.362  -0.820   0.001  0.00  0.00    -0.213 N 
ATOM      2  C   UNL d   1       0.162   0.517  -0.008  0.00  0.00     0.189 A 
ATOM      3  N   UNL d   1      -0.707  -1.666  -0.016  0.00  0.00    -0.283 N 
ATOM      4  HN  UNL d   1      -0.683  -2.686  -0.029  1.00  0.00     0.188 HD
ATOM      5  C   UNL d   1       1.724  -0.994   0.016  0.00  0.00     0.154 A 
ATOM      6  S   UNL d   1      -1.507   0.866  -0.015  0.00  0.00    -0.031 SA
ATOM      7  N   UNL d   1       2.282   0.216  -0.017  0.00  0.00    -0.281 N 
ATOM      8  HN  UNL d   1       3.284   0.405  -0.037  1.00  0.00     0.188 HD
ATOM      9  C   UNL d   1      -1.769  -0.902  -0.012  0.00  0.00     0.103 A 
ATOM     10  N   UNL d   1       1.278   1.182  -0.020  0.00  0.00    -0.276 N 
ATOM     11  HN  UNL d   1       1.395   2.195  -0.030  1.00  0.00     0.189 HD
ENDROOT
BRANCH   5  12
ATOM     12  C   UNL d   1       2.422  -2.278   0.035  0.00  0.00     0.011 A 
ATOM     13  C   UNL d   1       3.704  -2.375  -0.526  0.00  0.00     0.017 A 
ATOM     14  C   UNL d   1       4.394  -3.591  -0.530  0.00  0.00     0.025 A 
ATOM     15  C   UNL d   1       3.808  -4.720   0.039  0.00  0.00     0.034 A 
ATOM     16  C   UNL d   1       2.542  -4.641   0.612  0.00  0.00     0.025 A 
ATOM     17 CL   UNL d   1       4.653  -6.218   0.038  0.00  0.00    -0.084 Cl
ATOM     18  C   UNL d   1       1.854  -3.424   0.611  0.00  0.00     0.017 A 
ENDBRANCH   5  12
BRANCH   9  19
ATOM     19  C   UNL d   1      -3.146  -1.438  -0.032  0.00  0.00    -0.001 A 
ATOM     20  C   UNL d   1      -4.222  -0.734   0.526  0.00  0.00     0.016 A 
ATOM     21  C   UNL d   1      -5.510  -1.276   0.487  0.00  0.00     0.024 A 
ATOM     22  C   UNL d   1      -5.725  -2.518  -0.106  0.00  0.00     0.034 A 
ATOM     23  C   UNL d   1      -4.660  -3.235  -0.649  0.00  0.00     0.024 A 
ATOM     24 CL   UNL d   1      -7.316  -3.170  -0.166  0.00  0.00    -0.084 Cl
ATOM     25  C   UNL d   1      -3.369  -2.698  -0.605  0.00  0.00     0.016 A 
ENDBRANCH   9  19
TORSDOF 2
