REMARK  5 active torsions:
REMARK  status: ('A' for Active; 'I' for Inactive)
REMARK    1  A    between atoms: C_6  and  N_1 
REMARK    2  A    between atoms: S_10  and  C_2 
REMARK    3  A    between atoms: C_17  and  S_10 
REMARK    4  A    between atoms: C_18  and  C_17 
REMARK    5  A    between atoms: O_24  and  C_19 
ROOT
ATOM      1  N   UNL d   1       0.993  -0.683   0.049  0.00  0.00    -0.241 N 
ATOM      2  C   UNL d   1       0.941   0.687   0.103  0.00  0.00     0.170 A 
ATOM      3  C   UNL d   1      -0.341  -1.060   0.027  0.00  0.00     0.347 A 
ATOM      4  N   UNL d   1      -0.259   1.195   0.136  0.00  0.00    -0.275 N 
ATOM      5  HN  UNL d   1      -0.521   2.179   0.183  1.00  0.00     0.189 HD
ATOM      6  N   UNL d   1      -1.076   0.117   0.095  0.00  0.00    -0.249 N 
ATOM      7  O   UNL d   1      -0.860  -2.165  -0.006  0.00  0.00    -0.245 OA
ATOM      8  H   UNL d   1      -2.085   0.181   0.081  0.00  0.00     0.192 HD
ENDROOT
BRANCH   1   9
ATOM      9  C   UNL d   1       2.088  -1.598   0.018  0.00  0.00     0.049 A 
ATOM     10  C   UNL d   1       1.920  -2.902  -0.486  0.00  0.00     0.069 A 
ATOM     11  C   UNL d   1       2.986  -3.806  -0.552  0.00  0.00     0.104 A 
ATOM     12  O   UNL d   1       2.709  -5.056  -1.048  0.00  0.00    -0.346 OA
ATOM     13  C   UNL d   1       4.259  -3.419  -0.141  0.00  0.00     0.102 A 
ATOM     14  C   UNL d   1       3.775  -5.975  -0.774  0.00  0.00     0.202 C 
ATOM     15  C   UNL d   1       5.116  -5.340  -1.101  0.00  0.00     0.202 C 
ATOM     16  O   UNL d   1       5.363  -4.225  -0.235  0.00  0.00    -0.346 OA
ATOM     17  C   UNL d   1       4.443  -2.159   0.408  0.00  0.00     0.042 A 
ATOM     18  C   UNL d   1       3.365  -1.267   0.497  0.00  0.00     0.033 A 
ENDBRANCH   1   9
BRANCH   2  19
ATOM     19  S   UNL d   1       2.321   1.735   0.015  0.00  0.00    -0.087 SA
BRANCH  19  20
ATOM     20  C   UNL d   1       1.691   3.154   0.953  0.00  0.00     0.121 C 
BRANCH  20  21
ATOM     21  C   UNL d   1       2.728   4.240   1.110  0.00  0.00    -0.048 A 
ATOM     22  C   UNL d   1       2.834   5.263   0.158  0.00  0.00     0.011 A 
ATOM     23  C   UNL d   1       3.769   6.295   0.312  0.00  0.00     0.037 A 
ATOM     24  C   UNL d   1       4.617   6.312   1.418  0.00  0.00     0.068 A 
ATOM     25  C   UNL d   1       4.532   5.282   2.356  0.00  0.00     0.037 A 
ATOM     26  C   UNL d   1       3.599   4.252   2.207  0.00  0.00     0.011 A 
BRANCH  24  27
ATOM     27  O   UNL d   1       5.563   7.263   1.692  0.00  0.00    -0.356 OA
ATOM     28  C   UNL d   1       5.630   8.376   0.810  0.00  0.00     0.210 C 
ENDBRANCH  24  27
ENDBRANCH  20  21
ENDBRANCH  19  20
ENDBRANCH   2  19
TORSDOF 5
