REMARK  7 active torsions:
REMARK  status: ('A' for Active; 'I' for Inactive)
REMARK    1  A    between atoms: C_4  and  C_1 
REMARK    2  A    between atoms: O_8  and  C_2 
REMARK       I    between atoms: N_23  and  C_4 
REMARK    3  A    between atoms: C_5  and  C_14 
REMARK    4  A    between atoms: C_6  and  C_16 
REMARK    5  A    between atoms: C_14  and  O_8 
REMARK    6  A    between atoms: O_12  and  C_11 
REMARK    7  A    between atoms: C_16  and  O_12 
ROOT
ATOM      1  C   UNL d   1       1.502   1.340   0.050  0.00  0.00     0.066 A 
ATOM      2  C   UNL d   1       0.088   1.269   0.013  0.00  0.00     0.108 A 
ATOM      3  C   UNL d   1      -0.527  -0.009  -0.049  0.00  0.00     0.112 A 
ATOM      4  C   UNL d   1      -1.953  -0.167   0.042  0.00  0.00     0.105 C 
ATOM      5  N   UNL d   1      -3.109  -0.254   0.095  0.00  0.00    -0.191 NA
ATOM      6  C   UNL d   1       2.250   0.151   0.014  0.00  0.00     0.023 A 
ATOM      7  C   UNL d   1       0.252  -1.182  -0.165  0.00  0.00     0.092 A 
ATOM      8  C   UNL d   1       1.640  -1.095  -0.093  0.00  0.00     0.039 A 
ENDROOT
BRANCH   2   9
ATOM      9  O   UNL d   1      -0.609   2.452   0.133  0.00  0.00    -0.340 OA
BRANCH   9  10
ATOM     10  C   UNL d   1      -1.738   2.651  -0.747  0.00  0.00     0.293 C 
BRANCH  10  11
ATOM     11  C   UNL d   1      -1.863   4.108  -1.188  0.00  0.00     0.408 C 
ATOM     12  F   UNL d   1      -0.705   4.784  -1.009  0.00  0.00    -0.169 F 
ATOM     13  F   UNL d   1      -2.178   4.188  -2.500  0.00  0.00    -0.169 F 
ATOM     14  F   UNL d   1      -2.823   4.757  -0.494  0.00  0.00    -0.169 F 
ENDBRANCH  10  11
ENDBRANCH   9  10
ENDBRANCH   2   9
BRANCH   7  15
ATOM     15  O   UNL d   1      -0.425  -2.363  -0.337  0.00  0.00    -0.341 OA
BRANCH  15  16
ATOM     16  C   UNL d   1       0.334  -3.513  -0.747  0.00  0.00     0.293 C 
BRANCH  16  17
ATOM     17  C   UNL d   1      -0.562  -4.624  -1.287  0.00  0.00     0.408 C 
ATOM     18  F   UNL d   1      -1.860  -4.464  -0.954  0.00  0.00    -0.169 F 
ATOM     19  F   UNL d   1      -0.489  -4.681  -2.640  0.00  0.00    -0.169 F 
ATOM     20  F   UNL d   1      -0.164  -5.827  -0.814  0.00  0.00    -0.169 F 
ENDBRANCH  16  17
ENDBRANCH  15  16
ENDBRANCH   7  15
BRANCH   1  21
ATOM     21  C   UNL d   1       2.326   2.591   0.100  0.00  0.00     0.252 C 
ATOM     22  O   UNL d   1       3.550   2.542   0.123  0.00  0.00    -0.268 OA
ATOM     23  N   UNL d   1       1.706   3.800   0.094  0.00  0.00    -0.366 N 
ATOM     24  H   UNL d   1       0.702   3.920   0.072  0.00  0.00     0.159 HD
ATOM     25  H   UNL d   1       2.286   4.630   0.095  0.00  0.00     0.159 HD
ENDBRANCH   1  21
TORSDOF 7
