REMARK  4 active torsions:
REMARK  status: ('A' for Active; 'I' for Inactive)
REMARK    1  A    between atoms: C_2  and  C_1 
REMARK    2  A    between atoms: O_3  and  C_1 
REMARK    3  A    between atoms: C_12  and  O_3 
REMARK    4  A    between atoms: O_18  and  C_13 
ROOT
ATOM      1  C   UNL d   1       0.366   0.821   1.030  0.00  0.00     0.040 A 
ATOM      2  C   UNL d   1       1.093   1.763   1.775  0.00  0.00     0.031 A 
ATOM      3  C   UNL d   1       0.439   2.654   2.650  0.00  0.00    -0.008 A 
ATOM      4  N   UNL d   1      -1.639   3.439   3.600  0.00  0.00    -0.365 N 
ATOM      5  HN  UNL d   1      -2.655   3.388   3.677  1.00  0.00     0.165 HD
ATOM      6  C   UNL d   1      -0.965   2.611   2.784  0.00  0.00     0.042 A 
ATOM      7  C   UNL d   1      -1.022   0.782   1.168  0.00  0.00     0.020 A 
ATOM      8  C   UNL d   1      -1.666   1.674   2.037  0.00  0.00     0.031 A 
ATOM      9  C   UNL d   1      -0.931   4.340   4.316  0.00  0.00     0.088 A 
ATOM     10  C   UNL d   1       1.137   3.604   3.409  0.00  0.00     0.015 A 
ATOM     11  C   UNL d   1       0.444   4.460   4.257  0.00  0.00     0.018 A 
ENDROOT
BRANCH   1  12
ATOM     12  C   UNL d   1       1.113  -0.087   0.112  0.00  0.00     0.298 C 
ATOM     13  O   UNL d   1       2.321  -0.006  -0.051  0.00  0.00    -0.259 OA
BRANCH  12  14
ATOM     14  O   UNL d   1       0.240  -0.976  -0.501  0.00  0.00    -0.275 OA
BRANCH  14  15
ATOM     15  C   UNL d   1       0.685  -1.916  -1.458  0.00  0.00     0.079 A 
ATOM     16  C   UNL d   1       1.926  -2.545  -1.401  0.00  0.00     0.040 A 
ATOM     17  C   UNL d   1       2.291  -3.458  -2.397  0.00  0.00     0.039 A 
ATOM     18  C   UNL d   1       1.411  -3.757  -3.439  0.00  0.00     0.068 A 
ATOM     19  C   UNL d   1       0.148  -3.157  -3.458  0.00  0.00     0.039 A 
ATOM     20  C   UNL d   1      -0.220  -2.240  -2.469  0.00  0.00     0.040 A 
BRANCH  18  21
ATOM     21  O   UNL d   1       1.659  -4.607  -4.482  0.00  0.00    -0.356 OA
ATOM     22  C   UNL d   1       2.961  -5.179  -4.548  0.00  0.00     0.210 C 
ENDBRANCH  18  21
ENDBRANCH  14  15
ENDBRANCH  12  14
ENDBRANCH   1  12
TORSDOF 4
