REMARK  2 active torsions:
REMARK  status: ('A' for Active; 'I' for Inactive)
REMARK    1  A    between atoms: C_2  and  S_1 
REMARK    2  A    between atoms: N_8  and  S_1 
ROOT
ATOM      1  C   UNL d   1       0.597   0.696  -1.493  0.00  0.00     0.090 A 
ATOM      2  C   UNL d   1       0.665   2.090  -1.622  0.00  0.00     0.030 A 
ATOM      3  C   UNL d   1       0.213  -0.087  -2.598  0.00  0.00     0.027 A 
ATOM      4  C   UNL d   1       0.378   2.680  -2.865  0.00  0.00     0.038 A 
ATOM      5  C   UNL d   1       0.024   1.888  -3.957  0.00  0.00     0.012 A 
ATOM      6  I   UNL d   1       1.186   3.440  -0.098  0.00  0.00    -0.043 I 
ATOM      7  C   UNL d   1      -0.070   0.507  -3.827  0.00  0.00     0.020 A 
ATOM      8 BR   UNL d   1      -0.319   2.695  -5.631  0.00  0.00    -0.051 Br
ENDROOT
BRANCH   1   9
ATOM      9  S   UNL d   1       1.007  -0.172  -0.004  0.00  0.00     0.240 S 
ATOM     10  O   UNL d   1       0.982  -1.595  -0.268  0.00  0.00    -0.206 OA
ATOM     11  O   UNL d   1       0.294   0.400   1.111  0.00  0.00    -0.206 OA
BRANCH   9  12
ATOM     12  N   UNL d   1       2.636   0.183   0.196  0.00  0.00    -0.225 NA
ATOM     13  H   UNL d   1       3.195  -0.663   0.086  0.00  0.00     0.136 HD
ATOM     14  H   UNL d   1       2.781   0.663   1.084  0.00  0.00     0.136 HD
ENDBRANCH   9  12
ENDBRANCH   1   9
TORSDOF 2
