REMARK  5 active torsions:
REMARK  status: ('A' for Active; 'I' for Inactive)
REMARK    1  A    between atoms: C_5  and  C_1 
REMARK    2  A    between atoms: N_8  and  C_2 
REMARK       I    between atoms: C_9  and  N_8 
REMARK    3  A    between atoms: O_15  and  C_9 
REMARK    4  A    between atoms: N_10  and  O_15 
REMARK    5  A    between atoms: C_17  and  C_16 
ROOT
ATOM      1  C   UNL d   1      -1.250  -0.978   0.159  0.00  0.00     0.098 A 
ATOM      2  C   UNL d   1       0.125  -1.385   0.064  0.00  0.00     0.098 A 
ATOM      3  N   UNL d   1      -1.319   0.328   0.466  0.00  0.00    -0.258 N 
ATOM      4  HN  UNL d   1      -2.166   0.867   0.644  1.00  0.00     0.195 HD
ATOM      5  C   UNL d   1       0.840  -0.220   0.250  0.00  0.00     0.101 A 
ATOM      6  O   UNL d   1      -0.028   0.795   0.495  0.00  0.00    -0.240 OA
ATOM      7  C   UNL d   1       2.256   0.186   0.162  0.00  0.00     0.081 C 
ENDROOT
BRANCH   2   8
ATOM      8  N   UNL d   1       0.626  -2.652  -0.209  0.00  0.00    -0.297 N 
ATOM      9  C   UNL d   1       1.670  -3.207   0.502  0.00  0.00     0.387 C 
ATOM     10  O   UNL d   1       2.341  -2.676   1.375  0.00  0.00    -0.236 OA
ATOM     11  H   UNL d   1      -0.023  -3.353  -0.536  0.00  0.00     0.171 HD
BRANCH   9  12
ATOM     12  O   UNL d   1       1.829  -4.516   0.105  0.00  0.00    -0.181 OA
BRANCH  12  13
ATOM     13  N   UNL d   1       1.601  -5.374   1.202  0.00  0.00    -0.267 N 
ATOM     14  C   UNL d   1       2.029  -6.556   0.894  0.00  0.00     0.126 C 
ATOM     15  HN  UNL d   1       1.171  -5.107   2.087  1.00  0.00     0.194 HD
BRANCH  14  16
ATOM     16  C   UNL d   1       1.835  -7.731   1.768  0.00  0.00    -0.019 A 
ATOM     17  C   UNL d   1       1.071  -7.649   2.937  0.00  0.00     0.016 A 
ATOM     18  C   UNL d   1       0.841  -8.800   3.696  0.00  0.00     0.043 A 
ATOM     19  C   UNL d   1       1.380 -10.015   3.284  0.00  0.00     0.116 A 
ATOM     20  C   UNL d   1       2.152 -10.103   2.131  0.00  0.00     0.043 A 
ATOM     21  F   UNL d   1       1.145 -11.120   4.004  0.00  0.00    -0.206 F 
ATOM     22  C   UNL d   1       2.382  -8.957   1.366  0.00  0.00     0.016 A 
ENDBRANCH  14  16
ENDBRANCH  12  13
ENDBRANCH   9  12
ENDBRANCH   2   8
BRANCH   1  23
ATOM     23  C   UNL d   1      -2.488  -1.762   0.035  0.00  0.00     0.038 A 
ATOM     24  C   UNL d   1      -2.698  -2.947   0.771  0.00  0.00     0.048 A 
ATOM     25 CL   UNL d   1      -1.556  -3.587   1.904  0.00  0.00    -0.083 Cl
ATOM     26  C   UNL d   1      -3.897  -3.667   0.662  0.00  0.00     0.025 A 
ATOM     27  C   UNL d   1      -4.931  -3.202  -0.141  0.00  0.00     0.003 A 
ATOM     28  C   UNL d   1      -4.758  -2.025  -0.859  0.00  0.00     0.025 A 
ATOM     29  C   UNL d   1      -3.547  -1.319  -0.789  0.00  0.00     0.048 A 
ATOM     30 CL   UNL d   1      -3.442   0.086  -1.802  0.00  0.00    -0.083 Cl
ENDBRANCH   1  23
TORSDOF 5
