REMARK  4 active torsions:
REMARK  status: ('A' for Active; 'I' for Inactive)
REMARK    1  A    between atoms: C_9  and  C_2 
REMARK    2  A    between atoms: S_13  and  C_9 
REMARK    3  A    between atoms: C_10  and  S_13 
REMARK    4  A    between atoms: O_17  and  C_15 
ROOT
ATOM      1  C   UNL d   1      -0.066   0.380  -0.037  0.00  0.00     0.092 A 
ATOM      2  C   UNL d   1       1.103  -1.801  -0.059  0.00  0.00    -0.030 A 
ATOM      3  O   UNL d   1       1.175   1.048  -0.044  0.00  0.00    -0.275 OA
ATOM      4  C   UNL d   1       2.363   0.346  -0.085  0.00  0.00     0.288 A 
ATOM      5  C   UNL d   1      -0.147  -1.018  -0.057  0.00  0.00     0.005 A 
ATOM      6  C   UNL d   1       2.262  -1.121  -0.074  0.00  0.00     0.091 A 
ATOM      7  C   UNL d   1      -1.194   1.204  -0.009  0.00  0.00     0.074 A 
ATOM      8  C   UNL d   1      -1.430  -1.581  -0.068  0.00  0.00     0.017 A 
ATOM      9  O   UNL d   1       3.454   0.899  -0.102  0.00  0.00    -0.260 OA
ATOM     10  C   UNL d   1      -2.447   0.613  -0.020  0.00  0.00     0.068 A 
ATOM     11  C   UNL d   1      -2.573  -0.770  -0.058  0.00  0.00     0.037 A 
ENDROOT
BRANCH   2  12
ATOM     12  C   UNL d   1       1.118  -3.309   0.071  0.00  0.00     0.120 C 
BRANCH  12  13
ATOM     13  S   UNL d   1       0.583  -4.144  -1.456  0.00  0.00    -0.108 SA
BRANCH  13  14
ATOM     14  C   UNL d   1       1.020  -5.835  -1.065  0.00  0.00     0.069 A 
ATOM     15  N   UNL d   1       1.664  -6.083   0.097  0.00  0.00    -0.361 N 
ATOM     16  C   UNL d   1       2.070  -7.354   0.324  0.00  0.00     0.089 A 
ATOM     17  HN  UNL d   1       1.837  -5.342   0.776  1.00  0.00     0.165 HD
ATOM     18  C   UNL d   1       1.859  -8.400  -0.556  0.00  0.00     0.017 A 
ATOM     19  C   UNL d   1       1.171  -8.134  -1.732  0.00  0.00     0.004 A 
ATOM     20  C   UNL d   1       0.739  -6.834  -1.991  0.00  0.00     0.037 A 
ENDBRANCH  13  14
ENDBRANCH  12  13
ENDBRANCH   2  12
BRANCH  10  21
ATOM     21  O   UNL d   1      -3.588   1.358   0.007  0.00  0.00    -0.361 OA
ATOM     22  H   UNL d   1      -3.347   2.299   0.054  0.00  0.00     0.217 HD
ENDBRANCH  10  21
TORSDOF 4
