REMARK  1 active torsions:
REMARK  status: ('A' for Active; 'I' for Inactive)
REMARK    1  A    between atoms: C_7  and  C_1 
ROOT
ATOM      1  C   UNL d   1      -1.849  -1.556  -0.043  0.00  0.00     0.090 A 
ATOM      2  C   UNL d   1      -2.314  -0.298   0.000  0.00  0.00     0.093 A 
ATOM      3  O   UNL d   1      -0.499  -1.883  -0.009  0.00  0.00    -0.309 OA
ATOM      4  C   UNL d   1      -1.368   0.826   0.032  0.00  0.00     0.187 A 
ATOM      5  C   UNL d   1       0.059   0.482   0.015  0.00  0.00     0.048 A 
ATOM      6  C   UNL d   1       0.420  -0.863   0.007  0.00  0.00     0.090 A 
ATOM      7  O   UNL d   1      -1.766   1.984   0.058  0.00  0.00    -0.287 OA
ATOM      8  C   UNL d   1       1.033   1.484   0.004  0.00  0.00     0.018 A 
ATOM      9  C   UNL d   1       1.770  -1.215   0.006  0.00  0.00     0.038 A 
ATOM     10  C   UNL d   1       2.382   1.129  -0.006  0.00  0.00     0.001 A 
ATOM     11  C   UNL d   1       2.749  -0.218  -0.001  0.00  0.00     0.003 A 
ENDROOT
BRANCH   1  12
ATOM     12  C   UNL d   1      -2.761  -2.720  -0.128  0.00  0.00    -0.002 A 
ATOM     13  C   UNL d   1      -3.986  -2.642  -0.818  0.00  0.00     0.017 A 
ATOM     14  C   UNL d   1      -4.832  -3.749  -0.910  0.00  0.00     0.043 A 
ATOM     15  C   UNL d   1      -4.455  -4.949  -0.326  0.00  0.00     0.116 A 
ATOM     16  C   UNL d   1      -3.248  -5.062   0.351  0.00  0.00     0.043 A 
ATOM     17  F   UNL d   1      -5.263  -6.012  -0.422  0.00  0.00    -0.206 F 
ATOM     18  C   UNL d   1      -2.403  -3.951   0.449  0.00  0.00     0.017 A 
ENDBRANCH   1  12
TORSDOF 1
