REMARK  9 active torsions:
REMARK  status: ('A' for Active; 'I' for Inactive)
REMARK    1  A    between atoms: C_7  and  S_1 
REMARK    2  A    between atoms: C_9  and  S_1 
REMARK       I    between atoms: C_2  and  N_3 
REMARK    3  A    between atoms: C_4  and  C_2 
REMARK    4  A    between atoms: N_3  and  C_8 
REMARK    5  A    between atoms: C_6  and  C_5 
REMARK    6  A    between atoms: O_18  and  C_6 
REMARK    7  A    between atoms: C_19  and  C_9 
REMARK    8  A    between atoms: C_13  and  S_17 
REMARK    9  A    between atoms: S_17  and  C_19 
ROOT
ATOM      1  C   UNL d   1       2.162   0.962  -6.381  0.00  0.00     0.051 A 
ATOM      2  C   UNL d   1       1.852   1.475  -5.104  0.00  0.00     0.027 A 
ATOM      3  C   UNL d   1       2.003   1.786  -7.509  0.00  0.00     0.031 A 
ATOM      4  C   UNL d   1       1.296   2.765  -5.011  0.00  0.00     0.021 A 
ATOM      5  C   UNL d   1       1.458   3.065  -7.395  0.00  0.00     0.002 A 
ATOM      6  C   UNL d   1       1.090   3.549  -6.147  0.00  0.00     0.002 A 
ENDROOT
BRANCH   1   7
ATOM      7  N   UNL d   1       2.634  -0.349  -6.650  0.00  0.00    -0.322 N 
ATOM      8  C   UNL d   1       2.005  -1.487  -6.176  0.00  0.00     0.257 C 
ATOM      9  O   UNL d   1       1.044  -1.506  -5.413  0.00  0.00    -0.267 OA
ATOM     10  H   UNL d   1       3.121  -0.452  -7.542  0.00  0.00     0.169 HD
BRANCH   8  11
ATOM     11  C   UNL d   1       2.511  -2.815  -6.636  0.00  0.00     0.049 A 
ATOM     12  C   UNL d   1       2.819  -3.176  -7.957  0.00  0.00     0.053 A 
ATOM     13  C   UNL d   1       3.189  -4.501  -8.260  0.00  0.00     0.019 A 
ATOM     14  C   UNL d   1       3.218  -5.474  -7.261  0.00  0.00     0.001 A 
ATOM     15  C   UNL d   1       2.897  -5.131  -5.953  0.00  0.00     0.001 A 
ATOM     16  C   UNL d   1       2.549  -3.814  -5.643  0.00  0.00     0.018 A 
BRANCH  12  17
ATOM     17  C   UNL d   1       2.778  -2.217  -9.074  0.00  0.00     0.177 C 
ATOM     18  O   UNL d   1       3.339  -1.136  -9.032  0.00  0.00    -0.646 OA
BRANCH  17  19
ATOM     19  O   UNL d   1       2.066  -2.651 -10.133  0.00  0.00    -0.773 OA
ATOM     20  H   UNL d   1       1.587  -3.493 -10.004  0.00  0.00     0.167 HD
ENDBRANCH  17  19
ENDBRANCH  12  17
ENDBRANCH   8  11
ENDBRANCH   1   7
BRANCH   2  21
ATOM     21  S   UNL d   1       2.197   0.699  -3.519  0.00  0.00    -0.127 SA
BRANCH  21  22
ATOM     22  C   UNL d   1       3.988   0.378  -3.645  0.00  0.00     0.095 C 
BRANCH  22  23
ATOM     23  C   UNL d   1       4.805   1.657  -3.627  0.00  0.00     0.156 C 
BRANCH  23  24
ATOM     24  S   UNL d   1       6.553   1.310  -3.657  0.00  0.00     0.176 S 
ATOM     25  O   UNL d   1       7.266   2.555  -3.856  0.00  0.00    -0.223 OA
ATOM     26  O   UNL d   1       6.861   0.452  -2.525  0.00  0.00    -0.223 OA
BRANCH  24  27
ATOM     27  C   UNL d   1       6.790   0.350  -5.136  0.00  0.00     0.059 A 
ATOM     28  C   UNL d   1       6.544   0.945  -6.378  0.00  0.00     0.025 A 
ATOM     29  C   UNL d   1       6.649   0.174  -7.537  0.00  0.00     0.025 A 
ATOM     30  C   UNL d   1       7.009  -1.171  -7.447  0.00  0.00     0.034 A 
ATOM     31  C   UNL d   1       7.286  -1.752  -6.208  0.00  0.00     0.025 A 
ATOM     32 CL   UNL d   1       7.106  -2.128  -8.873  0.00  0.00    -0.084 Cl
ATOM     33  C   UNL d   1       7.179  -0.990  -5.044  0.00  0.00     0.025 A 
ENDBRANCH  24  27
ENDBRANCH  23  24
ENDBRANCH  22  23
ENDBRANCH  21  22
ENDBRANCH   2  21
TORSDOF 9
