REMARK  4 active torsions:
REMARK  status: ('A' for Active; 'I' for Inactive)
REMARK    1  A    between atoms: C_2  and  S_1 
REMARK    2  A    between atoms: N_4  and  S_1 
REMARK    3  A    between atoms: C_15  and  N_7 
REMARK    4  A    between atoms: C_17  and  C_15 
ROOT
ATOM      1  N   UNL d   1       0.551   0.988  -0.570  0.00  0.00    -0.203 NA
ATOM      2  N   UNL d   1      -0.998   2.911   1.119  0.00  0.00     0.095 N 
ATOM      3  C   UNL d   1       1.029   2.377  -0.320  0.00  0.00     0.138 C 
ATOM      4  C   UNL d   1      -0.946   0.944  -0.520  0.00  0.00     0.138 C 
ATOM      5  C   UNL d   1       0.470   2.969   0.985  0.00  0.00     0.288 C 
ATOM      6  C   UNL d   1      -1.494   1.554   0.788  0.00  0.00     0.288 C 
ENDROOT
BRANCH   1   7
ATOM      7  S   UNL d   1       1.305  -0.272   0.298  0.00  0.00     0.250 S 
ATOM      8  O   UNL d   1       1.065  -0.068   1.710  0.00  0.00    -0.205 OA
ATOM      9  O   UNL d   1       0.964  -1.527  -0.338  0.00  0.00    -0.205 OA
BRANCH   7  10
ATOM     10  C   UNL d   1       3.068  -0.118   0.149  0.00  0.00     0.116 A 
ATOM     11  S   UNL d   1       3.708  -0.016  -1.433  0.00  0.00    -0.070 SA
ATOM     12  C   UNL d   1       5.277   0.214  -0.831  0.00  0.00     0.052 A 
ATOM     13 BR   UNL d   1       6.760   0.510  -1.936  0.00  0.00    -0.043 Br
ATOM     14  C   UNL d   1       5.349   0.170   0.536  0.00  0.00     0.028 A 
ATOM     15  C   UNL d   1       4.061  -0.033   1.110  0.00  0.00     0.034 A 
ENDBRANCH   7  10
ENDBRANCH   1   7
BRANCH   2  16
ATOM     16  C   UNL d   1      -1.660   3.974   0.350  0.00  0.00     0.311 C 
BRANCH  16  17
ATOM     17  C   UNL d   1      -3.132   4.107   0.682  0.00  0.00    -0.030 A 
ATOM     18  C   UNL d   1      -3.552   4.273   2.012  0.00  0.00     0.009 A 
ATOM     19  C   UNL d   1      -4.909   4.366   2.322  0.00  0.00     0.001 A 
ATOM     20  C   UNL d   1      -5.860   4.303   1.307  0.00  0.00     0.000 A 
ATOM     21  C   UNL d   1      -5.455   4.154  -0.019  0.00  0.00     0.001 A 
ATOM     22  C   UNL d   1      -4.098   4.060  -0.332  0.00  0.00     0.009 A 
ENDBRANCH  16  17
ENDBRANCH   2  16
TORSDOF 4
