REMARK  0 active torsions:
REMARK  status: ('A' for Active; 'I' for Inactive)
REMARK       I    between atoms: C_6  and  N_1 
ROOT
ATOM      1  N   UNL d   1       0.026  -1.715   0.005  0.00  0.00    -0.281 N 
ATOM      2  C   UNL d   1       1.168  -0.896  -0.008  0.00  0.00     0.053 A 
ATOM      3  C   UNL d   1      -1.109  -0.888  -0.034  0.00  0.00     0.053 A 
ATOM      4  C   UNL d   1       0.737   0.437   0.025  0.00  0.00     0.005 A 
ATOM      5  C   UNL d   1      -0.685   0.439   0.005  0.00  0.00     0.005 A 
ATOM      6  C   UNL d   1      -0.043  -3.129   0.059  0.00  0.00     0.225 C 
ATOM      7  C   UNL d   1       2.549  -1.188  -0.087  0.00  0.00     0.032 A 
ATOM      8  C   UNL d   1      -2.484  -1.205  -0.048  0.00  0.00     0.032 A 
ATOM      9  C   UNL d   1      -1.646   1.475   0.009  0.00  0.00     0.033 A 
ATOM     10  C   UNL d   1       1.688   1.482   0.047  0.00  0.00     0.033 A 
ATOM     11  O   UNL d   1      -1.040  -3.712  -0.347  0.00  0.00    -0.273 OA
ATOM     12  C   UNL d   1      -3.004   1.155  -0.014  0.00  0.00     0.011 A 
ATOM     13  C   UNL d   1       3.048   1.179   0.011  0.00  0.00     0.011 A 
ATOM     14  C   UNL d   1       3.475  -0.137  -0.063  0.00  0.00     0.021 A 
ATOM     15  C   UNL d   1      -3.422  -0.168  -0.040  0.00  0.00     0.021 A 
ATOM     16 BR   UNL d   1       4.317   2.580   0.038  0.00  0.00    -0.051 Br
ATOM     17 BR   UNL d   1      -4.289   2.542  -0.004  0.00  0.00    -0.051 Br
ATOM     18  C   UNL d   1       1.117  -3.854   0.665  0.00  0.00     0.118 C 
ENDROOT
TORSDOF 0
