REMARK  8 active torsions:
REMARK  status: ('A' for Active; 'I' for Inactive)
REMARK    1  A    between atoms: C_5  and  S_1 
REMARK    2  A    between atoms: N_7  and  S_1 
REMARK    3  A    between atoms: N_3  and  C_2 
REMARK    4  A    between atoms: N_10  and  C_6 
REMARK    5  A    between atoms: C_18  and  N_7 
REMARK    6  A    between atoms: N_8  and  N_10 
REMARK    7  A    between atoms: C_11  and  C_18 
REMARK    8  A    between atoms: C_19  and  C_15 
ROOT
ATOM      1  C   UNL d   1      -0.354   0.491  -3.794  0.00  0.00     0.132 A 
ATOM      2  C   UNL d   1      -0.312   0.771  -2.416  0.00  0.00     0.063 A 
ATOM      3  C   UNL d   1      -0.742   2.026  -1.975  0.00  0.00     0.077 A 
ATOM      4  C   UNL d   1      -0.813   1.422  -4.743  0.00  0.00     0.081 A 
ATOM      5  C   UNL d   1      -1.235   2.962  -2.884  0.00  0.00     0.027 A 
ATOM      6  C   UNL d   1      -1.275   2.655  -4.247  0.00  0.00     0.035 A 
ENDROOT
BRANCH   4   7
ATOM      7  N   UNL d   1      -0.898   1.151  -6.125  0.00  0.00    -0.298 N 
ATOM      8  H   UNL d   1      -0.367   0.350  -6.471  0.00  0.00     0.187 HD
BRANCH   7   9
ATOM      9  N   UNL d   1      -1.910   1.718  -6.819  0.00  0.00    -0.304 N 
ATOM     10  C   UNL d   1      -2.030   1.531  -8.102  0.00  0.00     0.032 C 
ATOM     11  C   UNL d   1      -1.070   0.725  -8.955  0.00  0.00     0.070 C 
ATOM     12  HN  UNL d   1      -2.590   2.301  -6.331  1.00  0.00     0.186 HD
BRANCH  10  13
ATOM     13  C   UNL d   1      -3.213   2.163  -8.794  0.00  0.00    -0.012 A 
ATOM     14  C   UNL d   1      -4.105   2.948  -8.044  0.00  0.00     0.016 A 
ATOM     15  C   UNL d   1      -5.218   3.540  -8.648  0.00  0.00     0.043 A 
ATOM     16  C   UNL d   1      -5.442   3.346 -10.006  0.00  0.00     0.116 A 
ATOM     17  C   UNL d   1      -4.576   2.575 -10.767  0.00  0.00     0.043 A 
ATOM     18  F   UNL d   1      -6.508   3.913 -10.587  0.00  0.00    -0.206 F 
ATOM     19  C   UNL d   1      -3.461   1.980 -10.165  0.00  0.00     0.016 A 
ENDBRANCH  10  13
ENDBRANCH   7   9
ENDBRANCH   4   7
BRANCH   1  20
ATOM     20  N   UNL d   1       0.055  -0.842  -4.221  0.00  0.00    -0.113 N 
ATOM     21  O   UNL d   1      -0.321  -1.802  -3.537  0.00  0.00    -0.532 OA
ATOM     22  O   UNL d   1       0.757  -0.923  -5.241  0.00  0.00    -0.532 OA
ENDBRANCH   1  20
BRANCH   3  23
ATOM     23  S   UNL d   1      -0.755   2.421  -0.246  0.00  0.00     0.241 S 
ATOM     24  O   UNL d   1      -0.252   1.282   0.485  0.00  0.00    -0.206 OA
ATOM     25  O   UNL d   1      -2.041   3.015   0.044  0.00  0.00    -0.206 OA
BRANCH  23  26
ATOM     26  N   UNL d   1       0.382   3.657  -0.154  0.00  0.00    -0.209 NA
ATOM     27  H   UNL d   1       0.020   4.486   0.319  0.00  0.00     0.140 HD
BRANCH  26  28
ATOM     28  C   UNL d   1       1.733   3.257   0.241  0.00  0.00     0.169 C 
BRANCH  28  29
ATOM     29  C   UNL d   1       2.626   4.445   0.308  0.00  0.00     0.066 A 
ATOM     30  O   UNL d   1       2.111   5.606   0.818  0.00  0.00    -0.326 OA
ATOM     31  C   UNL d   1       3.129   6.506   0.859  0.00  0.00     0.142 A 
ATOM     32  C   UNL d   1       4.292   5.942   0.392  0.00  0.00     0.027 A 
ATOM     33  C   UNL d   1       3.967   4.616   0.025  0.00  0.00     0.036 A 
ENDBRANCH  28  29
ENDBRANCH  26  28
ENDBRANCH  23  26
ENDBRANCH   3  23
TORSDOF 8
