REMARK  3 active torsions:
REMARK  status: ('A' for Active; 'I' for Inactive)
REMARK    1  A    between atoms: C_5  and  C_1 
REMARK    2  A    between atoms: C_4  and  C_5 
REMARK    3  A    between atoms: C_15  and  C_8 
ROOT
ATOM      1  C   UNL d   1       4.507  -1.198  -0.039  0.00  0.00     0.096 C 
ATOM      2  C   UNL d   1       5.786  -1.148   0.393  0.00  0.00     0.038 C 
ATOM      3  C   UNL d   1       3.856  -0.069  -0.604  0.00  0.00     0.103 C 
ATOM      4  N   UNL d   1       3.320   0.861  -1.048  0.00  0.00    -0.191 NA
ENDROOT
BRANCH   1   5
ATOM      5  C   UNL d   1       3.790  -2.515   0.056  0.00  0.00     0.210 C 
ATOM      6  O   UNL d   1       4.473  -3.536   0.180  0.00  0.00    -0.285 OA
BRANCH   5   7
ATOM      7  C   UNL d   1       2.327  -2.574  -0.019  0.00  0.00     0.064 A 
ATOM      8  S   UNL d   1       1.667  -3.879  -0.915  0.00  0.00    -0.085 SA
ATOM      9  C   UNL d   1       0.051  -3.432  -0.572  0.00  0.00     0.016 A 
ATOM     10  C   UNL d   1      -1.117  -4.113  -0.974  0.00  0.00     0.021 A 
ATOM     11  C   UNL d   1      -0.001  -2.267   0.193  0.00  0.00    -0.010 A 
ATOM     12  C   UNL d   1      -2.363  -3.598  -0.612  0.00  0.00     0.025 A 
ATOM     13  C   UNL d   1      -2.443  -2.423   0.118  0.00  0.00     0.035 A 
ATOM     14  C   UNL d   1      -1.285  -1.753   0.521  0.00  0.00     0.037 A 
ATOM     15 CL   UNL d   1      -3.984  -1.787   0.547  0.00  0.00    -0.084 Cl
ATOM     16  C   UNL d   1       1.328  -1.801   0.565  0.00  0.00    -0.029 A 
ATOM     17  C   UNL d   1       1.526  -0.655   1.513  0.00  0.00     0.050 C 
ENDBRANCH   5   7
ENDBRANCH   1   5
BRANCH   2  18
ATOM     18  C   UNL d   1       6.585   0.080   0.395  0.00  0.00    -0.035 A 
ATOM     19  C   UNL d   1       6.560   0.917   1.517  0.00  0.00     0.011 A 
ATOM     20  C   UNL d   1       7.226   2.143   1.493  0.00  0.00     0.001 A 
ATOM     21  C   UNL d   1       7.924   2.533   0.352  0.00  0.00     0.000 A 
ATOM     22  C   UNL d   1       7.975   1.692  -0.759  0.00  0.00     0.001 A 
ATOM     23  C   UNL d   1       7.309   0.465  -0.739  0.00  0.00     0.011 A 
ENDBRANCH   2  18
TORSDOF 3
