REMARK  5 active torsions:
REMARK  status: ('A' for Active; 'I' for Inactive)
REMARK    1  A    between atoms: C_2  and  C_1 
REMARK    2  A    between atoms: C_17  and  N_7 
REMARK    3  A    between atoms: S_18  and  C_8 
REMARK    4  A    between atoms: C_16  and  C_12 
REMARK    5  A    between atoms: C_14  and  C_15 
ROOT
ATOM      1  C   UNL d   1      -0.887   2.619  -0.050  0.00  0.00     0.142 A 
ATOM      2  N   UNL d   1      -2.245   2.841  -0.099  0.00  0.00    -0.318 N 
ATOM      3  HN  UNL d   1      -3.001   2.163  -0.189  1.00  0.00     0.169 HD
ATOM      4  N   UNL d   1      -0.145   3.728   0.038  0.00  0.00    -0.242 N 
ATOM      5  HN  UNL d   1       0.871   3.807   0.072  1.00  0.00     0.196 HD
ATOM      6  C   UNL d   1      -2.317   4.150   0.001  0.00  0.00     0.182 A 
ATOM      7  O   UNL d   1      -1.091   4.749   0.073  0.00  0.00    -0.217 OA
ENDROOT
BRANCH   1   8
ATOM      8  C   UNL d   1      -0.393   1.250  -0.037  0.00  0.00     0.062 A 
ATOM      9  C   UNL d   1       0.928   0.771   0.063  0.00  0.00     0.100 A 
ATOM     10  N   UNL d   1       0.977  -0.565   0.090  0.00  0.00    -0.287 N 
ATOM     11  N   UNL d   1      -0.317  -0.964  -0.021  0.00  0.00    -0.266 N 
ATOM     12  HN  UNL d   1       1.804  -1.155   0.176  1.00  0.00     0.188 HD
ATOM     13  C   UNL d   1      -1.168   0.112  -0.098  0.00  0.00     0.135 A 
BRANCH   9  14
ATOM     14  S   UNL d   1       2.390   1.733   0.141  0.00  0.00    -0.114 SA
ATOM     15  C   UNL d   1       3.665   0.493   0.418  0.00  0.00     0.097 C 
ENDBRANCH   9  14
BRANCH  11  16
ATOM     16  C   UNL d   1      -0.666  -2.346  -0.041  0.00  0.00     0.056 A 
ATOM     17  C   UNL d   1      -1.992  -2.756  -0.241  0.00  0.00     0.031 A 
ATOM     18  C   UNL d   1      -2.311  -4.117  -0.263  0.00  0.00     0.002 A 
ATOM     19  C   UNL d   1      -1.313  -5.074  -0.084  0.00  0.00     0.000 A 
ATOM     20  C   UNL d   1       0.006  -4.675   0.118  0.00  0.00     0.002 A 
ATOM     21  C   UNL d   1       0.334  -3.315   0.137  0.00  0.00     0.031 A 
ENDBRANCH  11  16
ENDBRANCH   1   8
BRANCH   6  22
ATOM     22  C   UNL d   1      -3.485   5.013   0.125  0.00  0.00     0.017 A 
ATOM     23  C   UNL d   1      -4.771   4.455   0.059  0.00  0.00     0.017 A 
ATOM     24  C   UNL d   1      -5.906   5.243   0.275  0.00  0.00     0.017 A 
ATOM     25  C   UNL d   1      -5.779   6.609   0.561  0.00  0.00     0.048 A 
ATOM     26  C   UNL d   1      -4.498   7.178   0.586  0.00  0.00     0.017 A 
ATOM     27  C   UNL d   1      -3.364   6.389   0.367  0.00  0.00     0.017 A 
BRANCH  25  28
ATOM     28  C   UNL d   1      -6.985   7.463   0.871  0.00  0.00     0.417 C 
ATOM     29  F   UNL d   1      -8.162   6.779   0.836  0.00  0.00    -0.166 F 
ATOM     30  F   UNL d   1      -6.916   8.021   2.111  0.00  0.00    -0.166 F 
ATOM     31  F   UNL d   1      -7.128   8.501   0.001  0.00  0.00    -0.166 F 
ENDBRANCH  25  28
ENDBRANCH   6  22
TORSDOF 5
