REMARK  7 active torsions:
REMARK  status: ('A' for Active; 'I' for Inactive)
REMARK    1  A    between atoms: N_3  and  S_1 
REMARK    2  A    between atoms: C_2  and  N_7 
REMARK    3  A    between atoms: N_5  and  C_2 
REMARK    4  A    between atoms: C_4  and  N_3 
REMARK    5  A    between atoms: C_8  and  N_5 
REMARK    6  A    between atoms: N_7  and  C_12 
REMARK    7  A    between atoms: O_18  and  C_14 
ROOT
ATOM      1  N   UNL d   1      -0.534   5.519  -2.179  0.00  0.00    -0.333 N 
ATOM      2  H   UNL d   1      -1.415   5.017  -2.189  0.00  0.00     0.168 HD
ENDROOT
BRANCH   1   3
ATOM      3  C   UNL d   1      -0.599   6.770  -2.756  0.00  0.00     0.176 C 
ATOM      4  S   UNL d   1       0.539   7.466  -3.768  0.00  0.00    -0.041 SA
BRANCH   3   5
ATOM      5  N   UNL d   1      -1.786   7.438  -2.590  0.00  0.00    -0.331 N 
ATOM      6  H   UNL d   1      -1.921   8.217  -3.227  0.00  0.00     0.168 HD
BRANCH   5   7
ATOM      7  C   UNL d   1      -2.647   7.452  -1.468  0.00  0.00     0.068 A 
ATOM      8  C   UNL d   1      -3.932   8.017  -1.561  0.00  0.00     0.095 A 
ATOM      9  C   UNL d   1      -4.704   8.180  -0.402  0.00  0.00     0.039 A 
ATOM     10  C   UNL d   1      -4.215   7.792   0.845  0.00  0.00     0.003 A 
ATOM     11  C   UNL d   1      -2.946   7.235   0.943  0.00  0.00     0.002 A 
ATOM     12  C   UNL d   1      -2.172   7.060  -0.206  0.00  0.00     0.032 A 
BRANCH   8  13
ATOM     13  O   UNL d   1      -4.525   8.520  -2.691  0.00  0.00    -0.354 OA
ATOM     14  C   UNL d   1      -4.381   7.769  -3.891  0.00  0.00     0.210 C 
ENDBRANCH   8  13
ENDBRANCH   5   7
ENDBRANCH   3   5
ENDBRANCH   1   3
BRANCH   1  15
ATOM     15  C   UNL d   1       0.614   4.774  -1.836  0.00  0.00     0.036 A 
ATOM     16  C   UNL d   1       0.562   3.377  -1.889  0.00  0.00     0.054 A 
ATOM     17  C   UNL d   1       1.689   2.614  -1.548  0.00  0.00     0.030 A 
ATOM     18  C   UNL d   1       2.865   3.236  -1.105  0.00  0.00    -0.040 A 
ATOM     19  C   UNL d   1       2.879   4.633  -0.990  0.00  0.00     0.011 A 
ATOM     20  C   UNL d   1       4.106   2.483  -0.724  0.00  0.00     0.050 C 
ATOM     21  C   UNL d   1       1.770   5.394  -1.363  0.00  0.00     0.030 A 
BRANCH  17  22
ATOM     22  N   UNL d   1       1.649   1.194  -1.706  0.00  0.00    -0.185 NA
ATOM     23  H   UNL d   1       1.387   0.876  -2.643  0.00  0.00     0.146 HD
BRANCH  22  24
ATOM     24  S   UNL d   1       0.836   0.271  -0.552  0.00  0.00     0.210 S 
ATOM     25  O   UNL d   1       0.346  -0.886  -1.268  0.00  0.00    -0.211 OA
ATOM     26  O   UNL d   1      -0.057   1.107   0.222  0.00  0.00    -0.211 OA
ATOM     27  C   UNL d   1       2.177  -0.272   0.488  0.00  0.00     0.180 C 
ENDBRANCH  22  24
ENDBRANCH  17  22
ENDBRANCH   1  15
TORSDOF 7
