REMARK  5 active torsions:
REMARK  status: ('A' for Active; 'I' for Inactive)
REMARK    1  A    between atoms: C_5  and  N_1 
REMARK    2  A    between atoms: C_8  and  C_4 
REMARK    3  A    between atoms: O_13  and  C_8 
REMARK       I    between atoms: C_9  and  N_11 
REMARK    4  A    between atoms: C_10  and  C_9 
REMARK    5  A    between atoms: N_11  and  O_13 
ROOT
ATOM      1  N   UNL d   1       0.900  -0.679  -0.019  0.00  0.00    -0.259 N 
ATOM      2  N   UNL d   1       0.961   0.672   0.029  0.00  0.00    -0.288 N 
ATOM      3  HN  UNL d   1       1.805   1.243   0.070  1.00  0.00     0.188 HD
ATOM      4  C   UNL d   1      -0.306   1.111   0.013  0.00  0.00     0.127 A 
ATOM      5  C   UNL d   1      -1.200   0.025  -0.104  0.00  0.00     0.064 A 
ATOM      6  C   UNL d   1      -0.421  -1.114  -0.065  0.00  0.00     0.033 A 
ATOM      7  C   UNL d   1      -0.871  -2.525   0.072  0.00  0.00     0.070 C 
ENDROOT
BRANCH   4   8
ATOM      8  C   UNL d   1      -0.664   2.523   0.217  0.00  0.00     0.333 C 
ATOM      9  O   UNL d   1      -1.824   2.922   0.312  0.00  0.00    -0.256 OA
BRANCH   8  10
ATOM     10  O   UNL d   1       0.429   3.325   0.402  0.00  0.00    -0.191 OA
BRANCH  10  11
ATOM     11  N   UNL d   1       0.153   4.483   1.186  0.00  0.00    -0.219 N 
ATOM     12  C   UNL d   1       1.312   5.058   1.673  0.00  0.00     0.299 C 
ATOM     13  O   UNL d   1       2.419   4.838   1.194  0.00  0.00    -0.263 OA
ATOM     14  H   UNL d   1      -0.710   4.489   1.723  0.00  0.00     0.198 HD
BRANCH  12  15
ATOM     15  C   UNL d   1       1.134   5.916   2.827  0.00  0.00     0.144 A 
ATOM     16  O   UNL d   1      -0.103   6.098   3.386  0.00  0.00    -0.317 OA
ATOM     17  C   UNL d   1       0.061   6.938   4.444  0.00  0.00     0.143 A 
ATOM     18  C   UNL d   1       1.380   7.299   4.580  0.00  0.00     0.027 A 
ATOM     19  C   UNL d   1       2.075   6.636   3.544  0.00  0.00     0.045 A 
ENDBRANCH  12  15
ENDBRANCH  10  11
ENDBRANCH   8  10
ENDBRANCH   4   8
BRANCH   1  20
ATOM     20  C   UNL d   1       2.102  -1.442  -0.081  0.00  0.00     0.080 A 
ATOM     21  C   UNL d   1       2.133  -2.594  -0.887  0.00  0.00     0.057 A 
ATOM     22  C   UNL d   1       3.303  -3.346  -1.008  0.00  0.00     0.036 A 
ATOM     23 CL   UNL d   1       3.307  -4.758  -1.990  0.00  0.00    -0.084 Cl
ATOM     24  C   UNL d   1       4.463  -2.958  -0.350  0.00  0.00     0.026 A 
ATOM     25  C   UNL d   1       4.448  -1.814   0.447  0.00  0.00     0.028 A 
ATOM     26  C   UNL d   1       3.276  -1.054   0.593  0.00  0.00     0.062 A 
ATOM     27 CL   UNL d   1       3.367   0.241   1.739  0.00  0.00    -0.082 Cl
ENDBRANCH   1  20
TORSDOF 5
