REMARK  5 active torsions:
REMARK  status: ('A' for Active; 'I' for Inactive)
REMARK    1  A    between atoms: C_2  and  S_1 
REMARK    2  A    between atoms: N_4  and  S_1 
REMARK    3  A    between atoms: S_6  and  N_4 
REMARK    4  A    between atoms: C_7  and  S_6 
REMARK    5  A    between atoms: C_8  and  C_13 
ROOT
ATOM      1  N   UNL d   1       0.861  -2.163   0.759  0.00  0.00    -0.258 N 
ATOM      2  HN  UNL d   1       1.777  -1.845   1.074  1.00  0.00     0.186 HD
ENDROOT
BRANCH   1   3
ATOM      3  S   UNL d   1      -0.475  -2.068   1.807  0.00  0.00     0.270 S 
ATOM      4  O   UNL d   1      -1.549  -1.346   1.147  0.00  0.00    -0.200 OA
ATOM      5  O   UNL d   1      -0.726  -3.337   2.455  0.00  0.00    -0.200 OA
BRANCH   3   6
ATOM      6  C   UNL d   1       0.199  -0.987   3.022  0.00  0.00     0.109 A 
ATOM      7  C   UNL d   1       1.459  -1.237   3.616  0.00  0.00     0.090 A 
ATOM      8  N   UNL d   1       2.256  -2.305   3.447  0.00  0.00    -0.309 N 
ATOM      9  C   UNL d   1       2.063  -0.214   4.547  0.00  0.00     0.068 A 
ATOM     10  S   UNL d   1       3.607  -2.059   4.374  0.00  0.00     0.068 SA
ATOM     11  HN  UNL d   1       2.064  -3.115   2.859  1.00  0.00     0.176 HD
ATOM     12  N   UNL d   1       3.266  -0.571   5.022  0.00  0.00    -0.310 N 
ATOM     13  HN  UNL d   1       3.855  -0.032   5.657  1.00  0.00     0.176 HD
ATOM     14  C   UNL d   1       1.387   0.995   4.841  0.00  0.00     0.032 A 
ATOM     15  C   UNL d   1       0.134   1.176   4.228  0.00  0.00     0.004 A 
ATOM     16  C   UNL d   1      -0.439   0.226   3.352  0.00  0.00     0.028 A 
ENDBRANCH   3   6
ENDBRANCH   1   3
BRANCH   1  17
ATOM     17  S   UNL d   1       0.686  -2.750  -0.719  0.00  0.00    -0.068 SA
ATOM     18  C   UNL d   1       0.194  -4.441  -0.306  0.00  0.00     0.109 C 
BRANCH  17  19
ATOM     19  C   UNL d   1       2.470  -2.942  -0.865  0.00  0.00     0.101 A 
ATOM     20  N   UNL d   1       2.933  -4.081  -0.295  0.00  0.00    -0.358 N 
ATOM     21  C   UNL d   1       4.274  -4.247  -0.243  0.00  0.00     0.105 A 
ATOM     22  HN  UNL d   1       2.297  -4.785   0.079  1.00  0.00     0.166 HD
ATOM     23  C   UNL d   1       5.187  -3.331  -0.747  0.00  0.00     0.065 A 
ATOM     24  C   UNL d   1       4.680  -2.168  -1.340  0.00  0.00     0.044 A 
ATOM     25  C   UNL d   1       3.302  -1.962  -1.401  0.00  0.00     0.069 A 
ATOM     26 CL   UNL d   1       2.717  -0.501  -2.101  0.00  0.00    -0.081 Cl
BRANCH  23  27
ATOM     27  C   UNL d   1       6.654  -3.611  -0.641  0.00  0.00     0.418 C 
ATOM     28  F   UNL d   1       7.430  -2.641  -1.198  0.00  0.00    -0.166 F 
ATOM     29  F   UNL d   1       7.071  -3.728   0.649  0.00  0.00    -0.166 F 
ATOM     30  F   UNL d   1       7.007  -4.772  -1.257  0.00  0.00    -0.166 F 
ENDBRANCH  23  27
ENDBRANCH  17  19
ENDBRANCH   1  17
TORSDOF 5
