REMARK  9 active torsions:
REMARK  status: ('A' for Active; 'I' for Inactive)
REMARK    1  A    between atoms: N_2  and  C_1 
REMARK    2  A    between atoms: C_3  and  C_1 
REMARK    3  A    between atoms: C_4  and  C_1 
REMARK    4  A    between atoms: N_5  and  C_1 
REMARK       I    between atoms: C_6  and  N_2 
REMARK    5  A    between atoms: O_16  and  C_4 
REMARK    6  A    between atoms: C_7  and  N_5 
REMARK    7  A    between atoms: O_15  and  C_6 
REMARK    8  A    between atoms: C_21  and  O_15 
REMARK    9  A    between atoms: C_22  and  O_16 
ROOT
ATOM      1  C   UNL d   1       1.015  -0.078   0.023  0.00  0.00     0.298 C 
ENDROOT
BRANCH   1   2
ATOM      2  N   UNL d   1       0.322  -0.105   1.308  0.00  0.00    -0.294 N 
ATOM      3  C   UNL d   1       0.231   0.968   2.120  0.00  0.00     0.363 C 
ATOM      4  O   UNL d   1       0.826   2.016   1.962  0.00  0.00    -0.238 OA
ATOM      5  H   UNL d   1      -0.293  -0.882   1.515  0.00  0.00     0.168 HD
BRANCH   3   6
ATOM      6  O   UNL d   1      -0.619   0.664   3.129  0.00  0.00    -0.304 OA
BRANCH   6   7
ATOM      7  C   UNL d   1      -0.715   1.638   4.177  0.00  0.00     0.176 C 
ATOM      8  C   UNL d   1       0.411   1.403   5.165  0.00  0.00     0.034 C 
ENDBRANCH   6   7
ENDBRANCH   3   6
ENDBRANCH   1   2
BRANCH   1   9
ATOM      9  C   UNL d   1       0.578   1.098  -0.928  0.00  0.00     0.442 C 
ATOM     10  F   UNL d   1      -0.513   1.760  -0.462  0.00  0.00    -0.166 F 
ATOM     11  F   UNL d   1       1.567   2.018  -1.071  0.00  0.00    -0.166 F 
ATOM     12  F   UNL d   1       0.253   0.690  -2.180  0.00  0.00    -0.166 F 
ENDBRANCH   1   9
BRANCH   1  13
ATOM     13  C   UNL d   1       0.570  -1.333  -0.758  0.00  0.00     0.318 C 
ATOM     14  O   UNL d   1      -0.495  -1.914  -0.552  0.00  0.00    -0.260 OA
BRANCH  13  15
ATOM     15  O   UNL d   1       1.506  -1.738  -1.664  0.00  0.00    -0.318 OA
BRANCH  15  16
ATOM     16  C   UNL d   1       1.240  -2.969  -2.348  0.00  0.00     0.174 C 
ATOM     17  C   UNL d   1       1.551  -4.160  -1.459  0.00  0.00     0.034 C 
ENDBRANCH  15  16
ENDBRANCH  13  15
ENDBRANCH   1  13
BRANCH   1  18
ATOM     18  N   UNL d   1       2.477  -0.104   0.326  0.00  0.00    -0.348 N 
ATOM     19  H   UNL d   1       2.850   0.831   0.492  0.00  0.00     0.163 HD
BRANCH  18  20
ATOM     20  C   UNL d   1       3.173  -1.115   0.977  0.00  0.00     0.033 A 
ATOM     21  C   UNL d   1       2.589  -2.278   1.485  0.00  0.00     0.071 A 
ATOM     22  C   UNL d   1       3.368  -3.294   2.038  0.00  0.00     0.118 A 
ATOM     23  F   UNL d   1       2.765  -4.390   2.518  0.00  0.00    -0.206 F 
ATOM     24  C   UNL d   1       4.749  -3.197   2.086  0.00  0.00     0.042 A 
ATOM     25  C   UNL d   1       5.359  -2.062   1.568  0.00  0.00     0.005 A 
ATOM     26  C   UNL d   1       4.576  -1.036   1.019  0.00  0.00     0.029 A 
ENDBRANCH  18  20
ENDBRANCH   1  18
TORSDOF 9
