REMARK  9 active torsions:
REMARK  status: ('A' for Active; 'I' for Inactive)
REMARK    1  A    between atoms: N_3  and  C_1 
REMARK    2  A    between atoms: N_7  and  C_1 
REMARK    3  A    between atoms: O_12  and  C_2 
REMARK    4  A    between atoms: C_9  and  N_3 
REMARK    5  A    between atoms: O_16  and  C_5 
REMARK    6  A    between atoms: C_19  and  N_7 
REMARK    7  A    between atoms: C_10  and  C_20 
REMARK    8  A    between atoms: C_21  and  C_13 
REMARK    9  A    between atoms: C_20  and  C_19 
ROOT
ATOM      1  N   UNL d   1       2.530  -0.199  -0.118  0.00  0.00    -0.367 N 
ATOM      2  H   UNL d   1       2.893  -0.056   0.820  0.00  0.00     0.161 HD
ENDROOT
BRANCH   1   3
ATOM      3  C   UNL d   1       1.160  -0.160  -0.130  0.00  0.00     0.172 C 
ATOM      4  S   UNL d   1       0.398  -0.045   1.354  0.00  0.00    -0.041 SA
BRANCH   3   5
ATOM      5  N   UNL d   1       0.584  -0.267  -1.377  0.00  0.00    -0.333 N 
ATOM      6  H   UNL d   1       1.000  -0.993  -1.942  0.00  0.00     0.168 HD
BRANCH   5   7
ATOM      7  C   UNL d   1      -0.738   0.099  -1.708  0.00  0.00     0.034 A 
ATOM      8  C   UNL d   1      -1.295   1.292  -1.243  0.00  0.00     0.030 A 
ATOM      9  C   UNL d   1      -2.628   1.599  -1.510  0.00  0.00     0.009 A 
ATOM     10  C   UNL d   1      -3.420   0.718  -2.254  0.00  0.00    -0.058 A 
ATOM     11  C   UNL d   1      -2.833  -0.437  -2.787  0.00  0.00     0.009 A 
ATOM     12  C   UNL d   1      -1.490  -0.734  -2.537  0.00  0.00     0.030 A 
BRANCH  10  13
ATOM     13  C   UNL d   1      -4.898   0.976  -2.402  0.00  0.00     0.034 C 
ATOM     14  C   UNL d   1      -5.670   0.407  -1.220  0.00  0.00     0.010 C 
ENDBRANCH  10  13
ENDBRANCH   5   7
ENDBRANCH   3   5
ENDBRANCH   1   3
BRANCH   1  15
ATOM     15  C   UNL d   1       3.361   0.266  -1.215  0.00  0.00     0.126 C 
BRANCH  15  16
ATOM     16  C   UNL d   1       4.839   0.320  -0.831  0.00  0.00     0.058 C 
BRANCH  16  17
ATOM     17  C   UNL d   1       5.654   0.869  -1.972  0.00  0.00    -0.054 A 
ATOM     18  C   UNL d   1       6.164   0.005  -2.954  0.00  0.00     0.046 A 
ATOM     19  C   UNL d   1       6.846   0.500  -4.075  0.00  0.00     0.102 A 
ATOM     20  C   UNL d   1       7.002   1.891  -4.211  0.00  0.00     0.101 A 
ATOM     21  C   UNL d   1       6.524   2.748  -3.213  0.00  0.00     0.040 A 
ATOM     22  C   UNL d   1       5.847   2.245  -2.104  0.00  0.00     0.010 A 
BRANCH  19  23
ATOM     23  O   UNL d   1       7.386  -0.303  -5.043  0.00  0.00    -0.353 OA
ATOM     24  C   UNL d   1       7.238  -1.710  -4.905  0.00  0.00     0.210 C 
ENDBRANCH  19  23
BRANCH  20  25
ATOM     25  O   UNL d   1       7.638   2.550  -5.233  0.00  0.00    -0.353 OA
ATOM     26  C   UNL d   1       7.480   1.991  -6.532  0.00  0.00     0.210 C 
ENDBRANCH  20  25
ENDBRANCH  16  17
ENDBRANCH  15  16
ENDBRANCH   1  15
TORSDOF 9
