REMARK  3 active torsions:
REMARK  status: ('A' for Active; 'I' for Inactive)
REMARK    1  A    between atoms: N_4  and  C_3 
REMARK    2  A    between atoms: C_10  and  N_4 
REMARK    3  A    between atoms: C_11  and  N_4 
ROOT
ATOM      1  N   UNL d   1      -3.105   0.409  -0.201  0.00  0.00    -0.191 NA
ATOM      2  C   UNL d   1      -1.951   0.297  -0.160  0.00  0.00     0.099 C 
ATOM      3  C   UNL d   1       2.311  -0.025   0.090  0.00  0.00     0.030 A 
ATOM      4  C   UNL d   1       1.465  -0.986   0.668  0.00  0.00     0.031 A 
ATOM      5  C   UNL d   1       1.686   1.015  -0.618  0.00  0.00     0.031 A 
ATOM      6  C   UNL d   1      -0.523   0.170  -0.101  0.00  0.00     0.044 A 
ATOM      7  C   UNL d   1       0.292   1.116  -0.719  0.00  0.00     0.025 A 
ATOM      8  C   UNL d   1       0.067  -0.889   0.587  0.00  0.00     0.025 A 
ENDROOT
BRANCH   3   9
ATOM      9  N   UNL d   1       3.689  -0.082   0.259  0.00  0.00    -0.382 N 
BRANCH   9  10
ATOM     10  C   UNL d   1       4.391  -1.367   0.166  0.00  0.00     0.118 C 
ATOM     11  C   UNL d   1       4.835  -1.856   1.537  0.00  0.00     0.026 C 
ENDBRANCH   9  10
BRANCH   9  12
ATOM     12  C   UNL d   1       4.511   1.135   0.233  0.00  0.00     0.118 C 
ATOM     13  C   UNL d   1       4.211   2.027   1.431  0.00  0.00     0.026 C 
ENDBRANCH   9  12
ENDBRANCH   3   9
TORSDOF 3
