REMARK  2 active torsions:
REMARK  status: ('A' for Active; 'I' for Inactive)
REMARK    1  A    between atoms: N_10  and  N_5 
REMARK       I    between atoms: C_8  and  N_10 
REMARK    2  A    between atoms: C_9  and  C_8 
ROOT
ATOM      1  C   UNL d   1       2.420   1.059   0.025  0.00  0.00     0.129 A 
ATOM      2  C   UNL d   1       1.113   0.262   0.059  0.00  0.00     0.275 A 
ATOM      3  C   UNL d   1       3.493   0.068   0.034  0.00  0.00     0.026 A 
ATOM      4  N   UNL d   1       1.491  -1.065   0.084  0.00  0.00    -0.321 N 
ATOM      5  N   UNL d   1       2.592   2.340  -0.003  0.00  0.00    -0.292 N 
ATOM      6  HN  UNL d   1       3.527   2.746  -0.029  1.00  0.00     0.187 HD
ATOM      7  C   UNL d   1       2.878  -1.184   0.073  0.00  0.00     0.048 A 
ATOM      8  C   UNL d   1       4.864   0.223   0.019  0.00  0.00     0.035 A 
ATOM      9  O   UNL d   1       0.003   0.747   0.063  0.00  0.00    -0.266 OA
ATOM     10  C   UNL d   1       3.620  -2.346   0.099  0.00  0.00     0.032 A 
ATOM     11  C   UNL d   1       5.625  -0.947   0.047  0.00  0.00     0.011 A 
ATOM     12  C   UNL d   1       5.015  -2.219   0.086  0.00  0.00     0.021 A 
ATOM     13 BR   UNL d   1       7.513  -0.830   0.035  0.00  0.00    -0.051 Br
ATOM     14  H   UNL d   1       0.831  -1.827   0.111  0.00  0.00     0.169 HD
ENDROOT
BRANCH   5  15
ATOM     15  N   UNL d   1       1.475   3.135   0.002  0.00  0.00    -0.264 N 
ATOM     16  C   UNL d   1       1.611   4.519  -0.030  0.00  0.00     0.293 C 
ATOM     17  O   UNL d   1       2.700   5.090  -0.080  0.00  0.00    -0.264 OA
ATOM     18  H   UNL d   1       0.542   2.719   0.040  0.00  0.00     0.190 HD
BRANCH  16  19
ATOM     19  C   UNL d   1       0.358   5.253   0.003  0.00  0.00     0.144 A 
ATOM     20  O   UNL d   1      -0.838   4.586   0.075  0.00  0.00    -0.317 OA
ATOM     21  C   UNL d   1      -1.818   5.528   0.097  0.00  0.00     0.143 A 
ATOM     22  C   UNL d   1      -1.280   6.792   0.038  0.00  0.00     0.027 A 
ATOM     23  C   UNL d   1       0.121   6.616  -0.024  0.00  0.00     0.045 A 
ENDBRANCH  16  19
ENDBRANCH   5  15
TORSDOF 2
