REMARK  3 active torsions:
REMARK  status: ('A' for Active; 'I' for Inactive)
REMARK    1  A    between atoms: C_3  and  C_1 
REMARK       I    between atoms: N_8  and  C_3 
REMARK    2  A    between atoms: N_9  and  N_8 
REMARK    3  A    between atoms: C_10  and  N_9 
ROOT
ATOM      1  C   UNL d   1       1.499  -0.972   0.985  0.00  0.00     0.276 C 
ATOM      2  N   UNL d   1       1.837  -2.321   1.088  0.00  0.00    -0.282 N 
ATOM      3  O   UNL d   1       1.556  -0.402  -0.105  0.00  0.00    -0.266 OA
ATOM      4  H   UNL d   1       1.599  -2.879   1.901  0.00  0.00     0.184 HD
ENDROOT
BRANCH   2   5
ATOM      5  N   UNL d   1       2.079  -3.046  -0.102  0.00  0.00    -0.203 NA
ATOM      6  H   UNL d   1       2.290  -2.388  -0.868  0.00  0.00     0.153 HD
BRANCH   5   7
ATOM      7  C   UNL d   1       3.159  -3.969   0.001  0.00  0.00     0.033 A 
ATOM      8  C   UNL d   1       3.213  -5.080  -0.867  0.00  0.00    -0.039 A 
ATOM      9  C   UNL d   1       4.310  -5.963  -0.804  0.00  0.00     0.015 A 
ATOM     10  C   UNL d   1       2.119  -5.404  -1.852  0.00  0.00     0.050 C 
ATOM     11  C   UNL d   1       5.376  -5.738   0.073  0.00  0.00    -0.061 A 
ATOM     12  C   UNL d   1       5.342  -4.615   0.897  0.00  0.00     0.008 A 
ATOM     13  C   UNL d   1       6.542  -6.681   0.097  0.00  0.00     0.048 C 
ATOM     14  C   UNL d   1       4.252  -3.738   0.853  0.00  0.00     0.026 A 
ENDBRANCH   5   7
ENDBRANCH   2   5
BRANCH   1  15
ATOM     15  C   UNL d   1       1.106  -0.310   2.213  0.00  0.00     0.111 A 
ATOM     16  C   UNL d   1       0.659   0.988   2.436  0.00  0.00     0.043 A 
ATOM     17  N   UNL d   1       0.400   1.288   3.774  0.00  0.00    -0.296 N 
ATOM     18  C   UNL d   1       0.427   2.081   1.458  0.00  0.00     0.071 C 
ATOM     19  N   UNL d   1       0.635   0.260   4.568  0.00  0.00    -0.061 NA
ATOM     20  HN  UNL d   1       0.067   2.195   4.101  1.00  0.00     0.183 HD
ATOM     21  S   UNL d   1       1.166  -1.083   3.744  0.00  0.00     0.007 SA
ENDBRANCH   1  15
TORSDOF 3
