REMARK  5 active torsions:
REMARK  status: ('A' for Active; 'I' for Inactive)
REMARK    1  A    between atoms: C_2  and  C_1 
REMARK       I    between atoms: N_9  and  C_1 
REMARK    2  A    between atoms: C_6  and  C_3 
REMARK    3  A    between atoms: C_4  and  N_10 
REMARK    4  A    between atoms: O_15  and  C_6 
REMARK    5  A    between atoms: N_10  and  N_9 
ROOT
ATOM      1  C   UNL d   1      -0.092  -3.471   0.683  0.00  0.00     0.119 A 
ATOM      2  C   UNL d   1       0.341  -4.797   0.758  0.00  0.00     0.084 A 
ATOM      3  C   UNL d   1       1.636  -5.193   0.293  0.00  0.00     0.103 C 
ATOM      4  N   UNL d   1       2.687  -5.529  -0.062  0.00  0.00    -0.191 NA
ATOM      5  N   UNL d   1      -1.341  -3.105   1.091  0.00  0.00    -0.354 N 
ATOM      6  HN  UNL d   1      -1.653  -2.137   1.015  1.00  0.00     0.166 HD
ATOM      7  C   UNL d   1      -0.527  -5.761   1.285  0.00  0.00     0.027 A 
ATOM      8  C   UNL d   1      -2.153  -4.056   1.599  0.00  0.00     0.089 A 
ATOM      9  C   UNL d   1      -1.795  -5.385   1.715  0.00  0.00     0.019 A 
ENDROOT
BRANCH   1  10
ATOM     10  N   UNL d   1       0.725  -2.472   0.096  0.00  0.00    -0.186 NA
ATOM     11  H   UNL d   1       1.656  -2.428   0.526  0.00  0.00     0.154 HD
BRANCH  10  12
ATOM     12  N   UNL d   1       0.092  -1.216   0.108  0.00  0.00    -0.281 N 
ATOM     13  C   UNL d   1       0.878  -0.092   0.172  0.00  0.00     0.267 C 
ATOM     14  O   UNL d   1       2.100  -0.137   0.285  0.00  0.00    -0.266 OA
ATOM     15  H   UNL d   1      -0.927  -1.250   0.203  0.00  0.00     0.184 HD
BRANCH  13  16
ATOM     16  C   UNL d   1       0.189   1.218   0.088  0.00  0.00     0.050 A 
ATOM     17  C   UNL d   1      -0.941   1.482  -0.702  0.00  0.00     0.053 A 
ATOM     18  C   UNL d   1      -1.516   2.767  -0.672  0.00  0.00     0.019 A 
ATOM     19  C   UNL d   1      -0.957   3.785   0.100  0.00  0.00     0.001 A 
ATOM     20  C   UNL d   1       0.183   3.534   0.855  0.00  0.00     0.001 A 
ATOM     21  C   UNL d   1       0.754   2.260   0.848  0.00  0.00     0.018 A 
BRANCH  17  22
ATOM     22  C   UNL d   1      -1.625   0.511  -1.589  0.00  0.00     0.177 C 
ATOM     23  O   UNL d   1      -2.841   0.466  -1.660  0.00  0.00    -0.646 OA
BRANCH  22  24
ATOM     24  O   UNL d   1      -0.824  -0.246  -2.360  0.00  0.00    -0.773 OA
ATOM     25  H   UNL d   1       0.140  -0.192  -2.218  0.00  0.00     0.167 HD
ENDBRANCH  22  24
ENDBRANCH  17  22
ENDBRANCH  13  16
ENDBRANCH  10  12
ENDBRANCH   1  10
TORSDOF 5
