REMARK  2 active torsions:
REMARK  status: ('A' for Active; 'I' for Inactive)
REMARK    1  A    between atoms: N_2  and  N_6 
REMARK    2  A    between atoms: C_9  and  C_8 
ROOT
ATOM      1  N   UNL d   1       0.400  -3.424   0.016  0.00  0.00    -0.302 N 
ATOM      2  HN  UNL d   1      -0.376  -2.763   0.039  1.00  0.00     0.186 HD
ATOM      3  C   UNL d   1       0.169  -4.707   0.047  0.00  0.00     0.032 C 
ATOM      4  C   UNL d   1       1.233  -5.788  -0.025  0.00  0.00     0.070 C 
ENDROOT
BRANCH   1   5
ATOM      5  N   UNL d   1       1.683  -2.972  -0.046  0.00  0.00    -0.276 N 
ATOM      6  C   UNL d   1       2.072  -1.671  -0.130  0.00  0.00     0.168 C 
ATOM      7  N   UNL d   1       3.314  -1.275  -0.219  0.00  0.00    -0.364 N 
ATOM      8  N   UNL d   1       1.102  -0.716  -0.161  0.00  0.00    -0.262 NA
ATOM      9  C   UNL d   1       3.194   0.209  -0.320  0.00  0.00     0.137 C 
ATOM     10  HN  UNL d   1       4.161  -1.844  -0.219  1.00  0.00     0.162 HD
ATOM     11  C   UNL d   1       1.718   0.501  -0.622  0.00  0.00     0.115 C 
ATOM     12  H   UNL d   1       0.247  -1.038  -0.598  0.00  0.00     0.130 HD
ATOM     13  H   UNL d   1       2.479  -3.591   0.040  0.00  0.00     0.189 HD
ENDBRANCH   1   5
BRANCH   3  14
ATOM     14  C   UNL d   1      -1.264  -5.167   0.173  0.00  0.00    -0.013 A 
ATOM     15  C   UNL d   1      -2.294  -4.214   0.209  0.00  0.00     0.015 A 
ATOM     16  C   UNL d   1      -3.630  -4.612   0.332  0.00  0.00     0.024 A 
ATOM     17  C   UNL d   1      -3.946  -5.965   0.419  0.00  0.00     0.034 A 
ATOM     18  C   UNL d   1      -2.936  -6.923   0.389  0.00  0.00     0.024 A 
ATOM     19 CL   UNL d   1      -5.586  -6.458   0.569  0.00  0.00    -0.084 Cl
ATOM     20  C   UNL d   1      -1.599  -6.526   0.269  0.00  0.00     0.015 A 
ENDBRANCH   3  14
TORSDOF 2
