REMARK  4 active torsions:
REMARK  status: ('A' for Active; 'I' for Inactive)
REMARK       I    between atoms: N_7  and  C_1 
REMARK       I    between atoms: N_8  and  C_1 
REMARK    1  A    between atoms: C_2  and  C_6 
REMARK    2  A    between atoms: N_3  and  N_8 
REMARK    3  A    between atoms: C_13  and  N_7 
REMARK    4  A    between atoms: C_16  and  C_13 
ROOT
ATOM      1  C   UNL d   1       1.035  -0.071  -0.099  0.00  0.00     0.335 C 
ATOM      2  N   UNL d   1       0.338   0.424   0.981  0.00  0.00    -0.338 N 
ATOM      3  N   UNL d   1       0.191  -0.498  -1.109  0.00  0.00    -0.252 N 
ATOM      4  O   UNL d   1       2.258  -0.121  -0.136  0.00  0.00    -0.246 OA
ATOM      5  H   UNL d   1      -0.666   0.458   0.965  0.00  0.00     0.164 HD
ATOM      6  H   UNL d   1      -0.810  -0.431  -0.996  0.00  0.00     0.191 HD
ENDROOT
BRANCH   2   7
ATOM      7  C   UNL d   1       1.020   0.936   2.148  0.00  0.00     0.163 C 
BRANCH   7   8
ATOM      8  C   UNL d   1       0.619   0.187   3.394  0.00  0.00    -0.039 A 
ATOM      9  C   UNL d   1       0.030   0.857   4.476  0.00  0.00     0.032 A 
ATOM     10  C   UNL d   1      -0.288   0.161   5.644  0.00  0.00     0.034 A 
ATOM     11 CL   UNL d   1      -0.997   1.001   6.969  0.00  0.00    -0.084 Cl
ATOM     12  C   UNL d   1      -0.030  -1.204   5.749  0.00  0.00     0.024 A 
ATOM     13  C   UNL d   1       0.553  -1.880   4.679  0.00  0.00     0.002 A 
ATOM     14  C   UNL d   1       0.878  -1.189   3.510  0.00  0.00     0.009 A 
ENDBRANCH   7   8
ENDBRANCH   2   7
BRANCH   3  15
ATOM     15  N   UNL d   1       0.713  -1.034  -2.252  0.00  0.00    -0.307 N 
ATOM     16  C   UNL d   1      -0.144  -1.410  -3.148  0.00  0.00     0.126 C 
ATOM     17  HN  UNL d   1       1.718  -1.132  -2.393  1.00  0.00     0.186 HD
BRANCH  16  18
ATOM     18  C   UNL d   1       0.298  -1.984  -4.393  0.00  0.00     0.021 A 
ATOM     19  S   UNL d   1      -0.862  -2.451  -5.559  0.00  0.00    -0.101 SA
ATOM     20  C   UNL d   1       0.350  -2.946  -6.660  0.00  0.00     0.050 A 
ATOM     21  C   UNL d   1       1.616  -2.781  -6.142  0.00  0.00     0.008 A 
ATOM     22  C   UNL d   1       1.586  -2.230  -4.828  0.00  0.00     0.021 A 
ENDBRANCH  16  18
ENDBRANCH   3  15
TORSDOF 4
