REMARK  2 active torsions:
REMARK  status: ('A' for Active; 'I' for Inactive)
REMARK    1  A    between atoms: C_8  and  N_5 
REMARK    2  A    between atoms: O_11  and  C_10 
ROOT
ATOM      1  C   UNL d   1      -0.516  -0.944  -0.603  0.00  0.00     0.146 C 
ATOM      2  S   UNL d   1       1.208  -0.994  -0.982  0.00  0.00    -0.057 SA
ATOM      3  N   UNL d   1      -0.890   0.345  -0.332  0.00  0.00    -0.357 N 
ATOM      4  C   UNL d   1       1.413   0.682  -0.523  0.00  0.00     0.004 C 
ATOM      5  N   UNL d   1      -1.357  -1.927  -0.557  0.00  0.00    -0.335 N 
ATOM      6  HN  UNL d   1      -2.326  -1.724  -0.310  1.00  0.00     0.168 HD
ATOM      7  C   UNL d   1       0.077   1.415  -0.538  0.00  0.00     0.058 C 
ATOM      8  C   UNL d   1       2.601   1.125  -0.084  0.00  0.00     0.029 C 
ATOM      9  C   UNL d   1      -0.086   2.456   0.574  0.00  0.00     0.044 C 
ATOM     10  C   UNL d   1      -0.166   2.064  -1.909  0.00  0.00     0.044 C 
ATOM     11  H   UNL d   1      -1.882   0.544  -0.296  0.00  0.00     0.162 HD
ENDROOT
BRANCH   5  12
ATOM     12  C   UNL d   1      -1.002  -3.265  -0.831  0.00  0.00     0.067 A 
ATOM     13  C   UNL d   1      -1.734  -4.064  -1.734  0.00  0.00     0.094 A 
ATOM     14  C   UNL d   1      -1.318  -5.382  -1.994  0.00  0.00     0.039 A 
ATOM     15  C   UNL d   1      -0.205  -5.929  -1.360  0.00  0.00     0.003 A 
ATOM     16  C   UNL d   1       0.486  -5.173  -0.425  0.00  0.00     0.002 A 
ATOM     17  C   UNL d   1       0.067  -3.871  -0.143  0.00  0.00     0.032 A 
BRANCH  13  18
ATOM     18  O   UNL d   1      -2.855  -3.731  -2.454  0.00  0.00    -0.354 OA
ATOM     19  C   UNL d   1      -3.587  -2.579  -2.058  0.00  0.00     0.210 C 
ENDBRANCH  13  18
ENDBRANCH   5  12
TORSDOF 2
