REMARK  3 active torsions:
REMARK  status: ('A' for Active; 'I' for Inactive)
REMARK    1  A    between atoms: C_2  and  S_1 
REMARK    2  A    between atoms: N_5  and  S_1 
REMARK    3  A    between atoms: C_10  and  N_5 
ROOT
ATOM      1  S   UNL d   1       0.866  -0.667  -0.635  0.00  0.00     0.260 S 
ATOM      2  O   UNL d   1       1.046   0.436  -1.564  0.00  0.00    -0.200 OA
ATOM      3  O   UNL d   1       1.857  -1.692  -0.436  0.00  0.00    -0.200 OA
ENDROOT
BRANCH   1   4
ATOM      4  C   UNL d   1      -0.649  -1.466  -1.073  0.00  0.00     0.102 A 
ATOM      5  C   UNL d   1      -1.670  -1.618  -0.130  0.00  0.00     0.052 A 
ATOM      6  C   UNL d   1      -2.844  -2.299  -0.466  0.00  0.00     0.057 A 
ATOM      7 CL   UNL d   1      -4.034  -2.492   0.770  0.00  0.00    -0.083 Cl
ATOM      8  C   UNL d   1      -3.014  -2.800  -1.758  0.00  0.00     0.057 A 
ATOM      9  C   UNL d   1      -2.009  -2.616  -2.711  0.00  0.00     0.051 A 
ATOM     10 CL   UNL d   1      -4.435  -3.652  -2.241  0.00  0.00    -0.082 Cl
ATOM     11  C   UNL d   1      -0.821  -1.956  -2.374  0.00  0.00     0.059 A 
ATOM     12 CL   UNL d   1       0.363  -1.821  -3.623  0.00  0.00    -0.083 Cl
ENDBRANCH   1   4
BRANCH   1  13
ATOM     13  N   UNL d   1       0.593   0.109   0.813  0.00  0.00    -0.310 N 
ATOM     14  H   UNL d   1       0.594   1.120   0.686  0.00  0.00     0.172 HD
BRANCH  13  15
ATOM     15  C   UNL d   1       0.707  -0.452   2.171  0.00  0.00     0.097 C 
ATOM     16  C   UNL d   1       0.074   0.577   3.127  0.00  0.00     0.061 C 
ATOM     17  C   UNL d   1       1.063   1.645   3.647  0.00  0.00     0.225 C 
ATOM     18  C   UNL d   1       1.871   2.378   2.563  0.00  0.00     0.038 C 
ATOM     19  N   UNL d   1       2.181   1.020   4.341  0.00  0.00     0.093 N 
ATOM     20  C   UNL d   1       3.093   1.482   2.303  0.00  0.00     0.038 C 
ATOM     21  C   UNL d   1       2.921   0.324   3.288  0.00  0.00     0.225 C 
ATOM     22  C   UNL d   1       2.128  -0.824   2.631  0.00  0.00     0.061 C 
ATOM     23  C   UNL d   1       1.894   0.323   5.574  0.00  0.00     0.310 C 
ENDBRANCH  13  15
ENDBRANCH   1  13
TORSDOF 3
