REMARK  4 active torsions:
REMARK  status: ('A' for Active; 'I' for Inactive)
REMARK    1  A    between atoms: C_2  and  C_1 
REMARK    2  A    between atoms: C_3  and  C_2 
REMARK    3  A    between atoms: N_4  and  C_2 
REMARK    4  A    between atoms: O_14  and  C_7 
ROOT
ATOM      1  C   UNL d   1       1.038  -0.882  -0.031  0.00  0.00     0.024 A 
ATOM      2  C   UNL d   1      -0.166  -0.515   0.664  0.00  0.00    -0.014 A 
ATOM      3  C   UNL d   1       1.803   0.138  -0.632  0.00  0.00     0.075 A 
ATOM      4  C   UNL d   1      -0.548   0.852   0.702  0.00  0.00    -0.025 A 
ATOM      5  C   UNL d   1       1.416   1.471  -0.582  0.00  0.00     0.038 A 
ATOM      6  C   UNL d   1       0.245   1.824   0.077  0.00  0.00     0.015 A 
ATOM      7  C   UNL d   1      -1.031  -1.429   1.323  0.00  0.00     0.013 A 
ATOM      8  C   UNL d   1      -1.730   1.248   1.352  0.00  0.00     0.012 A 
ATOM      9  C   UNL d   1      -2.200  -1.021   1.970  0.00  0.00     0.001 A 
ATOM     10  C   UNL d   1      -2.553   0.319   1.983  0.00  0.00     0.001 A 
ENDROOT
BRANCH   1  11
ATOM     11  C   UNL d   1       1.418  -2.363  -0.231  0.00  0.00     0.299 C 
BRANCH  11  12
ATOM     12  C   UNL d   1       0.736  -2.893  -1.493  0.00  0.00     0.020 A 
ATOM     13  S   UNL d   1      -0.413  -4.171  -1.365  0.00  0.00    -0.104 SA
ATOM     14  C   UNL d   1      -0.645  -4.225  -3.054  0.00  0.00     0.050 A 
ATOM     15  C   UNL d   1       0.114  -3.285  -3.712  0.00  0.00     0.008 A 
ATOM     16  C   UNL d   1       0.900  -2.508  -2.813  0.00  0.00     0.017 A 
ENDBRANCH  11  12
BRANCH  11  17
ATOM     17  N   UNL d   1       2.921  -2.607  -0.220  0.00  0.00     0.102 N 
ATOM     18  C   UNL d   1       3.412  -2.432   1.176  0.00  0.00     0.273 C 
ATOM     19  C   UNL d   1       4.880  -2.821   1.372  0.00  0.00     0.030 C 
ATOM     20  C   UNL d   1       5.135  -4.245   0.905  0.00  0.00     0.003 C 
ATOM     21  C   UNL d   1       4.699  -4.371  -0.543  0.00  0.00     0.030 C 
ATOM     22  C   UNL d   1       3.230  -3.977  -0.699  0.00  0.00     0.273 C 
ENDBRANCH  11  17
ENDBRANCH   1  11
BRANCH   3  23
ATOM     23  O   UNL d   1       2.970  -0.115  -1.302  0.00  0.00    -0.360 OA
ATOM     24  H   UNL d   1       3.225  -1.042  -1.097  0.00  0.00     0.217 HD
ENDBRANCH   3  23
TORSDOF 4
