REMARK  6 active torsions:
REMARK  status: ('A' for Active; 'I' for Inactive)
REMARK    1  A    between atoms: N_8  and  S_1 
REMARK    2  A    between atoms: C_13  and  S_1 
REMARK    3  A    between atoms: C_2  and  C_9 
REMARK    4  A    between atoms: C_20  and  C_5 
REMARK    5  A    between atoms: C_9  and  N_8 
REMARK    6  A    between atoms: C_12  and  C_19 
ROOT
ATOM      1  N   UNL d   1       0.495   0.773   1.332  0.00  0.00    -0.211 NA
ATOM      2  H   UNL d   1      -0.509   0.923   1.274  0.00  0.00     0.140 HD
ENDROOT
BRANCH   1   3
ATOM      3  S   UNL d   1       1.025  -0.127   0.001  0.00  0.00     0.241 S 
ATOM      4  O   UNL d   1       2.436  -0.389   0.164  0.00  0.00    -0.206 OA
ATOM      5  O   UNL d   1       0.480   0.505  -1.179  0.00  0.00    -0.206 OA
BRANCH   3   6
ATOM      6  C   UNL d   1       0.138  -1.653   0.227  0.00  0.00     0.074 A 
ATOM      7  C   UNL d   1      -1.257  -1.642   0.144  0.00  0.00     0.026 A 
ATOM      8  C   UNL d   1      -1.971  -2.820   0.381  0.00  0.00     0.016 A 
ATOM      9  C   UNL d   1      -1.305  -4.017   0.689  0.00  0.00    -0.001 A 
ATOM     10  C   UNL d   1       0.100  -4.009   0.738  0.00  0.00     0.016 A 
ATOM     11  C   UNL d   1       0.824  -2.833   0.510  0.00  0.00     0.026 A 
BRANCH   9  12
ATOM     12  C   UNL d   1      -2.066  -5.230   0.960  0.00  0.00     0.102 A 
ATOM     13  O   UNL d   1      -1.357  -6.365   1.264  0.00  0.00    -0.304 OA
ATOM     14  C   UNL d   1      -2.314  -7.308   1.480  0.00  0.00     0.233 A 
ATOM     15  N   UNL d   1      -3.551  -6.890   1.346  0.00  0.00    -0.354 N 
ATOM     16  C   UNL d   1      -3.402  -5.567   1.013  0.00  0.00     0.127 A 
ATOM     17  HN  UNL d   1      -4.415  -7.420   1.462  1.00  0.00     0.166 HD
ENDBRANCH   9  12
ENDBRANCH   3   6
ENDBRANCH   1   3
BRANCH   1  18
ATOM     18  C   UNL d   1       0.966   0.303   2.638  0.00  0.00     0.148 C 
BRANCH  18  19
ATOM     19  C   UNL d   1       0.458   1.145   3.759  0.00  0.00     0.017 A 
ATOM     20  C   UNL d   1       0.702   0.930   5.165  0.00  0.00     0.075 A 
ATOM     21  N   UNL d   1       0.100   1.887   5.889  0.00  0.00    -0.260 N 
ATOM     22  O   UNL d   1      -0.511   2.733   5.000  0.00  0.00    -0.242 OA
ATOM     23  HN  UNL d   1       0.098   1.970   6.906  1.00  0.00     0.195 HD
ATOM     24  C   UNL d   1      -0.290   2.309   3.732  0.00  0.00     0.082 A 
ATOM     25  C   UNL d   1      -0.864   3.164   2.672  0.00  0.00     0.079 C 
BRANCH  20  26
ATOM     26  C   UNL d   1       1.501  -0.106   5.836  0.00  0.00    -0.007 A 
ATOM     27  C   UNL d   1       1.599  -1.414   5.341  0.00  0.00     0.014 A 
ATOM     28  C   UNL d   1       2.406  -2.367   5.971  0.00  0.00     0.001 A 
ATOM     29  C   UNL d   1       3.102  -2.035   7.129  0.00  0.00     0.000 A 
ATOM     30  C   UNL d   1       2.990  -0.753   7.658  0.00  0.00     0.001 A 
ATOM     31  C   UNL d   1       2.199   0.205   7.015  0.00  0.00     0.014 A 
ENDBRANCH  20  26
ENDBRANCH  18  19
ENDBRANCH   1  18
TORSDOF 6
