REMARK  5 active torsions:
REMARK  status: ('A' for Active; 'I' for Inactive)
REMARK    1  A    between atoms: C_7  and  C_1 
REMARK    2  A    between atoms: C_8  and  N_2 
REMARK    3  A    between atoms: C_12  and  C_6 
REMARK       I    between atoms: N_10  and  C_7 
REMARK    4  A    between atoms: C_9  and  C_8 
REMARK    5  A    between atoms: C_20  and  N_10 
ROOT
ATOM      1  C   UNL d   1      -0.805  -1.418  -0.072  0.00  0.00     0.120 A 
ATOM      2  N   UNL d   1       0.445  -0.842  -0.161  0.00  0.00    -0.282 N 
ATOM      3  N   UNL d   1       0.429   0.498  -0.033  0.00  0.00    -0.301 N 
ATOM      4  HN  UNL d   1       1.231   1.127  -0.007  1.00  0.00     0.187 HD
ATOM      5  C   UNL d   1      -1.668  -0.338   0.080  0.00  0.00     0.064 A 
ATOM      6  C   UNL d   1      -0.860   0.829   0.052  0.00  0.00     0.036 A 
ENDROOT
BRANCH   2   7
ATOM      7  C   UNL d   1       1.758  -1.472  -0.333  0.00  0.00     0.189 C 
BRANCH   7   8
ATOM      8  C   UNL d   1       2.446  -1.042  -1.616  0.00  0.00    -0.017 A 
ATOM      9  C   UNL d   1       3.801  -0.668  -1.643  0.00  0.00     0.043 A 
ATOM     10  C   UNL d   1       4.418  -0.286  -2.840  0.00  0.00     0.048 A 
ATOM     11 CL   UNL d   1       4.789  -0.672  -0.224  0.00  0.00    -0.084 Cl
ATOM     12  C   UNL d   1       3.690  -0.284  -4.025  0.00  0.00     0.035 A 
ATOM     13  C   UNL d   1       2.353  -0.669  -4.029  0.00  0.00     0.024 A 
ATOM     14 CL   UNL d   1       4.451   0.183  -5.495  0.00  0.00    -0.084 Cl
ATOM     15  C   UNL d   1       1.739  -1.055  -2.835  0.00  0.00     0.012 A 
ENDBRANCH   7   8
ENDBRANCH   2   7
BRANCH   1  16
ATOM     16  C   UNL d   1      -1.064  -2.838  -0.188  0.00  0.00     0.270 C 
ATOM     17  N   UNL d   1      -2.315  -3.277   0.203  0.00  0.00    -0.352 N 
ATOM     18  H   UNL d   1      -2.923  -2.638   0.695  0.00  0.00     0.163 HD
ATOM     19  O   UNL d   1      -0.227  -3.633  -0.612  0.00  0.00    -0.266 OA
BRANCH  17  20
ATOM     20  C   UNL d   1      -2.632  -4.704   0.216  0.00  0.00     0.076 C 
ATOM     21  C   UNL d   1      -2.204  -5.351   1.534  0.00  0.00     0.032 C 
ATOM     22  C   UNL d   1      -4.115  -4.940  -0.043  0.00  0.00     0.032 C 
ENDBRANCH  17  20
ENDBRANCH   1  16
BRANCH   6  23
ATOM     23  C   UNL d   1      -1.227   2.306   0.073  0.00  0.00    -0.007 C 
ATOM     24  C   UNL d   1      -2.741   2.535   0.223  0.00  0.00     0.021 C 
ATOM     25  C   UNL d   1      -0.516   3.016   1.246  0.00  0.00     0.021 C 
ATOM     26  C   UNL d   1      -0.774   2.971  -1.247  0.00  0.00     0.021 C 
ENDBRANCH   6  23
TORSDOF 5
