REMARK  5 active torsions:
REMARK  status: ('A' for Active; 'I' for Inactive)
REMARK    1  A    between atoms: C_8  and  N_1 
REMARK    2  A    between atoms: S_12  and  C_5 
REMARK    3  A    between atoms: C_19  and  S_12 
REMARK    4  A    between atoms: C_15  and  C_19 
REMARK    5  A    between atoms: C_25  and  C_15 
ROOT
ATOM      1  N   UNL d   1      -0.310  -1.329  -0.041  0.00  0.00    -0.273 N 
ATOM      2  C   UNL d   1       0.930  -0.695   0.040  0.00  0.00     0.163 A 
ATOM      3  N   UNL d   1       0.768   0.613   0.096  0.00  0.00    -0.281 N 
ATOM      4  HN  UNL d   1       1.509   1.304   0.214  1.00  0.00     0.188 HD
ATOM      5  C   UNL d   1      -1.203  -0.265  -0.131  0.00  0.00     0.168 A 
ATOM      6  N   UNL d   1      -0.568   0.882  -0.031  0.00  0.00    -0.278 N 
ATOM      7  HN  UNL d   1      -0.995   1.808  -0.045  1.00  0.00     0.189 HD
ATOM      8  C   UNL d   1       2.222  -1.314  -0.017  0.00  0.00     0.120 A 
ATOM      9  O   UNL d   1       2.480  -2.455  -0.736  0.00  0.00    -0.319 OA
ATOM     10  C   UNL d   1       3.397  -0.918   0.603  0.00  0.00     0.043 A 
ATOM     11  C   UNL d   1       3.779  -2.790  -0.542  0.00  0.00     0.142 A 
ATOM     12  C   UNL d   1       4.389  -1.878   0.281  0.00  0.00     0.027 A 
ENDROOT
BRANCH   1  13
ATOM     13  C   UNL d   1      -0.570  -2.734   0.020  0.00  0.00     0.046 A 
ATOM     14  C   UNL d   1      -1.611  -3.309  -0.720  0.00  0.00     0.069 A 
ATOM     15  C   UNL d   1      -1.827  -4.689  -0.669  0.00  0.00     0.104 A 
ATOM     16  O   UNL d   1      -2.886  -5.172  -1.396  0.00  0.00    -0.346 OA
ATOM     17  C   UNL d   1      -0.977  -5.513   0.074  0.00  0.00     0.102 A 
ATOM     18  C   UNL d   1      -3.203  -6.517  -1.018  0.00  0.00     0.202 C 
ATOM     19  C   UNL d   1      -1.939  -7.356  -0.943  0.00  0.00     0.202 C 
ATOM     20  O   UNL d   1      -1.089  -6.879   0.108  0.00  0.00    -0.346 OA
ATOM     21  C   UNL d   1       0.044  -4.950   0.830  0.00  0.00     0.042 A 
ATOM     22  C   UNL d   1       0.236  -3.566   0.817  0.00  0.00     0.033 A 
ENDBRANCH   1  13
BRANCH   5  23
ATOM     23  S   UNL d   1      -2.937  -0.387  -0.097  0.00  0.00    -0.084 SA
BRANCH  23  24
ATOM     24  C   UNL d   1      -3.428   1.095  -1.029  0.00  0.00     0.166 C 
BRANCH  24  25
ATOM     25  C   UNL d   1      -3.064   1.031  -2.504  0.00  0.00     0.169 C 
ATOM     26  O   UNL d   1      -2.411   0.115  -3.005  0.00  0.00    -0.291 OA
BRANCH  25  27
ATOM     27  C   UNL d   1      -3.540   2.140  -3.396  0.00  0.00     0.010 A 
ATOM     28  C   UNL d   1      -4.407   3.150  -2.954  0.00  0.00     0.015 A 
ATOM     29  C   UNL d   1      -4.849   4.140  -3.838  0.00  0.00     0.001 A 
ATOM     30  C   UNL d   1      -4.427   4.137  -5.167  0.00  0.00     0.000 A 
ATOM     31  C   UNL d   1      -3.560   3.143  -5.616  0.00  0.00     0.001 A 
ATOM     32  C   UNL d   1      -3.121   2.148  -4.737  0.00  0.00     0.015 A 
ENDBRANCH  25  27
ENDBRANCH  24  25
ENDBRANCH  23  24
ENDBRANCH   5  23
TORSDOF 5
