REMARK  3 active torsions:
REMARK  status: ('A' for Active; 'I' for Inactive)
REMARK    1  A    between atoms: C_7  and  N_1 
REMARK    2  A    between atoms: C_11  and  N_3 
REMARK    3  A    between atoms: C_8  and  C_7 
ROOT
ATOM      1  N   UNL d   1      -0.609   1.086   0.001  0.00  0.00    -0.260 N 
ATOM      2  C   UNL d   1      -1.309  -0.088  -0.279  0.00  0.00     0.336 C 
ATOM      3  N   UNL d   1      -0.591  -1.287  -0.114  0.00  0.00    -0.273 N 
ATOM      4  C   UNL d   1       0.777   1.137  -0.007  0.00  0.00     0.274 C 
ATOM      5  C   UNL d   1       1.493  -0.156   0.059  0.00  0.00     0.128 C 
ATOM      6  C   UNL d   1       0.781  -1.284   0.013  0.00  0.00     0.130 C 
ATOM      7  C   UNL d   1       2.905  -0.178   0.168  0.00  0.00     0.106 C 
ATOM      8  N   UNL d   1       4.060  -0.269   0.257  0.00  0.00    -0.191 NA
ATOM      9  O   UNL d   1      -2.458  -0.078  -0.717  0.00  0.00    -0.246 OA
ATOM     10  O   UNL d   1       1.428   2.173  -0.105  0.00  0.00    -0.266 OA
ENDROOT
BRANCH   1  11
ATOM     11  C   UNL d   1      -1.356   2.355  -0.031  0.00  0.00     0.179 C 
BRANCH  11  12
ATOM     12  C   UNL d   1      -1.919   2.768   1.326  0.00  0.00     0.004 A 
ATOM     13  C   UNL d   1      -1.169   3.548   2.233  0.00  0.00     0.043 A 
ATOM     14 CL   UNL d   1       0.384   4.204   1.859  0.00  0.00    -0.084 Cl
ATOM     15  C   UNL d   1      -1.669   3.894   3.497  0.00  0.00     0.024 A 
ATOM     16  C   UNL d   1      -2.940   3.496   3.887  0.00  0.00     0.003 A 
ATOM     17  C   UNL d   1      -3.716   2.762   3.004  0.00  0.00     0.024 A 
ATOM     18  C   UNL d   1      -3.221   2.407   1.740  0.00  0.00     0.043 A 
ATOM     19 CL   UNL d   1      -4.351   1.575   0.735  0.00  0.00    -0.084 Cl
ENDBRANCH  11  12
ENDBRANCH   1  11
BRANCH   3  20
ATOM     20  C   UNL d   1      -1.329  -2.512  -0.148  0.00  0.00     0.043 A 
ATOM     21  C   UNL d   1      -0.968  -3.554  -1.010  0.00  0.00     0.032 A 
ATOM     22  C   UNL d   1      -1.751  -4.711  -1.077  0.00  0.00     0.026 A 
ATOM     23  C   UNL d   1      -2.865  -4.850  -0.248  0.00  0.00     0.034 A 
ATOM     24  C   UNL d   1      -3.201  -3.843   0.652  0.00  0.00     0.026 A 
ATOM     25 CL   UNL d   1      -3.839  -6.263  -0.350  0.00  0.00    -0.084 Cl
ATOM     26  C   UNL d   1      -2.444  -2.671   0.691  0.00  0.00     0.032 A 
ENDBRANCH   3  20
TORSDOF 3
