REMARK  4 active torsions:
REMARK  status: ('A' for Active; 'I' for Inactive)
REMARK    1  A    between atoms: C_9  and  C_5 
REMARK    2  A    between atoms: O_12  and  C_7 
REMARK    3  A    between atoms: C_21  and  O_12 
REMARK    4  A    between atoms: C_19  and  C_21 
ROOT
ATOM      1  N   UNL d   1      -1.615  -1.041  -0.039  0.00  0.00    -0.338 N 
ATOM      2  HN  UNL d   1      -1.979  -1.993  -0.052  1.00  0.00     0.167 HD
ATOM      3  C   UNL d   1      -0.347  -0.679  -0.014  0.00  0.00     0.146 A 
ATOM      4  N   UNL d   1      -0.234   0.708  -0.040  0.00  0.00    -0.315 N 
ATOM      5  C   UNL d   1      -2.350   0.122  -0.043  0.00  0.00     0.060 A 
ATOM      6  C   UNL d   1      -1.511   1.216  -0.045  0.00  0.00     0.128 A 
ATOM      7  C   UNL d   1       0.874  -1.430   0.054  0.00  0.00     0.113 A 
ATOM      8  C   UNL d   1       0.983   1.385  -0.046  0.00  0.00     0.098 A 
ATOM      9  C   UNL d   1       2.125   0.679  -0.025  0.00  0.00     0.020 A 
ATOM     10  C   UNL d   1       2.052  -0.773   0.029  0.00  0.00     0.042 A 
ENDROOT
BRANCH   7  11
ATOM     11  O   UNL d   1       0.863  -2.812   0.156  0.00  0.00    -0.343 OA
BRANCH  11  12
ATOM     12  C   UNL d   1      -0.318  -3.393   0.716  0.00  0.00     0.214 C 
BRANCH  12  13
ATOM     13  C   UNL d   1       0.007  -4.766   1.255  0.00  0.00    -0.032 A 
ATOM     14  C   UNL d   1      -0.123  -5.033   2.626  0.00  0.00     0.035 A 
ATOM     15  C   UNL d   1       0.139  -6.310   3.133  0.00  0.00     0.056 A 
ATOM     16 CL   UNL d   1      -0.058  -6.553   4.832  0.00  0.00    -0.083 Cl
ATOM     17  C   UNL d   1       0.536  -7.333   2.267  0.00  0.00     0.055 A 
ATOM     18  C   UNL d   1       0.673  -7.072   0.900  0.00  0.00     0.026 A 
ATOM     19 CL   UNL d   1       0.868  -8.936   2.819  0.00  0.00    -0.083 Cl
ATOM     20  C   UNL d   1       0.411  -5.796   0.396  0.00  0.00     0.011 A 
ENDBRANCH  12  13
ENDBRANCH  11  12
ENDBRANCH   7  11
BRANCH   5  21
ATOM     21  C   UNL d   1      -3.805   0.123  -0.027  0.00  0.00    -0.008 A 
ATOM     22  C   UNL d   1      -4.491  -1.101   0.039  0.00  0.00     0.015 A 
ATOM     23  C   UNL d   1      -5.888  -1.145   0.065  0.00  0.00     0.024 A 
ATOM     24  C   UNL d   1      -6.613   0.042   0.025  0.00  0.00     0.034 A 
ATOM     25  C   UNL d   1      -5.952   1.266  -0.041  0.00  0.00     0.024 A 
ATOM     26 CL   UNL d   1      -8.332  -0.003   0.056  0.00  0.00    -0.084 Cl
ATOM     27  C   UNL d   1      -4.554   1.308  -0.066  0.00  0.00     0.015 A 
ENDBRANCH   5  21
TORSDOF 4
