REMARK  6 active torsions:
REMARK  status: ('A' for Active; 'I' for Inactive)
REMARK    1  A    between atoms: C_2  and  S_1 
REMARK    2  A    between atoms: N_4  and  S_1 
REMARK    3  A    between atoms: C_11  and  C_5 
REMARK    4  A    between atoms: C_8  and  C_16 
REMARK    5  A    between atoms: O_20  and  C_8 
REMARK    6  A    between atoms: C_23  and  O_20 
ROOT
ATOM      1  S   UNL d   1       1.035   0.026   0.016  0.00  0.00     0.250 S 
ATOM      2  O   UNL d   1       0.528   1.363   0.265  0.00  0.00    -0.205 OA
ATOM      3  O   UNL d   1       2.451  -0.226  -0.122  0.00  0.00    -0.205 OA
ENDROOT
BRANCH   1   4
ATOM      4  C   UNL d   1       0.349  -0.496  -1.554  0.00  0.00     0.116 A 
ATOM      5  S   UNL d   1      -1.159   0.164  -2.007  0.00  0.00    -0.075 SA
ATOM      6  C   UNL d   1      -1.229  -0.748  -3.462  0.00  0.00     0.033 A 
ATOM      7  C   UNL d   1      -0.103  -1.546  -3.586  0.00  0.00     0.023 A 
ATOM      8  C   UNL d   1       0.809  -1.390  -2.502  0.00  0.00     0.034 A 
BRANCH   6   9
ATOM      9  C   UNL d   1      -2.394  -0.661  -4.356  0.00  0.00     0.049 A 
ATOM     10  N   UNL d   1      -2.633  -1.791  -5.071  0.00  0.00    -0.365 N 
ATOM     11  C   UNL d   1      -3.719  -1.799  -5.876  0.00  0.00     0.088 A 
ATOM     12  HN  UNL d   1      -2.018  -2.602  -5.002  1.00  0.00     0.165 HD
ATOM     13  C   UNL d   1      -4.585  -0.729  -6.015  0.00  0.00     0.017 A 
ATOM     14  C   UNL d   1      -4.313   0.429  -5.298  0.00  0.00     0.004 A 
ATOM     15  C   UNL d   1      -3.201   0.468  -4.462  0.00  0.00     0.031 A 
ENDBRANCH   6   9
ENDBRANCH   1   4
BRANCH   1  16
ATOM     16  N   UNL d   1       0.426  -1.026   1.231  0.00  0.00    -0.206 NA
ATOM     17  C   UNL d   1      -1.008  -0.842   1.556  0.00  0.00     0.108 C 
ATOM     18  C   UNL d   1      -1.381  -1.656   2.794  0.00  0.00     0.030 C 
ATOM     19  C   UNL d   1      -1.054  -3.143   2.609  0.00  0.00     0.088 C 
ATOM     20  C   UNL d   1       0.441  -3.271   2.288  0.00  0.00     0.030 C 
ATOM     21  C   UNL d   1       0.844  -2.442   1.068  0.00  0.00     0.108 C 
BRANCH  19  22
ATOM     22  C   UNL d   1      -1.913  -3.773   1.516  0.00  0.00     0.263 C 
ATOM     23  O   UNL d   1      -1.477  -4.428   0.581  0.00  0.00    -0.265 OA
BRANCH  22  24
ATOM     24  O   UNL d   1      -3.226  -3.462   1.704  0.00  0.00    -0.322 OA
BRANCH  24  25
ATOM     25  C   UNL d   1      -4.080  -3.612   0.560  0.00  0.00     0.174 C 
ATOM     26  C   UNL d   1      -4.974  -4.828   0.692  0.00  0.00     0.034 C 
ENDBRANCH  24  25
ENDBRANCH  22  24
ENDBRANCH  19  22
ENDBRANCH   1  16
TORSDOF 6
