REMARK  6 active torsions:
REMARK  status: ('A' for Active; 'I' for Inactive)
REMARK    1  A    between atoms: C_6  and  C_1 
REMARK    2  A    between atoms: C_8  and  C_3 
REMARK    3  A    between atoms: O_13  and  C_6 
REMARK    4  A    between atoms: C_7  and  C_8 
REMARK       I    between atoms: N_9  and  C_7 
REMARK    5  A    between atoms: C_15  and  N_9 
REMARK    6  A    between atoms: C_16  and  O_13 
ROOT
ATOM      1  C   UNL d   1      -1.098  -1.176   0.376  0.00  0.00     0.053 C 
ATOM      2  C   UNL d   1      -1.570   0.086   0.373  0.00  0.00     0.021 C 
ATOM      3  C   UNL d   1       0.416  -1.182   0.491  0.00  0.00     0.128 C 
ATOM      4  C   UNL d   1       0.640   0.276   0.881  0.00  0.00     0.231 C 
ATOM      5  N   UNL d   1      -0.545   0.945   0.652  0.00  0.00    -0.330 N 
ATOM      6  O   UNL d   1       1.680   0.770   1.283  0.00  0.00    -0.272 OA
ATOM      7  C   UNL d   1      -2.935   0.640   0.143  0.00  0.00     0.069 C 
ATOM      8  H   UNL d   1      -0.653   1.936   0.825  0.00  0.00     0.168 HD
ENDROOT
BRANCH   3   9
ATOM      9  C   UNL d   1       1.236  -2.113   1.381  0.00  0.00     0.122 C 
BRANCH   9  10
ATOM     10  C   UNL d   1       0.847  -2.088   2.840  0.00  0.00     0.223 C 
ATOM     11  N   UNL d   1       1.926  -1.909   3.697  0.00  0.00    -0.327 N 
ATOM     12  H   UNL d   1       2.786  -1.563   3.288  0.00  0.00     0.169 HD
ATOM     13  O   UNL d   1      -0.324  -2.255   3.172  0.00  0.00    -0.273 OA
BRANCH  11  14
ATOM     14  C   UNL d   1       1.894  -1.957   5.109  0.00  0.00     0.034 A 
ATOM     15  C   UNL d   1       0.814  -2.465   5.834  0.00  0.00     0.029 A 
ATOM     16  C   UNL d   1       0.814  -2.428   7.231  0.00  0.00     0.002 A 
ATOM     17  C   UNL d   1       1.901  -1.895   7.918  0.00  0.00     0.000 A 
ATOM     18  C   UNL d   1       3.004  -1.430   7.207  0.00  0.00     0.002 A 
ATOM     19  C   UNL d   1       3.006  -1.471   5.808  0.00  0.00     0.029 A 
ENDBRANCH  11  14
ENDBRANCH   9  10
ENDBRANCH   3   9
BRANCH   1  20
ATOM     20  C   UNL d   1      -1.942  -2.368   0.258  0.00  0.00     0.292 C 
ATOM     21  O   UNL d   1      -3.159  -2.370   0.363  0.00  0.00    -0.260 OA
BRANCH  20  22
ATOM     22  O   UNL d   1      -1.171  -3.469   0.073  0.00  0.00    -0.318 OA
BRANCH  22  23
ATOM     23  C   UNL d   1      -1.844  -4.712   0.309  0.00  0.00     0.174 C 
ATOM     24  C   UNL d   1      -1.714  -5.056   1.782  0.00  0.00     0.034 C 
ENDBRANCH  22  23
ENDBRANCH  20  22
ENDBRANCH   1  20
TORSDOF 6
