REMARK  5 active torsions:
REMARK  status: ('A' for Active; 'I' for Inactive)
REMARK    1  A    between atoms: C_6  and  S_1 
REMARK    2  A    between atoms: N_10  and  S_1 
REMARK    3  A    between atoms: C_7  and  C_2 
REMARK    4  A    between atoms: S_16  and  C_3 
REMARK    5  A    between atoms: C_15  and  N_10 
ROOT
ATOM      1  N   UNL d   1       0.567   1.040   0.983  0.00  0.00    -0.281 N 
ATOM      2  H   UNL d   1      -0.295   1.462   0.631  0.00  0.00     0.179 HD
ENDROOT
BRANCH   1   3
ATOM      3  S   UNL d   1       1.263  -0.076  -0.026  0.00  0.00     0.264 S 
ATOM      4  O   UNL d   1       0.576   0.006  -1.299  0.00  0.00    -0.200 OA
ATOM      5  O   UNL d   1       2.698   0.075   0.058  0.00  0.00    -0.200 OA
BRANCH   3   6
ATOM      6  C   UNL d   1       0.819  -1.658   0.660  0.00  0.00     0.094 A 
ATOM      7  C   UNL d   1      -0.514  -2.037   0.912  0.00  0.00     0.071 A 
ATOM      8  C   UNL d   1      -0.741  -3.344   1.400  0.00  0.00     0.018 A 
ATOM      9  C   UNL d   1       0.306  -4.244   1.600  0.00  0.00     0.001 A 
ATOM     10  C   UNL d   1       1.611  -3.859   1.325  0.00  0.00     0.002 A 
ATOM     11  C   UNL d   1       1.869  -2.571   0.862  0.00  0.00     0.026 A 
BRANCH   7  12
ATOM     12  C   UNL d   1      -1.747  -1.187   0.703  0.00  0.00     0.419 C 
ATOM     13  F   UNL d   1      -1.560   0.098   0.309  0.00  0.00    -0.166 F 
ATOM     14  F   UNL d   1      -2.601  -1.731  -0.206  0.00  0.00    -0.166 F 
ATOM     15  F   UNL d   1      -2.466  -1.087   1.862  0.00  0.00    -0.166 F 
ENDBRANCH   7  12
ENDBRANCH   3   6
ENDBRANCH   1   3
BRANCH   1  16
ATOM     16  C   UNL d   1       0.960   1.290   2.314  0.00  0.00     0.044 A 
ATOM     17  C   UNL d   1       0.192   0.749   3.347  0.00  0.00     0.051 A 
ATOM     18  C   UNL d   1       0.302   1.332   4.618  0.00  0.00     0.036 A 
ATOM     19  S   UNL d   1      -0.612   0.999   6.040  0.00  0.00    -0.063 SA
ATOM     20  C   UNL d   1       1.188   2.378   4.880  0.00  0.00     0.050 A 
ATOM     21  C   UNL d   1       0.093   2.363   6.788  0.00  0.00     0.112 C 
ATOM     22  N   UNL d   1       1.075   2.941   6.138  0.00  0.00    -0.344 N 
ATOM     23  HN  UNL d   1       1.663   3.689   6.503  1.00  0.00     0.167 HD
ATOM     24  C   UNL d   1       2.046   2.814   3.850  0.00  0.00     0.033 A 
ATOM     25  C   UNL d   1       1.907   2.279   2.563  0.00  0.00     0.032 A 
BRANCH  21  26
ATOM     26  S   UNL d   1      -0.512   3.032   8.286  0.00  0.00    -0.109 SA
ATOM     27  C   UNL d   1      -1.011   4.670   7.690  0.00  0.00     0.097 C 
ENDBRANCH  21  26
ENDBRANCH   1  16
TORSDOF 5
