REMARK  8 active torsions:
REMARK  status: ('A' for Active; 'I' for Inactive)
REMARK    1  A    between atoms: C_8  and  C_1 
REMARK    2  A    between atoms: C_11  and  C_5 
REMARK    3  A    between atoms: C_6  and  S_17 
REMARK    4  A    between atoms: C_7  and  C_10 
REMARK    5  A    between atoms: C_19  and  C_8 
REMARK    6  A    between atoms: C_14  and  C_11 
REMARK    7  A    between atoms: O_26  and  C_14 
REMARK    8  A    between atoms: S_17  and  C_19 
ROOT
ATOM      1  S   UNL d   1      -2.938   1.673  -0.019  0.00  0.00    -0.086 SA
ENDROOT
BRANCH   1   2
ATOM      2  C   UNL d   1      -4.477   2.558   0.012  0.00  0.00     0.144 A 
ATOM      3  N   UNL d   1      -4.457   3.891   0.156  0.00  0.00    -0.336 N 
ATOM      4  C   UNL d   1      -5.652   4.521   0.193  0.00  0.00     0.052 A 
ATOM      5  HN  UNL d   1      -3.579   4.405   0.234  1.00  0.00     0.168 HD
ATOM      6  C   UNL d   1      -6.851   3.845   0.111  0.00  0.00     0.048 A 
ATOM      7  C   UNL d   1      -6.760   2.480  -0.020  0.00  0.00     0.092 A 
ATOM      8  N   UNL d   1      -5.592   1.818  -0.073  0.00  0.00    -0.347 N 
ATOM      9  HN  UNL d   1      -5.556   0.803  -0.173  1.00  0.00     0.167 HD
BRANCH   4  10
ATOM     10  C   UNL d   1      -5.550   5.976   0.387  0.00  0.00     0.031 A 
ATOM     11  S   UNL d   1      -6.793   7.046  -0.129  0.00  0.00    -0.100 SA
ATOM     12  C   UNL d   1      -5.959   8.420   0.450  0.00  0.00     0.050 A 
ATOM     13  C   UNL d   1      -4.747   8.089   1.011  0.00  0.00     0.008 A 
ATOM     14  C   UNL d   1      -4.507   6.686   0.959  0.00  0.00     0.021 A 
ENDBRANCH   4  10
ENDBRANCH   1   2
BRANCH   1  15
ATOM     15  C   UNL d   1      -1.776   3.065   0.083  0.00  0.00     0.166 C 
BRANCH  15  16
ATOM     16  C   UNL d   1      -0.350   2.560  -0.051  0.00  0.00     0.175 C 
ATOM     17  O   UNL d   1       0.143   2.466  -1.181  0.00  0.00    -0.291 OA
BRANCH  16  18
ATOM     18  C   UNL d   1       0.430   2.205   1.137  0.00  0.00     0.052 A 
ATOM     19  S   UNL d   1      -0.198   2.213   2.729  0.00  0.00    -0.091 SA
ATOM     20  C   UNL d   1       1.288   1.700   3.412  0.00  0.00    -0.007 A 
ATOM     21  C   UNL d   1       2.254   1.533   2.442  0.00  0.00     0.016 A 
ATOM     22  C   UNL d   1       1.759   1.817   1.139  0.00  0.00     0.024 A 
BRANCH  20  23
ATOM     23  C   UNL d   1       1.419   1.456   4.886  0.00  0.00     0.156 C 
BRANCH  23  24
ATOM     24  C   UNL d   1       1.966   2.673   5.600  0.00  0.00     0.144 C 
ATOM     25  O   UNL d   1       2.979   2.660   6.282  0.00  0.00    -0.650 OA
BRANCH  24  26
ATOM     26  O   UNL d   1       1.202   3.784   5.476  0.00  0.00    -0.776 OA
ATOM     27  H   UNL d   1       0.426   3.656   4.897  0.00  0.00     0.167 HD
ENDBRANCH  24  26
ENDBRANCH  23  24
ENDBRANCH  20  23
ENDBRANCH  16  18
ENDBRANCH  15  16
ENDBRANCH   1  15
TORSDOF 8
