REMARK  5 active torsions:
REMARK  status: ('A' for Active; 'I' for Inactive)
REMARK    1  A    between atoms: N_2  and  C_1 
REMARK    2  A    between atoms: N_3  and  C_1 
REMARK    3  A    between atoms: C_4  and  N_2 
REMARK    4  A    between atoms: C_10  and  N_3 
REMARK    5  A    between atoms: C_12  and  C_6 
ROOT
ATOM      1  C   UNL d   1       1.093   0.147   2.282  0.00  0.00     0.176 C 
ATOM      2  S   UNL d   1       0.862  -0.436   3.838  0.00  0.00    -0.041 SA
ENDROOT
BRANCH   1   3
ATOM      3  N   UNL d   1       2.249   0.774   1.817  0.00  0.00    -0.332 N 
ATOM      4  H   UNL d   1       2.049   1.618   1.287  0.00  0.00     0.168 HD
BRANCH   3   5
ATOM      5  C   UNL d   1       3.553   0.719   2.368  0.00  0.00     0.056 A 
ATOM      6  C   UNL d   1       4.372   1.858   2.341  0.00  0.00     0.060 A 
ATOM      7 CL   UNL d   1       3.792   3.361   1.712  0.00  0.00    -0.082 Cl
ATOM      8  C   UNL d   1       5.673   1.810   2.851  0.00  0.00     0.026 A 
ATOM      9  C   UNL d   1       6.175   0.615   3.365  0.00  0.00     0.002 A 
ATOM     10  C   UNL d   1       5.381  -0.529   3.361  0.00  0.00     0.002 A 
ATOM     11  C   UNL d   1       4.078  -0.479   2.863  0.00  0.00     0.031 A 
ENDBRANCH   3   5
ENDBRANCH   1   3
BRANCH   1  12
ATOM     12  N   UNL d   1       0.166   0.084   1.242  0.00  0.00    -0.333 N 
ATOM     13  H   UNL d   1       0.583  -0.152   0.351  0.00  0.00     0.168 HD
BRANCH  12  14
ATOM     14  C   UNL d   1      -1.233  -0.066   1.331  0.00  0.00     0.034 A 
ATOM     15  C   UNL d   1      -1.983   0.545   2.336  0.00  0.00     0.030 A 
ATOM     16  C   UNL d   1      -3.373   0.419   2.358  0.00  0.00     0.010 A 
ATOM     17  C   UNL d   1      -4.043  -0.321   1.375  0.00  0.00    -0.055 A 
ATOM     18  C   UNL d   1      -3.285  -0.918   0.357  0.00  0.00     0.010 A 
ATOM     19  C   UNL d   1      -1.893  -0.775   0.325  0.00  0.00     0.030 A 
BRANCH  17  20
ATOM     20  C   UNL d   1      -5.555  -0.452   1.381  0.00  0.00     0.010 C 
ATOM     21  C   UNL d   1      -6.068  -1.080   2.680  0.00  0.00     0.015 C 
ATOM     22  C   UNL d   1      -6.220   0.904   1.130  0.00  0.00     0.015 C 
ENDBRANCH  17  20
ENDBRANCH  12  14
ENDBRANCH   1  12
TORSDOF 5
