REMARK  0 active torsions:
REMARK  status: ('A' for Active; 'I' for Inactive)
ROOT
ATOM      1  S   UNL d   1      -2.583   0.764  -0.624  0.00  0.00     0.270 S 
ATOM      2  C   UNL d   1      -2.540  -0.738   0.228  0.00  0.00     0.154 C 
ATOM      3  N   UNL d   1      -1.226   1.494   0.098  0.00  0.00    -0.275 N 
ATOM      4  C   UNL d   1      -1.275  -1.462  -0.047  0.00  0.00     0.209 C 
ATOM      5  C   UNL d   1      -0.009  -0.667  -0.043  0.00  0.00     0.043 A 
ATOM      6  C   UNL d   1      -3.385  -1.105   1.211  0.00  0.00     0.064 C 
ATOM      7  C   UNL d   1       0.003   0.743   0.033  0.00  0.00     0.059 A 
ATOM      8  O   UNL d   1      -2.239   0.531  -2.012  0.00  0.00    -0.200 OA
ATOM      9  O   UNL d   1      -3.731   1.586  -0.311  0.00  0.00    -0.200 OA
ATOM     10  S   UNL d   1      -3.021  -2.453   2.293  0.00  0.00    -0.120 SA
ATOM     11  S   UNL d   1      -4.836  -0.259   1.689  0.00  0.00    -0.120 SA
ATOM     12  O   UNL d   1      -1.251  -2.668  -0.268  0.00  0.00    -0.286 OA
ATOM     13  C   UNL d   1      -1.278   2.911   0.465  0.00  0.00     0.170 C 
ATOM     14  C   UNL d   1       1.199  -1.380  -0.094  0.00  0.00     0.018 A 
ATOM     15  C   UNL d   1       1.240   1.400   0.087  0.00  0.00     0.031 A 
ATOM     16  C   UNL d   1      -4.669  -0.627   3.452  0.00  0.00     0.090 C 
ATOM     17  C   UNL d   1      -4.266  -2.084   3.566  0.00  0.00     0.090 C 
ATOM     18  C   UNL d   1       2.418  -0.708  -0.053  0.00  0.00     0.001 A 
ATOM     19  C   UNL d   1       2.438   0.681   0.040  0.00  0.00     0.002 A 
ENDROOT
TORSDOF 0
