REMARK  9 active torsions:
REMARK  status: ('A' for Active; 'I' for Inactive)
REMARK    1  A    between atoms: O_7  and  C_2 
REMARK    2  A    between atoms: C_3  and  C_12 
REMARK    3  A    between atoms: C_4  and  C_13 
REMARK    4  A    between atoms: C_12  and  O_7 
REMARK    5  A    between atoms: O_11  and  C_8 
REMARK    6  A    between atoms: S_10  and  C_9 
REMARK    7  A    between atoms: C_24  and  S_10 
REMARK    8  A    between atoms: C_13  and  O_11 
REMARK    9  A    between atoms: C_23  and  C_24 
ROOT
ATOM      1  C   UNL d   1      -0.529  -0.037   0.016  0.00  0.00     0.112 A 
ATOM      2  C   UNL d   1       0.084   1.235   0.059  0.00  0.00     0.109 A 
ATOM      3  C   UNL d   1      -1.951  -0.190   0.111  0.00  0.00     0.105 C 
ATOM      4  N   UNL d   1      -3.108  -0.277   0.177  0.00  0.00    -0.191 NA
ATOM      5  C   UNL d   1       0.256  -1.205  -0.113  0.00  0.00     0.092 A 
ATOM      6  C   UNL d   1       1.492   1.317   0.053  0.00  0.00     0.036 A 
ATOM      7  C   UNL d   1       1.646  -1.107  -0.060  0.00  0.00     0.040 A 
ATOM      8  C   UNL d   1       2.255   0.142   0.011  0.00  0.00     0.024 A 
ENDROOT
BRANCH   2   9
ATOM      9  O   UNL d   1      -0.591   2.428   0.199  0.00  0.00    -0.339 OA
BRANCH   9  10
ATOM     10  C   UNL d   1      -1.719   2.656  -0.664  0.00  0.00     0.293 C 
BRANCH  10  11
ATOM     11  C   UNL d   1      -1.822   4.115  -1.105  0.00  0.00     0.408 C 
ATOM     12  F   UNL d   1      -0.667   4.793  -0.935  0.00  0.00    -0.169 F 
ATOM     13  F   UNL d   1      -2.149   4.194  -2.416  0.00  0.00    -0.169 F 
ATOM     14  F   UNL d   1      -2.782   4.769  -0.410  0.00  0.00    -0.169 F 
ENDBRANCH  10  11
ENDBRANCH   9  10
ENDBRANCH   2   9
BRANCH   5  15
ATOM     15  O   UNL d   1      -0.409  -2.397  -0.275  0.00  0.00    -0.341 OA
BRANCH  15  16
ATOM     16  C   UNL d   1       0.362  -3.515  -0.747  0.00  0.00     0.293 C 
BRANCH  16  17
ATOM     17  C   UNL d   1      -0.516  -4.639  -1.293  0.00  0.00     0.408 C 
ATOM     18  F   UNL d   1      -1.826  -4.465  -1.028  0.00  0.00    -0.169 F 
ATOM     19  F   UNL d   1      -0.379  -4.741  -2.637  0.00  0.00    -0.169 F 
ATOM     20  F   UNL d   1      -0.146  -5.829  -0.764  0.00  0.00    -0.169 F 
ENDBRANCH  16  17
ENDBRANCH  15  16
ENDBRANCH   5  15
BRANCH   6  21
ATOM     21  S   UNL d   1       2.433   2.843  -0.023  0.00  0.00    -0.120 SA
BRANCH  21  22
ATOM     22  C   UNL d   1       1.987   3.646   1.542  0.00  0.00     0.157 C 
BRANCH  22  23
ATOM     23  C   UNL d   1       2.340   2.850   2.789  0.00  0.00     0.132 C 
ATOM     24  O   UNL d   1       2.865   1.740   2.787  0.00  0.00    -0.298 OA
ATOM     25  C   UNL d   1       2.025   3.540   4.094  0.00  0.00     0.091 C 
ENDBRANCH  22  23
ENDBRANCH  21  22
ENDBRANCH   6  21
TORSDOF 9
