REMARK  7 active torsions:
REMARK  status: ('A' for Active; 'I' for Inactive)
REMARK    1  A    between atoms: O_2  and  S_1 
REMARK    2  A    between atoms: C_6  and  S_1 
REMARK    3  A    between atoms: C_7  and  O_2 
REMARK    4  A    between atoms: N_5  and  C_3 
REMARK    5  A    between atoms: C_4  and  N_5 
REMARK    6  A    between atoms: N_16  and  N_11 
REMARK    7  A    between atoms: C_17  and  C_13 
ROOT
ATOM      1  C   UNL d   1       5.596   0.015  -1.104  0.00  0.00     0.101 A 
ATOM      2  C   UNL d   1       4.611  -0.146  -2.098  0.00  0.00     0.015 A 
ATOM      3  C   UNL d   1       4.970  -0.133  -3.460  0.00  0.00     0.016 A 
ATOM      4  C   UNL d   1       6.937   0.098  -1.521  0.00  0.00     0.039 A 
ATOM      5  C   UNL d   1       6.297   0.035  -3.845  0.00  0.00     0.001 A 
ATOM      6  C   UNL d   1       7.280   0.138  -2.874  0.00  0.00     0.003 A 
ENDROOT
BRANCH   2   7
ATOM      7  C   UNL d   1       3.151  -0.217  -1.863  0.00  0.00     0.121 C 
ATOM      8  N   UNL d   1       2.472  -0.798  -0.925  0.00  0.00    -0.309 N 
ATOM      9  HN  UNL d   1       1.469  -0.635  -0.830  1.00  0.00     0.186 HD
BRANCH   8  10
ATOM     10  N   UNL d   1       3.123  -1.627  -0.075  0.00  0.00    -0.276 N 
ATOM     11  C   UNL d   1       2.491  -2.240   0.968  0.00  0.00     0.191 C 
ATOM     12  S   UNL d   1       0.999  -1.815   1.602  0.00  0.00    -0.039 SA
ATOM     13  H   UNL d   1       4.021  -1.997  -0.364  0.00  0.00     0.189 HD
BRANCH  11  14
ATOM     14  N   UNL d   1       3.233  -3.156   1.657  0.00  0.00    -0.331 N 
ATOM     15  H   UNL d   1       2.877  -3.283   2.601  0.00  0.00     0.168 HD
BRANCH  14  16
ATOM     16  C   UNL d   1       4.132  -4.170   1.239  0.00  0.00     0.057 C 
ATOM     17  C   UNL d   1       4.869  -4.736   2.293  0.00  0.00     0.055 C 
ATOM     18  C   UNL d   1       5.598  -5.910   2.114  0.00  0.00     0.036 C 
ATOM     19 CL   UNL d   1       6.527  -6.547   3.412  0.00  0.00    -0.084 Cl
ATOM     20  C   UNL d   1       5.564  -6.574   0.897  0.00  0.00     0.026 C 
ATOM     21  C   UNL d   1       4.907  -5.984  -0.181  0.00  0.00     0.028 C 
ATOM     22  C   UNL d   1       4.237  -4.758  -0.037  0.00  0.00     0.060 C 
ATOM     23 CL   UNL d   1       3.561  -4.136  -1.495  0.00  0.00    -0.082 Cl
ENDBRANCH  14  16
ENDBRANCH  11  14
ENDBRANCH   8  10
ENDBRANCH   2   7
BRANCH   1  24
ATOM     24  O   UNL d   1       5.218   0.155   0.223  0.00  0.00    -0.228 OA
BRANCH  24  25
ATOM     25  S   UNL d   1       6.326   0.541   1.375  0.00  0.00     0.303 S 
ATOM     26  O   UNL d   1       6.995   1.756   0.982  0.00  0.00    -0.193 OA
ATOM     27  O   UNL d   1       7.083  -0.670   1.668  0.00  0.00    -0.193 OA
BRANCH  25  28
ATOM     28  C   UNL d   1       5.486   0.965   2.883  0.00  0.00     0.086 A 
ATOM     29  C   UNL d   1       6.284   1.063   4.035  0.00  0.00     0.026 A 
ATOM     30  C   UNL d   1       5.739   1.543   5.226  0.00  0.00     0.008 A 
ATOM     31  C   UNL d   1       4.394   1.920   5.277  0.00  0.00    -0.062 A 
ATOM     32  C   UNL d   1       3.598   1.786   4.123  0.00  0.00     0.008 A 
ATOM     33  C   UNL d   1       3.843   2.514   6.542  0.00  0.00     0.048 C 
ATOM     34  C   UNL d   1       4.140   1.305   2.923  0.00  0.00     0.026 A 
ENDBRANCH  25  28
ENDBRANCH  24  25
ENDBRANCH   1  24
TORSDOF 7
