REMARK  6 active torsions:
REMARK  status: ('A' for Active; 'I' for Inactive)
REMARK    1  A    between atoms: N_7  and  C_1 
REMARK    2  A    between atoms: C_9  and  C_4 
REMARK       I    between atoms: C_8  and  N_7 
REMARK       I    between atoms: N_12  and  C_8 
REMARK    3  A    between atoms: C_17  and  N_12 
REMARK    4  A    between atoms: O_18  and  C_20 
REMARK    5  A    between atoms: C_21  and  O_18 
REMARK    6  A    between atoms: C_27  and  C_21 
ROOT
ATOM      1  N   UNL d   1      -2.731   0.937  -0.536  0.00  0.00    -0.288 N 
ATOM      2  C   UNL d   1      -3.994   0.435  -0.455  0.00  0.00     0.326 C 
ATOM      3  N   UNL d   1      -4.117  -0.913  -0.272  0.00  0.00    -0.309 N 
ATOM      4  O   UNL d   1      -4.926   1.229  -0.602  0.00  0.00    -0.247 OA
ATOM      5  H   UNL d   1      -2.674   1.913  -0.780  0.00  0.00     0.172 HD
ATOM      6  H   UNL d   1      -3.242  -1.422  -0.227  0.00  0.00     0.170 HD
ENDROOT
BRANCH   1   7
ATOM      7  C   UNL d   1      -1.577   0.337  -0.117  0.00  0.00     0.153 C 
ATOM      8  N   UNL d   1      -1.412  -0.819   0.469  0.00  0.00    -0.335 N 
ATOM      9  C   UNL d   1      -0.076  -0.936   0.867  0.00  0.00     0.057 C 
ATOM     10  HN  UNL d   1      -2.139  -1.521   0.613  1.00  0.00     0.168 HD
ATOM     11  C   UNL d   1       0.767   0.060   0.394  0.00  0.00     0.010 C 
ATOM     12  S   UNL d   1      -0.180   1.271  -0.378  0.00  0.00    -0.057 SA
ATOM     13  C   UNL d   1       2.247   0.220   0.473  0.00  0.00     0.059 C 
BRANCH   9  14
ATOM     14  C   UNL d   1       0.325  -2.044   1.730  0.00  0.00    -0.007 A 
ATOM     15  C   UNL d   1      -0.194  -3.322   1.500  0.00  0.00     0.038 A 
ATOM     16  C   UNL d   1       0.070  -4.370   2.388  0.00  0.00     0.040 A 
ATOM     17 CL   UNL d   1      -0.636  -5.910   2.046  0.00  0.00    -0.084 Cl
ATOM     18  C   UNL d   1       0.860  -4.164   3.529  0.00  0.00    -0.040 A 
ATOM     19  C   UNL d   1       1.395  -2.887   3.749  0.00  0.00     0.009 A 
ATOM     20  C   UNL d   1       1.096  -5.250   4.542  0.00  0.00     0.050 C 
ATOM     21  C   UNL d   1       1.125  -1.838   2.863  0.00  0.00     0.014 A 
ENDBRANCH   9  14
ENDBRANCH   1   7
BRANCH   3  22
ATOM     22  C   UNL d   1      -5.290  -1.650   0.002  0.00  0.00     0.036 C 
ATOM     23  C   UNL d   1      -6.546  -1.081   0.219  0.00  0.00     0.032 C 
ATOM     24  C   UNL d   1      -7.600  -1.855   0.730  0.00  0.00     0.039 C 
ATOM     25  C   UNL d   1      -7.389  -3.191   1.061  0.00  0.00     0.069 C 
ATOM     26  C   UNL d   1      -6.190  -3.794   0.680  0.00  0.00     0.039 C 
ATOM     27  C   UNL d   1      -5.147  -3.031   0.152  0.00  0.00     0.032 C 
BRANCH  25  28
ATOM     28  O   UNL d   1      -8.204  -3.987   1.812  0.00  0.00    -0.347 OA
BRANCH  28  29
ATOM     29  C   UNL d   1      -9.389  -3.455   2.406  0.00  0.00     0.214 C 
BRANCH  29  30
ATOM     30  C   UNL d   1      -9.235  -2.764   3.754  0.00  0.00    -0.034 A 
ATOM     31  C   UNL d   1      -8.321  -1.722   3.977  0.00  0.00     0.009 A 
ATOM     32  C   UNL d   1      -8.319  -0.996   5.171  0.00  0.00     0.001 A 
ATOM     33  C   UNL d   1      -9.223  -1.310   6.178  0.00  0.00     0.000 A 
ATOM     34  C   UNL d   1     -10.117  -2.362   5.996  0.00  0.00     0.001 A 
ATOM     35  C   UNL d   1     -10.127  -3.077   4.795  0.00  0.00     0.009 A 
ENDBRANCH  29  30
ENDBRANCH  28  29
ENDBRANCH  25  28
ENDBRANCH   3  22
TORSDOF 6
