REMARK  3 active torsions:
REMARK  status: ('A' for Active; 'I' for Inactive)
REMARK       I    between atoms: N_2  and  C_1 
REMARK       I    between atoms: N_4  and  C_1 
REMARK    1  A    between atoms: C_3  and  N_2 
REMARK    2  A    between atoms: C_9  and  N_4 
REMARK    3  A    between atoms: C_20  and  C_17 
ROOT
ATOM      1  C   UNL d   1       0.889  -0.041  -0.062  0.00  0.00     0.326 C 
ATOM      2  N   UNL d   1       0.203   0.975   0.555  0.00  0.00    -0.294 N 
ATOM      3  N   UNL d   1       0.117  -1.035  -0.599  0.00  0.00    -0.309 N 
ATOM      4  O   UNL d   1       2.112   0.046  -0.144  0.00  0.00    -0.247 OA
ATOM      5  H   UNL d   1       0.795   1.749   0.815  0.00  0.00     0.172 HD
ATOM      6  H   UNL d   1      -0.883  -0.873  -0.500  0.00  0.00     0.170 HD
ENDROOT
BRANCH   2   7
ATOM      7  C   UNL d   1      -1.161   1.043   0.858  0.00  0.00     0.109 A 
ATOM      8  N   UNL d   1      -1.934  -0.052   0.677  0.00  0.00    -0.352 N 
ATOM      9  C   UNL d   1      -3.237   0.039   1.012  0.00  0.00     0.090 A 
ATOM     10  HN  UNL d   1      -1.545  -0.917   0.301  1.00  0.00     0.166 HD
ATOM     11  C   UNL d   1      -3.831   1.200   1.462  0.00  0.00     0.024 A 
ATOM     12  C   UNL d   1      -3.042   2.342   1.595  0.00  0.00    -0.054 A 
ATOM     13  C   UNL d   1      -1.671   2.248   1.326  0.00  0.00     0.055 A 
BRANCH  12  14
ATOM     14  C   UNL d   1      -3.659   3.652   2.012  0.00  0.00     0.034 C 
ATOM     15  C   UNL d   1      -3.677   3.831   3.519  0.00  0.00     0.010 C 
ENDBRANCH  12  14
ENDBRANCH   2   7
BRANCH   3  16
ATOM     16  C   UNL d   1       0.512  -2.203  -1.263  0.00  0.00     0.038 A 
ATOM     17  C   UNL d   1       1.811  -2.700  -1.241  0.00  0.00     0.054 A 
ATOM     18  C   UNL d   1       2.112  -3.905  -1.882  0.00  0.00     0.042 A 
ATOM     19 CL   UNL d   1       3.732  -4.501  -1.765  0.00  0.00    -0.084 Cl
ATOM     20  C   UNL d   1       1.123  -4.619  -2.580  0.00  0.00    -0.040 A 
ATOM     21  C   UNL d   1      -0.178  -4.101  -2.612  0.00  0.00     0.011 A 
ATOM     22  C   UNL d   1       1.417  -5.922  -3.266  0.00  0.00     0.050 C 
ATOM     23  C   UNL d   1      -0.482  -2.912  -1.947  0.00  0.00     0.030 A 
ENDBRANCH   3  16
TORSDOF 3
