REMARK  2 active torsions:
REMARK  status: ('A' for Active; 'I' for Inactive)
REMARK    1  A    between atoms: C_4  and  C_3 
REMARK    2  A    between atoms: O_12  and  C_6 
ROOT
ATOM      1  N   UNL d   1      -0.398  -1.893  -0.006  0.00  0.00    -0.352 N 
ATOM      2  HN  UNL d   1      -0.044  -2.850  -0.008  1.00  0.00     0.166 HD
ATOM      3  C   UNL d   1      -1.739  -1.657  -0.006  0.00  0.00     0.119 A 
ATOM      4  C   UNL d   1      -2.251  -0.368  -0.003  0.00  0.00     0.071 A 
ATOM      5  C   UNL d   1      -1.363   0.699  -0.002  0.00  0.00     0.080 A 
ATOM      6  C   UNL d   1       0.456  -0.856  -0.004  0.00  0.00     0.045 A 
ATOM      7  C   UNL d   1       0.032   0.490  -0.002  0.00  0.00     0.024 A 
ATOM      8  C   UNL d   1       1.013   1.515   0.001  0.00  0.00     0.016 A 
ATOM      9  C   UNL d   1       1.815  -1.132  -0.004  0.00  0.00     0.030 A 
ATOM     10  C   UNL d   1       2.373   1.207   0.000  0.00  0.00     0.001 A 
ATOM     11  C   UNL d   1       2.776  -0.120  -0.002  0.00  0.00     0.002 A 
ENDROOT
BRANCH   3  12
ATOM     12  C   UNL d   1      -2.708  -2.830  -0.008  0.00  0.00     0.432 C 
ATOM     13  F   UNL d   1      -2.110  -4.055  -0.004  0.00  0.00    -0.165 F 
ATOM     14  F   UNL d   1      -3.540  -2.822   1.075  0.00  0.00    -0.165 F 
ATOM     15  F   UNL d   1      -3.531  -2.825  -1.098  0.00  0.00    -0.165 F 
ENDBRANCH   3  12
BRANCH   5  16
ATOM     16  O   UNL d   1      -1.949   1.937   0.001  0.00  0.00    -0.360 OA
ATOM     17  H   UNL d   1      -1.271   2.628  -0.000  0.00  0.00     0.217 HD
ENDBRANCH   5  16
TORSDOF 2
