REMARK  5 active torsions:
REMARK  status: ('A' for Active; 'I' for Inactive)
REMARK    1  A    between atoms: C_2  and  S_1 
REMARK    2  A    between atoms: N_3  and  S_1 
REMARK    3  A    between atoms: C_8  and  N_3 
REMARK    4  A    between atoms: O_14  and  C_7 
REMARK    5  A    between atoms: O_19  and  C_10 
ROOT
ATOM      1  S   UNL d   1       0.784  -0.226  -0.074  0.00  0.00     0.266 S 
ATOM      2  O   UNL d   1      -0.407  -0.856   0.468  0.00  0.00    -0.200 OA
ATOM      3  O   UNL d   1       2.042  -0.436   0.598  0.00  0.00    -0.200 OA
ENDROOT
BRANCH   1   4
ATOM      4  C   UNL d   1       0.415   1.512  -0.275  0.00  0.00     0.115 A 
ATOM      5  C   UNL d   1      -0.981   1.771  -0.422  0.00  0.00     0.065 A 
ATOM      6  C   UNL d   1      -1.491   3.061  -0.539  0.00  0.00     0.069 A 
ATOM      7  C   UNL d   1      -0.608   4.126  -0.510  0.00  0.00     0.039 A 
ATOM      8  C   UNL d   1       0.759   3.888  -0.378  0.00  0.00     0.041 A 
ATOM      9  C   UNL d   1       1.308   2.591  -0.260  0.00  0.00     0.091 A 
BRANCH   6  10
ATOM     10  O   UNL d   1      -2.802   3.409  -0.682  0.00  0.00    -0.356 OA
ATOM     11  C   UNL d   1      -3.762   2.361  -0.673  0.00  0.00     0.210 C 
ENDBRANCH   6  10
BRANCH   9  12
ATOM     12  O   UNL d   1       2.658   2.730  -0.201  0.00  0.00    -0.354 OA
ATOM     13  C   UNL d   1       3.574   1.694   0.055  0.00  0.00     0.210 C 
ENDBRANCH   9  12
ENDBRANCH   1   4
BRANCH   1  14
ATOM     14  N   UNL d   1       0.881  -0.808  -1.641  0.00  0.00    -0.281 N 
ATOM     15  H   UNL d   1       0.183  -1.494  -1.919  0.00  0.00     0.179 HD
BRANCH  14  16
ATOM     16  C   UNL d   1       1.860  -0.373  -2.553  0.00  0.00     0.042 A 
ATOM     17  C   UNL d   1       3.114  -0.981  -2.585  0.00  0.00     0.032 A 
ATOM     18  C   UNL d   1       4.069  -0.554  -3.515  0.00  0.00     0.026 A 
ATOM     19  C   UNL d   1       3.753   0.464  -4.415  0.00  0.00     0.034 A 
ATOM     20  C   UNL d   1       2.490   1.056  -4.397  0.00  0.00     0.026 A 
ATOM     21 CL   UNL d   1       4.923   0.989  -5.559  0.00  0.00    -0.084 Cl
ATOM     22  C   UNL d   1       1.539   0.630  -3.467  0.00  0.00     0.032 A 
ENDBRANCH  14  16
ENDBRANCH   1  14
TORSDOF 5
