REMARK  7 active torsions:
REMARK  status: ('A' for Active; 'I' for Inactive)
REMARK    1  A    between atoms: C_2  and  N_1 
REMARK       I    between atoms: C_3  and  N_1 
REMARK    2  A    between atoms: N_8  and  C_2 
REMARK    3  A    between atoms: O_10  and  C_3 
REMARK    4  A    between atoms: C_12  and  N_8 
REMARK    5  A    between atoms: C_9  and  C_11 
REMARK    6  A    between atoms: C_14  and  O_10 
REMARK    7  A    between atoms: C_11  and  C_12 
ROOT
ATOM      1  N   UNL d   1      -1.129  -1.291  -0.720  0.00  0.00    -0.367 N 
ATOM      2  H   UNL d   1      -1.504  -0.403  -0.390  0.00  0.00     0.161 HD
ENDROOT
BRANCH   1   3
ATOM      3  C   UNL d   1       0.186  -1.532  -0.429  0.00  0.00     0.176 C 
ATOM      4  S   UNL d   1       1.162  -2.678  -1.155  0.00  0.00    -0.041 SA
BRANCH   3   5
ATOM      5  N   UNL d   1       0.717  -0.803   0.605  0.00  0.00    -0.279 N 
ATOM      6  C   UNL d   1       0.096   0.097   1.434  0.00  0.00     0.366 C 
ATOM      7  O   UNL d   1      -0.997   0.608   1.242  0.00  0.00    -0.238 OA
ATOM      8  H   UNL d   1       1.643  -1.077   0.895  0.00  0.00     0.173 HD
BRANCH   6   9
ATOM      9  O   UNL d   1       0.907   0.349   2.493  0.00  0.00    -0.304 OA
BRANCH   9  10
ATOM     10  C   UNL d   1       0.401   1.278   3.460  0.00  0.00     0.176 C 
ATOM     11  C   UNL d   1      -0.511   0.577   4.451  0.00  0.00     0.034 C 
ENDBRANCH   9  10
ENDBRANCH   6   9
ENDBRANCH   3   5
ENDBRANCH   1   3
BRANCH   1  12
ATOM     12  C   UNL d   1      -1.954  -2.071  -1.633  0.00  0.00     0.128 C 
BRANCH  12  13
ATOM     13  C   UNL d   1      -3.448  -1.871  -1.392  0.00  0.00     0.076 C 
BRANCH  13  14
ATOM     14  C   UNL d   1      -4.211  -2.878  -2.214  0.00  0.00     0.010 A 
ATOM     15  N   UNL d   1      -4.553  -2.512  -3.470  0.00  0.00    -0.369 N 
ATOM     16  C   UNL d   1      -5.115  -3.456  -4.258  0.00  0.00     0.088 A 
ATOM     17  HN  UNL d   1      -4.393  -1.563  -3.809  1.00  0.00     0.165 HD
ATOM     18  C   UNL d   1      -5.349  -4.759  -3.855  0.00  0.00     0.017 A 
ATOM     19  C   UNL d   1      -5.002  -5.117  -2.557  0.00  0.00     0.003 A 
ATOM     20  C   UNL d   1      -4.426  -4.165  -1.721  0.00  0.00     0.025 A 
ENDBRANCH  13  14
ENDBRANCH  12  13
ENDBRANCH   1  12
TORSDOF 7
