REMARK  7 active torsions:
REMARK  status: ('A' for Active; 'I' for Inactive)
REMARK    1  A    between atoms: C_2  and  S_1 
REMARK    2  A    between atoms: N_3  and  S_1 
REMARK    3  A    between atoms: S_5  and  N_3 
REMARK    4  A    between atoms: C_9  and  S_5 
REMARK    5  A    between atoms: C_11  and  C_6 
REMARK    6  A    between atoms: O_20  and  C_7 
REMARK    7  A    between atoms: O_22  and  C_11 
ROOT
ATOM      1  S   UNL d   1       0.932  -0.218   0.025  0.00  0.00     0.278 S 
ATOM      2  O   UNL d   1      -0.100   0.737   0.381  0.00  0.00    -0.199 OA
ATOM      3  O   UNL d   1       2.328   0.174   0.075  0.00  0.00    -0.199 OA
ENDROOT
BRANCH   1   4
ATOM      4  C   UNL d   1       0.675  -0.687  -1.681  0.00  0.00     0.155 C 
ATOM      5  C   UNL d   1       1.219  -1.607  -2.573  0.00  0.00     0.115 C 
ATOM      6  C   UNL d   1       0.443  -1.699  -3.789  0.00  0.00     0.081 C 
ATOM      7  C   UNL d   1      -0.456  -0.659  -3.890  0.00  0.00     0.071 C 
ATOM      8  S   UNL d   1      -0.527   0.268  -2.474  0.00  0.00    -0.085 SA
BRANCH   5   9
ATOM      9  O   UNL d   1       2.333  -2.381  -2.469  0.00  0.00    -0.353 OA
ATOM     10  C   UNL d   1       2.838  -2.724  -1.201  0.00  0.00     0.210 C 
ENDBRANCH   5   9
BRANCH   6  11
ATOM     11  C   UNL d   1       0.529  -2.735  -4.820  0.00  0.00     0.296 C 
ATOM     12  O   UNL d   1      -0.003  -2.633  -5.917  0.00  0.00    -0.259 OA
BRANCH  11  13
ATOM     13  O   UNL d   1       1.149  -3.866  -4.373  0.00  0.00    -0.322 OA
ATOM     14  C   UNL d   1       1.020  -5.000  -5.227  0.00  0.00     0.213 C 
ENDBRANCH  11  13
ENDBRANCH   6  11
ENDBRANCH   1   4
BRANCH   1  15
ATOM     15  N   UNL d   1       0.739  -1.561   1.023  0.00  0.00    -0.235 N 
ATOM     16  HN  UNL d   1       1.408  -1.704   1.779  1.00  0.00     0.189 HD
BRANCH  15  17
ATOM     17  S   UNL d   1      -0.487  -2.662   0.836  0.00  0.00     0.068 S 
ATOM     18  O   UNL d   1      -0.476  -3.299  -0.459  0.00  0.00    -0.244 OA
ATOM     19  C   UNL d   1      -0.178  -3.855   2.101  0.00  0.00     0.143 C 
BRANCH  17  20
ATOM     20  C   UNL d   1      -2.084  -2.005   1.079  0.00  0.00     0.079 A 
ATOM     21  S   UNL d   1      -2.372  -1.226   2.567  0.00  0.00    -0.092 SA
ATOM     22  C   UNL d   1      -3.993  -0.880   2.142  0.00  0.00     0.051 A 
ATOM     23  C   UNL d   1      -4.308  -1.348   0.885  0.00  0.00     0.009 A 
ATOM     24  C   UNL d   1      -3.202  -2.000   0.271  0.00  0.00     0.030 A 
ENDBRANCH  17  20
ENDBRANCH  15  17
ENDBRANCH   1  15
TORSDOF 7
