REMARK  4 active torsions:
REMARK  status: ('A' for Active; 'I' for Inactive)
REMARK    1  A    between atoms: C_7  and  C_1 
REMARK    2  A    between atoms: C_3  and  C_2 
REMARK       I    between atoms: N_10  and  C_3 
REMARK    3  A    between atoms: C_6  and  N_10 
REMARK    4  A    between atoms: C_16  and  C_11 
ROOT
ATOM      1  C   UNL d   1       0.346  -2.753   0.115  0.00  0.00     0.262 C 
ATOM      2  N   UNL d   1      -0.656  -3.594  -0.326  0.00  0.00    -0.303 N 
ATOM      3  O   UNL d   1       1.518  -3.049   0.295  0.00  0.00    -0.267 OA
ATOM      4  H   UNL d   1      -1.607  -3.256  -0.329  0.00  0.00     0.171 HD
ENDROOT
BRANCH   1   5
ATOM      5  C   UNL d   1      -0.151  -1.395   0.361  0.00  0.00     0.093 C 
ATOM      6  C   UNL d   1       0.139  -0.440   1.405  0.00  0.00     0.088 C 
ATOM      7  N   UNL d   1      -0.653   0.637   1.257  0.00  0.00    -0.259 N 
ATOM      8  O   UNL d   1      -1.327   0.491   0.085  0.00  0.00    -0.241 OA
ATOM      9  HN  UNL d   1      -0.733   1.421   1.905  1.00  0.00     0.195 HD
ATOM     10  C   UNL d   1      -1.025  -0.701  -0.468  0.00  0.00     0.090 C 
ATOM     11  C   UNL d   1      -1.672  -0.927  -1.777  0.00  0.00     0.080 C 
BRANCH   6  12
ATOM     12  C   UNL d   1       1.008  -0.478   2.590  0.00  0.00     0.054 A 
ATOM     13  C   UNL d   1       1.104  -1.642   3.360  0.00  0.00     0.130 A 
ATOM     14  F   UNL d   1       0.473  -2.765   2.983  0.00  0.00    -0.205 F 
ATOM     15  C   UNL d   1       1.792  -1.667   4.578  0.00  0.00     0.043 A 
ATOM     16  C   UNL d   1       2.380  -0.509   5.077  0.00  0.00     0.005 A 
ATOM     17  C   UNL d   1       2.317   0.661   4.328  0.00  0.00     0.025 A 
ATOM     18  C   UNL d   1       1.664   0.675   3.085  0.00  0.00     0.049 A 
ATOM     19 CL   UNL d   1       1.748   2.180   2.223  0.00  0.00    -0.083 Cl
ENDBRANCH   6  12
ENDBRANCH   1   5
BRANCH   2  20
ATOM     20  C   UNL d   1      -0.510  -4.860  -0.816  0.00  0.00     0.151 A 
ATOM     21  N   UNL d   1       0.528  -5.645  -0.992  0.00  0.00    -0.335 N 
ATOM     22  C   UNL d   1       0.126  -6.835  -1.617  0.00  0.00     0.051 A 
ATOM     23  HN  UNL d   1       1.484  -5.422  -0.717  1.00  0.00     0.168 HD
ATOM     24  C   UNL d   1      -1.228  -6.894  -1.902  0.00  0.00     0.083 A 
ATOM     25  S   UNL d   1      -2.017  -5.482  -1.351  0.00  0.00    -0.063 SA
BRANCH  22  26
ATOM     26  C   UNL d   1       1.072  -7.911  -1.962  0.00  0.00    -0.006 A 
ATOM     27  C   UNL d   1       2.427  -7.782  -1.628  0.00  0.00     0.059 A 
ATOM     28  C   UNL d   1       3.336  -8.779  -1.978  0.00  0.00     0.155 A 
ATOM     29  F   UNL d   1       4.632  -8.634  -1.656  0.00  0.00    -0.203 F 
ATOM     30  C   UNL d   1       2.923  -9.920  -2.657  0.00  0.00     0.154 A 
ATOM     31  C   UNL d   1       1.585 -10.079  -2.987  0.00  0.00     0.046 A 
ATOM     32  F   UNL d   1       3.805 -10.869  -3.001  0.00  0.00    -0.203 F 
ATOM     33  C   UNL d   1       0.666  -9.082  -2.639  0.00  0.00     0.017 A 
ENDBRANCH  22  26
ENDBRANCH   2  20
TORSDOF 4
