REMARK  6 active torsions:
REMARK  status: ('A' for Active; 'I' for Inactive)
REMARK    1  A    between atoms: C_2  and  C_1 
REMARK    2  A    between atoms: C_12  and  C_2 
REMARK    3  A    between atoms: N_5  and  C_3 
REMARK    4  A    between atoms: N_4  and  C_10 
REMARK       I    between atoms: C_7  and  N_5 
REMARK    5  A    between atoms: C_8  and  C_7 
REMARK    6  A    between atoms: C_10  and  C_8 
ROOT
ATOM      1  N   UNL d   1       3.929   0.292  -0.639  0.00  0.00    -0.326 N 
ATOM      2  C   UNL d   1       4.201   1.069   0.451  0.00  0.00     0.223 C 
ATOM      3  O   UNL d   1       5.152   0.873   1.209  0.00  0.00    -0.273 OA
ATOM      4  H   UNL d   1       3.202   0.598  -1.264  0.00  0.00     0.169 HD
ENDROOT
BRANCH   1   5
ATOM      5  C   UNL d   1       4.438  -0.981  -0.939  0.00  0.00     0.049 C 
ATOM      6  C   UNL d   1       4.436  -1.408  -2.278  0.00  0.00     0.043 C 
ATOM      7  C   UNL d   1       4.513  -2.776  -2.568  0.00  0.00     0.041 C 
ATOM      8  C   UNL d   1       4.674  -3.692  -1.534  0.00  0.00     0.035 C 
ATOM      9  C   UNL d   1       4.829  -3.255  -0.218  0.00  0.00     0.026 C 
ATOM     10 CL   UNL d   1       4.644  -5.379  -1.874  0.00  0.00    -0.084 Cl
ATOM     11  C   UNL d   1       4.727  -1.894   0.080  0.00  0.00     0.032 C 
BRANCH   6  12
ATOM     12  C   UNL d   1       4.300  -0.480  -3.423  0.00  0.00     0.194 C 
ATOM     13  O   UNL d   1       3.460  -0.779  -4.279  0.00  0.00    -0.287 OA
BRANCH  12  14
ATOM     14  C   UNL d   1       5.119   0.768  -3.616  0.00  0.00     0.015 A 
ATOM     15  C   UNL d   1       4.891   1.513  -4.786  0.00  0.00     0.015 A 
ATOM     16  C   UNL d   1       5.593   2.697  -5.040  0.00  0.00     0.001 A 
ATOM     17  C   UNL d   1       6.526   3.163  -4.120  0.00  0.00     0.000 A 
ATOM     18  C   UNL d   1       6.773   2.430  -2.961  0.00  0.00     0.001 A 
ATOM     19  C   UNL d   1       6.091   1.226  -2.718  0.00  0.00     0.015 A 
ENDBRANCH  12  14
ENDBRANCH   6  12
ENDBRANCH   1   5
BRANCH   2  20
ATOM     20  C   UNL d   1       3.314   2.291   0.641  0.00  0.00     0.123 C 
BRANCH  20  21
ATOM     21  C   UNL d   1       2.117   2.499  -0.302  0.00  0.00     0.132 C 
BRANCH  21  22
ATOM     22  N   UNL d   1       0.973   1.636   0.031  0.00  0.00    -0.380 N 
ATOM     23  C   UNL d   1       0.222   0.912  -0.899  0.00  0.00     0.036 A 
ATOM     24  C   UNL d   1      -1.096   0.483  -0.598  0.00  0.00    -0.032 A 
ATOM     25  C   UNL d   1       0.712   0.528  -2.159  0.00  0.00     0.030 A 
ATOM     26  C   UNL d   1      -1.817  -0.357  -1.468  0.00  0.00     0.009 A 
ATOM     27  C   UNL d   1      -1.790   0.910   0.672  0.00  0.00     0.042 C 
ATOM     28  C   UNL d   1      -1.269  -0.769  -2.668  0.00  0.00     0.001 A 
ATOM     29  C   UNL d   1      -0.004  -0.315  -3.021  0.00  0.00     0.002 A 
ATOM     30  C   UNL d   1      -1.097   2.103   1.298  0.00  0.00     0.024 C 
ATOM     31  C   UNL d   1       0.389   1.821   1.371  0.00  0.00     0.123 C 
ENDBRANCH  21  22
ENDBRANCH  20  21
ENDBRANCH   2  20
TORSDOF 6
