REMARK  5 active torsions:
REMARK  status: ('A' for Active; 'I' for Inactive)
REMARK    1  A    between atoms: C_8  and  N_4 
REMARK    2  A    between atoms: C_10  and  C_8 
REMARK    3  A    between atoms: N_9  and  C_10 
REMARK    4  A    between atoms: C_11  and  N_9 
REMARK    5  A    between atoms: C_12  and  N_9 
ROOT
ATOM      1  C   UNL d   1      -3.251  -0.804  -0.577  0.00  0.00     0.170 C 
ATOM      2  N   UNL d   1      -2.372   0.218  -0.444  0.00  0.00    -0.342 N 
ATOM      3  N   UNL d   1      -2.731  -2.049  -0.508  0.00  0.00    -0.342 N 
ATOM      4  N   UNL d   1      -0.583  -1.251   0.084  0.00  0.00     0.124 N 
ATOM      5  C   UNL d   1      -0.952   0.033  -0.495  0.00  0.00     0.399 C 
ATOM      6  C   UNL d   1      -1.323  -2.290  -0.610  0.00  0.00     0.399 C 
ATOM      7  S   UNL d   1      -4.878  -0.542  -0.757  0.00  0.00    -0.041 SA
ATOM      8  H   UNL d   1      -2.748   1.151  -0.556  0.00  0.00     0.163 HD
ATOM      9  H   UNL d   1      -3.373  -2.813  -0.673  0.00  0.00     0.163 HD
ENDROOT
BRANCH   4  10
ATOM     10  C   UNL d   1      -0.750  -1.261   1.553  0.00  0.00     0.306 C 
BRANCH  10  11
ATOM     11  C   UNL d   1      -0.168  -2.523   2.241  0.00  0.00     0.302 C 
BRANCH  11  12
ATOM     12  N   UNL d   1      -0.301  -2.583   3.718  0.00  0.00     0.089 N 
BRANCH  12  13
ATOM     13  C   UNL d   1      -1.686  -2.414   4.190  0.00  0.00     0.268 C 
ATOM     14  C   UNL d   1      -2.675  -3.510   3.800  0.00  0.00     0.037 C 
ENDBRANCH  12  13
BRANCH  12  15
ATOM     15  C   UNL d   1       0.343  -3.818   4.208  0.00  0.00     0.268 C 
ATOM     16  C   UNL d   1       0.354  -3.976   5.725  0.00  0.00     0.037 C 
ENDBRANCH  12  15
ENDBRANCH  11  12
ENDBRANCH  10  11
ENDBRANCH   4  10
TORSDOF 5
