REMARK  4 active torsions:
REMARK  status: ('A' for Active; 'I' for Inactive)
REMARK    1  A    between atoms: C_7  and  N_1 
REMARK    2  A    between atoms: C_10  and  N_2 
REMARK    3  A    between atoms: C_15  and  C_10 
REMARK    4  A    between atoms: S_13  and  C_11 
ROOT
ATOM      1  N   UNL d   1       0.896  -1.403  -0.023  0.00  0.00    -0.245 N 
ATOM      2  N   UNL d   1       2.112   0.658  -0.171  0.00  0.00    -0.259 N 
ATOM      3  C   UNL d   1       2.132  -0.753  -0.131  0.00  0.00     0.338 A 
ATOM      4  C   UNL d   1      -0.275  -0.676  -0.051  0.00  0.00     0.150 A 
ATOM      5  C   UNL d   1      -0.236   0.684  -0.120  0.00  0.00     0.147 A 
ATOM      6  C   UNL d   1       0.960   1.446  -0.169  0.00  0.00     0.282 A 
ATOM      7  N   UNL d   1      -1.567  -1.129   0.018  0.00  0.00    -0.336 N 
ATOM      8  HN  UNL d   1      -1.886  -2.096   0.071  1.00  0.00     0.168 HD
ATOM      9  N   UNL d   1      -1.537   1.094  -0.087  0.00  0.00    -0.345 N 
ATOM     10  C   UNL d   1      -2.306  -0.037   0.001  0.00  0.00     0.182 A 
ATOM     11  O   UNL d   1       3.195  -1.379  -0.246  0.00  0.00    -0.246 OA
ATOM     12  O   UNL d   1       0.943   2.672  -0.207  0.00  0.00    -0.265 OA
ATOM     13  H   UNL d   1      -1.862   2.053  -0.101  0.00  0.00     0.167 HD
ENDROOT
BRANCH   1  14
ATOM     14  C   UNL d   1       0.812  -2.811   0.114  0.00  0.00     0.065 A 
ATOM     15  C   UNL d   1       1.466  -3.517   1.149  0.00  0.00     0.058 A 
ATOM     16  C   UNL d   1       1.526  -4.923   1.068  0.00  0.00     0.023 A 
ATOM     17  C   UNL d   1       0.918  -5.617   0.020  0.00  0.00     0.002 A 
ATOM     18  C   UNL d   1       0.227  -4.921  -0.964  0.00  0.00     0.002 A 
ATOM     19  C   UNL d   1       0.168  -3.529  -0.914  0.00  0.00     0.031 A 
BRANCH  15  20
ATOM     20  S   UNL d   1       2.268  -2.726   2.589  0.00  0.00     0.048 S 
ATOM     21  O   UNL d   1       1.845  -1.286   2.620  0.00  0.00    -0.253 OA
ATOM     22  C   UNL d   1       1.363  -3.547   3.926  0.00  0.00     0.133 C 
ENDBRANCH  15  20
ENDBRANCH   1  14
BRANCH   2  23
ATOM     23  C   UNL d   1       3.397   1.346  -0.163  0.00  0.00     0.179 C 
BRANCH  23  24
ATOM     24  C   UNL d   1       3.873   1.766  -1.535  0.00  0.00    -0.001 A 
ATOM     25  C   UNL d   1       4.065   3.119  -1.828  0.00  0.00     0.124 A 
ATOM     26  F   UNL d   1       3.837   4.049  -0.889  0.00  0.00    -0.205 F 
ATOM     27  C   UNL d   1       4.514   3.539  -3.078  0.00  0.00     0.043 A 
ATOM     28  C   UNL d   1       4.794   2.597  -4.064  0.00  0.00     0.003 A 
ATOM     29  C   UNL d   1       4.634   1.240  -3.788  0.00  0.00     0.001 A 
ATOM     30  C   UNL d   1       4.181   0.825  -2.531  0.00  0.00     0.012 A 
ENDBRANCH  23  24
ENDBRANCH   2  23
TORSDOF 4
