REMARK  8 active torsions:
REMARK  status: ('A' for Active; 'I' for Inactive)
REMARK    1  A    between atoms: C_6  and  C_1 
REMARK    2  A    between atoms: N_7  and  C_2 
REMARK    3  A    between atoms: C_8  and  N_4 
REMARK    4  A    between atoms: O_18  and  C_6 
REMARK    5  A    between atoms: C_12  and  N_7 
REMARK    6  A    between atoms: C_13  and  N_9 
REMARK    7  A    between atoms: C_19  and  C_13 
REMARK    8  A    between atoms: C_23  and  O_18 
ROOT
ATOM      1  C   UNL d   1      -1.601   0.733  -0.123  0.00  0.00     0.067 C 
ATOM      2  C   UNL d   1      -0.332   1.177  -0.115  0.00  0.00     0.111 C 
ATOM      3  C   UNL d   1       0.467  -0.069   0.116  0.00  0.00     0.271 C 
ATOM      4  N   UNL d   1      -0.342  -1.158  -0.181  0.00  0.00    -0.334 N 
ATOM      5  C   UNL d   1      -1.728  -0.748  -0.092  0.00  0.00     0.174 C 
ATOM      6  O   UNL d   1       1.620  -0.102   0.518  0.00  0.00    -0.266 OA
ENDROOT
BRANCH   2   7
ATOM      7  N   UNL d   1       0.179   2.454  -0.240  0.00  0.00    -0.380 N 
ATOM      8  H   UNL d   1      -0.542   3.179  -0.255  0.00  0.00     0.160 HD
BRANCH   7   9
ATOM      9  C   UNL d   1       1.563   2.906  -0.049  0.00  0.00     0.085 C 
ATOM     10  C   UNL d   1       1.657   4.436  -0.137  0.00  0.00     0.055 C 
ATOM     11  C   UNL d   1       1.471   4.962  -1.563  0.00  0.00     0.275 C 
ATOM     12  N   UNL d   1       2.329   4.329  -2.565  0.00  0.00     0.092 N 
ATOM     13  C   UNL d   1       2.383   2.869  -2.470  0.00  0.00     0.275 C 
ATOM     14  C   UNL d   1       2.553   2.325  -1.056  0.00  0.00     0.055 C 
BRANCH  12  15
ATOM     15  C   UNL d   1       2.026   4.784  -3.945  0.00  0.00     0.311 C 
BRANCH  15  16
ATOM     16  C   UNL d   1       0.676   4.375  -4.520  0.00  0.00    -0.030 A 
ATOM     17  C   UNL d   1      -0.482   5.123  -4.252  0.00  0.00     0.009 A 
ATOM     18  C   UNL d   1      -1.735   4.682  -4.685  0.00  0.00     0.001 A 
ATOM     19  C   UNL d   1      -1.846   3.507  -5.423  0.00  0.00     0.000 A 
ATOM     20  C   UNL d   1      -0.701   2.781  -5.744  0.00  0.00     0.001 A 
ATOM     21  C   UNL d   1       0.551   3.213  -5.299  0.00  0.00     0.009 A 
ENDBRANCH  15  16
ENDBRANCH  12  15
ENDBRANCH   7   9
ENDBRANCH   2   7
BRANCH   1  22
ATOM     22  C   UNL d   1      -2.754   1.629  -0.084  0.00  0.00     0.293 C 
ATOM     23  O   UNL d   1      -2.683   2.853  -0.058  0.00  0.00    -0.259 OA
BRANCH  22  24
ATOM     24  O   UNL d   1      -3.887   0.901   0.089  0.00  0.00    -0.318 OA
BRANCH  24  25
ATOM     25  C   UNL d   1      -4.976   1.606   0.707  0.00  0.00     0.174 C 
ATOM     26  C   UNL d   1      -4.839   1.429   2.210  0.00  0.00     0.034 C 
ENDBRANCH  24  25
ENDBRANCH  22  24
ENDBRANCH   1  22
BRANCH   4  27
ATOM     27  C   UNL d   1       0.117  -2.566  -0.213  0.00  0.00     0.025 C 
ATOM     28  C   UNL d   1      -0.922  -3.483  -0.891  0.00  0.00     0.037 C 
ATOM     29  C   UNL d   1       1.415  -2.679  -1.049  0.00  0.00     0.037 C 
ATOM     30  C   UNL d   1       0.396  -3.098   1.201  0.00  0.00     0.037 C 
ENDBRANCH   4  27
TORSDOF 8
