REMARK  5 active torsions:
REMARK  status: ('A' for Active; 'I' for Inactive)
REMARK    1  A    between atoms: C_2  and  C_1 
REMARK       I    between atoms: N_4  and  C_2 
REMARK       I    between atoms: C_3  and  N_5 
REMARK    2  A    between atoms: C_8  and  C_3 
REMARK    3  A    between atoms: N_5  and  N_4 
REMARK    4  A    between atoms: N_19  and  C_6 
REMARK    5  A    between atoms: N_10  and  C_9 
ROOT
ATOM      1  C   UNL d   1       0.339   1.494   0.298  0.00  0.00     0.272 C 
ATOM      2  N   UNL d   1       0.895   2.642  -0.229  0.00  0.00    -0.263 N 
ATOM      3  O   UNL d   1      -0.681   1.553   0.993  0.00  0.00    -0.266 OA
ATOM      4  H   UNL d   1       1.759   2.706  -0.758  0.00  0.00     0.190 HD
ENDROOT
BRANCH   2   5
ATOM      5  N   UNL d   1       0.238   3.865   0.009  0.00  0.00    -0.263 N 
ATOM      6  C   UNL d   1       0.893   5.037  -0.318  0.00  0.00     0.270 C 
ATOM      7  O   UNL d   1       2.029   5.025  -0.792  0.00  0.00    -0.266 OA
ATOM      8  H   UNL d   1      -0.624   3.813   0.552  0.00  0.00     0.190 HD
BRANCH   6   9
ATOM      9  C   UNL d   1       0.176   6.329  -0.101  0.00  0.00     0.033 A 
ATOM     10  C   UNL d   1      -1.206   6.431   0.075  0.00  0.00     0.019 A 
ATOM     11  C   UNL d   1      -1.821   7.696   0.186  0.00  0.00     0.030 A 
ATOM     12  C   UNL d   1      -1.096   8.899   0.130  0.00  0.00     0.029 A 
ATOM     13  C   UNL d   1       0.293   8.762  -0.019  0.00  0.00     0.030 A 
ATOM     14  C   UNL d   1       0.920   7.510  -0.142  0.00  0.00     0.019 A 
BRANCH  12  15
ATOM     15  N   UNL d   1      -1.686  10.149   0.256  0.00  0.00    -0.390 N 
ATOM     16  C   UNL d   1      -1.145  11.313  -0.449  0.00  0.00     0.149 C 
ATOM     17  C   UNL d   1      -3.058  10.322   0.733  0.00  0.00     0.149 C 
ENDBRANCH  12  15
ENDBRANCH   6   9
ENDBRANCH   2   5
BRANCH   1  18
ATOM     18  C   UNL d   1       0.966   0.163  -0.024  0.00  0.00     0.056 A 
ATOM     19  C   UNL d   1       0.518  -1.003   0.649  0.00  0.00     0.021 A 
ATOM     20  C   UNL d   1       1.062  -2.249   0.302  0.00  0.00     0.026 A 
ATOM     21  C   UNL d   1       1.989  -2.366  -0.731  0.00  0.00     0.026 A 
ATOM     22  C   UNL d   1       2.411  -1.225  -1.396  0.00  0.00     0.035 A 
ATOM     23  C   UNL d   1       1.913   0.037  -1.054  0.00  0.00     0.042 A 
ATOM     24 CL   UNL d   1       3.570  -1.365  -2.666  0.00  0.00    -0.084 Cl
BRANCH  19  25
ATOM     25  N   UNL d   1      -0.281  -0.949   1.811  0.00  0.00    -0.302 NA
ATOM     26  H   UNL d   1      -0.814  -0.074   1.864  0.00  0.00     0.124 HD
ATOM     27  H   UNL d   1      -0.867  -1.762   1.957  0.00  0.00     0.124 HD
ENDBRANCH  19  25
ENDBRANCH   1  18
TORSDOF 5
