REMARK  4 active torsions:
REMARK  status: ('A' for Active; 'I' for Inactive)
REMARK    1  A    between atoms: C_10  and  N_1 
REMARK    2  A    between atoms: N_17  and  C_2 
REMARK    3  A    between atoms: C_6  and  C_3 
REMARK    4  A    between atoms: C_16  and  C_11 
ROOT
ATOM      1  N   UNL d   1      -0.081  -1.240   0.073  0.00  0.00    -0.238 N 
ATOM      2  C   UNL d   1       1.243  -0.788  -0.053  0.00  0.00     0.136 A 
ATOM      3  C   UNL d   1       1.175   0.596  -0.103  0.00  0.00     0.067 A 
ATOM      4  N   UNL d   1      -0.953  -0.205   0.108  0.00  0.00    -0.296 N 
ATOM      5  HN  UNL d   1      -1.968  -0.255   0.196  1.00  0.00     0.187 HD
ATOM      6  C   UNL d   1      -0.202   0.899   0.002  0.00  0.00     0.039 A 
ATOM      7  C   UNL d   1      -0.856   2.235   0.021  0.00  0.00     0.071 C 
ENDROOT
BRANCH   3   8
ATOM      8  C   UNL d   1       2.337   1.543  -0.163  0.00  0.00     0.090 A 
ATOM      9  N   UNL d   1       2.204   2.850  -0.015  0.00  0.00    -0.352 N 
ATOM     10  C   UNL d   1       3.448   3.476  -0.014  0.00  0.00     0.024 A 
ATOM     11  HN  UNL d   1       1.311   3.334   0.084  1.00  0.00     0.166 HD
ATOM     12  C   UNL d   1       4.514   2.616  -0.204  0.00  0.00     0.077 A 
ATOM     13  S   UNL d   1       3.967   1.019  -0.381  0.00  0.00    -0.081 SA
BRANCH  10  14
ATOM     14  C   UNL d   1       3.562   4.978   0.201  0.00  0.00    -0.008 C 
ATOM     15  C   UNL d   1       2.181   5.646   0.330  0.00  0.00     0.021 C 
ATOM     16  C   UNL d   1       4.356   5.261   1.494  0.00  0.00     0.021 C 
ATOM     17  C   UNL d   1       4.300   5.623  -0.990  0.00  0.00     0.021 C 
ENDBRANCH  10  14
ENDBRANCH   3   8
BRANCH   2  18
ATOM     18  N   UNL d   1       2.336  -1.608  -0.014  0.00  0.00    -0.383 N 
ATOM     19  H   UNL d   1       2.296  -2.488   0.496  0.00  0.00     0.157 HD
ATOM     20  H   UNL d   1       3.259  -1.183   0.066  0.00  0.00     0.157 HD
ENDBRANCH   2  18
BRANCH   1  21
ATOM     21  C   UNL d   1      -0.511  -2.597   0.186  0.00  0.00     0.081 A 
ATOM     22  C   UNL d   1       0.230  -3.590  -0.489  0.00  0.00     0.057 A 
ATOM     23  C   UNL d   1      -0.017  -4.942  -0.264  0.00  0.00     0.036 A 
ATOM     24 CL   UNL d   1       0.973  -6.127  -1.021  0.00  0.00    -0.084 Cl
ATOM     25  C   UNL d   1      -1.033  -5.332   0.597  0.00  0.00     0.026 A 
ATOM     26  C   UNL d   1      -1.827  -4.359   1.207  0.00  0.00     0.028 A 
ATOM     27  C   UNL d   1      -1.582  -2.989   1.004  0.00  0.00     0.062 A 
ATOM     28 CL   UNL d   1      -2.581  -1.917   1.921  0.00  0.00    -0.082 Cl
ENDBRANCH   1  21
TORSDOF 4
