REMARK  5 active torsions:
REMARK  status: ('A' for Active; 'I' for Inactive)
REMARK    1  A    between atoms: C_8  and  C_2 
REMARK    2  A    between atoms: S_9  and  C_5 
REMARK    3  A    between atoms: C_16  and  S_9 
REMARK    4  A    between atoms: C_13  and  C_16 
REMARK    5  A    between atoms: C_15  and  C_13 
ROOT
ATOM      1  N   UNL d   1      -5.869  -9.648   0.098  0.00  0.00    -0.191 NA
ATOM      2  C   UNL d   1      -5.000  -8.887   0.225  0.00  0.00     0.099 C 
ATOM      3  C   UNL d   1      -1.818  -6.085   0.580  0.00  0.00     0.011 A 
ATOM      4  C   UNL d   1      -3.126  -5.647   0.337  0.00  0.00     0.017 A 
ATOM      5  C   UNL d   1      -1.581  -7.460   0.739  0.00  0.00     0.017 A 
ATOM      6  C   UNL d   1      -3.926  -7.945   0.365  0.00  0.00     0.044 A 
ATOM      7  C   UNL d   1      -2.627  -8.383   0.631  0.00  0.00     0.023 A 
ATOM      8  C   UNL d   1      -4.173  -6.571   0.229  0.00  0.00     0.023 A 
ENDROOT
BRANCH   3   9
ATOM      9  C   UNL d   1      -0.654  -5.139   0.658  0.00  0.00     0.169 C 
ATOM     10  O   UNL d   1       0.445  -5.604   0.952  0.00  0.00    -0.291 OA
BRANCH   9  11
ATOM     11  C   UNL d   1      -0.907  -3.662   0.363  0.00  0.00     0.166 C 
BRANCH  11  12
ATOM     12  S   UNL d   1       0.633  -2.697   0.371  0.00  0.00    -0.085 SA
BRANCH  12  13
ATOM     13  C   UNL d   1       0.038  -1.083   0.168  0.00  0.00     0.163 A 
ATOM     14  N   UNL d   1       0.853   0.019   0.108  0.00  0.00    -0.315 N 
ATOM     15  C   UNL d   1       0.014   1.109  -0.053  0.00  0.00     0.134 A 
ATOM     16  C   UNL d   1       2.287   0.003   0.243  0.00  0.00     0.160 C 
ATOM     17  N   UNL d   1      -1.232   0.655  -0.059  0.00  0.00    -0.283 N 
ATOM     18  N   UNL d   1      -1.215  -0.716   0.065  0.00  0.00    -0.278 N 
ATOM     19  HN  UNL d   1      -2.070   1.230  -0.141  1.00  0.00     0.188 HD
ATOM     20  HN  UNL d   1      -2.028  -1.332   0.074  1.00  0.00     0.189 HD
BRANCH  15  21
ATOM     21  C   UNL d   1       0.390   2.531  -0.140  0.00  0.00     0.010 A 
ATOM     22  C   UNL d   1      -0.451   3.508   0.425  0.00  0.00     0.027 A 
ATOM     23  C   UNL d   1      -0.116   4.880   0.403  0.00  0.00    -0.025 A 
ATOM     24  C   UNL d   1      -0.958   5.864   0.954  0.00  0.00     0.012 A 
ATOM     25  C   UNL d   1       1.101   5.282  -0.186  0.00  0.00    -0.026 A 
ATOM     26  C   UNL d   1      -0.599   7.214   0.926  0.00  0.00     0.001 A 
ATOM     27  C   UNL d   1       0.612   7.601   0.360  0.00  0.00     0.001 A 
ATOM     28  C   UNL d   1       1.459   6.640  -0.190  0.00  0.00     0.012 A 
ATOM     29  C   UNL d   1       1.923   4.315  -0.778  0.00  0.00     0.013 A 
ATOM     30  C   UNL d   1       1.555   2.965  -0.783  0.00  0.00     0.016 A 
ENDBRANCH  15  21
ENDBRANCH  12  13
ENDBRANCH  11  12
ENDBRANCH   9  11
ENDBRANCH   3   9
TORSDOF 5
