REMARK  4 active torsions:
REMARK  status: ('A' for Active; 'I' for Inactive)
REMARK    1  A    between atoms: C_2  and  S_1 
REMARK    2  A    between atoms: N_10  and  S_1 
REMARK    3  A    between atoms: C_19  and  C_5 
REMARK    4  A    between atoms: C_18  and  N_10 
ROOT
ATOM      1  S   UNL d   1       1.045   0.032   0.085  0.00  0.00     0.269 S 
ATOM      2  O   UNL d   1       0.403  -1.222  -0.235  0.00  0.00    -0.200 OA
ATOM      3  O   UNL d   1       2.488   0.153   0.145  0.00  0.00    -0.200 OA
ENDROOT
BRANCH   1   4
ATOM      4  C   UNL d   1       0.490   0.487   1.720  0.00  0.00     0.121 A 
ATOM      5  S   UNL d   1      -1.046  -0.082   2.206  0.00  0.00    -0.074 SA
ATOM      6  C   UNL d   1      -0.930   0.653   3.756  0.00  0.00     0.033 A 
ATOM      7  C   UNL d   1       0.256   1.359   3.870  0.00  0.00     0.023 A 
ATOM      8  C   UNL d   1       1.076   1.254   2.709  0.00  0.00     0.034 A 
BRANCH   6   9
ATOM      9  C   UNL d   1      -2.021   0.540   4.739  0.00  0.00     0.049 A 
ATOM     10  N   UNL d   1      -2.128   1.606   5.571  0.00  0.00    -0.365 N 
ATOM     11  C   UNL d   1      -3.134   1.591   6.474  0.00  0.00     0.088 A 
ATOM     12  HN  UNL d   1      -1.476   2.388   5.516  1.00  0.00     0.165 HD
ATOM     13  C   UNL d   1      -4.041   0.553   6.603  0.00  0.00     0.017 A 
ATOM     14  C   UNL d   1      -3.902  -0.544   5.763  0.00  0.00     0.004 A 
ATOM     15  C   UNL d   1      -2.877  -0.556   4.819  0.00  0.00     0.031 A 
ENDBRANCH   6   9
ENDBRANCH   1   4
BRANCH   1  16
ATOM     16  N   UNL d   1       0.461   1.159  -1.012  0.00  0.00    -0.280 N 
ATOM     17  H   UNL d   1      -0.387   0.899  -1.511  0.00  0.00     0.179 HD
BRANCH  16  18
ATOM     18  C   UNL d   1       0.845   2.518  -0.924  0.00  0.00     0.045 A 
ATOM     19  C   UNL d   1       0.049   3.443  -0.261  0.00  0.00     0.068 A 
ATOM     20  C   UNL d   1       0.435   4.787  -0.258  0.00  0.00     0.092 A 
ATOM     21  O   UNL d   1      -0.429   5.670   0.422  0.00  0.00    -0.275 OA
ATOM     22  C   UNL d   1       1.594   5.245  -0.899  0.00  0.00     0.004 A 
ATOM     23  C   UNL d   1      -0.173   7.028   0.469  0.00  0.00     0.288 A 
ATOM     24  O   UNL d   1      -0.915   7.820   1.038  0.00  0.00    -0.260 OA
ATOM     25  C   UNL d   1       1.048   7.492  -0.206  0.00  0.00     0.090 A 
ATOM     26  C   UNL d   1       1.898   6.682  -0.854  0.00  0.00    -0.043 A 
ATOM     27  C   UNL d   1       3.114   7.283  -1.505  0.00  0.00     0.049 C 
ATOM     28  C   UNL d   1       2.381   4.288  -1.551  0.00  0.00     0.017 A 
ATOM     29  C   UNL d   1       2.011   2.935  -1.560  0.00  0.00     0.031 A 
ENDBRANCH  16  18
ENDBRANCH   1  16
TORSDOF 4
