REMARK  4 active torsions:
REMARK  status: ('A' for Active; 'I' for Inactive)
REMARK    1  A    between atoms: C_2  and  C_1 
REMARK       I    between atoms: N_3  and  C_2 
REMARK    2  A    between atoms: C_8  and  N_3 
REMARK    3  A    between atoms: N_9  and  C_4 
REMARK    4  A    between atoms: C_11  and  C_8 
ROOT
ATOM      1  C   UNL d   1       0.915   2.494  -0.155  0.00  0.00     0.253 C 
ATOM      2  N   UNL d   1       0.164   3.653  -0.063  0.00  0.00    -0.353 N 
ATOM      3  O   UNL d   1       2.131   2.536  -0.332  0.00  0.00    -0.268 OA
ATOM      4  H   UNL d   1      -0.831   3.630   0.081  0.00  0.00     0.163 HD
ENDROOT
BRANCH   1   5
ATOM      5  C   UNL d   1       0.211   1.163  -0.058  0.00  0.00     0.052 A 
ATOM      6  C   UNL d   1       0.976  -0.031  -0.030  0.00  0.00     0.021 A 
ATOM      7  C   UNL d   1       0.315  -1.269   0.031  0.00  0.00     0.024 A 
ATOM      8  C   UNL d   1      -1.075  -1.345   0.013  0.00  0.00     0.002 A 
ATOM      9  C   UNL d   1      -1.829  -0.177  -0.029  0.00  0.00     0.001 A 
ATOM     10  C   UNL d   1      -1.193   1.069  -0.064  0.00  0.00     0.019 A 
BRANCH   6  11
ATOM     11  N   UNL d   1       2.373  -0.038   0.167  0.00  0.00    -0.302 NA
ATOM     12  H   UNL d   1       2.792   0.865  -0.093  0.00  0.00     0.124 HD
ATOM     13  H   UNL d   1       2.853  -0.821  -0.263  0.00  0.00     0.124 HD
ENDBRANCH   6  11
ENDBRANCH   1   5
BRANCH   2  14
ATOM     14  C   UNL d   1       0.789   4.961  -0.076  0.00  0.00     0.161 C 
BRANCH  14  15
ATOM     15  C   UNL d   1       0.361   5.788  -1.259  0.00  0.00    -0.038 A 
ATOM     16  C   UNL d   1      -0.242   7.037  -1.083  0.00  0.00     0.025 A 
ATOM     17  C   UNL d   1      -0.561   7.790  -2.204  0.00  0.00     0.088 A 
ATOM     18  N   UNL d   1      -0.326   7.389  -3.470  0.00  0.00    -0.375 N 
ATOM     19  C   UNL d   1       0.264   6.184  -3.621  0.00  0.00     0.088 A 
ATOM     20  HN  UNL d   1      -0.580   7.966  -4.272  1.00  0.00     0.164 HD
ATOM     21  C   UNL d   1       0.622   5.359  -2.565  0.00  0.00     0.025 A 
ENDBRANCH  14  15
ENDBRANCH   2  14
TORSDOF 4
