REMARK  7 active torsions:
REMARK  status: ('A' for Active; 'I' for Inactive)
REMARK    1  A    between atoms: C_5  and  C_1 
REMARK    2  A    between atoms: C_9  and  C_1 
REMARK    3  A    between atoms: C_2  and  C_3 
REMARK    4  A    between atoms: C_4  and  N_10 
REMARK    5  A    between atoms: N_20  and  C_5 
REMARK    6  A    between atoms: N_14  and  C_9 
REMARK    7  A    between atoms: N_10  and  N_14 
ROOT
ATOM      1  C   UNL d   1       0.294   0.554   0.260  0.00  0.00     0.105 C 
ATOM      2  C   UNL d   1      -1.062   0.162   0.510  0.00  0.00     0.104 C 
ATOM      3  N   UNL d   1      -2.147  -0.202   0.721  0.00  0.00    -0.191 NA
ENDROOT
BRANCH   1   4
ATOM      4  C   UNL d   1       0.542   2.035   0.213  0.00  0.00     0.117 C 
ATOM      5  S   UNL d   1      -0.426   3.175  -0.545  0.00  0.00    -0.059 SA
BRANCH   4   6
ATOM      6  N   UNL d   1       1.615   2.511   0.917  0.00  0.00    -0.389 N 
ATOM      7  H   UNL d   1       2.245   1.940   1.465  0.00  0.00     0.157 HD
ATOM      8  H   UNL d   1       1.780   3.514   0.917  0.00  0.00     0.157 HD
ENDBRANCH   4   6
ENDBRANCH   1   4
BRANCH   1   9
ATOM      9  C   UNL d   1       1.246  -0.403   0.088  0.00  0.00     0.041 C 
ATOM     10  C   UNL d   1       2.701  -0.091  -0.213  0.00  0.00     0.071 C 
BRANCH   9  11
ATOM     11  N   UNL d   1       0.964  -1.772   0.146  0.00  0.00    -0.318 N 
ATOM     12  H   UNL d   1      -0.020  -2.055   0.033  0.00  0.00     0.181 HD
BRANCH  11  13
ATOM     13  N   UNL d   1       1.851  -2.820   0.105  0.00  0.00    -0.189 NA
ATOM     14  H   UNL d   1       2.591  -2.756   0.807  0.00  0.00     0.154 HD
BRANCH  13  15
ATOM     15  C   UNL d   1       1.353  -4.154   0.110  0.00  0.00     0.120 A 
ATOM     16  N   UNL d   1       0.065  -4.370  -0.269  0.00  0.00    -0.353 N 
ATOM     17  C   UNL d   1      -0.383  -5.649  -0.290  0.00  0.00     0.105 A 
ATOM     18  HN  UNL d   1      -0.544  -3.594  -0.528  1.00  0.00     0.166 HD
ATOM     19  C   UNL d   1       0.383  -6.751   0.066  0.00  0.00     0.065 A 
ATOM     20  C   UNL d   1       1.708  -6.518   0.446  0.00  0.00     0.044 A 
ATOM     21  C   UNL d   1       2.203  -5.215   0.454  0.00  0.00     0.074 A 
ATOM     22 CL   UNL d   1       3.832  -4.945   0.956  0.00  0.00    -0.081 Cl
BRANCH  19  23
ATOM     23  C   UNL d   1      -0.218  -8.121   0.036  0.00  0.00     0.418 C 
ATOM     24  F   UNL d   1       0.627  -9.090   0.485  0.00  0.00    -0.166 F 
ATOM     25  F   UNL d   1      -1.335  -8.216   0.805  0.00  0.00    -0.166 F 
ATOM     26  F   UNL d   1      -0.589  -8.500  -1.216  0.00  0.00    -0.166 F 
ENDBRANCH  19  23
ENDBRANCH  13  15
ENDBRANCH  11  13
ENDBRANCH   9  11
ENDBRANCH   1   9
TORSDOF 7
