REMARK  5 active torsions:
REMARK  status: ('A' for Active; 'I' for Inactive)
REMARK    1  A    between atoms: N_2  and  CA_1 
REMARK    2  A    between atoms: C_5  and  CA_1 
REMARK       I    between atoms: C_3  and  N_2 
REMARK    3  A    between atoms: C_14  and  C_3 
REMARK    4  A    between atoms: C_9  and  C_4 
REMARK    5  A    between atoms: OXT_17  and  C_5 
ROOT
ATOM      1  CA  UNL d   1       1.036   0.069  -0.052  0.00  0.00     0.110 C 
ATOM      2  C   UNL d   1       0.245  -0.258   0.985  0.00  0.00     0.048 C 
ENDROOT
BRANCH   1   3
ATOM      3  N   UNL d   1       0.563   0.304  -1.331  0.00  0.00    -0.317 N 
ATOM      4  C   UNL d   1       0.269   1.593  -1.760  0.00  0.00     0.256 C 
ATOM      5  O   UNL d   1       0.612   2.582  -1.133  0.00  0.00    -0.267 OA
ATOM      6  H   UNL d   1       0.016  -0.450  -1.728  0.00  0.00     0.169 HD
BRANCH   4   7
ATOM      7  C   UNL d   1      -0.397   1.738  -3.091  0.00  0.00     0.032 A 
ATOM      8  C   UNL d   1      -1.133   0.717  -3.710  0.00  0.00     0.017 A 
ATOM      9  C   UNL d   1      -1.666   0.917  -4.987  0.00  0.00     0.001 A 
ATOM     10  C   UNL d   1      -1.479   2.130  -5.649  0.00  0.00     0.000 A 
ATOM     11  C   UNL d   1      -0.768   3.156  -5.032  0.00  0.00     0.001 A 
ATOM     12  C   UNL d   1      -0.234   2.962  -3.757  0.00  0.00     0.017 A 
ENDBRANCH   4   7
ENDBRANCH   1   3
BRANCH   1  13
ATOM     13  C   UNL d   1       2.517   0.074   0.202  0.00  0.00     0.193 C 
ATOM     14  O   UNL d   1       3.051  -0.426   1.176  0.00  0.00    -0.645 OA
BRANCH  13  15
ATOM     15  OXT UNL d   1       3.215   0.624  -0.817  0.00  0.00    -0.772 OA
ATOM     16  HXT UNL d   1       2.618   1.095  -1.430  0.00  0.00     0.167 HD
ENDBRANCH  13  15
ENDBRANCH   1  13
BRANCH   2  17
ATOM     17  C   UNL d   1      -1.217  -0.317   0.971  0.00  0.00    -0.031 A 
ATOM     18  C   UNL d   1      -1.850  -1.553   0.802  0.00  0.00     0.051 A 
ATOM     19  C   UNL d   1      -3.227  -1.584   0.873  0.00  0.00     0.105 A 
ATOM     20  O   UNL d   1      -4.000  -2.696   0.752  0.00  0.00    -0.323 OA
ATOM     21  C   UNL d   1      -3.970  -0.450   1.097  0.00  0.00     0.105 A 
ATOM     22  C   UNL d   1      -5.313  -2.139   0.968  0.00  0.00     0.352 A 
ATOM     23  O   UNL d   1      -5.305  -0.707   1.149  0.00  0.00    -0.323 OA
ATOM     24  C   UNL d   1      -3.379   0.785   1.256  0.00  0.00     0.040 A 
ATOM     25  C   UNL d   1      -1.982   0.850   1.190  0.00  0.00     0.014 A 
ENDBRANCH   2  17
TORSDOF 5
