REMARK  5 active torsions:
REMARK  status: ('A' for Active; 'I' for Inactive)
REMARK    1  A    between atoms: N_14  and  C_3 
REMARK    2  A    between atoms: S_4  and  N_13 
REMARK    3  A    between atoms: C_16  and  S_4 
REMARK    4  A    between atoms: C_15  and  C_11 
REMARK    5  A    between atoms: C_21  and  C_12 
ROOT
ATOM      1  N   UNL d   1       0.205   0.535  -0.634  0.00  0.00    -0.224 N 
ATOM      2  C   UNL d   1       0.062  -0.855  -0.482  0.00  0.00     0.131 A 
ATOM      3  C   UNL d   1      -0.836   1.433  -0.192  0.00  0.00     0.129 A 
ATOM      4  N   UNL d   1       1.418   0.816  -1.202  0.00  0.00    -0.294 N 
ATOM      5  HN  UNL d   1       1.774   1.736  -1.460  1.00  0.00     0.187 HD
ATOM      6  C   UNL d   1      -1.940   0.850   0.326  0.00  0.00     0.084 A 
ATOM      7  N   UNL d   1      -1.051  -1.442   0.038  0.00  0.00    -0.337 N 
ATOM      8  HN  UNL d   1      -1.131  -2.456   0.121  1.00  0.00     0.167 HD
ATOM      9  C   UNL d   1       1.234  -1.424  -0.922  0.00  0.00     0.077 A 
ATOM     10  C   UNL d   1      -2.010  -0.646   0.426  0.00  0.00     0.121 A 
ATOM     11  C   UNL d   1       2.046  -0.358  -1.353  0.00  0.00     0.037 A 
ENDROOT
BRANCH   3  12
ATOM     12  N   UNL d   1      -0.711   2.870  -0.275  0.00  0.00    -0.363 N 
ATOM     13  C   UNL d   1       0.527   3.470  -0.868  0.00  0.00     0.140 C 
ATOM     14  C   UNL d   1       0.445   4.986  -1.102  0.00  0.00     0.127 C 
ATOM     15  N   UNL d   1       0.026   5.726   0.120  0.00  0.00    -0.203 NA
ATOM     16  C   UNL d   1      -1.306   5.230   0.560  0.00  0.00     0.127 C 
ATOM     17  C   UNL d   1      -1.308   3.706   0.820  0.00  0.00     0.140 C 
BRANCH  15  18
ATOM     18  S   UNL d   1       1.209   5.923   1.329  0.00  0.00     0.243 S 
ATOM     19  O   UNL d   1       0.805   5.164   2.495  0.00  0.00    -0.206 OA
ATOM     20  O   UNL d   1       2.512   5.757   0.733  0.00  0.00    -0.206 OA
BRANCH  18  21
ATOM     21  C   UNL d   1       1.076   7.653   1.745  0.00  0.00     0.074 A 
ATOM     22  C   UNL d   1       0.787   8.042   3.058  0.00  0.00     0.026 A 
ATOM     23  C   UNL d   1       0.910   9.387   3.422  0.00  0.00     0.025 A 
ATOM     24  C   UNL d   1       1.320  10.329   2.476  0.00  0.00     0.034 A 
ATOM     25  C   UNL d   1       1.570   9.946   1.158  0.00  0.00     0.025 A 
ATOM     26 CL   UNL d   1       1.562  11.965   2.950  0.00  0.00    -0.084 Cl
ATOM     27  C   UNL d   1       1.448   8.604   0.788  0.00  0.00     0.026 A 
ENDBRANCH  18  21
ENDBRANCH  15  18
ENDBRANCH   3  12
BRANCH  10  28
ATOM     28  C   UNL d   1      -3.287  -1.239   1.028  0.00  0.00     0.432 C 
ATOM     29  F   UNL d   1      -4.181  -0.284   1.416  0.00  0.00    -0.165 F 
ATOM     30  F   UNL d   1      -3.951  -2.039   0.150  0.00  0.00    -0.165 F 
ATOM     31  F   UNL d   1      -3.040  -1.992   2.134  0.00  0.00    -0.165 F 
ENDBRANCH  10  28
BRANCH  11  32
ATOM     32  C   UNL d   1       3.457  -0.403  -1.931  0.00  0.00    -0.007 C 
ATOM     33  C   UNL d   1       4.394   0.512  -1.115  0.00  0.00     0.021 C 
ATOM     34  C   UNL d   1       4.055  -1.827  -1.899  0.00  0.00     0.021 C 
ATOM     35  C   UNL d   1       3.448   0.068  -3.399  0.00  0.00     0.021 C 
ENDBRANCH  11  32
TORSDOF 5
