REMARK  1 active torsions:
REMARK  status: ('A' for Active; 'I' for Inactive)
REMARK    1  A    between atoms: C_9  and  C_4 
ROOT
ATOM      1  C   UNL d   1      -0.473  -0.363  -0.008  0.00  0.00     0.112 A 
ATOM      2  N   UNL d   1       1.600   0.906   0.067  0.00  0.00    -0.320 N 
ATOM      3  C   UNL d   1       0.226   0.956   0.047  0.00  0.00     0.266 A 
ATOM      4  C   UNL d   1       2.348  -0.251   0.018  0.00  0.00     0.061 A 
ATOM      5  C   UNL d   1       0.267  -1.485  -0.035  0.00  0.00     0.030 A 
ATOM      6  C   UNL d   1       1.710  -1.434  -0.019  0.00  0.00     0.034 A 
ATOM      7  C   UNL d   1      -1.891  -0.409  -0.025  0.00  0.00     0.105 C 
ATOM      8  N   UNL d   1      -3.044  -0.527  -0.043  0.00  0.00    -0.191 NA
ATOM      9  O   UNL d   1      -0.384   2.019   0.071  0.00  0.00    -0.267 OA
ATOM     10  H   UNL d   1       2.100   1.788   0.144  0.00  0.00     0.169 HD
ENDROOT
BRANCH   4  11
ATOM     11  C   UNL d   1       3.822  -0.125   0.043  0.00  0.00     0.059 A 
ATOM     12  N   UNL d   1       4.312   0.958   0.698  0.00  0.00    -0.364 N 
ATOM     13  C   UNL d   1       5.657   1.087   0.761  0.00  0.00     0.088 A 
ATOM     14  HN  UNL d   1       3.691   1.646   1.125  1.00  0.00     0.165 HD
ATOM     15  C   UNL d   1       6.547   0.200   0.177  0.00  0.00     0.017 A 
ATOM     16  C   UNL d   1       6.030  -0.882  -0.522  0.00  0.00     0.004 A 
ATOM     17  C   UNL d   1       4.651  -1.048  -0.595  0.00  0.00     0.032 A 
ENDBRANCH   4  11
TORSDOF 1
