REMARK  5 active torsions:
REMARK  status: ('A' for Active; 'I' for Inactive)
REMARK    1  A    between atoms: N_3  and  S_1 
REMARK    2  A    between atoms: C_4  and  S_1 
REMARK    3  A    between atoms: N_2  and  C_8 
REMARK    4  A    between atoms: C_13  and  N_3 
REMARK    5  A    between atoms: C_24  and  C_22 
ROOT
ATOM      1  C   UNL d   1       1.473   4.525  -2.751  0.00  0.00     0.030 A 
ATOM      2  C   UNL d   1       0.822   1.952  -1.775  0.00  0.00     0.042 A 
ATOM      3  C   UNL d   1       0.169   4.012  -2.842  0.00  0.00     0.031 A 
ATOM      4  C   UNL d   1       2.431   3.715  -2.123  0.00  0.00     0.031 A 
ATOM      5  C   UNL d   1      -0.155   2.735  -2.376  0.00  0.00     0.032 A 
ATOM      6  C   UNL d   1       2.111   2.447  -1.625  0.00  0.00     0.032 A 
ENDROOT
BRANCH   2   7
ATOM      7  N   UNL d   1       0.498   0.637  -1.365  0.00  0.00    -0.281 N 
ATOM      8  H   UNL d   1       0.638   0.379  -0.388  0.00  0.00     0.179 HD
BRANCH   7   9
ATOM      9  S   UNL d   1       0.697  -0.638  -2.456  0.00  0.00     0.263 S 
ATOM     10  O   UNL d   1      -0.039  -0.342  -3.668  0.00  0.00    -0.200 OA
ATOM     11  O   UNL d   1       0.425  -1.841  -1.695  0.00  0.00    -0.200 OA
BRANCH   9  12
ATOM     12  C   UNL d   1       2.431  -0.632  -2.832  0.00  0.00     0.079 A 
ATOM     13  C   UNL d   1       3.319  -1.343  -2.018  0.00  0.00     0.026 A 
ATOM     14  C   UNL d   1       4.675  -1.413  -2.362  0.00  0.00     0.009 A 
ATOM     15  C   UNL d   1       5.146  -0.786  -3.527  0.00  0.00    -0.058 A 
ATOM     16  C   UNL d   1       4.244  -0.064  -4.324  0.00  0.00     0.009 A 
ATOM     17  C   UNL d   1       2.892   0.005  -3.986  0.00  0.00     0.026 A 
BRANCH  15  18
ATOM     18  C   UNL d   1       6.591  -0.920  -3.942  0.00  0.00     0.034 C 
ATOM     19  C   UNL d   1       7.477   0.188  -3.394  0.00  0.00     0.010 C 
ENDBRANCH  15  18
ENDBRANCH   9  12
ENDBRANCH   7   9
ENDBRANCH   2   7
BRANCH   1  20
ATOM     20  N   UNL d   1       1.791   5.737  -3.328  0.00  0.00    -0.378 N 
ATOM     21  C   UNL d   1       3.156   6.066  -3.764  0.00  0.00     0.153 C 
ATOM     22  C   UNL d   1       3.093   6.917  -5.057  0.00  0.00     0.291 C 
ATOM     23  N   UNL d   1       2.258   8.132  -4.910  0.00  0.00     0.087 N 
ATOM     24  C   UNL d   1       0.900   7.736  -4.466  0.00  0.00     0.291 C 
ATOM     25  C   UNL d   1       2.190   8.864  -6.173  0.00  0.00     0.310 C 
ATOM     26  C   UNL d   1       0.925   6.916  -3.155  0.00  0.00     0.153 C 
ENDBRANCH   1  20
TORSDOF 5
