REMARK  2 active torsions:
REMARK  status: ('A' for Active; 'I' for Inactive)
REMARK    1  A    between atoms: C_2  and  C_4 
REMARK       I    between atoms: N_7  and  C_2 
REMARK    2  A    between atoms: C_10  and  N_7 
ROOT
ATOM      1  C   UNL d   1       0.750  -0.290   0.316  0.00  0.00    -0.003 A 
ATOM      2  C   UNL d   1       1.351   0.963   0.005  0.00  0.00    -0.042 A 
ATOM      3  C   UNL d   1       1.538  -1.438   0.257  0.00  0.00     0.043 A 
ATOM      4  C   UNL d   1      -0.647  -0.033   0.646  0.00  0.00    -0.018 A 
ATOM      5  C   UNL d   1      -0.928   1.337   0.418  0.00  0.00    -0.043 A 
ATOM      6  C   UNL d   1       0.325   2.076   0.014  0.00  0.00     0.078 A 
ATOM      7  C   UNL d   1       2.704   1.106  -0.268  0.00  0.00     0.008 A 
ATOM      8  C   UNL d   1       2.916  -1.292  -0.016  0.00  0.00     0.018 A 
ATOM      9  C   UNL d   1      -1.643  -0.838   1.176  0.00  0.00     0.013 A 
ATOM     10  C   UNL d   1      -2.191   1.879   0.604  0.00  0.00     0.008 A 
ATOM     11  C   UNL d   1       3.494  -0.037  -0.261  0.00  0.00     0.002 A 
ATOM     12  C   UNL d   1      -2.923  -0.303   1.373  0.00  0.00     0.001 A 
ATOM     13  C   UNL d   1      -3.199   1.039   1.072  0.00  0.00     0.001 A 
ENDROOT
BRANCH   3  14
ATOM     14  C   UNL d   1       1.073  -2.842   0.433  0.00  0.00     0.257 C 
ATOM     15  N   UNL d   1      -0.090  -3.190  -0.231  0.00  0.00    -0.323 N 
ATOM     16  H   UNL d   1      -0.591  -2.450  -0.708  0.00  0.00     0.169 HD
ATOM     17  O   UNL d   1       1.786  -3.591   1.093  0.00  0.00    -0.267 OA
BRANCH  15  18
ATOM     18  C   UNL d   1      -0.666  -4.481  -0.311  0.00  0.00     0.035 A 
ATOM     19  C   UNL d   1      -0.035  -5.643   0.141  0.00  0.00     0.029 A 
ATOM     20  C   UNL d   1      -0.645  -6.893  -0.006  0.00  0.00     0.002 A 
ATOM     21  C   UNL d   1      -1.901  -6.994  -0.597  0.00  0.00     0.000 A 
ATOM     22  C   UNL d   1      -2.548  -5.843  -1.039  0.00  0.00     0.002 A 
ATOM     23  C   UNL d   1      -1.932  -4.594  -0.901  0.00  0.00     0.029 A 
ENDBRANCH  15  18
ENDBRANCH   3  14
TORSDOF 2
