REMARK  3 active torsions:
REMARK  status: ('A' for Active; 'I' for Inactive)
REMARK    1  A    between atoms: C_6  and  N_1 
REMARK    2  A    between atoms: C_7  and  C_6 
REMARK    3  A    between atoms: C_12  and  C_7 
ROOT
ATOM      1  N   UNL d   1       1.415   1.177   0.023  0.00  0.00    -0.283 N 
ATOM      2  C   UNL d   1       2.264   0.096  -0.076  0.00  0.00     0.373 A 
ATOM      3  O   UNL d   1       1.548  -1.110  -0.106  0.00  0.00    -0.259 OA
ATOM      4  C   UNL d   1       0.125   0.698   0.031  0.00  0.00     0.073 A 
ATOM      5  C   UNL d   1       0.234  -0.676  -0.039  0.00  0.00     0.108 A 
ATOM      6  C   UNL d   1      -1.097   1.328   0.104  0.00  0.00     0.033 A 
ATOM      7  O   UNL d   1       3.486   0.146  -0.106  0.00  0.00    -0.237 OA
ATOM      8  C   UNL d   1      -0.875  -1.499  -0.039  0.00  0.00     0.046 A 
ATOM      9  C   UNL d   1      -2.239   0.515   0.104  0.00  0.00     0.009 A 
ATOM     10  C   UNL d   1      -2.139  -0.894   0.028  0.00  0.00    -0.059 A 
ATOM     11  C   UNL d   1      -3.373  -1.751   0.015  0.00  0.00     0.048 C 
ENDROOT
BRANCH   1  12
ATOM     12  C   UNL d   1       1.834   2.557   0.049  0.00  0.00     0.218 C 
BRANCH  12  13
ATOM     13  C   UNL d   1       1.992   3.144  -1.353  0.00  0.00     0.177 C 
ATOM     14  O   UNL d   1       1.690   2.536  -2.380  0.00  0.00    -0.291 OA
BRANCH  13  15
ATOM     15  C   UNL d   1       2.536   4.531  -1.480  0.00  0.00     0.011 A 
ATOM     16  C   UNL d   1       3.225   4.871  -2.652  0.00  0.00     0.015 A 
ATOM     17  C   UNL d   1       3.695   6.173  -2.841  0.00  0.00     0.001 A 
ATOM     18  C   UNL d   1       3.472   7.142  -1.866  0.00  0.00     0.000 A 
ATOM     19  C   UNL d   1       2.797   6.808  -0.692  0.00  0.00     0.001 A 
ATOM     20  C   UNL d   1       2.334   5.502  -0.492  0.00  0.00     0.015 A 
ENDBRANCH  13  15
ENDBRANCH  12  13
ENDBRANCH   1  12
TORSDOF 3
