REMARK  2 active torsions:
REMARK  status: ('A' for Active; 'I' for Inactive)
REMARK    1  A    between atoms: C_9  and  C_4 
REMARK    2  A    between atoms: C_10  and  C_5 
ROOT
ATOM      1  C   UNL d   1       1.951   0.250   0.080  0.00  0.00     0.021 C 
ATOM      2  C   UNL d   1      -0.405   1.251   0.094  0.00  0.00     0.021 C 
ATOM      3  C   UNL d   1       1.074   1.456   0.234  0.00  0.00     0.188 C 
ATOM      4  C   UNL d   1       3.289   0.442   0.090  0.00  0.00     0.026 C 
ATOM      5  C   UNL d   1      -1.191   2.343   0.178  0.00  0.00     0.026 C 
ATOM      6  N   UNL d   1      -0.033  -1.122   0.552  0.00  0.00     0.092 N 
ATOM      7  C   UNL d   1       1.285  -1.085  -0.087  0.00  0.00     0.315 C 
ATOM      8  C   UNL d   1      -0.899  -0.148  -0.116  0.00  0.00     0.315 C 
ATOM      9  O   UNL d   1       1.550   2.570   0.454  0.00  0.00    -0.287 OA
ATOM     10  C   UNL d   1      -0.606  -2.465   0.473  0.00  0.00     0.310 C 
ENDROOT
BRANCH   4  11
ATOM     11  C   UNL d   1       4.259  -0.635  -0.151  0.00  0.00    -0.014 A 
ATOM     12  C   UNL d   1       4.720  -0.953  -1.440  0.00  0.00     0.044 A 
ATOM     13 CL   UNL d   1       4.251  -0.032  -2.828  0.00  0.00    -0.083 Cl
ATOM     14  C   UNL d   1       5.571  -2.043  -1.640  0.00  0.00     0.024 A 
ATOM     15  C   UNL d   1       5.981  -2.819  -0.556  0.00  0.00     0.002 A 
ATOM     16  C   UNL d   1       5.549  -2.499   0.730  0.00  0.00     0.001 A 
ATOM     17  C   UNL d   1       4.692  -1.413   0.933  0.00  0.00     0.013 A 
ENDBRANCH   4  11
BRANCH   5  18
ATOM     18  C   UNL d   1      -2.658   2.336   0.068  0.00  0.00    -0.014 A 
ATOM     19  C   UNL d   1      -3.337   2.468  -1.155  0.00  0.00     0.044 A 
ATOM     20 CL   UNL d   1      -2.493   2.571  -2.660  0.00  0.00    -0.083 Cl
ATOM     21  C   UNL d   1      -4.735   2.511  -1.186  0.00  0.00     0.024 A 
ATOM     22  C   UNL d   1      -5.467   2.400  -0.004  0.00  0.00     0.002 A 
ATOM     23  C   UNL d   1      -4.804   2.235   1.210  0.00  0.00     0.001 A 
ATOM     24  C   UNL d   1      -3.407   2.207   1.246  0.00  0.00     0.013 A 
ENDBRANCH   5  18
TORSDOF 2
