REMARK  2 active torsions:
REMARK  status: ('A' for Active; 'I' for Inactive)
REMARK    1  A    between atoms: C_2  and  N_1 
REMARK       I    between atoms: C_3  and  N_1 
REMARK    2  A    between atoms: C_7  and  C_3 
ROOT
ATOM      1  N   UNL d   1       1.164  -0.115  -0.380  0.00  0.00    -0.303 N 
ATOM      2  C   UNL d   1       2.508   0.060  -0.148  0.00  0.00     0.257 C 
ATOM      3  O   UNL d   1       3.244   0.898  -0.655  0.00  0.00    -0.267 OA
ATOM      4  H   UNL d   1       0.605  -0.721   0.199  0.00  0.00     0.171 HD
ENDROOT
BRANCH   2   5
ATOM      5  C   UNL d   1       3.099  -0.841   0.883  0.00  0.00     0.034 A 
ATOM      6  C   UNL d   1       2.665  -2.160   1.049  0.00  0.00     0.041 A 
ATOM      7  C   UNL d   1       3.275  -2.963   2.014  0.00  0.00     0.035 A 
ATOM      8 CL   UNL d   1       2.747  -4.590   2.220  0.00  0.00    -0.084 Cl
ATOM      9  C   UNL d   1       4.312  -2.471   2.805  0.00  0.00     0.024 A 
ATOM     10  C   UNL d   1       4.751  -1.160   2.633  0.00  0.00     0.003 A 
ATOM     11  C   UNL d   1       4.151  -0.348   1.670  0.00  0.00     0.017 A 
ENDBRANCH   2   5
BRANCH   1  12
ATOM     12  C   UNL d   1       0.487   0.640  -1.298  0.00  0.00     0.151 A 
ATOM     13  N   UNL d   1       0.943   1.485  -2.183  0.00  0.00    -0.346 N 
ATOM     14  C   UNL d   1      -0.113   2.040  -2.877  0.00  0.00     0.097 A 
ATOM     15  HN  UNL d   1       1.928   1.701  -2.338  1.00  0.00     0.167 HD
ATOM     16  C   UNL d   1      -1.364   1.600  -2.502  0.00  0.00     0.070 A 
ATOM     17  S   UNL d   1      -1.209   0.423  -1.261  0.00  0.00    -0.064 SA
ENDBRANCH   1  12
TORSDOF 2
