REMARK  4 active torsions:
REMARK  status: ('A' for Active; 'I' for Inactive)
REMARK    1  A    between atoms: N_6  and  C_1 
REMARK    2  A    between atoms: C_10  and  N_4 
REMARK       I    between atoms: C_7  and  N_6 
REMARK    3  A    between atoms: C_8  and  C_7 
REMARK    4  A    between atoms: O_16  and  N_11 
ROOT
ATOM      1  C   UNL d   1      -0.115  -1.121   0.304  0.00  0.00     0.124 C 
ATOM      2  C   UNL d   1       1.119  -0.378   0.735  0.00  0.00     0.291 C 
ATOM      3  N   UNL d   1      -0.303   1.061  -0.366  0.00  0.00    -0.193 NA
ATOM      4  N   UNL d   1       0.969   0.923   0.245  0.00  0.00    -0.234 N 
ATOM      5  C   UNL d   1      -0.942  -0.178  -0.191  0.00  0.00     0.037 C 
ATOM      6  O   UNL d   1       2.021  -0.828   1.428  0.00  0.00    -0.264 OA
ATOM      7  C   UNL d   1      -0.974   2.335  -0.086  0.00  0.00     0.143 C 
ATOM      8  C   UNL d   1      -2.373  -0.384  -0.579  0.00  0.00     0.066 C 
ENDROOT
BRANCH   1   9
ATOM      9  N   UNL d   1      -0.351  -2.471   0.396  0.00  0.00    -0.317 N 
ATOM     10  C   UNL d   1       0.639  -3.437   0.439  0.00  0.00     0.263 C 
ATOM     11  O   UNL d   1       1.849  -3.299   0.414  0.00  0.00    -0.267 OA
ATOM     12  H   UNL d   1      -1.277  -2.797   0.155  0.00  0.00     0.169 HD
BRANCH  10  13
ATOM     13  C   UNL d   1       0.096  -4.842   0.448  0.00  0.00     0.188 C 
ATOM     14  N   UNL d   1       0.314  -5.630  -0.552  0.00  0.00    -0.275 N 
ATOM     15  HN  UNL d   1       0.819  -5.380  -1.403  1.00  0.00     0.193 HD
BRANCH  14  16
ATOM     16  O   UNL d   1      -0.252  -6.881  -0.282  0.00  0.00    -0.290 OA
ATOM     17  H   UNL d   1       0.159  -7.447  -0.966  0.00  0.00     0.244 HD
ENDBRANCH  14  16
ENDBRANCH  10  13
ENDBRANCH   1   9
BRANCH   4  18
ATOM     18  C   UNL d   1       2.036   1.819   0.021  0.00  0.00     0.055 A 
ATOM     19  C   UNL d   1       2.148   2.529  -1.181  0.00  0.00     0.031 A 
ATOM     20  C   UNL d   1       3.224   3.395  -1.395  0.00  0.00     0.002 A 
ATOM     21  C   UNL d   1       4.179   3.582  -0.398  0.00  0.00     0.000 A 
ATOM     22  C   UNL d   1       4.072   2.887   0.805  0.00  0.00     0.002 A 
ATOM     23  C   UNL d   1       3.016   1.995   1.004  0.00  0.00     0.031 A 
ENDBRANCH   4  18
TORSDOF 4
