REMARK  2 active torsions:
REMARK  status: ('A' for Active; 'I' for Inactive)
REMARK    1  A    between atoms: C_7  and  C_1 
REMARK    2  A    between atoms: C_13  and  C_8 
ROOT
ATOM      1  C   UNL d   1      -0.819   1.456  -0.002  0.00  0.00     0.144 A 
ATOM      2  N   UNL d   1       0.304   0.638  -0.006  0.00  0.00    -0.235 N 
ATOM      3  C   UNL d   1       0.160  -0.758   0.026  0.00  0.00     0.129 A 
ATOM      4  C   UNL d   1      -2.047   0.896   0.025  0.00  0.00     0.067 A 
ATOM      5  N   UNL d   1      -1.060  -1.371   0.067  0.00  0.00    -0.340 N 
ATOM      6  HN  UNL d   1      -1.145  -2.387   0.104  1.00  0.00     0.167 HD
ATOM      7  C   UNL d   1      -2.109  -0.599   0.056  0.00  0.00     0.046 A 
ATOM      8  N   UNL d   1       1.616   0.981  -0.032  0.00  0.00    -0.303 N 
ATOM      9  HN  UNL d   1       2.010   1.922  -0.056  1.00  0.00     0.186 HD
ATOM     10  C   UNL d   1       1.431  -1.283   0.013  0.00  0.00     0.069 A 
ATOM     11  C   UNL d   1       2.280  -0.173  -0.020  0.00  0.00     0.111 A 
ENDROOT
BRANCH   7  12
ATOM     12  C   UNL d   1      -3.466  -1.218   0.119  0.00  0.00    -0.009 A 
ATOM     13  C   UNL d   1      -3.621  -2.416   0.831  0.00  0.00     0.015 A 
ATOM     14  C   UNL d   1      -4.878  -3.019   0.936  0.00  0.00     0.024 A 
ATOM     15  C   UNL d   1      -5.980  -2.431   0.320  0.00  0.00     0.034 A 
ATOM     16  C   UNL d   1      -5.834  -1.252  -0.410  0.00  0.00     0.024 A 
ATOM     17 CL   UNL d   1      -7.529  -3.165   0.456  0.00  0.00    -0.084 Cl
ATOM     18  C   UNL d   1      -4.577  -0.646  -0.516  0.00  0.00     0.015 A 
ENDBRANCH   7  12
BRANCH   1  19
ATOM     19  C   UNL d   1      -0.647   2.928  -0.008  0.00  0.00     0.434 C 
ATOM     20  F   UNL d   1       0.619   3.401  -0.033  0.00  0.00    -0.165 F 
ATOM     21  F   UNL d   1      -1.282   3.476  -1.083  0.00  0.00    -0.165 F 
ATOM     22  F   UNL d   1      -1.241   3.481   1.086  0.00  0.00    -0.165 F 
ENDBRANCH   1  19
TORSDOF 2
