REMARK  6 active torsions:
REMARK  status: ('A' for Active; 'I' for Inactive)
REMARK    1  A    between atoms: C_7  and  N_2 
REMARK    2  A    between atoms: C_8  and  C_5 
REMARK    3  A    between atoms: S_13  and  C_6 
REMARK    4  A    between atoms: C_12  and  C_7 
REMARK    5  A    between atoms: O_18  and  C_12 
REMARK    6  A    between atoms: C_20  and  O_18 
ROOT
ATOM      1  C   UNL d   1      -0.360  -1.125  -0.079  0.00  0.00     0.109 C 
ATOM      2  N   UNL d   1      -0.297   1.067   0.103  0.00  0.00    -0.274 N 
ATOM      3  N   UNL d   1       0.979   0.670   0.282  0.00  0.00    -0.294 N 
ATOM      4  HN  UNL d   1       1.784   1.256   0.502  1.00  0.00     0.187 HD
ATOM      5  C   UNL d   1       0.964  -0.658   0.110  0.00  0.00     0.089 C 
ATOM      6  C   UNL d   1      -1.157   0.005  -0.016  0.00  0.00     0.110 C 
ATOM      7  C   UNL d   1      -0.815  -2.457  -0.270  0.00  0.00     0.104 C 
ATOM      8  N   UNL d   1      -1.219  -3.538  -0.410  0.00  0.00    -0.191 NA
ENDROOT
BRANCH   5   9
ATOM      9  C   UNL d   1       2.259  -1.426   0.147  0.00  0.00     0.034 A 
ATOM     10  S   UNL d   1       2.440  -3.095  -0.159  0.00  0.00    -0.100 SA
ATOM     11  C   UNL d   1       4.130  -3.032   0.096  0.00  0.00     0.050 A 
ATOM     12  C   UNL d   1       4.554  -1.763   0.418  0.00  0.00     0.008 A 
ATOM     13  C   UNL d   1       3.474  -0.834   0.436  0.00  0.00     0.022 A 
ENDBRANCH   5   9
BRANCH   6  14
ATOM     14  S   UNL d   1      -2.880   0.228  -0.114  0.00  0.00    -0.114 SA
ATOM     15  C   UNL d   1      -3.453  -0.776   1.281  0.00  0.00     0.097 C 
ENDBRANCH   6  14
BRANCH   2  16
ATOM     16  C   UNL d   1      -0.614   2.486   0.069  0.00  0.00     0.260 C 
BRANCH  16  17
ATOM     17  C   UNL d   1       0.625   3.339   0.123  0.00  0.00     0.278 C 
ATOM     18  O   UNL d   1       1.278   3.670  -0.860  0.00  0.00    -0.263 OA
BRANCH  17  19
ATOM     19  O   UNL d   1       0.950   3.626   1.417  0.00  0.00    -0.321 OA
BRANCH  19  20
ATOM     20  C   UNL d   1       2.331   3.939   1.649  0.00  0.00     0.174 C 
ATOM     21  C   UNL d   1       2.677   5.373   1.295  0.00  0.00     0.034 C 
ENDBRANCH  19  20
ENDBRANCH  17  19
ENDBRANCH  16  17
ENDBRANCH   2  16
TORSDOF 6
