REMARK  6 active torsions:
REMARK  status: ('A' for Active; 'I' for Inactive)
REMARK    1  A    between atoms: N_10  and  C_2 
REMARK    2  A    between atoms: C_11  and  C_3 
REMARK    3  A    between atoms: S_12  and  C_6 
REMARK    4  A    between atoms: C_9  and  C_8 
REMARK    5  A    between atoms: O_20  and  C_11 
REMARK    6  A    between atoms: C_27  and  O_20 
ROOT
ATOM      1  C   UNL d   1      -0.144   0.701  -0.061  0.00  0.00     0.060 A 
ATOM      2  C   UNL d   1      -1.272  -1.489   0.005  0.00  0.00     0.062 A 
ATOM      3  C   UNL d   1      -2.502  -0.790   0.101  0.00  0.00     0.100 A 
ATOM      4  N   UNL d   1      -1.325   1.316   0.020  0.00  0.00    -0.348 N 
ATOM      5  HN  UNL d   1      -1.360   2.335   0.018  1.00  0.00     0.166 HD
ATOM      6  C   UNL d   1      -2.478   0.611   0.104  0.00  0.00     0.088 A 
ATOM      7  C   UNL d   1      -0.065  -0.706  -0.108  0.00  0.00     0.019 A 
ATOM      8  C   UNL d   1       1.029   1.462  -0.084  0.00  0.00     0.075 A 
ATOM      9  C   UNL d   1       1.221  -1.285  -0.272  0.00  0.00     0.016 A 
ATOM     10  C   UNL d   1       2.292   0.839  -0.153  0.00  0.00     0.018 A 
ATOM     11  C   UNL d   1       2.388  -0.533  -0.262  0.00  0.00     0.002 A 
ENDROOT
BRANCH   2  12
ATOM     12  N   UNL d   1      -1.118  -2.889   0.025  0.00  0.00    -0.375 N 
ATOM     13  C   UNL d   1      -2.071  -3.836  -0.582  0.00  0.00     0.149 C 
ATOM     14  C   UNL d   1      -1.308  -5.137  -0.914  0.00  0.00     0.187 C 
ATOM     15  O   UNL d   1      -0.682  -5.707   0.251  0.00  0.00    -0.388 OA
ATOM     16  C   UNL d   1       0.219  -4.766   0.861  0.00  0.00     0.187 C 
ATOM     17  C   UNL d   1      -0.511  -3.465   1.254  0.00  0.00     0.149 C 
ENDBRANCH   2  12
BRANCH   3  18
ATOM     18  C   UNL d   1      -3.775  -1.480   0.395  0.00  0.00     0.298 C 
ATOM     19  O   UNL d   1      -3.905  -2.277   1.313  0.00  0.00    -0.259 OA
BRANCH  18  20
ATOM     20  O   UNL d   1      -4.749  -1.112  -0.470  0.00  0.00    -0.318 OA
BRANCH  20  21
ATOM     21  C   UNL d   1      -6.078  -1.623  -0.230  0.00  0.00     0.174 C 
ATOM     22  C   UNL d   1      -6.687  -1.178   1.094  0.00  0.00     0.034 C 
ENDBRANCH  20  21
ENDBRANCH  18  20
ENDBRANCH   3  18
BRANCH   6  23
ATOM     23  S   UNL d   1      -3.939   1.645   0.305  0.00  0.00    -0.116 SA
ATOM     24  C   UNL d   1      -3.229   3.312   0.217  0.00  0.00     0.097 C 
ENDBRANCH   6  23
BRANCH   8  25
ATOM     25  C   UNL d   1       1.020   2.968  -0.031  0.00  0.00     0.419 C 
ATOM     26  F   UNL d   1      -0.186   3.590   0.019  0.00  0.00    -0.166 F 
ATOM     27  F   UNL d   1       1.712   3.435   1.052  0.00  0.00    -0.166 F 
ATOM     28  F   UNL d   1       1.657   3.507  -1.114  0.00  0.00    -0.166 F 
ENDBRANCH   8  25
TORSDOF 6
