REMARK  2 active torsions:
REMARK  status: ('A' for Active; 'I' for Inactive)
REMARK    1  A    between atoms: C_9  and  C_7 
REMARK    2  A    between atoms: N_12  and  C_9 
ROOT
ATOM      1  C   UNL d   1      -0.613   0.434  -0.053  0.00  0.00     0.045 A 
ATOM      2  C   UNL d   1      -1.014  -0.889  -0.025  0.00  0.00     0.026 A 
ATOM      3  N   UNL d   1       0.108  -1.675  -0.064  0.00  0.00    -0.353 N 
ATOM      4  C   UNL d   1       0.805   0.457  -0.020  0.00  0.00     0.007 A 
ATOM      5  C   UNL d   1      -1.583   1.530  -0.067  0.00  0.00     0.168 C 
ATOM      6  C   UNL d   1       1.238  -0.874  -0.038  0.00  0.00     0.045 A 
ATOM      7  C   UNL d   1      -3.035   1.086  -0.338  0.00  0.00     0.089 C 
ATOM      8  C   UNL d   1      -2.431  -1.355   0.040  0.00  0.00     0.059 C 
ATOM      9  C   UNL d   1      -3.315  -0.182   0.512  0.00  0.00     0.020 C 
ATOM     10  O   UNL d   1      -1.236   2.689   0.089  0.00  0.00    -0.292 OA
ATOM     11  C   UNL d   1       0.143  -3.120  -0.115  0.00  0.00     0.156 C 
ATOM     12  C   UNL d   1       1.766   1.487   0.021  0.00  0.00     0.015 A 
ATOM     13  C   UNL d   1       2.603  -1.206  -0.027  0.00  0.00     0.030 A 
ATOM     14  C   UNL d   1       3.126   1.165   0.042  0.00  0.00     0.001 A 
ATOM     15  C   UNL d   1       3.536  -0.164   0.015  0.00  0.00     0.002 A 
ENDROOT
BRANCH   7  16
ATOM     16  C   UNL d   1      -4.068   2.188  -0.045  0.00  0.00     0.284 C 
BRANCH  16  17
ATOM     17  N   UNL d   1      -3.997   3.387  -0.902  0.00  0.00     0.080 N 
ATOM     18  C   UNL d   1      -4.104   3.105  -2.329  0.00  0.00     0.309 C 
ATOM     19  C   UNL d   1      -4.984   4.382  -0.489  0.00  0.00     0.309 C 
ENDBRANCH  16  17
ENDBRANCH   7  16
TORSDOF 2
