REMARK  5 active torsions:
REMARK  status: ('A' for Active; 'I' for Inactive)
REMARK    1  A    between atoms: C_10  and  N_1 
REMARK    2  A    between atoms: O_9  and  C_3 
REMARK    3  A    between atoms: C_11  and  C_10 
REMARK    4  A    between atoms: C_14  and  C_11 
REMARK    5  A    between atoms: O_13  and  C_14 
ROOT
ATOM      1  N   UNL d   1      -0.739   1.067   0.078  0.00  0.00    -0.304 N 
ATOM      2  C   UNL d   1      -0.438   0.333  -1.102  0.00  0.00     0.180 A 
ATOM      3  C   UNL d   1      -0.353   0.555   1.312  0.00  0.00     0.146 A 
ATOM      4  N   UNL d   1       0.216  -0.875  -0.986  0.00  0.00    -0.337 N 
ATOM      5  HN  UNL d   1       0.429  -1.422  -1.819  1.00  0.00     0.168 HD
ATOM      6  C   UNL d   1       0.284  -0.606   1.428  0.00  0.00     0.080 A 
ATOM      7  C   UNL d   1       0.558  -1.312   0.177  0.00  0.00     0.011 A 
ATOM      8  S   UNL d   1      -0.828   0.851  -2.671  0.00  0.00    -0.040 SA
ATOM      9  C   UNL d   1       1.291  -2.626   0.256  0.00  0.00     0.068 C 
ENDROOT
BRANCH   1  10
ATOM     10  C   UNL d   1      -1.394   2.391   0.003  0.00  0.00     0.135 C 
BRANCH  10  11
ATOM     11  C   UNL d   1      -2.928   2.329  -0.050  0.00  0.00     0.046 C 
BRANCH  11  12
ATOM     12  C   UNL d   1      -3.589   1.728   1.186  0.00  0.00     0.168 C 
BRANCH  12  13
ATOM     13  O   UNL d   1      -3.077   2.379   2.352  0.00  0.00    -0.396 OA
ATOM     14  C   UNL d   1      -3.727   1.921   3.537  0.00  0.00     0.201 C 
ENDBRANCH  12  13
ENDBRANCH  11  12
ENDBRANCH  10  11
ENDBRANCH   1  10
BRANCH   3  15
ATOM     15  O   UNL d   1      -0.616   1.254   2.469  0.00  0.00    -0.346 OA
ATOM     16  H   UNL d   1      -1.414   1.804   2.344  0.00  0.00     0.219 HD
ENDBRANCH   3  15
TORSDOF 5
