REMARK  9 active torsions:
REMARK  status: ('A' for Active; 'I' for Inactive)
REMARK    1  A    between atoms: N_2  and  C_1 
REMARK    2  A    between atoms: C_3  and  C_1 
REMARK    3  A    between atoms: C_4  and  C_1 
REMARK    4  A    between atoms: N_5  and  C_1 
REMARK       I    between atoms: C_6  and  N_2 
REMARK    5  A    between atoms: O_19  and  C_4 
REMARK    6  A    between atoms: C_9  and  N_5 
REMARK    7  A    between atoms: O_18  and  C_6 
REMARK    8  A    between atoms: C_22  and  O_18 
REMARK    9  A    between atoms: C_23  and  O_19 
ROOT
ATOM      1  C   UNL d   1       0.852   0.034   0.000  0.00  0.00     0.298 C 
ENDROOT
BRANCH   1   2
ATOM      2  N   UNL d   1       0.323   0.190  -1.341  0.00  0.00    -0.294 N 
ATOM      3  C   UNL d   1      -0.996   0.110  -1.610  0.00  0.00     0.363 C 
ATOM      4  O   UNL d   1      -1.842  -0.250  -0.806  0.00  0.00    -0.238 OA
ATOM      5  H   UNL d   1       0.916   0.624  -2.031  0.00  0.00     0.168 HD
BRANCH   3   6
ATOM      6  O   UNL d   1      -1.204   0.442  -2.902  0.00  0.00    -0.304 OA
BRANCH   6   7
ATOM      7  C   UNL d   1      -2.530   0.222  -3.392  0.00  0.00     0.176 C 
ATOM      8  C   UNL d   1      -2.622  -1.194  -3.928  0.00  0.00     0.034 C 
ENDBRANCH   6   7
ENDBRANCH   3   6
ENDBRANCH   1   2
BRANCH   1   9
ATOM      9  C   UNL d   1       0.294  -1.118   0.906  0.00  0.00     0.442 C 
ATOM     10  F   UNL d   1      -0.146  -2.180   0.187  0.00  0.00    -0.166 F 
ATOM     11  F   UNL d   1       1.272  -1.601   1.725  0.00  0.00    -0.166 F 
ATOM     12  F   UNL d   1      -0.717  -0.733   1.719  0.00  0.00    -0.166 F 
ENDBRANCH   1   9
BRANCH   1  13
ATOM     13  C   UNL d   1       0.523   1.338   0.783  0.00  0.00     0.318 C 
ATOM     14  O   UNL d   1      -0.223   2.232   0.394  0.00  0.00    -0.260 OA
BRANCH  13  15
ATOM     15  O   UNL d   1       1.232   1.399   1.955  0.00  0.00    -0.318 OA
BRANCH  15  16
ATOM     16  C   UNL d   1       0.947   2.546   2.774  0.00  0.00     0.174 C 
ATOM     17  C   UNL d   1       1.786   3.731   2.333  0.00  0.00     0.034 C 
ENDBRANCH  15  16
ENDBRANCH  13  15
ENDBRANCH   1  13
BRANCH   1  18
ATOM     18  N   UNL d   1       2.337   0.001  -0.235  0.00  0.00    -0.348 N 
ATOM     19  H   UNL d   1       2.834   0.313   0.601  0.00  0.00     0.163 HD
BRANCH  18  20
ATOM     20  C   UNL d   1       3.014  -1.052  -0.853  0.00  0.00     0.033 A 
ATOM     21  C   UNL d   1       2.402  -2.105  -1.542  0.00  0.00     0.074 A 
ATOM     22  C   UNL d   1       3.166  -3.073  -2.197  0.00  0.00     0.157 A 
ATOM     23  F   UNL d   1       2.545  -4.081  -2.825  0.00  0.00    -0.203 F 
ATOM     24  C   UNL d   1       4.550  -2.992  -2.212  0.00  0.00     0.154 A 
ATOM     25  C   UNL d   1       5.185  -1.937  -1.576  0.00  0.00     0.047 A 
ATOM     26  F   UNL d   1       5.279  -3.915  -2.854  0.00  0.00    -0.203 F 
ATOM     27  C   UNL d   1       4.420  -0.976  -0.907  0.00  0.00     0.032 A 
ENDBRANCH  18  20
ENDBRANCH   1  18
TORSDOF 9
