REMARK  9 active torsions:
REMARK  status: ('A' for Active; 'I' for Inactive)
REMARK       I    between atoms: N_2  and  C_1 
REMARK    1  A    between atoms: C_13  and  C_1 
REMARK    2  A    between atoms: C_6  and  N_2 
REMARK    3  A    between atoms: C_15  and  N_2 
REMARK    4  A    between atoms: C_5  and  C_14 
REMARK    5  A    between atoms: O_11  and  C_5 
REMARK    6  A    between atoms: C_12  and  C_6 
REMARK    7  A    between atoms: S_9  and  C_13 
REMARK    8  A    between atoms: C_14  and  S_9 
REMARK    9  A    between atoms: C_10  and  C_15 
ROOT
ATOM      1  N   UNL d   1       1.835   0.039  -5.802  0.00  0.00    -0.197 NA
ATOM      2  C   UNL d   1       1.488  -0.284  -4.744  0.00  0.00     0.060 C 
ATOM      3  C   UNL d   1       1.045  -0.684  -3.407  0.00  0.00     0.143 C 
ENDROOT
BRANCH   3   4
ATOM      4  C   UNL d   1       0.712   0.545  -2.557  0.00  0.00     0.140 C 
BRANCH   4   5
ATOM      5  N   UNL d   1       0.252   0.170  -1.211  0.00  0.00    -0.346 N 
ATOM      6  C   UNL d   1       1.082  -0.174  -0.147  0.00  0.00     0.229 C 
ATOM      7  O   UNL d   1       0.622  -0.656   0.898  0.00  0.00    -0.273 OA
BRANCH   6   8
ATOM      8  C   UNL d   1       2.598  -0.023  -0.288  0.00  0.00     0.177 C 
BRANCH   8   9
ATOM      9  S   UNL d   1       3.333   0.913   1.099  0.00  0.00    -0.149 SA
BRANCH   9  10
ATOM     10  C   UNL d   1       3.007  -0.170   2.531  0.00  0.00     0.184 C 
BRANCH  10  11
ATOM     11  C   UNL d   1       3.344  -1.621   2.277  0.00  0.00     0.149 C 
ATOM     12  O   UNL d   1       4.468  -2.094   2.361  0.00  0.00    -0.649 OA
BRANCH  11  13
ATOM     13  O   UNL d   1       2.279  -2.372   1.899  0.00  0.00    -0.776 OA
ATOM     14  H   UNL d   1       1.448  -1.846   1.791  0.00  0.00     0.167 HD
ENDBRANCH  11  13
ENDBRANCH  10  11
ENDBRANCH   9  10
ENDBRANCH   8   9
ENDBRANCH   6   8
BRANCH   5  15
ATOM     15  C   UNL d   1      -1.195  -0.027  -1.056  0.00  0.00     0.164 C 
BRANCH  15  16
ATOM     16  C   UNL d   1      -1.959   1.263  -0.865  0.00  0.00    -0.040 A 
ATOM     17  C   UNL d   1      -2.902   1.684  -1.815  0.00  0.00     0.009 A 
ATOM     18  C   UNL d   1      -3.669   2.831  -1.596  0.00  0.00     0.001 A 
ATOM     19  C   UNL d   1      -3.501   3.572  -0.429  0.00  0.00     0.000 A 
ATOM     20  C   UNL d   1      -2.557   3.174   0.515  0.00  0.00     0.001 A 
ATOM     21  C   UNL d   1      -1.788   2.028   0.299  0.00  0.00     0.009 A 
ENDBRANCH  15  16
ENDBRANCH   5  15
ENDBRANCH   4   5
ENDBRANCH   3   4
TORSDOF 9
