REMARK  6 active torsions:
REMARK  status: ('A' for Active; 'I' for Inactive)
REMARK    1  A    between atoms: N_3  and  S_1 
REMARK    2  A    between atoms: C_6  and  S_1 
REMARK    3  A    between atoms: C_2  and  C_5 
REMARK    4  A    between atoms: C_5  and  N_3 
REMARK    5  A    between atoms: O_9  and  C_4 
REMARK    6  A    between atoms: C_13  and  O_9 
ROOT
ATOM      1  C   UNL d   1       0.511   3.381   2.068  0.00  0.00     0.011 A 
ATOM      2  C   UNL d   1      -0.623   3.556   2.891  0.00  0.00     0.085 A 
ATOM      3  C   UNL d   1       1.105   4.529   1.516  0.00  0.00     0.044 A 
ATOM      4 CL   UNL d   1       2.490   4.449   0.482  0.00  0.00    -0.084 Cl
ATOM      5  C   UNL d   1      -1.161   4.835   3.107  0.00  0.00     0.038 A 
ATOM      6  C   UNL d   1      -0.542   5.958   2.571  0.00  0.00     0.004 A 
ATOM      7  C   UNL d   1       0.593   5.805   1.782  0.00  0.00     0.024 A 
ENDROOT
BRANCH   1   8
ATOM      8  C   UNL d   1       1.036   1.989   1.789  0.00  0.00     0.147 C 
BRANCH   8   9
ATOM      9  N   UNL d   1       0.191   1.281   0.820  0.00  0.00    -0.211 NA
ATOM     10  H   UNL d   1      -0.795   1.212   1.073  0.00  0.00     0.140 HD
BRANCH   9  11
ATOM     11  S   UNL d   1       0.759  -0.194   0.250  0.00  0.00     0.241 S 
ATOM     12  O   UNL d   1      -0.415  -0.999  -0.003  0.00  0.00    -0.206 OA
ATOM     13  O   UNL d   1       1.814  -0.651   1.129  0.00  0.00    -0.206 OA
BRANCH  11  14
ATOM     14  C   UNL d   1       1.458   0.228  -1.325  0.00  0.00     0.074 A 
ATOM     15  C   UNL d   1       2.839   0.160  -1.522  0.00  0.00     0.025 A 
ATOM     16  C   UNL d   1       3.363   0.390  -2.798  0.00  0.00     0.008 A 
ATOM     17  C   UNL d   1       2.516   0.683  -3.876  0.00  0.00    -0.062 A 
ATOM     18  C   UNL d   1       1.133   0.755  -3.660  0.00  0.00     0.008 A 
ATOM     19  C   UNL d   1       3.092   0.878  -5.249  0.00  0.00     0.048 C 
ATOM     20  C   UNL d   1       0.602   0.525  -2.390  0.00  0.00     0.025 A 
ENDBRANCH  11  14
ENDBRANCH   9  11
ENDBRANCH   8   9
ENDBRANCH   1   8
BRANCH   2  21
ATOM     21  O   UNL d   1      -1.210   2.419   3.425  0.00  0.00    -0.310 OA
BRANCH  21  22
ATOM     22  C   UNL d   1      -1.833   2.537   4.648  0.00  0.00     0.076 A 
ATOM     23  C   UNL d   1      -3.142   2.066   4.752  0.00  0.00     0.037 A 
ATOM     24  C   UNL d   1      -3.834   2.202   5.956  0.00  0.00     0.003 A 
ATOM     25  C   UNL d   1      -3.211   2.793   7.057  0.00  0.00     0.000 A 
ATOM     26  C   UNL d   1      -1.887   3.224   6.964  0.00  0.00     0.003 A 
ATOM     27  C   UNL d   1      -1.190   3.081   5.764  0.00  0.00     0.037 A 
ENDBRANCH  21  22
ENDBRANCH   2  21
TORSDOF 6
