REMARK  4 active torsions:
REMARK  status: ('A' for Active; 'I' for Inactive)
REMARK    1  A    between atoms: C_3  and  C_5 
REMARK    2  A    between atoms: S_9  and  C_4 
REMARK    3  A    between atoms: C_5  and  S_9 
REMARK    4  A    between atoms: O_16  and  C_6 
ROOT
ATOM      1  N   UNL d   1      -0.286  -1.093   0.370  0.00  0.00    -0.318 N 
ATOM      2  HN  UNL d   1      -0.888  -1.911   0.463  1.00  0.00     0.170 HD
ATOM      3  C   UNL d   1       1.047  -1.192   0.239  0.00  0.00     0.146 A 
ATOM      4  C   UNL d   1      -0.768   0.151   0.370  0.00  0.00     0.142 A 
ATOM      5  N   UNL d   1       1.884  -0.146   0.113  0.00  0.00    -0.347 N 
ATOM      6  HN  UNL d   1       2.891  -0.274   0.016  1.00  0.00     0.167 HD
ATOM      7  C   UNL d   1      -0.027   1.292   0.250  0.00  0.00     0.073 A 
ATOM      8  C   UNL d   1       1.321   1.080   0.121  0.00  0.00     0.094 A 
ENDROOT
BRANCH   3   9
ATOM      9  S   UNL d   1       1.697  -2.845   0.239  0.00  0.00    -0.089 SA
BRANCH   9  10
ATOM     10  C   UNL d   1       3.476  -2.510   0.059  0.00  0.00     0.126 C 
BRANCH  10  11
ATOM     11  C   UNL d   1       4.271  -3.793   0.016  0.00  0.00     0.012 A 
ATOM     12  C   UNL d   1       4.808  -4.304   1.205  0.00  0.00     0.125 A 
ATOM     13  F   UNL d   1       4.627  -3.642   2.357  0.00  0.00    -0.205 F 
ATOM     14  C   UNL d   1       5.540  -5.490   1.236  0.00  0.00     0.043 A 
ATOM     15  C   UNL d   1       5.748  -6.204   0.060  0.00  0.00     0.005 A 
ATOM     16  C   UNL d   1       5.216  -5.724  -1.136  0.00  0.00     0.024 A 
ATOM     17  C   UNL d   1       4.481  -4.530  -1.159  0.00  0.00     0.044 A 
ATOM     18 CL   UNL d   1       3.856  -4.015  -2.686  0.00  0.00    -0.084 Cl
ENDBRANCH  10  11
ENDBRANCH   9  10
ENDBRANCH   3   9
BRANCH   4  19
ATOM     19  O   UNL d   1      -2.117   0.223   0.503  0.00  0.00    -0.346 OA
ATOM     20  H   UNL d   1      -2.341  -0.724   0.561  0.00  0.00     0.219 HD
ENDBRANCH   4  19
TORSDOF 4
