REMARK  8 active torsions:
REMARK  status: ('A' for Active; 'I' for Inactive)
REMARK    1  A    between atoms: O_21  and  C_1 
REMARK    2  A    between atoms: C_2  and  N_15 
REMARK    3  A    between atoms: N_3  and  C_2 
REMARK    4  A    between atoms: C_4  and  N_3 
REMARK    5  A    between atoms: O_22  and  C_5 
REMARK    6  A    between atoms: O_23  and  C_6 
REMARK    7  A    between atoms: N_15  and  N_9 
REMARK    8  A    between atoms: C_20  and  C_18 
ROOT
ATOM      1  N   UNL d   1      -3.645  -0.471   0.750  0.00  0.00    -0.309 N 
ATOM      2  HN  UNL d   1      -3.343  -1.366   1.136  1.00  0.00     0.186 HD
ATOM      3  C   UNL d   1      -2.800   0.448   0.405  0.00  0.00     0.118 C 
ENDROOT
BRANCH   1   4
ATOM      4  N   UNL d   1      -4.955  -0.172   0.568  0.00  0.00    -0.277 N 
ATOM      5  H   UNL d   1      -5.191   0.666   0.053  0.00  0.00     0.189 HD
BRANCH   4   6
ATOM      6  C   UNL d   1      -5.924  -1.146   0.634  0.00  0.00     0.186 C 
ATOM      7  S   UNL d   1      -5.680  -2.792   0.786  0.00  0.00    -0.040 SA
BRANCH   6   8
ATOM      8  N   UNL d   1      -7.220  -0.685   0.590  0.00  0.00    -0.361 N 
ATOM      9  H   UNL d   1      -7.852  -1.476   0.628  0.00  0.00     0.162 HD
BRANCH   8  10
ATOM     10  C   UNL d   1      -7.660   0.454   1.387  0.00  0.00     0.092 C 
ATOM     11  C   UNL d   1      -7.284   1.875   0.884  0.00  0.00     0.031 C 
ATOM     12  C   UNL d   1      -7.901   2.128  -0.475  0.00  0.00    -0.024 C 
ATOM     13  C   UNL d   1      -8.242   2.713   1.740  0.00  0.00     0.019 C 
ATOM     14  C   UNL d   1      -9.224   2.235  -0.292  0.00  0.00    -0.026 C 
ATOM     15  C   UNL d   1      -9.492   2.032   1.180  0.00  0.00     0.010 C 
ATOM     16  C   UNL d   1      -9.215   0.546   1.496  0.00  0.00     0.034 C 
ENDBRANCH   8  10
ENDBRANCH   6   8
ENDBRANCH   4   6
ENDBRANCH   1   4
BRANCH   3  17
ATOM     17  C   UNL d   1      -1.355   0.191   0.497  0.00  0.00    -0.014 A 
ATOM     18  C   UNL d   1      -0.476   0.992  -0.226  0.00  0.00     0.052 A 
ATOM     19  C   UNL d   1       0.882   0.658  -0.300  0.00  0.00     0.105 A 
ATOM     20  C   UNL d   1       1.347  -0.482   0.382  0.00  0.00     0.135 A 
ATOM     21  C   UNL d   1       0.473  -1.208   1.227  0.00  0.00     0.105 A 
ATOM     22  C   UNL d   1      -0.883  -0.889   1.246  0.00  0.00     0.052 A 
BRANCH  19  23
ATOM     23  O   UNL d   1       1.574   1.533  -1.095  0.00  0.00    -0.353 OA
ATOM     24  C   UNL d   1       2.956   1.305  -1.326  0.00  0.00     0.210 C 
ENDBRANCH  19  23
BRANCH  20  25
ATOM     25  O   UNL d   1       2.663  -0.854   0.254  0.00  0.00    -0.351 OA
ATOM     26  C   UNL d   1       2.833  -2.212  -0.160  0.00  0.00     0.210 C 
ENDBRANCH  20  25
BRANCH  21  27
ATOM     27  O   UNL d   1       1.024  -2.220   1.973  0.00  0.00    -0.353 OA
ATOM     28  C   UNL d   1       0.237  -2.743   3.038  0.00  0.00     0.210 C 
ENDBRANCH  21  27
ENDBRANCH   3  17
TORSDOF 8
