REMARK  7 active torsions:
REMARK  status: ('A' for Active; 'I' for Inactive)
REMARK    1  A    between atoms: C_7  and  N_1 
REMARK    2  A    between atoms: C_2  and  C_6 
REMARK    3  A    between atoms: C_11  and  C_2 
REMARK    4  A    between atoms: C_4  and  C_3 
REMARK    5  A    between atoms: C_14  and  C_4 
REMARK    6  A    between atoms: C_5  and  C_10 
REMARK    7  A    between atoms: C_6  and  C_5 
ROOT
ATOM      1  C   UNL d   1      -3.733   1.236   3.239  0.00  0.00    -0.037 C 
ATOM      2  C   UNL d   1      -2.820   1.078   2.255  0.00  0.00     0.064 C 
ENDROOT
BRANCH   1   3
ATOM      3  C   UNL d   1      -4.908   0.291   3.405  0.00  0.00     0.123 C 
BRANCH   3   4
ATOM      4  C   UNL d   1      -4.588  -0.921   4.292  0.00  0.00     0.163 C 
ATOM      5  O   UNL d   1      -3.442  -1.245   4.602  0.00  0.00    -0.292 OA
BRANCH   4   6
ATOM      6  C   UNL d   1      -5.724  -1.772   4.778  0.00  0.00     0.010 A 
ATOM      7  C   UNL d   1      -7.032  -1.611   4.300  0.00  0.00     0.017 A 
ATOM      8  C   UNL d   1      -8.081  -2.373   4.830  0.00  0.00     0.037 A 
ATOM      9  C   UNL d   1      -7.823  -3.309   5.840  0.00  0.00     0.102 A 
ATOM     10  C   UNL d   1      -6.514  -3.522   6.286  0.00  0.00     0.037 A 
ATOM     11  C   UNL d   1      -5.470  -2.755   5.752  0.00  0.00     0.017 A 
BRANCH   9  12
ATOM     12  N   UNL d   1      -8.939  -4.041   6.455  0.00  0.00    -0.116 N 
ATOM     13  O   UNL d   1      -8.676  -4.834   7.369  0.00  0.00    -0.532 OA
ATOM     14  O   UNL d   1     -10.081  -3.808   6.032  0.00  0.00    -0.532 OA
ENDBRANCH   9  12
ENDBRANCH   4   6
ENDBRANCH   3   4
ENDBRANCH   1   3
BRANCH   1  15
ATOM     15  C   UNL d   1      -3.705   2.350   4.205  0.00  0.00    -0.029 A 
ATOM     16  C   UNL d   1      -4.440   3.519   3.965  0.00  0.00     0.012 A 
ATOM     17  C   UNL d   1      -4.423   4.570   4.883  0.00  0.00     0.001 A 
ATOM     18  C   UNL d   1      -3.660   4.466   6.048  0.00  0.00     0.000 A 
ATOM     19  C   UNL d   1      -2.921   3.309   6.290  0.00  0.00     0.001 A 
ATOM     20  C   UNL d   1      -2.947   2.250   5.376  0.00  0.00     0.012 A 
ENDBRANCH   1  15
BRANCH   2  21
ATOM     21  C   UNL d   1      -1.555   1.864   2.102  0.00  0.00     0.182 C 
ATOM     22  O   UNL d   1      -1.059   2.534   2.998  0.00  0.00    -0.288 OA
BRANCH  21  23
ATOM     23  C   UNL d   1      -0.801   1.714   0.835  0.00  0.00     0.014 A 
ATOM     24  C   UNL d   1      -1.418   1.797  -0.420  0.00  0.00     0.015 A 
ATOM     25  C   UNL d   1      -0.643   1.707  -1.579  0.00  0.00     0.001 A 
ATOM     26  C   UNL d   1       0.742   1.528  -1.489  0.00  0.00     0.000 A 
ATOM     27  C   UNL d   1       1.357   1.452  -0.240  0.00  0.00     0.001 A 
ATOM     28  C   UNL d   1       0.588   1.554   0.919  0.00  0.00     0.015 A 
ENDBRANCH  21  23
ENDBRANCH   2  21
TORSDOF 7
