REMARK  6 active torsions:
REMARK  status: ('A' for Active; 'I' for Inactive)
REMARK    1  A    between atoms: N_2  and  C_1 
REMARK    2  A    between atoms: C_3  and  C_1 
REMARK    3  A    between atoms: C_4  and  C_1 
REMARK    4  A    between atoms: N_6  and  C_1 
REMARK       I    between atoms: C_5  and  N_2 
REMARK    5  A    between atoms: C_7  and  C_5 
REMARK    6  A    between atoms: C_15  and  N_6 
ROOT
ATOM      1  C   UNL d   1       0.795   0.143  -0.064  0.00  0.00     0.306 C 
ENDROOT
BRANCH   1   2
ATOM      2  N   UNL d   1       0.481   1.328   0.789  0.00  0.00    -0.315 N 
ATOM      3  C   UNL d   1       0.891   1.437   2.080  0.00  0.00     0.254 C 
ATOM      4  O   UNL d   1       1.550   0.578   2.659  0.00  0.00    -0.268 OA
ATOM      5  H   UNL d   1      -0.140   2.025   0.396  0.00  0.00     0.165 HD
BRANCH   3   6
ATOM      6  C   UNL d   1       0.439   2.655   2.814  0.00  0.00     0.032 A 
ATOM      7  C   UNL d   1      -0.062   2.495   4.108  0.00  0.00     0.017 A 
ATOM      8  C   UNL d   1      -0.482   3.610   4.836  0.00  0.00     0.007 A 
ATOM      9  C   UNL d   1      -0.379   4.896   4.290  0.00  0.00    -0.062 A 
ATOM     10  C   UNL d   1       0.121   5.047   2.989  0.00  0.00     0.007 A 
ATOM     11  C   UNL d   1      -0.809   6.085   5.102  0.00  0.00     0.048 C 
ATOM     12  C   UNL d   1       0.529   3.931   2.249  0.00  0.00     0.017 A 
ENDBRANCH   3   6
ENDBRANCH   1   2
BRANCH   1  13
ATOM     13  C   UNL d   1      -0.134   0.102  -1.324  0.00  0.00     0.441 C 
ATOM     14  F   UNL d   1      -0.559   1.364  -1.631  0.00  0.00    -0.166 F 
ATOM     15  F   UNL d   1       0.489  -0.372  -2.428  0.00  0.00    -0.166 F 
ATOM     16  F   UNL d   1      -1.267  -0.615  -1.156  0.00  0.00    -0.166 F 
ENDBRANCH   1  13
BRANCH   1  17
ATOM     17  C   UNL d   1       0.540  -1.249   0.629  0.00  0.00     0.441 C 
ATOM     18  F   UNL d   1      -0.410  -1.173   1.594  0.00  0.00    -0.166 F 
ATOM     19  F   UNL d   1       0.149  -2.220  -0.231  0.00  0.00    -0.166 F 
ATOM     20  F   UNL d   1       1.674  -1.724   1.213  0.00  0.00    -0.166 F 
ENDBRANCH   1  17
BRANCH   1  21
ATOM     21  N   UNL d   1       2.248   0.281  -0.391  0.00  0.00    -0.349 N 
ATOM     22  H   UNL d   1       2.852  -0.258   0.231  0.00  0.00     0.162 HD
BRANCH  21  23
ATOM     23  C   UNL d   1       2.869   1.152  -1.252  0.00  0.00     0.030 A 
ATOM     24  C   UNL d   1       2.267   2.305  -1.766  0.00  0.00     0.032 A 
ATOM     25  C   UNL d   1       2.898   3.086  -2.735  0.00  0.00     0.044 A 
ATOM     26  C   UNL d   1       4.145   2.715  -3.210  0.00  0.00     0.116 A 
ATOM     27  C   UNL d   1       4.777   1.584  -2.718  0.00  0.00     0.044 A 
ATOM     28  F   UNL d   1       4.738   3.452  -4.157  0.00  0.00    -0.206 F 
ATOM     29  C   UNL d   1       4.140   0.810  -1.744  0.00  0.00     0.032 A 
ENDBRANCH  21  23
ENDBRANCH   1  21
TORSDOF 6
