REMARK  2 active torsions:
REMARK  status: ('A' for Active; 'I' for Inactive)
REMARK    1  A    between atoms: C_8  and  C_7 
REMARK    2  A    between atoms: C_11  and  C_10 
ROOT
ATOM      1  N   UNL d   1      -0.682  -1.210  -0.030  0.00  0.00    -0.336 N 
ATOM      2  HN  UNL d   1      -1.097  -2.141  -0.040  1.00  0.00     0.168 HD
ATOM      3  C   UNL d   1       0.789   0.619   0.003  0.00  0.00     0.316 A 
ATOM      4  O   UNL d   1      -0.503   1.050  -0.037  0.00  0.00    -0.261 OA
ATOM      5  C   UNL d   1       0.643  -0.860   0.011  0.00  0.00     0.110 A 
ATOM      6  C   UNL d   1      -1.272  -0.059  -0.052  0.00  0.00     0.124 A 
ATOM      7  C   UNL d   1       1.699  -1.683   0.055  0.00  0.00     0.036 C 
ATOM      8  O   UNL d   1       1.794   1.297   0.024  0.00  0.00    -0.257 OA
ATOM      9  C   UNL d   1      -2.740   0.155  -0.089  0.00  0.00     0.098 C 
ENDROOT
BRANCH   7  10
ATOM     10  C   UNL d   1       1.580  -3.125   0.053  0.00  0.00     0.003 C 
ATOM     11  C   UNL d   1       2.631  -3.960   0.086  0.00  0.00     0.011 C 
BRANCH  11  12
ATOM     12  C   UNL d   1       2.508  -5.427   0.044  0.00  0.00    -0.036 A 
ATOM     13  C   UNL d   1       1.461  -6.069  -0.633  0.00  0.00     0.011 A 
ATOM     14  C   UNL d   1       1.390  -7.462  -0.685  0.00  0.00     0.001 A 
ATOM     15  C   UNL d   1       2.375  -8.233  -0.074  0.00  0.00     0.000 A 
ATOM     16  C   UNL d   1       3.430  -7.610   0.588  0.00  0.00     0.001 A 
ATOM     17  C   UNL d   1       3.499  -6.215   0.644  0.00  0.00     0.011 A 
ENDBRANCH  11  12
ENDBRANCH   7  10
TORSDOF 2
