REMARK  2 active torsions:
REMARK  status: ('A' for Active; 'I' for Inactive)
REMARK    1  A    between atoms: S_9  and  C_6 
REMARK    2  A    between atoms: C_15  and  S_9 
ROOT
ATOM      1  C   UNL d   1       1.123  -1.081   0.038  0.00  0.00     0.068 A 
ATOM      2  S   UNL d   1      -0.223  -2.150   0.025  0.00  0.00    -0.067 SA
ATOM      3  C   UNL d   1       0.702   0.248   0.032  0.00  0.00     0.066 A 
ATOM      4  C   UNL d   1      -1.336  -0.870   0.020  0.00  0.00     0.087 A 
ATOM      5  C   UNL d   1      -0.729   0.378   0.022  0.00  0.00     0.026 A 
ATOM      6  C   UNL d   1       2.493  -1.341   0.048  0.00  0.00     0.095 A 
ATOM      7  N   UNL d   1       3.362  -0.307   0.042  0.00  0.00    -0.345 N 
ATOM      8  HN  UNL d   1       4.370  -0.469   0.044  1.00  0.00     0.167 HD
ATOM      9  N   UNL d   1       1.577   1.290   0.032  0.00  0.00    -0.350 N 
ATOM     10  HN  UNL d   1       1.274   2.264   0.030  1.00  0.00     0.166 HD
ATOM     11  N   UNL d   1      -2.663  -1.122   0.013  0.00  0.00    -0.360 N 
ATOM     12  HN  UNL d   1      -3.048  -2.066   0.012  1.00  0.00     0.166 HD
ATOM     13  C   UNL d   1       2.864   0.934   0.035  0.00  0.00     0.181 A 
ATOM     14  C   UNL d   1      -1.588   1.500   0.012  0.00  0.00     0.018 A 
ATOM     15  C   UNL d   1      -3.432  -0.017   0.007  0.00  0.00     0.089 A 
ATOM     16  C   UNL d   1      -2.965   1.286   0.006  0.00  0.00     0.018 A 
ENDROOT
BRANCH   6  17
ATOM     17  S   UNL d   1       3.142  -2.988  -0.017  0.00  0.00    -0.071 SA
BRANCH  17  18
ATOM     18  C   UNL d   1       3.248  -3.389   1.718  0.00  0.00     0.007 A 
ATOM     19  C   UNL d   1       2.452  -4.410   2.247  0.00  0.00     0.019 A 
ATOM     20  C   UNL d   1       2.571  -4.772   3.591  0.00  0.00     0.001 A 
ATOM     21  C   UNL d   1       3.486  -4.116   4.412  0.00  0.00     0.000 A 
ATOM     22  C   UNL d   1       4.281  -3.096   3.891  0.00  0.00     0.001 A 
ATOM     23  C   UNL d   1       4.163  -2.735   2.547  0.00  0.00     0.019 A 
ENDBRANCH  17  18
ENDBRANCH   6  17
TORSDOF 2
