REMARK  4 active torsions:
REMARK  status: ('A' for Active; 'I' for Inactive)
REMARK    1  A    between atoms: N_2  and  C_1 
REMARK    2  A    between atoms: N_3  and  C_1 
REMARK       I    between atoms: C_4  and  N_2 
REMARK    3  A    between atoms: C_8  and  C_4 
REMARK    4  A    between atoms: C_9  and  C_8 
ROOT
ATOM      1  N   UNL d   1       0.549   0.642  -0.761  0.00  0.00    -0.300 N 
ATOM      2  C   UNL d   1       1.238   1.133  -1.858  0.00  0.00     0.247 C 
ATOM      3  O   UNL d   1       2.426   0.977  -2.100  0.00  0.00    -0.268 OA
ATOM      4  H   UNL d   1      -0.404   0.942  -0.632  0.00  0.00     0.171 HD
ENDROOT
BRANCH   1   5
ATOM      5  C   UNL d   1       0.912  -0.324   0.185  0.00  0.00     0.176 C 
ATOM      6  S   UNL d   1       2.268  -1.291   0.188  0.00  0.00    -0.041 SA
BRANCH   5   7
ATOM      7  N   UNL d   1      -0.083  -0.358   1.183  0.00  0.00    -0.358 N 
ATOM      8  C   UNL d   1      -0.728  -1.629   1.507  0.00  0.00     0.125 C 
ATOM      9  C   UNL d   1      -2.086  -1.359   2.148  0.00  0.00     0.020 C 
ATOM     10  C   UNL d   1      -1.955  -0.444   3.367  0.00  0.00     0.003 C 
ATOM     11  C   UNL d   1      -1.164   0.824   3.038  0.00  0.00     0.020 C 
ATOM     12  C   UNL d   1       0.154   0.495   2.347  0.00  0.00     0.125 C 
ENDBRANCH   5   7
ENDBRANCH   1   5
BRANCH   2  13
ATOM     13  C   UNL d   1       0.379   2.004  -2.715  0.00  0.00     0.076 C 
BRANCH  13  14
ATOM     14  C   UNL d   1       0.972   2.802  -3.612  0.00  0.00     0.024 C 
ATOM     15  C   UNL d   1       0.254   3.695  -4.464  0.00  0.00     0.004 A 
ATOM     16  S   UNL d   1       1.167   4.717  -5.519  0.00  0.00    -0.102 SA
ATOM     17  C   UNL d   1      -1.101   3.933  -4.628  0.00  0.00     0.019 A 
ATOM     18  C   UNL d   1      -0.233   5.460  -6.148  0.00  0.00     0.050 A 
ATOM     19  C   UNL d   1      -1.380   4.950  -5.592  0.00  0.00     0.008 A 
ENDBRANCH  13  14
ENDBRANCH   2  13
TORSDOF 4
