REMARK  3 active torsions:
REMARK  status: ('A' for Active; 'I' for Inactive)
REMARK    1  A    between atoms: C_11  and  C_3 
REMARK    2  A    between atoms: N_8  and  C_6 
REMARK    3  A    between atoms: O_15  and  C_7 
REMARK       I    between atoms: C_10  and  N_8 
ROOT
ATOM      1  N   UNL d   1       1.761   0.052   0.054  0.00  0.00    -0.327 N 
ATOM      2  HN  UNL d   1       2.781   0.038   0.088  1.00  0.00     0.169 HD
ATOM      3  C   UNL d   1       1.053  -1.095   0.029  0.00  0.00     0.136 A 
ATOM      4  N   UNL d   1      -0.289  -1.137  -0.019  0.00  0.00    -0.321 N 
ATOM      5  HN  UNL d   1      -0.800  -2.020  -0.042  1.00  0.00     0.169 HD
ATOM      6  C   UNL d   1       1.092   1.207   0.034  0.00  0.00     0.113 A 
ATOM      7  C   UNL d   1      -0.917   0.038  -0.034  0.00  0.00     0.145 A 
ATOM      8  C   UNL d   1      -0.283   1.255  -0.009  0.00  0.00     0.104 A 
ENDROOT
BRANCH   3   9
ATOM      9  C   UNL d   1       1.816  -2.369   0.081  0.00  0.00     0.076 A 
ATOM     10  N   UNL d   1       1.109  -3.534   0.004  0.00  0.00    -0.363 N 
ATOM     11  C   UNL d   1       1.789  -4.699   0.071  0.00  0.00     0.088 A 
ATOM     12  HN  UNL d   1       0.094  -3.525  -0.101  1.00  0.00     0.165 HD
ATOM     13  C   UNL d   1       3.161  -4.784   0.214  0.00  0.00     0.017 A 
ATOM     14  C   UNL d   1       3.884  -3.602   0.286  0.00  0.00     0.004 A 
ATOM     15  C   UNL d   1       3.209  -2.384   0.217  0.00  0.00     0.033 A 
ENDBRANCH   3   9
BRANCH   6  16
ATOM     16  N   UNL d   1       1.790   2.427   0.058  0.00  0.00    -0.313 N 
ATOM     17  C   UNL d   1       3.166   2.550   0.107  0.00  0.00     0.219 C 
ATOM     18  O   UNL d   1       3.991   1.644   0.142  0.00  0.00    -0.274 OA
ATOM     19  C   UNL d   1       3.627   3.988   0.115  0.00  0.00     0.117 C 
ATOM     20  H   UNL d   1       1.238   3.272   0.040  0.00  0.00     0.170 HD
ENDBRANCH   6  16
BRANCH   7  21
ATOM     21  O   UNL d   1      -2.280  -0.048  -0.074  0.00  0.00    -0.346 OA
ATOM     22  H   UNL d   1      -2.658   0.841  -0.056  0.00  0.00     0.219 HD
ENDBRANCH   7  21
TORSDOF 3
