REMARK  1 active torsions:
REMARK  status: ('A' for Active; 'I' for Inactive)
REMARK    1  A    between atoms: N_6  and  C_3 
ROOT
ATOM      1  S   UNL d   1      -1.386  -1.851  -0.063  0.00  0.00     0.178 S 
ATOM      2  C   UNL d   1      -2.636  -0.589  -0.009  0.00  0.00     0.186 A 
ATOM      3  C   UNL d   1      -1.927   0.784   0.094  0.00  0.00     0.271 A 
ATOM      4  C   UNL d   1      -0.025  -0.771  -0.005  0.00  0.00     0.067 A 
ATOM      5  C   UNL d   1      -0.427   0.560   0.060  0.00  0.00    -0.003 A 
ATOM      6  O   UNL d   1      -1.399  -2.481  -1.367  0.00  0.00    -0.223 OA
ATOM      7  O   UNL d   1      -1.410  -2.603   1.173  0.00  0.00    -0.223 OA
ATOM      8  C   UNL d   1       0.557   1.544   0.055  0.00  0.00     0.011 A 
ATOM      9  C   UNL d   1       1.300  -1.179  -0.039  0.00  0.00     0.024 A 
ATOM     10  C   UNL d   1       1.907   1.166   0.016  0.00  0.00     0.001 A 
ATOM     11  C   UNL d   1       2.276  -0.187  -0.023  0.00  0.00     0.002 A 
ENDROOT
BRANCH   3  12
ATOM     12  N   UNL d   1      -2.389   1.649   1.212  0.00  0.00     0.098 N 
ATOM     13  C   UNL d   1      -3.827   1.959   1.093  0.00  0.00     0.273 C 
ATOM     14  C   UNL d   1      -4.329   2.889   2.200  0.00  0.00     0.030 C 
ATOM     15  C   UNL d   1      -3.995   2.339   3.579  0.00  0.00     0.003 C 
ATOM     16  C   UNL d   1      -2.507   2.035   3.670  0.00  0.00     0.030 C 
ATOM     17  C   UNL d   1      -2.064   1.101   2.542  0.00  0.00     0.273 C 
ENDBRANCH   3  12
TORSDOF 1
