REMARK  3 active torsions:
REMARK  status: ('A' for Active; 'I' for Inactive)
REMARK    1  A    between atoms: C_10  and  C_2 
REMARK       I    between atoms: N_13  and  C_10 
REMARK    2  A    between atoms: C_15  and  N_13 
REMARK    3  A    between atoms: C_16  and  C_15 
ROOT
ATOM      1  C   UNL d   1      -6.936   0.155   0.026  0.00  0.00     0.086 A 
ATOM      2  C   UNL d   1      -4.633  -0.430   0.028  0.00  0.00     0.034 A 
ATOM      3  C   UNL d   1      -6.585   1.569   0.055  0.00  0.00     0.085 A 
ATOM      4  C   UNL d   1      -5.972  -0.876   0.009  0.00  0.00     0.051 A 
ATOM      5  O   UNL d   1      -8.745   1.363   0.046  0.00  0.00    -0.156 OA
ATOM      6  N   UNL d   1      -8.271   0.059   0.018  0.00  0.00    -0.240 N 
ATOM      7  HN  UNL d   1      -8.826  -0.796  -0.005  1.00  0.00     0.197 HD
ATOM      8  N   UNL d   1      -7.713   2.285   0.068  0.00  0.00    -0.240 N 
ATOM      9  HN  UNL d   1      -7.797   3.302   0.090  1.00  0.00     0.197 HD
ATOM     10  C   UNL d   1      -4.305   0.967   0.052  0.00  0.00     0.019 A 
ATOM     11  C   UNL d   1      -5.253   2.010   0.066  0.00  0.00     0.035 A 
ENDROOT
BRANCH   2  12
ATOM     12  C   UNL d   1      -3.471  -1.377   0.015  0.00  0.00     0.252 C 
ATOM     13  N   UNL d   1      -3.701  -2.735   0.059  0.00  0.00    -0.353 N 
ATOM     14  H   UNL d   1      -4.628  -3.125   0.049  0.00  0.00     0.163 HD
ATOM     15  O   UNL d   1      -2.335  -0.909  -0.043  0.00  0.00    -0.268 OA
BRANCH  13  16
ATOM     16  C   UNL d   1      -2.599  -3.674  -0.078  0.00  0.00     0.161 C 
BRANCH  16  17
ATOM     17  C   UNL d   1      -2.515  -4.703   1.024  0.00  0.00    -0.041 A 
ATOM     18  C   UNL d   1      -2.011  -5.980   0.729  0.00  0.00     0.009 A 
ATOM     19  C   UNL d   1      -1.801  -6.921   1.741  0.00  0.00     0.001 A 
ATOM     20  C   UNL d   1      -2.090  -6.595   3.063  0.00  0.00     0.000 A 
ATOM     21  C   UNL d   1      -2.588  -5.330   3.373  0.00  0.00     0.001 A 
ATOM     22  C   UNL d   1      -2.792  -4.387   2.362  0.00  0.00     0.009 A 
ENDBRANCH  16  17
ENDBRANCH  13  16
ENDBRANCH   2  12
TORSDOF 3
