REMARK  1 active torsions:
REMARK  status: ('A' for Active; 'I' for Inactive)
REMARK    1  A    between atoms: C_8  and  N_3 
ROOT
ATOM      1  C   UNL d   1       3.956   0.029  -0.021  0.00  0.00     0.046 A 
ATOM      2  N   UNL d   1       9.391  -0.007   0.104  0.00  0.00    -0.191 NA
ATOM      3  C   UNL d   1       8.235   0.006   0.074  0.00  0.00     0.099 C 
ATOM      4  C   UNL d   1       4.682   1.107   0.516  0.00  0.00     0.032 A 
ATOM      5  C   UNL d   1       4.695  -1.049  -0.531  0.00  0.00     0.032 A 
ATOM      6  C   UNL d   1       6.798   0.016   0.041  0.00  0.00     0.044 A 
ATOM      7  C   UNL d   1       6.098  -1.059  -0.506  0.00  0.00     0.025 A 
ATOM      8  C   UNL d   1       6.087   1.097   0.554  0.00  0.00     0.025 A 
ENDROOT
BRANCH   1   9
ATOM      9  N   UNL d   1       2.528   0.026  -0.026  0.00  0.00    -0.243 N 
ATOM     10  C   UNL d   1       1.739  -1.084  -0.197  0.00  0.00     0.273 A 
ATOM     11  C   UNL d   1       0.325  -0.648  -0.099  0.00  0.00     0.091 A 
ATOM     12  O   UNL d   1       2.068  -2.253  -0.336  0.00  0.00    -0.266 OA
ATOM     13  C   UNL d   1       0.323   0.650   0.172  0.00  0.00     0.091 A 
ATOM     14  S   UNL d   1      -0.964  -1.745  -0.257  0.00  0.00    -0.122 SA
ATOM     15  C   UNL d   1       1.724   1.123   0.164  0.00  0.00     0.273 A 
ATOM     16  S   UNL d   1      -0.988   1.669   0.554  0.00  0.00    -0.122 SA
ATOM     17  O   UNL d   1       2.037   2.302   0.252  0.00  0.00    -0.266 OA
ATOM     18  C   UNL d   1      -2.411   0.773  -0.111  0.00  0.00     0.090 C 
ATOM     19  C   UNL d   1      -2.455  -0.750   0.006  0.00  0.00     0.090 C 
ENDBRANCH   1   9
TORSDOF 1
