REMARK  8 active torsions:
REMARK  status: ('A' for Active; 'I' for Inactive)
REMARK    1  A    between atoms: C_9  and  N_1 
REMARK    2  A    between atoms: S_8  and  C_2 
REMARK    3  A    between atoms: C_12  and  S_8 
REMARK    4  A    between atoms: C_10  and  C_12 
REMARK    5  A    between atoms: C_11  and  C_10 
REMARK    6  A    between atoms: O_18  and  C_19 
REMARK    7  A    between atoms: C_21  and  O_18 
REMARK    8  A    between atoms: C_27  and  C_21 
ROOT
ATOM      1  N   UNL d   1      -0.296  -1.304  -0.066  0.00  0.00    -0.279 N 
ATOM      2  C   UNL d   1       0.963  -0.710  -0.123  0.00  0.00     0.168 A 
ATOM      3  N   UNL d   1       0.864   0.594  -0.020  0.00  0.00    -0.278 N 
ATOM      4  HN  UNL d   1       1.639   1.255   0.014  1.00  0.00     0.189 HD
ATOM      5  N   UNL d   1      -0.462   0.906   0.035  0.00  0.00    -0.287 N 
ATOM      6  HN  UNL d   1      -0.849   1.847   0.113  1.00  0.00     0.188 HD
ATOM      7  C   UNL d   1      -1.163  -0.210  -0.032  0.00  0.00     0.101 A 
ATOM      8  C   UNL d   1      -2.644  -0.245   0.042  0.00  0.00     0.091 C 
ENDROOT
BRANCH   1   9
ATOM      9  C   UNL d   1      -0.621  -2.698  -0.042  0.00  0.00     0.043 A 
ATOM     10  C   UNL d   1       0.229  -3.609   0.602  0.00  0.00     0.033 A 
ATOM     11  C   UNL d   1      -0.034  -4.984   0.573  0.00  0.00     0.039 A 
ATOM     12  C   UNL d   1      -1.158  -5.468  -0.086  0.00  0.00     0.069 A 
ATOM     13  C   UNL d   1      -2.047  -4.564  -0.666  0.00  0.00     0.039 A 
ATOM     14  C   UNL d   1      -1.779  -3.189  -0.656  0.00  0.00     0.033 A 
BRANCH  12  15
ATOM     15  O   UNL d   1      -1.504  -6.788  -0.187  0.00  0.00    -0.347 OA
BRANCH  15  16
ATOM     16  C   UNL d   1      -0.402  -7.696  -0.293  0.00  0.00     0.214 C 
BRANCH  16  17
ATOM     17  C   UNL d   1      -0.894  -9.109  -0.521  0.00  0.00    -0.034 A 
ATOM     18  C   UNL d   1      -0.104 -10.017  -1.242  0.00  0.00     0.009 A 
ATOM     19  C   UNL d   1      -0.504 -11.348  -1.389  0.00  0.00     0.001 A 
ATOM     20  C   UNL d   1      -1.694 -11.786  -0.812  0.00  0.00     0.000 A 
ATOM     21  C   UNL d   1      -2.486 -10.895  -0.092  0.00  0.00     0.001 A 
ATOM     22  C   UNL d   1      -2.087  -9.566   0.057  0.00  0.00     0.009 A 
ENDBRANCH  16  17
ENDBRANCH  15  16
ENDBRANCH  12  15
ENDBRANCH   1   9
BRANCH   2  23
ATOM     23  S   UNL d   1       2.441  -1.530  -0.527  0.00  0.00    -0.084 SA
BRANCH  23  24
ATOM     24  C   UNL d   1       3.670  -0.194  -0.389  0.00  0.00     0.166 C 
BRANCH  24  25
ATOM     25  C   UNL d   1       5.063  -0.690  -0.765  0.00  0.00     0.169 C 
ATOM     26  O   UNL d   1       5.310  -1.852  -1.085  0.00  0.00    -0.291 OA
BRANCH  25  27
ATOM     27  C   UNL d   1       6.205   0.283  -0.742  0.00  0.00     0.011 A 
ATOM     28  C   UNL d   1       6.059   1.616  -0.337  0.00  0.00     0.018 A 
ATOM     29  C   UNL d   1       7.167   2.473  -0.333  0.00  0.00     0.043 A 
ATOM     30  C   UNL d   1       8.414   1.999  -0.733  0.00  0.00     0.116 A 
ATOM     31  C   UNL d   1       8.578   0.682  -1.137  0.00  0.00     0.043 A 
ATOM     32  F   UNL d   1       9.467   2.825  -0.725  0.00  0.00    -0.206 F 
ATOM     33  C   UNL d   1       7.473  -0.176  -1.142  0.00  0.00     0.018 A 
ENDBRANCH  25  27
ENDBRANCH  24  25
ENDBRANCH  23  24
ENDBRANCH   2  23
TORSDOF 8
