REMARK  9 active torsions:
REMARK  status: ('A' for Active; 'I' for Inactive)
REMARK    1  A    between atoms: C_2  and  S_1 
REMARK    2  A    between atoms: N_3  and  S_1 
REMARK    3  A    between atoms: C_8  and  N_3 
REMARK    4  A    between atoms: C_11  and  C_8 
REMARK    5  A    between atoms: C_14  and  C_11 
REMARK    6  A    between atoms: O_20  and  C_11 
REMARK    7  A    between atoms: O_12  and  C_14 
REMARK    8  A    between atoms: C_13  and  O_12 
REMARK    9  A    between atoms: O_21  and  C_15 
ROOT
ATOM      1  C   UNL d   1       0.337   3.859   1.170  0.00  0.00     0.156 C 
ENDROOT
BRANCH   1   2
ATOM      2  C   UNL d   1       0.905   2.429   1.228  0.00  0.00     0.138 C 
BRANCH   2   3
ATOM      3  N   UNL d   1       0.508   1.645   0.041  0.00  0.00    -0.213 NA
ATOM      4  H   UNL d   1      -0.497   1.559  -0.113  0.00  0.00     0.140 HD
BRANCH   3   5
ATOM      5  S   UNL d   1       1.205   0.111  -0.117  0.00  0.00     0.248 S 
ATOM      6  O   UNL d   1       0.696  -0.455  -1.347  0.00  0.00    -0.205 OA
ATOM      7  O   UNL d   1       2.621   0.213   0.162  0.00  0.00    -0.205 OA
BRANCH   5   8
ATOM      8  C   UNL d   1       0.554  -0.924   1.176  0.00  0.00     0.115 A 
ATOM      9  S   UNL d   1      -1.152  -1.018   1.283  0.00  0.00    -0.089 SA
ATOM     10  C   UNL d   1      -1.072  -2.114   2.596  0.00  0.00     0.051 A 
ATOM     11  C   UNL d   1       0.228  -2.385   2.965  0.00  0.00     0.009 A 
ATOM     12  C   UNL d   1       1.167  -1.695   2.145  0.00  0.00     0.033 A 
ENDBRANCH   5   8
ENDBRANCH   3   5
ENDBRANCH   2   3
ENDBRANCH   1   2
BRANCH   1  13
ATOM     13  C   UNL d   1      -1.197   3.909   1.188  0.00  0.00     0.208 C 
BRANCH  13  14
ATOM     14  O   UNL d   1      -1.672   3.226   2.356  0.00  0.00    -0.349 OA
BRANCH  14  15
ATOM     15  C   UNL d   1      -3.029   3.114   2.492  0.00  0.00     0.069 A 
ATOM     16  C   UNL d   1      -3.984   3.606   1.601  0.00  0.00     0.039 A 
ATOM     17  C   UNL d   1      -5.351   3.417   1.846  0.00  0.00     0.039 A 
ATOM     18  C   UNL d   1      -5.776   2.741   2.989  0.00  0.00     0.068 A 
ATOM     19  C   UNL d   1      -4.821   2.255   3.882  0.00  0.00     0.039 A 
ATOM     20  C   UNL d   1      -3.456   2.438   3.635  0.00  0.00     0.039 A 
BRANCH  18  21
ATOM     21  O   UNL d   1      -7.074   2.500   3.342  0.00  0.00    -0.356 OA
ATOM     22  C   UNL d   1      -8.079   2.959   2.447  0.00  0.00     0.210 C 
ENDBRANCH  18  21
ENDBRANCH  14  15
ENDBRANCH  13  14
ENDBRANCH   1  13
BRANCH   1  23
ATOM     23  O   UNL d   1       0.842   4.608   2.285  0.00  0.00    -0.392 OA
ATOM     24  H   UNL d   1       0.369   4.293   3.079  0.00  0.00     0.210 HD
ENDBRANCH   1  23
TORSDOF 9
