REMARK  4 active torsions:
REMARK  status: ('A' for Active; 'I' for Inactive)
REMARK    1  A    between atoms: C_3  and  C_1 
REMARK       I    between atoms: N_10  and  C_1 
REMARK    2  A    between atoms: C_2  and  C_4 
REMARK    3  A    between atoms: C_9  and  C_2 
REMARK    4  A    between atoms: C_4  and  C_7 
ROOT
ATOM      1  C   UNL d   1      -0.270  -2.334  -1.748  0.00  0.00     0.032 A 
ATOM      2  C   UNL d   1       0.138  -3.453  -1.012  0.00  0.00     0.024 A 
ATOM      3  C   UNL d   1       0.130  -3.435   0.391  0.00  0.00    -0.050 A 
ATOM      4  C   UNL d   1      -0.695  -1.181  -1.079  0.00  0.00     0.017 A 
ATOM      5  C   UNL d   1      -0.724  -1.160   0.316  0.00  0.00     0.002 A 
ATOM      6  C   UNL d   1      -0.318  -2.280   1.046  0.00  0.00     0.007 A 
ENDROOT
BRANCH   3   7
ATOM      7  C   UNL d   1       0.563  -4.655   1.166  0.00  0.00     0.122 C 
BRANCH   7   8
ATOM      8  C   UNL d   1       1.661  -4.394   2.180  0.00  0.00     0.163 C 
ATOM      9  O   UNL d   1       1.391  -4.115   3.349  0.00  0.00    -0.292 OA
BRANCH   8  10
ATOM     10  C   UNL d   1       3.094  -4.498   1.769  0.00  0.00     0.010 A 
ATOM     11  C   UNL d   1       3.510  -4.385   0.438  0.00  0.00     0.015 A 
ATOM     12  C   UNL d   1       4.871  -4.451   0.120  0.00  0.00     0.001 A 
ATOM     13  C   UNL d   1       5.819  -4.638   1.125  0.00  0.00     0.000 A 
ATOM     14  C   UNL d   1       5.410  -4.764   2.451  0.00  0.00     0.001 A 
ATOM     15  C   UNL d   1       4.054  -4.691   2.772  0.00  0.00     0.015 A 
ENDBRANCH   8  10
ENDBRANCH   7   8
ENDBRANCH   3   7
BRANCH   1  16
ATOM     16  C   UNL d   1      -0.203  -2.413  -3.230  0.00  0.00     0.249 C 
ATOM     17  O   UNL d   1       0.548  -3.199  -3.794  0.00  0.00    -0.268 OA
ATOM     18  N   UNL d   1      -1.038  -1.602  -3.945  0.00  0.00    -0.366 N 
ATOM     19  H   UNL d   1      -1.827  -1.130  -3.527  0.00  0.00     0.159 HD
ATOM     20  H   UNL d   1      -1.055  -1.749  -4.946  0.00  0.00     0.159 HD
ENDBRANCH   1  16
TORSDOF 4
