REMARK  7 active torsions:
REMARK  status: ('A' for Active; 'I' for Inactive)
REMARK    1  A    between atoms: C_2  and  C_1 
REMARK    2  A    between atoms: C_3  and  O_19 
REMARK    3  A    between atoms: C_5  and  C_3 
REMARK    4  A    between atoms: S_10  and  C_4 
REMARK    5  A    between atoms: C_15  and  C_8 
REMARK    6  A    between atoms: C_24  and  S_10 
REMARK    7  A    between atoms: O_19  and  N_12 
ROOT
ATOM      1  C   UNL d   1       0.466   0.144   1.371  0.00  0.00     0.064 A 
ATOM      2  C   UNL d   1      -0.462  -1.066   3.281  0.00  0.00     0.034 A 
ATOM      3  N   UNL d   1       0.040   1.304   3.435  0.00  0.00    -0.363 N 
ATOM      4  HN  UNL d   1       0.068   2.164   3.981  1.00  0.00     0.165 HD
ATOM      5  C   UNL d   1      -0.405   0.140   3.987  0.00  0.00     0.066 A 
ATOM      6  C   UNL d   1       0.001  -1.044   1.954  0.00  0.00     0.038 A 
ATOM      7  C   UNL d   1       0.442   1.288   2.148  0.00  0.00     0.104 A 
ENDROOT
BRANCH   5   8
ATOM      8  C   UNL d   1      -0.827   0.262   5.410  0.00  0.00     0.145 C 
ATOM      9  N   UNL d   1      -0.808   1.403   6.027  0.00  0.00    -0.266 N 
ATOM     10  HN  UNL d   1      -0.539   2.289   5.600  1.00  0.00     0.194 HD
BRANCH   9  11
ATOM     11  O   UNL d   1      -1.212   1.249   7.372  0.00  0.00    -0.195 OA
BRANCH  11  12
ATOM     12  C   UNL d   1      -1.192   2.477   8.011  0.00  0.00     0.322 C 
ATOM     13  O   UNL d   1      -0.922   3.551   7.482  0.00  0.00    -0.257 OA
BRANCH  12  14
ATOM     14  C   UNL d   1      -1.534   2.352   9.423  0.00  0.00     0.082 A 
ATOM     15  S   UNL d   1      -1.874   0.854  10.182  0.00  0.00    -0.096 SA
ATOM     16  C   UNL d   1      -2.128   1.598  11.702  0.00  0.00     0.050 A 
ATOM     17  C   UNL d   1      -1.964   2.961  11.644  0.00  0.00     0.009 A 
ATOM     18  C   UNL d   1      -1.621   3.395  10.332  0.00  0.00     0.026 A 
ENDBRANCH  12  14
ENDBRANCH  11  12
ENDBRANCH   9  11
ENDBRANCH   5   8
BRANCH   2  19
ATOM     19  S   UNL d   1      -1.298  -2.535   3.830  0.00  0.00    -0.088 SA
BRANCH  19  20
ATOM     20  C   UNL d   1      -0.080  -3.568   4.617  0.00  0.00     0.005 A 
ATOM     21  C   UNL d   1      -0.556  -4.428   5.619  0.00  0.00     0.020 A 
ATOM     22  C   UNL d   1       0.287  -5.351   6.242  0.00  0.00     0.025 A 
ATOM     23  C   UNL d   1       1.623  -5.425   5.860  0.00  0.00     0.034 A 
ATOM     24  C   UNL d   1       2.115  -4.579   4.868  0.00  0.00     0.025 A 
ATOM     25 CL   UNL d   1       2.658  -6.581   6.602  0.00  0.00    -0.084 Cl
ATOM     26  C   UNL d   1       1.264  -3.652   4.246  0.00  0.00     0.020 A 
ENDBRANCH  19  20
ENDBRANCH   2  19
BRANCH   1  27
ATOM     27  C   UNL d   1       0.944   0.225  -0.046  0.00  0.00     0.418 C 
ATOM     28  F   UNL d   1       0.985  -0.986  -0.668  0.00  0.00    -0.166 F 
ATOM     29  F   UNL d   1       2.201   0.735  -0.141  0.00  0.00    -0.166 F 
ATOM     30  F   UNL d   1       0.155   1.018  -0.819  0.00  0.00    -0.166 F 
ENDBRANCH   1  27
TORSDOF 7
