REMARK  3 active torsions:
REMARK  status: ('A' for Active; 'I' for Inactive)
REMARK    1  A    between atoms: C_2  and  C_1 
REMARK    2  A    between atoms: C_3  and  C_1 
REMARK    3  A    between atoms: O_10  and  C_7 
ROOT
ATOM      1  C   UNL d   1       0.302   1.236  -0.357  0.00  0.00    -0.026 A 
ATOM      2  C   UNL d   1       0.003   1.618  -1.671  0.00  0.00     0.015 A 
ATOM      3  C   UNL d   1      -0.120   2.041   0.704  0.00  0.00     0.015 A 
ATOM      4  C   UNL d   1      -1.145   3.588  -0.858  0.00  0.00     0.068 A 
ATOM      5  C   UNL d   1      -0.846   3.207   0.452  0.00  0.00     0.037 A 
ATOM      6  C   UNL d   1      -0.725   2.787  -1.921  0.00  0.00     0.037 A 
ENDROOT
BRANCH   1   7
ATOM      7  C   UNL d   1       1.002  -0.038  -0.081  0.00  0.00    -0.025 C 
ATOM      8  C   UNL d   1       2.346   0.004  -0.177  0.00  0.00     0.025 C 
BRANCH   7   9
ATOM      9  C   UNL d   1       0.291  -1.303   0.267  0.00  0.00    -0.026 A 
ATOM     10  C   UNL d   1       0.849  -2.272   1.114  0.00  0.00     0.012 A 
ATOM     11  C   UNL d   1       0.136  -3.428   1.452  0.00  0.00     0.001 A 
ATOM     12  C   UNL d   1      -1.149  -3.629   0.956  0.00  0.00     0.000 A 
ATOM     13  C   UNL d   1      -1.724  -2.675   0.123  0.00  0.00     0.001 A 
ATOM     14  C   UNL d   1      -1.010  -1.522  -0.216  0.00  0.00     0.012 A 
ENDBRANCH   7   9
ENDBRANCH   1   7
BRANCH   4  15
ATOM     15  O   UNL d   1      -1.889   4.730  -0.971  0.00  0.00    -0.356 OA
ATOM     16  C   UNL d   1      -1.773   5.426  -2.206  0.00  0.00     0.210 C 
ENDBRANCH   4  15
TORSDOF 3
