REMARK  5 active torsions:
REMARK  status: ('A' for Active; 'I' for Inactive)
REMARK    1  A    between atoms: C_6  and  N_1 
REMARK    2  A    between atoms: S_10  and  C_2 
REMARK    3  A    between atoms: C_24  and  S_10 
REMARK    4  A    between atoms: C_13  and  C_24 
REMARK       I    between atoms: N_15  and  C_13 
REMARK    5  A    between atoms: C_17  and  N_15 
ROOT
ATOM      1  N   UNL d   1       0.954  -0.823  -0.088  0.00  0.00    -0.241 N 
ATOM      2  C   UNL d   1       0.896   0.478  -0.470  0.00  0.00     0.170 A 
ATOM      3  C   UNL d   1      -0.357  -1.181   0.134  0.00  0.00     0.347 A 
ATOM      4  N   UNL d   1      -0.287   1.021  -0.430  0.00  0.00    -0.275 N 
ATOM      5  HN  UNL d   1      -0.550   1.982  -0.647  1.00  0.00     0.189 HD
ATOM      6  N   UNL d   1      -1.092  -0.005  -0.027  0.00  0.00    -0.249 N 
ATOM      7  O   UNL d   1      -0.826  -2.271   0.417  0.00  0.00    -0.245 OA
ATOM      8  H   UNL d   1      -2.103   0.071   0.035  0.00  0.00     0.192 HD
ENDROOT
BRANCH   2   9
ATOM      9  S   UNL d   1       2.240   1.354  -1.113  0.00  0.00    -0.083 SA
BRANCH   9  10
ATOM     10  C   UNL d   1       2.251   0.672  -2.797  0.00  0.00     0.185 C 
BRANCH  10  11
ATOM     11  C   UNL d   1       1.097   1.063  -3.716  0.00  0.00     0.231 C 
ATOM     12  N   UNL d   1       0.166   1.950  -3.219  0.00  0.00    -0.326 N 
ATOM     13  H   UNL d   1       0.336   2.308  -2.283  0.00  0.00     0.169 HD
ATOM     14  O   UNL d   1       1.079   0.597  -4.856  0.00  0.00    -0.272 OA
BRANCH  12  15
ATOM     15  C   UNL d   1      -0.966   2.467  -3.886  0.00  0.00     0.036 A 
ATOM     16  C   UNL d   1      -1.442   1.982  -5.107  0.00  0.00     0.055 A 
ATOM     17  C   UNL d   1      -2.527   2.597  -5.747  0.00  0.00     0.058 A 
ATOM     18 CL   UNL d   1      -3.050   1.940  -7.258  0.00  0.00    -0.082 Cl
ATOM     19  C   UNL d   1      -3.145   3.706  -5.163  0.00  0.00     0.055 A 
ATOM     20  C   UNL d   1      -2.703   4.167  -3.922  0.00  0.00     0.028 A 
ATOM     21 CL   UNL d   1      -4.444   4.555  -5.923  0.00  0.00    -0.083 Cl
ATOM     22  C   UNL d   1      -1.629   3.541  -3.281  0.00  0.00     0.031 A 
ENDBRANCH  12  15
ENDBRANCH  10  11
ENDBRANCH   9  10
ENDBRANCH   2   9
BRANCH   1  23
ATOM     23  C   UNL d   1       2.050  -1.693  -0.058  0.00  0.00     0.049 A 
ATOM     24  C   UNL d   1       2.044  -2.842  -0.854  0.00  0.00     0.069 A 
ATOM     25  C   UNL d   1       3.178  -3.650  -0.914  0.00  0.00     0.104 A 
ATOM     26  O   UNL d   1       3.128  -4.704  -1.788  0.00  0.00    -0.346 OA
ATOM     27  C   UNL d   1       4.302  -3.344  -0.141  0.00  0.00     0.102 A 
ATOM     28  C   UNL d   1       4.212  -5.617  -1.581  0.00  0.00     0.202 C 
ATOM     29  C   UNL d   1       5.520  -4.871  -1.375  0.00  0.00     0.202 C 
ATOM     30  O   UNL d   1       5.462  -4.073  -0.186  0.00  0.00    -0.346 OA
ATOM     31  C   UNL d   1       4.282  -2.248   0.718  0.00  0.00     0.042 A 
ATOM     32  C   UNL d   1       3.167  -1.405   0.739  0.00  0.00     0.033 A 
ENDBRANCH   1  23
TORSDOF 5
