REMARK  4 active torsions:
REMARK  status: ('A' for Active; 'I' for Inactive)
REMARK    1  A    between atoms: C_8  and  N_4 
REMARK    2  A    between atoms: C_9  and  C_8 
REMARK    3  A    between atoms: C_11  and  C_9 
REMARK    4  A    between atoms: O_10  and  C_11 
ROOT
ATOM      1  C   UNL d   1      -3.372  -0.841  -0.271  0.00  0.00     0.170 C 
ATOM      2  N   UNL d   1      -2.512   0.198  -0.153  0.00  0.00    -0.342 N 
ATOM      3  N   UNL d   1      -2.820  -2.075  -0.262  0.00  0.00    -0.342 N 
ATOM      4  N   UNL d   1      -0.665  -1.237   0.253  0.00  0.00     0.122 N 
ATOM      5  C   UNL d   1      -1.095   0.045  -0.285  0.00  0.00     0.399 C 
ATOM      6  C   UNL d   1      -1.413  -2.284  -0.420  0.00  0.00     0.399 C 
ATOM      7  S   UNL d   1      -5.013  -0.614  -0.369  0.00  0.00    -0.041 SA
ATOM      8  H   UNL d   1      -2.916   1.124  -0.216  0.00  0.00     0.163 HD
ATOM      9  H   UNL d   1      -3.451  -2.854  -0.393  0.00  0.00     0.163 HD
ENDROOT
BRANCH   4  10
ATOM     10  C   UNL d   1      -0.748  -1.278   1.724  0.00  0.00     0.278 C 
BRANCH  10  11
ATOM     11  C   UNL d   1      -0.098  -2.534   2.327  0.00  0.00     0.056 C 
BRANCH  11  12
ATOM     12  C   UNL d   1      -0.154  -2.524   3.853  0.00  0.00     0.168 C 
BRANCH  12  13
ATOM     13  O   UNL d   1      -1.518  -2.482   4.265  0.00  0.00    -0.396 OA
ATOM     14  C   UNL d   1      -1.650  -2.465   5.678  0.00  0.00     0.201 C 
ENDBRANCH  12  13
ENDBRANCH  11  12
ENDBRANCH  10  11
ENDBRANCH   4  10
TORSDOF 4
