REMARK  3 active torsions:
REMARK  status: ('A' for Active; 'I' for Inactive)
REMARK    1  A    between atoms: C_2  and  S_1 
REMARK    2  A    between atoms: N_4  and  S_1 
REMARK    3  A    between atoms: C_21  and  N_11 
ROOT
ATOM      1  S   UNL d   1       1.125  -0.001   0.123  0.00  0.00     0.246 S 
ATOM      2  O   UNL d   1       0.080   0.130   1.118  0.00  0.00    -0.206 OA
ATOM      3  O   UNL d   1       2.310  -0.773   0.410  0.00  0.00    -0.206 OA
ENDROOT
BRANCH   1   4
ATOM      4  C   UNL d   1       1.650   1.625  -0.282  0.00  0.00     0.104 A 
ATOM      5  C   UNL d   1       2.598   1.882  -1.299  0.00  0.00     0.090 A 
ATOM      6  N   UNL d   1       3.153   1.008  -2.155  0.00  0.00    -0.309 N 
ATOM      7  C   UNL d   1       3.107   3.291  -1.510  0.00  0.00     0.068 A 
ATOM      8  S   UNL d   1       4.214   1.859  -3.102  0.00  0.00     0.068 SA
ATOM      9  HN  UNL d   1       2.958   0.008  -2.212  1.00  0.00     0.176 HD
ATOM     10  N   UNL d   1       4.013   3.390  -2.495  0.00  0.00    -0.310 N 
ATOM     11  HN  UNL d   1       4.484   4.238  -2.808  1.00  0.00     0.176 HD
ATOM     12  C   UNL d   1       2.649   4.365  -0.709  0.00  0.00     0.032 A 
ATOM     13  C   UNL d   1       1.697   4.048   0.274  0.00  0.00     0.004 A 
ATOM     14  C   UNL d   1       1.215   2.735   0.481  0.00  0.00     0.027 A 
ENDBRANCH   1   4
BRANCH   1  15
ATOM     15  N   UNL d   1       0.402  -0.567  -1.304  0.00  0.00    -0.203 NA
ATOM     16  C   UNL d   1      -1.030  -0.188  -1.546  0.00  0.00     0.127 C 
ATOM     17  C   UNL d   1      -2.016  -1.090  -0.762  0.00  0.00     0.138 C 
ATOM     18  N   UNL d   1      -1.726  -2.515  -1.034  0.00  0.00    -0.379 N 
ATOM     19  C   UNL d   1      -0.331  -2.906  -0.753  0.00  0.00     0.138 C 
ATOM     20  C   UNL d   1       0.611  -2.023  -1.591  0.00  0.00     0.127 C 
BRANCH  18  21
ATOM     21  C   UNL d   1      -2.754  -3.445  -1.039  0.00  0.00     0.030 A 
ATOM     22  C   UNL d   1      -2.630  -4.726  -0.480  0.00  0.00     0.029 A 
ATOM     23  C   UNL d   1      -3.652  -5.680  -0.581  0.00  0.00     0.002 A 
ATOM     24  C   UNL d   1      -4.833  -5.372  -1.245  0.00  0.00     0.000 A 
ATOM     25  C   UNL d   1      -4.992  -4.109  -1.799  0.00  0.00     0.002 A 
ATOM     26  C   UNL d   1      -3.965  -3.166  -1.695  0.00  0.00     0.029 A 
ENDBRANCH  18  21
ENDBRANCH   1  15
TORSDOF 3
