REMARK  6 active torsions:
REMARK  status: ('A' for Active; 'I' for Inactive)
REMARK    1  A    between atoms: N_9  and  C_1 
REMARK    2  A    between atoms: N_2  and  N_9 
REMARK    3  A    between atoms: C_4  and  C_15 
REMARK    4  A    between atoms: C_5  and  C_14 
REMARK    5  A    between atoms: C_15  and  N_8 
REMARK    6  A    between atoms: O_16  and  C_12 
ROOT
ATOM      1  N   UNL d   1       2.520  -0.411  -0.112  0.00  0.00    -0.277 N 
ATOM      2  H   UNL d   1       2.364   0.445   0.417  0.00  0.00     0.189 HD
ENDROOT
BRANCH   1   3
ATOM      3  N   UNL d   1       3.158  -0.214  -1.311  0.00  0.00    -0.309 N 
ATOM      4  C   UNL d   1       4.401   0.142  -1.227  0.00  0.00     0.121 C 
ATOM      5  HN  UNL d   1       2.686  -0.340  -2.206  1.00  0.00     0.186 HD
BRANCH   4   6
ATOM      6  C   UNL d   1       5.198   0.390  -2.450  0.00  0.00     0.014 A 
ATOM      7  C   UNL d   1       6.331   1.210  -2.530  0.00  0.00     0.079 A 
ATOM      8  C   UNL d   1       6.954   1.363  -3.785  0.00  0.00     0.037 A 
ATOM      9  C   UNL d   1       6.489   0.712  -4.930  0.00  0.00     0.003 A 
ATOM     10  C   UNL d   1       5.376  -0.107  -4.842  0.00  0.00     0.001 A 
ATOM     11  C   UNL d   1       4.734  -0.260  -3.616  0.00  0.00     0.015 A 
BRANCH   7  12
ATOM     12  O   UNL d   1       6.956   1.982  -1.591  0.00  0.00    -0.355 OA
ATOM     13  C   UNL d   1       6.683   1.826  -0.212  0.00  0.00     0.210 C 
ENDBRANCH   7  12
ENDBRANCH   4   6
ENDBRANCH   1   3
BRANCH   1  14
ATOM     14  C   UNL d   1       1.452  -1.274  -0.101  0.00  0.00     0.186 C 
ATOM     15  S   UNL d   1       0.065  -0.906   0.745  0.00  0.00    -0.040 SA
ATOM     16  N   UNL d   1       1.567  -2.461  -0.760  0.00  0.00    -0.360 N 
ATOM     17  H   UNL d   1       0.728  -3.020  -0.838  0.00  0.00     0.162 HD
BRANCH  16  18
ATOM     18  C   UNL d   1       2.813  -3.008  -1.250  0.00  0.00     0.187 C 
BRANCH  18  19
ATOM     19  C   UNL d   1       2.715  -4.472  -1.441  0.00  0.00     0.070 A 
ATOM     20  O   UNL d   1       3.087  -4.944  -2.664  0.00  0.00    -0.325 OA
ATOM     21  C   UNL d   1       2.999  -6.297  -2.614  0.00  0.00     0.142 A 
ATOM     22  C   UNL d   1       2.566  -6.702  -1.371  0.00  0.00     0.027 A 
ATOM     23  C   UNL d   1       2.381  -5.526  -0.611  0.00  0.00     0.036 A 
ENDBRANCH  18  19
ENDBRANCH  16  18
ENDBRANCH   1  14
TORSDOF 6
