REMARK  14 active torsions:
REMARK  status: ('A' for Active; 'I' for Inactive)
REMARK    1  A    between atoms: C_6  and  C_1 
REMARK    2  A    between atoms: C_5  and  C_2 
REMARK    3  A    between atoms: C_7  and  C_3 
REMARK    4  A    between atoms: C_8  and  C_4 
REMARK    5  A    between atoms: O_33  and  C_5 
REMARK    6  A    between atoms: O_32  and  C_6 
REMARK    7  A    between atoms: O_35  and  C_7 
REMARK    8  A    between atoms: O_34  and  C_8 
REMARK    9  A    between atoms: C_9  and  C_14 
REMARK   10  A    between atoms: C_15  and  C_9 
REMARK   11  A    between atoms: O_22  and  C_16 
REMARK   12  A    between atoms: C_17  and  O_23 
REMARK   13  A    between atoms: C_30  and  O_22 
REMARK   14  A    between atoms: O_23  and  C_31 
ROOT
ATOM      1  C   UNL d   1      -6.594   3.418   1.142  0.00  0.00     0.007 C 
ATOM      2  C   UNL d   1      -7.376   3.083  -0.162  0.00  0.00     0.025 C 
ATOM      3  C   UNL d   1      -7.162   2.410   2.186  0.00  0.00     0.025 C 
ENDROOT
BRANCH   1   4
ATOM      4  C   UNL d   1      -5.071   3.174   0.957  0.00  0.00    -0.045 A 
ATOM      5  C   UNL d   1      -4.263   2.766   2.031  0.00  0.00     0.011 A 
ATOM      6  C   UNL d   1      -2.907   2.454   1.853  0.00  0.00     0.038 A 
ATOM      7  C   UNL d   1      -2.299   2.644   0.613  0.00  0.00     0.076 A 
ATOM      8  C   UNL d   1      -3.070   3.065  -0.460  0.00  0.00     0.038 A 
ATOM      9  C   UNL d   1      -4.436   3.322  -0.293  0.00  0.00     0.011 A 
BRANCH   7  10
ATOM     10  O   UNL d   1      -0.971   2.385   0.348  0.00  0.00    -0.311 OA
BRANCH  10  11
ATOM     11  C   UNL d   1      -0.021   2.591   1.322  0.00  0.00     0.077 A 
ATOM     12  C   UNL d   1       1.105   1.770   1.273  0.00  0.00     0.056 A 
ATOM     13  C   UNL d   1       2.151   1.886   2.216  0.00  0.00     0.057 A 
ATOM     14  C   UNL d   1       2.029   2.858   3.227  0.00  0.00     0.054 A 
ATOM     15  C   UNL d   1       0.893   3.686   3.266  0.00  0.00     0.022 A 
ATOM     16  C   UNL d   1      -0.100   3.583   2.294  0.00  0.00     0.038 A 
BRANCH  13  17
ATOM     17  C   UNL d   1       3.304   0.980   1.960  0.00  0.00     0.177 C 
ATOM     18  O   UNL d   1       3.590   0.655   0.813  0.00  0.00    -0.646 OA
BRANCH  17  19
ATOM     19  O   UNL d   1       3.946   0.444   3.014  0.00  0.00    -0.773 OA
ATOM     20  H   UNL d   1       3.792   0.849   3.898  0.00  0.00     0.167 HD
ENDBRANCH  17  19
ENDBRANCH  13  17
BRANCH  14  21
ATOM     21  C   UNL d   1       3.035   3.029   4.303  0.00  0.00     0.177 C 
ATOM     22  O   UNL d   1       3.616   2.076   4.790  0.00  0.00    -0.646 OA
BRANCH  21  23
ATOM     23  O   UNL d   1       3.211   4.296   4.724  0.00  0.00    -0.773 OA
ATOM     24  H   UNL d   1       2.767   5.004   4.218  0.00  0.00     0.167 HD
ENDBRANCH  21  23
ENDBRANCH  14  21
ENDBRANCH  10  11
ENDBRANCH   7  10
ENDBRANCH   1   4
BRANCH   1  25
ATOM     25  C   UNL d   1      -6.907   4.891   1.512  0.00  0.00    -0.045 A 
ATOM     26  C   UNL d   1      -6.555   5.932   0.631  0.00  0.00     0.011 A 
ATOM     27  C   UNL d   1      -6.910   7.264   0.880  0.00  0.00     0.038 A 
ATOM     28  C   UNL d   1      -7.583   7.602   2.052  0.00  0.00     0.076 A 
ATOM     29  C   UNL d   1      -7.948   6.592   2.938  0.00  0.00     0.038 A 
ATOM     30  C   UNL d   1      -7.611   5.256   2.676  0.00  0.00     0.011 A 
BRANCH  28  31
ATOM     31  O   UNL d   1      -7.992   8.875   2.383  0.00  0.00    -0.311 OA
BRANCH  31  32
ATOM     32  C   UNL d   1      -7.242   9.957   1.988  0.00  0.00     0.077 A 
ATOM     33  C   UNL d   1      -5.846   9.980   1.994  0.00  0.00     0.056 A 
ATOM     34  C   UNL d   1      -5.120  11.115   1.568  0.00  0.00     0.057 A 
ATOM     35  C   UNL d   1      -5.841  12.251   1.147  0.00  0.00     0.054 A 
ATOM     36  C   UNL d   1      -7.252  12.238   1.200  0.00  0.00     0.022 A 
ATOM     37  C   UNL d   1      -7.942  11.106   1.639  0.00  0.00     0.038 A 
BRANCH  34  38
ATOM     38  C   UNL d   1      -3.638  10.970   1.722  0.00  0.00     0.177 C 
ATOM     39  O   UNL d   1      -3.186  10.188   2.549  0.00  0.00    -0.646 OA
BRANCH  38  40
ATOM     40  O   UNL d   1      -2.816  11.653   0.913  0.00  0.00    -0.773 OA
ATOM     41  H   UNL d   1      -3.211  12.274   0.257  0.00  0.00     0.167 HD
ENDBRANCH  38  40
ENDBRANCH  34  38
BRANCH  35  42
ATOM     42  C   UNL d   1      -5.184  13.430   0.544  0.00  0.00     0.177 C 
ATOM     43  O   UNL d   1      -4.207  13.317  -0.172  0.00  0.00    -0.646 OA
BRANCH  42  44
ATOM     44  O   UNL d   1      -5.757  14.623   0.810  0.00  0.00    -0.773 OA
ATOM     45  H   UNL d   1      -6.497  14.639   1.445  0.00  0.00     0.167 HD
ENDBRANCH  42  44
ENDBRANCH  35  42
ENDBRANCH  31  32
ENDBRANCH  28  31
ENDBRANCH   1  25
TORSDOF 14
