REMARK  6 active torsions:
REMARK  status: ('A' for Active; 'I' for Inactive)
REMARK    1  A    between atoms: C_5  and  C_1 
REMARK    2  A    between atoms: N_2  and  C_4 
REMARK    3  A    between atoms: S_10  and  C_3 
REMARK       I    between atoms: C_7  and  N_11 
REMARK       I    between atoms: N_13  and  C_7 
REMARK    4  A    between atoms: C_14  and  S_10 
REMARK    5  A    between atoms: N_11  and  C_15 
REMARK    6  A    between atoms: C_12  and  N_13 
ROOT
ATOM      1  C   UNL d   1      -0.775   4.272  -0.837  0.00  0.00     0.028 C 
ATOM      2  C   UNL d   1       0.306   4.248  -1.749  0.00  0.00     0.033 C 
ATOM      3  C   UNL d   1      -0.891   5.394  -0.017  0.00  0.00     0.021 C 
ATOM      4  C   UNL d   1       1.081   5.393  -1.987  0.00  0.00     0.025 C 
ATOM      5  C   UNL d   1      -0.015   6.476  -0.140  0.00  0.00     0.001 C 
ATOM      6  C   UNL d   1       0.923   6.504  -1.167  0.00  0.00     0.002 C 
ENDROOT
BRANCH   1   7
ATOM      7  S   UNL d   1      -2.180   3.176  -1.089  0.00  0.00    -0.070 SA
BRANCH   7   8
ATOM      8  C   UNL d   1      -2.349   2.061   0.281  0.00  0.00     0.089 A 
ATOM      9  C   UNL d   1      -2.846   2.373   1.546  0.00  0.00     0.084 A 
ATOM     10  C   UNL d   1      -3.036   1.321   2.473  0.00  0.00     0.056 A 
ATOM     11  C   UNL d   1      -2.862  -0.001   2.078  0.00  0.00     0.119 A 
ATOM     12  C   UNL d   1      -2.466  -0.242   0.782  0.00  0.00     0.124 A 
ATOM     13  N   UNL d   1      -2.182   0.755  -0.096  0.00  0.00    -0.357 N 
ATOM     14  HN  UNL d   1      -1.847   0.532  -1.033  1.00  0.00     0.166 HD
BRANCH   9  15
ATOM     15  C   UNL d   1      -3.257   3.741   1.997  0.00  0.00     0.420 C 
ATOM     16  F   UNL d   1      -3.676   4.580   1.017  0.00  0.00    -0.166 F 
ATOM     17  F   UNL d   1      -4.306   3.690   2.871  0.00  0.00    -0.166 F 
ATOM     18  F   UNL d   1      -2.265   4.382   2.672  0.00  0.00    -0.166 F 
ENDBRANCH   9  15
BRANCH  11  19
ATOM     19  N   UNL d   1      -3.138  -1.102   3.001  0.00  0.00    -0.114 N 
ATOM     20  O   UNL d   1      -3.354  -0.808   4.184  0.00  0.00    -0.532 OA
ATOM     21  O   UNL d   1      -3.143  -2.247   2.538  0.00  0.00    -0.532 OA
ENDBRANCH  11  19
ENDBRANCH   7   8
ENDBRANCH   1   7
BRANCH   2  22
ATOM     22  N   UNL d   1       0.827   3.016  -2.213  0.00  0.00    -0.214 NA
ATOM     23  C   UNL d   1       1.472   2.256  -1.239  0.00  0.00     0.281 C 
ATOM     24  N   UNL d   1       2.069   1.143  -1.786  0.00  0.00    -0.215 NA
ATOM     25  O   UNL d   1       1.477   2.497  -0.028  0.00  0.00    -0.260 OA
ATOM     26  H   UNL d   1       1.453   0.394  -1.470  0.00  0.00     0.138 HD
ATOM     27  H   UNL d   1       1.407   3.060  -3.046  0.00  0.00     0.138 HD
BRANCH  24  28
ATOM     28  C   UNL d   1       3.387   0.746  -1.422  0.00  0.00     0.019 A 
ATOM     29  C   UNL d   1       3.912   0.853  -0.131  0.00  0.00     0.047 A 
ATOM     30  C   UNL d   1       5.196   0.368   0.137  0.00  0.00     0.037 A 
ATOM     31 CL   UNL d   1       5.832   0.471   1.733  0.00  0.00    -0.084 Cl
ATOM     32  C   UNL d   1       5.961  -0.219  -0.868  0.00  0.00     0.047 A 
ATOM     33  C   UNL d   1       5.434  -0.315  -2.152  0.00  0.00     0.037 A 
ATOM     34  C   UNL d   1       4.154   0.162  -2.433  0.00  0.00     0.047 A 
ATOM     35 CL   UNL d   1       6.361  -1.046  -3.403  0.00  0.00    -0.084 Cl
ENDBRANCH  24  28
ENDBRANCH   2  22
TORSDOF 6
