REMARK  4 active torsions:
REMARK  status: ('A' for Active; 'I' for Inactive)
REMARK    1  A    between atoms: C_8  and  C_3 
REMARK    2  A    between atoms: C_13  and  C_4 
REMARK    3  A    between atoms: C_6  and  C_15 
REMARK    4  A    between atoms: N_7  and  C_9 
ROOT
ATOM      1  C   UNL d   1      -0.016  -2.626  -0.062  0.00  0.00     0.013 A 
ATOM      2  C   UNL d   1      -0.434  -5.397  -0.176  0.00  0.00     0.082 A 
ATOM      3  N   UNL d   1      -0.884  -4.604  -1.173  0.00  0.00    -0.356 N 
ATOM      4  HN  UNL d   1      -1.378  -5.005  -1.970  1.00  0.00     0.166 HD
ATOM      5  C   UNL d   1      -0.672  -3.266  -1.099  0.00  0.00     0.103 A 
ATOM      6  C   UNL d   1       0.465  -3.447   0.955  0.00  0.00     0.019 A 
ATOM      7  C   UNL d   1       0.242  -4.829   0.904  0.00  0.00     0.043 A 
ENDROOT
BRANCH   1   8
ATOM      8  C   UNL d   1       0.187  -1.173  -0.025  0.00  0.00     0.086 A 
ATOM      9  N   UNL d   1       1.228  -0.577   0.523  0.00  0.00    -0.352 N 
ATOM     10  C   UNL d   1       1.157   0.802   0.358  0.00  0.00     0.024 A 
ATOM     11  HN  UNL d   1       1.984  -1.063   1.005  1.00  0.00     0.166 HD
ATOM     12  C   UNL d   1       0.007   1.232  -0.280  0.00  0.00     0.077 A 
ATOM     13  S   UNL d   1      -0.982  -0.097  -0.693  0.00  0.00    -0.081 SA
BRANCH  10  14
ATOM     14  C   UNL d   1       2.297   1.681   0.852  0.00  0.00    -0.008 C 
ATOM     15  C   UNL d   1       3.404   0.846   1.528  0.00  0.00     0.021 C 
ATOM     16  C   UNL d   1       2.927   2.436  -0.336  0.00  0.00     0.021 C 
ATOM     17  C   UNL d   1       1.774   2.704   1.879  0.00  0.00     0.021 C 
ENDBRANCH  10  14
ENDBRANCH   1   8
BRANCH   2  18
ATOM     18  N   UNL d   1      -0.737  -6.771  -0.215  0.00  0.00    -0.269 NA
ATOM     19  C   UNL d   1      -1.538  -7.145  -1.390  0.00  0.00     0.098 C 
ATOM     20  C   UNL d   1      -2.139  -8.530  -1.165  0.00  0.00     0.028 C 
ATOM     21  C   UNL d   1      -1.072  -9.584  -0.844  0.00  0.00     0.096 C 
ATOM     22  C   UNL d   1      -0.189  -9.093   0.315  0.00  0.00     0.028 C 
ATOM     23  C   UNL d   1       0.373  -7.685   0.078  0.00  0.00     0.098 C 
BRANCH  21  24
ATOM     24  C   UNL d   1      -0.255  -9.992  -2.069  0.00  0.00     0.391 C 
ATOM     25  F   UNL d   1      -0.695  -9.412  -3.205  0.00  0.00    -0.171 F 
ATOM     26  F   UNL d   1       1.057  -9.697  -1.943  0.00  0.00    -0.171 F 
ATOM     27  F   UNL d   1      -0.340 -11.332  -2.252  0.00  0.00    -0.171 F 
ENDBRANCH  21  24
ENDBRANCH   2  18
TORSDOF 4
