REMARK  8 active torsions:
REMARK  status: ('A' for Active; 'I' for Inactive)
REMARK    1  A    between atoms: N_3  and  C_1 
REMARK    2  A    between atoms: N_4  and  C_1 
REMARK       I    between atoms: C_2  and  N_6 
REMARK    3  A    between atoms: C_9  and  C_2 
REMARK    4  A    between atoms: N_6  and  N_3 
REMARK    5  A    between atoms: C_8  and  N_4 
REMARK    6  A    between atoms: C_14  and  C_9 
REMARK    7  A    between atoms: O_23  and  C_11 
REMARK    8  A    between atoms: C_12  and  C_14 
ROOT
ATOM      1  C   UNL d   1       0.241   3.450  -1.548  0.00  0.00     0.236 C 
ATOM      2  N   UNL d   1       1.007   2.402  -1.077  0.00  0.00    -0.268 N 
ATOM      3  O   UNL d   1      -0.989   3.428  -1.500  0.00  0.00    -0.272 OA
ATOM      4  H   UNL d   1       2.015   2.323  -1.217  0.00  0.00     0.190 HD
ENDROOT
BRANCH   2   5
ATOM      5  N   UNL d   1       0.317   1.291  -0.598  0.00  0.00    -0.274 N 
ATOM      6  H   UNL d   1      -0.684   1.429  -0.468  0.00  0.00     0.189 HD
BRANCH   5   7
ATOM      7  C   UNL d   1       0.827   0.014  -0.645  0.00  0.00     0.191 C 
ATOM      8  S   UNL d   1       2.454  -0.361  -0.646  0.00  0.00    -0.039 SA
BRANCH   7   9
ATOM      9  N   UNL d   1      -0.114  -0.984  -0.586  0.00  0.00    -0.332 N 
ATOM     10  H   UNL d   1       0.211  -1.877  -0.229  0.00  0.00     0.168 HD
BRANCH   9  11
ATOM     11  C   UNL d   1      -1.373  -0.993  -1.232  0.00  0.00     0.034 A 
ATOM     12  C   UNL d   1      -1.640  -0.184  -2.346  0.00  0.00     0.032 A 
ATOM     13  C   UNL d   1      -2.871  -0.263  -2.999  0.00  0.00     0.044 A 
ATOM     14  C   UNL d   1      -3.837  -1.141  -2.527  0.00  0.00     0.116 A 
ATOM     15  C   UNL d   1      -3.588  -1.952  -1.427  0.00  0.00     0.044 A 
ATOM     16  F   UNL d   1      -5.021  -1.215  -3.149  0.00  0.00    -0.206 F 
ATOM     17  C   UNL d   1      -2.344  -1.894  -0.788  0.00  0.00     0.032 A 
ENDBRANCH   9  11
ENDBRANCH   7   9
ENDBRANCH   5   7
ENDBRANCH   2   5
BRANCH   1  18
ATOM     18  C   UNL d   1       1.028   4.589  -2.153  0.00  0.00     0.109 C 
BRANCH  18  19
ATOM     19  C   UNL d   1       0.240   5.892  -2.011  0.00  0.00     0.048 C 
BRANCH  19  20
ATOM     20  C   UNL d   1       0.966   7.109  -2.527  0.00  0.00    -0.058 A 
ATOM     21  C   UNL d   1       1.313   7.221  -3.881  0.00  0.00     0.010 A 
ATOM     22  C   UNL d   1       1.929   8.381  -4.360  0.00  0.00     0.037 A 
ATOM     23  C   UNL d   1       2.192   9.432  -3.491  0.00  0.00     0.065 A 
ATOM     24  C   UNL d   1       1.856   9.343  -2.145  0.00  0.00     0.037 A 
ATOM     25  C   UNL d   1       1.244   8.182  -1.666  0.00  0.00     0.010 A 
BRANCH  23  26
ATOM     26  O   UNL d   1       2.777  10.552  -4.005  0.00  0.00    -0.361 OA
ATOM     27  H   UNL d   1       2.862  11.208  -3.294  0.00  0.00     0.217 HD
ENDBRANCH  23  26
ENDBRANCH  19  20
ENDBRANCH  18  19
ENDBRANCH   1  18
TORSDOF 8
