REMARK  10 active torsions:
REMARK  status: ('A' for Active; 'I' for Inactive)
REMARK    1  A    between atoms: C_8  and  C_1 
REMARK    2  A    between atoms: C_7  and  C_2 
REMARK    3  A    between atoms: C_9  and  C_3 
REMARK    4  A    between atoms: O_16  and  C_7 
REMARK    5  A    between atoms: O_17  and  C_8 
REMARK    6  A    between atoms: O_14  and  C_15 
REMARK    7  A    between atoms: C_20  and  O_14 
REMARK    8  A    between atoms: C_25  and  O_16 
REMARK    9  A    between atoms: C_24  and  O_17 
REMARK   10  A    between atoms: C_23  and  C_20 
ROOT
ATOM      1  C   UNL d   1      -1.270  -1.033   0.172  0.00  0.00     0.052 C 
ATOM      2  C   UNL d   1       1.298  -1.000   0.161  0.00  0.00     0.052 C 
ATOM      3  C   UNL d   1       0.029  -1.838  -0.028  0.00  0.00     0.100 C 
ATOM      4  C   UNL d   1      -1.236   0.322   0.111  0.00  0.00     0.018 C 
ATOM      5  C   UNL d   1       1.225   0.349   0.114  0.00  0.00     0.018 C 
ATOM      6  N   UNL d   1      -0.011   0.965  -0.019  0.00  0.00    -0.362 N 
ATOM      7  C   UNL d   1      -2.411   1.268   0.169  0.00  0.00     0.069 C 
ATOM      8  C   UNL d   1       2.414   1.277   0.168  0.00  0.00     0.069 C 
ATOM      9  H   UNL d   1      -0.026   1.984  -0.022  0.00  0.00     0.165 HD
ENDROOT
BRANCH   3  10
ATOM     10  C   UNL d   1       0.012  -2.470  -1.431  0.00  0.00    -0.044 A 
ATOM     11  C   UNL d   1      -0.083  -3.857  -1.607  0.00  0.00     0.011 A 
ATOM     12  C   UNL d   1      -0.154  -4.403  -2.893  0.00  0.00     0.037 A 
ATOM     13  C   UNL d   1      -0.150  -3.576  -4.017  0.00  0.00     0.069 A 
ATOM     14  C   UNL d   1       0.001  -2.201  -3.852  0.00  0.00     0.037 A 
ATOM     15  C   UNL d   1       0.067  -1.654  -2.572  0.00  0.00     0.011 A 
BRANCH  13  16
ATOM     16  O   UNL d   1      -0.307  -4.199  -5.227  0.00  0.00    -0.347 OA
BRANCH  16  17
ATOM     17  C   UNL d   1      -0.806  -3.359  -6.270  0.00  0.00     0.214 C 
BRANCH  17  18
ATOM     18  C   UNL d   1      -1.403  -4.200  -7.371  0.00  0.00    -0.034 A 
ATOM     19  C   UNL d   1      -2.784  -4.167  -7.615  0.00  0.00     0.009 A 
ATOM     20  C   UNL d   1      -3.335  -4.912  -8.657  0.00  0.00     0.001 A 
ATOM     21  C   UNL d   1      -2.514  -5.700  -9.460  0.00  0.00     0.000 A 
ATOM     22  C   UNL d   1      -1.141  -5.749  -9.217  0.00  0.00     0.001 A 
ATOM     23  C   UNL d   1      -0.587  -5.003  -8.176  0.00  0.00     0.009 A 
ENDBRANCH  17  18
ENDBRANCH  16  17
ENDBRANCH  13  16
ENDBRANCH   3  10
BRANCH   2  24
ATOM     24  C   UNL d   1       2.602  -1.703   0.327  0.00  0.00     0.292 C 
ATOM     25  O   UNL d   1       3.689  -1.151   0.404  0.00  0.00    -0.259 OA
BRANCH  24  26
ATOM     26  O   UNL d   1       2.422  -3.048   0.339  0.00  0.00    -0.318 OA
BRANCH  26  27
ATOM     27  C   UNL d   1       3.612  -3.823   0.133  0.00  0.00     0.174 C 
ATOM     28  C   UNL d   1       3.824  -3.994  -1.363  0.00  0.00     0.034 C 
ENDBRANCH  26  27
ENDBRANCH  24  26
ENDBRANCH   2  24
BRANCH   1  29
ATOM     29  C   UNL d   1      -2.527  -1.813   0.364  0.00  0.00     0.292 C 
ATOM     30  O   UNL d   1      -3.655  -1.408   0.134  0.00  0.00    -0.259 OA
BRANCH  29  31
ATOM     31  O   UNL d   1      -2.240  -3.048   0.857  0.00  0.00    -0.318 OA
BRANCH  31  32
ATOM     32  C   UNL d   1      -3.365  -3.906   1.105  0.00  0.00     0.174 C 
ATOM     33  C   UNL d   1      -3.841  -4.559  -0.180  0.00  0.00     0.034 C 
ENDBRANCH  31  32
ENDBRANCH  29  31
ENDBRANCH   1  29
TORSDOF 10
