REMARK  4 active torsions:
REMARK  status: ('A' for Active; 'I' for Inactive)
REMARK    1  A    between atoms: S_9  and  C_3 
REMARK    2  A    between atoms: O_10  and  C_4 
REMARK    3  A    between atoms: C_11  and  S_9 
REMARK    4  A    between atoms: C_13  and  C_11 
ROOT
ATOM      1  N   UNL d   1      -0.529  -0.892   0.202  0.00  0.00    -0.318 N 
ATOM      2  HN  UNL d   1      -0.883  -1.849   0.218  1.00  0.00     0.170 HD
ATOM      3  C   UNL d   1      -1.340   0.176   0.148  0.00  0.00     0.146 A 
ATOM      4  C   UNL d   1       0.776  -0.609   0.232  0.00  0.00     0.143 A 
ATOM      5  N   UNL d   1      -0.919   1.454   0.125  0.00  0.00    -0.341 N 
ATOM      6  HN  UNL d   1      -1.582   2.229   0.085  1.00  0.00     0.167 HD
ATOM      7  C   UNL d   1       1.324   0.644   0.213  0.00  0.00     0.080 A 
ATOM      8  C   UNL d   1       0.412   1.673   0.158  0.00  0.00     0.011 A 
ATOM      9  C   UNL d   1       0.854   3.104   0.132  0.00  0.00     0.068 C 
ENDROOT
BRANCH   3  10
ATOM     10  S   UNL d   1      -3.090  -0.142   0.100  0.00  0.00    -0.089 SA
BRANCH  10  11
ATOM     11  C   UNL d   1      -3.727   1.565   0.042  0.00  0.00     0.121 C 
BRANCH  11  12
ATOM     12  C   UNL d   1      -5.238   1.601  -0.056  0.00  0.00    -0.048 A 
ATOM     13  C   UNL d   1      -6.033   1.639   1.101  0.00  0.00     0.009 A 
ATOM     14  C   UNL d   1      -7.428   1.647   1.005  0.00  0.00     0.024 A 
ATOM     15  C   UNL d   1      -8.038   1.613  -0.246  0.00  0.00     0.034 A 
ATOM     16  C   UNL d   1      -7.265   1.585  -1.405  0.00  0.00     0.024 A 
ATOM     17 CL   UNL d   1      -9.755   1.597  -0.363  0.00  0.00    -0.084 Cl
ATOM     18  C   UNL d   1      -5.870   1.578  -1.310  0.00  0.00     0.009 A 
ENDBRANCH  11  12
ENDBRANCH  10  11
ENDBRANCH   3  10
BRANCH   4  19
ATOM     19  O   UNL d   1       1.590  -1.697   0.284  0.00  0.00    -0.346 OA
ATOM     20  H   UNL d   1       0.932  -2.418   0.283  0.00  0.00     0.219 HD
ENDBRANCH   4  19
TORSDOF 4
