REMARK  1 active torsions:
REMARK  status: ('A' for Active; 'I' for Inactive)
REMARK    1  A    between atoms: C_8  and  N_5 
ROOT
ATOM      1  C   UNL d   1       1.677   0.030   0.126  0.00  0.00     0.141 C 
ATOM      2  N   UNL d   1       1.403  -1.210  -0.093  0.00  0.00    -0.369 N 
ATOM      3  HN  UNL d   1       2.072  -1.974   0.010  1.00  0.00     0.161 HD
ATOM      4  S   UNL d   1       0.337   1.155   0.003  0.00  0.00    -0.083 SA
ATOM      5  N   UNL d   1       2.870   0.585   0.483  0.00  0.00    -0.337 N 
ATOM      6  C   UNL d   1      -0.850  -0.225   0.005  0.00  0.00     0.024 C 
ATOM      7  C   UNL d   1       0.004  -1.385  -0.509  0.00  0.00     0.142 C 
ATOM      8  C   UNL d   1      -1.337  -0.467   1.436  0.00  0.00     0.029 C 
ATOM      9  C   UNL d   1      -2.024   0.050  -0.930  0.00  0.00     0.029 C 
ATOM     10  H   UNL d   1       2.851   1.564   0.725  0.00  0.00     0.168 HD
ENDROOT
BRANCH   5  11
ATOM     11  C   UNL d   1       4.135  -0.024   0.445  0.00  0.00     0.034 A 
ATOM     12  C   UNL d   1       4.392  -1.194  -0.285  0.00  0.00     0.032 A 
ATOM     13  C   UNL d   1       5.638  -1.823  -0.241  0.00  0.00     0.044 A 
ATOM     14  C   UNL d   1       6.641  -1.287   0.554  0.00  0.00     0.116 A 
ATOM     15  C   UNL d   1       6.420  -0.135   1.293  0.00  0.00     0.044 A 
ATOM     16  F   UNL d   1       7.833  -1.895   0.611  0.00  0.00    -0.206 F 
ATOM     17  C   UNL d   1       5.170   0.495   1.240  0.00  0.00     0.032 A 
ENDBRANCH   5  11
TORSDOF 1
