REMARK  5 active torsions:
REMARK  status: ('A' for Active; 'I' for Inactive)
REMARK    1  A    between atoms: C_6  and  C_1 
REMARK    2  A    between atoms: C_9  and  C_2 
REMARK    3  A    between atoms: S_3  and  C_4 
REMARK    4  A    between atoms: C_12  and  S_3 
REMARK    5  A    between atoms: O_18  and  C_9 
ROOT
ATOM      1  C   UNL d   1       1.109  -3.716  -0.008  0.00  0.00     0.144 C 
ATOM      2  C   UNL d   1       1.757  -2.526   0.099  0.00  0.00     0.049 C 
ATOM      3  C   UNL d   1       1.924  -4.932  -0.028  0.00  0.00     0.112 C 
ATOM      4  N   UNL d   1       2.641  -5.888  -0.029  0.00  0.00    -0.191 NA
ENDROOT
BRANCH   1   5
ATOM      5  S   UNL d   1      -0.641  -3.786  -0.003  0.00  0.00     0.216 S 
ATOM      6  O   UNL d   1      -1.224  -2.457   0.144  0.00  0.00    -0.216 OA
ATOM      7  O   UNL d   1      -1.094  -4.636  -1.089  0.00  0.00    -0.216 OA
BRANCH   5   8
ATOM      8  C   UNL d   1      -0.987  -4.653   1.516  0.00  0.00     0.065 A 
ATOM      9  C   UNL d   1      -1.242  -3.928   2.683  0.00  0.00     0.024 A 
ATOM     10  C   UNL d   1      -1.574  -4.610   3.854  0.00  0.00     0.008 A 
ATOM     11  C   UNL d   1      -1.660  -6.009   3.864  0.00  0.00    -0.062 A 
ATOM     12  C   UNL d   1      -1.399  -6.722   2.687  0.00  0.00     0.008 A 
ATOM     13  C   UNL d   1      -2.060  -6.722   5.122  0.00  0.00     0.048 C 
ATOM     14  C   UNL d   1      -1.070  -6.048   1.509  0.00  0.00     0.024 A 
ENDBRANCH   5   8
ENDBRANCH   1   5
BRANCH   2  15
ATOM     15  C   UNL d   1       3.212  -2.422   0.023  0.00  0.00     0.006 A 
ATOM     16  C   UNL d   1       4.227  -2.310   1.060  0.00  0.00     0.073 A 
ATOM     17  C   UNL d   1       5.457  -2.162   0.405  0.00  0.00     0.022 A 
ATOM     18  C   UNL d   1       6.859  -2.001   0.904  0.00  0.00     0.069 C 
ATOM     19  N   UNL d   1       5.229  -2.251  -0.939  0.00  0.00    -0.362 N 
ATOM     20  C   UNL d   1       3.896  -2.454  -1.190  0.00  0.00     0.017 A 
ATOM     21  H   UNL d   1       5.954  -2.213  -1.646  0.00  0.00     0.165 HD
ATOM     22  C   UNL d   1       3.458  -2.670  -2.595  0.00  0.00     0.069 C 
BRANCH  16  23
ATOM     23  C   UNL d   1       4.157  -2.352   2.523  0.00  0.00     0.295 C 
ATOM     24  O   UNL d   1       4.851  -1.637   3.238  0.00  0.00    -0.259 OA
BRANCH  23  25
ATOM     25  O   UNL d   1       3.354  -3.348   2.997  0.00  0.00    -0.322 OA
ATOM     26  C   UNL d   1       3.509  -3.633   4.397  0.00  0.00     0.213 C 
ENDBRANCH  23  25
ENDBRANCH  16  23
ENDBRANCH   2  15
TORSDOF 5
