REMARK  5 active torsions:
REMARK  status: ('A' for Active; 'I' for Inactive)
REMARK    1  A    between atoms: C_13  and  C_3 
REMARK    2  A    between atoms: N_12  and  C_6 
REMARK    3  A    between atoms: C_11  and  C_8 
REMARK    4  A    between atoms: O_28  and  C_13 
REMARK    5  A    between atoms: N_14  and  C_15 
ROOT
ATOM      1  C   UNL d   1       1.897  -0.853  -0.595  0.00  0.00     0.069 A 
ATOM      2  C   UNL d   1       1.882   0.601  -0.579  0.00  0.00     0.025 A 
ATOM      3  C   UNL d   1       2.999  -1.388  -1.230  0.00  0.00     0.107 A 
ATOM      4  N   UNL d   1       0.898  -1.595  -0.052  0.00  0.00    -0.350 N 
ATOM      5  HN  UNL d   1       0.888  -2.615  -0.061  1.00  0.00     0.166 HD
ATOM      6  C   UNL d   1       0.851   1.419  -0.062  0.00  0.00     0.045 A 
ATOM      7  C   UNL d   1      -0.139   0.587   0.508  0.00  0.00     0.064 A 
ATOM      8  C   UNL d   1      -0.095  -0.836   0.508  0.00  0.00     0.119 A 
ATOM      9  S   UNL d   1       4.072  -0.130  -1.720  0.00  0.00    -0.093 SA
ATOM     10  C   UNL d   1       3.068   1.090  -1.076  0.00  0.00     0.066 A 
ENDROOT
BRANCH   6  11
ATOM     11  N   UNL d   1       0.653   2.796  -0.143  0.00  0.00    -0.380 N 
ATOM     12  C   UNL d   1       0.201   3.531   1.045  0.00  0.00     0.125 C 
ATOM     13  C   UNL d   1      -0.750   4.646   0.618  0.00  0.00     0.045 C 
ATOM     14  C   UNL d   1      -0.171   5.538  -0.485  0.00  0.00     0.091 C 
ATOM     15  C   UNL d   1       0.425   4.725  -1.636  0.00  0.00     0.045 C 
ATOM     16  C   UNL d   1       1.325   3.590  -1.172  0.00  0.00     0.125 C 
BRANCH  14  17
ATOM     17  N   UNL d   1       0.721   6.585   0.015  0.00  0.00    -0.362 N 
ATOM     18  C   UNL d   1       1.940   6.433   0.621  0.00  0.00     0.091 A 
ATOM     19  C   UNL d   1       2.433   7.682   0.931  0.00  0.00     0.019 A 
ATOM     20  C   UNL d   1       1.483   8.628   0.496  0.00  0.00     0.019 A 
ATOM     21  C   UNL d   1       0.437   7.929  -0.066  0.00  0.00     0.091 A 
ENDBRANCH  14  17
ENDBRANCH   6  11
BRANCH   8  22
ATOM     22  C   UNL d   1      -1.269  -1.546   1.180  0.00  0.00     0.432 C 
ATOM     23  F   UNL d   1      -1.223  -2.906   1.121  0.00  0.00    -0.165 F 
ATOM     24  F   UNL d   1      -1.370  -1.234   2.507  0.00  0.00    -0.165 F 
ATOM     25  F   UNL d   1      -2.471  -1.191   0.636  0.00  0.00    -0.165 F 
ENDBRANCH   8  22
BRANCH   3  26
ATOM     26  C   UNL d   1       3.399  -2.745  -1.537  0.00  0.00     0.302 C 
ATOM     27  O   UNL d   1       4.402  -3.066  -2.166  0.00  0.00    -0.259 OA
BRANCH  26  28
ATOM     28  O   UNL d   1       2.516  -3.659  -1.039  0.00  0.00    -0.322 OA
ATOM     29  C   UNL d   1       2.883  -5.011  -1.300  0.00  0.00     0.213 C 
ENDBRANCH  26  28
ENDBRANCH   3  26
TORSDOF 5
