REMARK  3 active torsions:
REMARK  status: ('A' for Active; 'I' for Inactive)
REMARK    1  A    between atoms: C_14  and  N_9 
REMARK    2  A    between atoms: C_17  and  C_12 
REMARK    3  A    between atoms: C_18  and  C_14 
ROOT
ATOM      1  N   UNL d   1       1.236  -0.602  -0.000  0.00  0.00    -0.203 N 
ATOM      2  C   UNL d   1      -1.184  -0.640  -0.006  0.00  0.00     0.062 A 
ATOM      3  C   UNL d   1       1.223   0.787   0.057  0.00  0.00     0.133 A 
ATOM      4  C   UNL d   1      -1.111   0.691   0.063  0.00  0.00     0.116 A 
ATOM      5  C   UNL d   1       0.072  -1.418  -0.035  0.00  0.00     0.278 A 
ATOM      6  N   UNL d   1       2.506  -1.091  -0.014  0.00  0.00    -0.289 N 
ATOM      7  HN  UNL d   1       2.796  -2.069  -0.028  1.00  0.00     0.188 HD
ATOM      8  N   UNL d   1       0.035   1.431   0.099  0.00  0.00    -0.336 N 
ATOM      9  N   UNL d   1      -3.313   0.083   0.057  0.00  0.00    -0.338 N 
ATOM     10  C   UNL d   1      -2.497   1.197   0.100  0.00  0.00     0.271 A 
ATOM     11  C   UNL d   1       2.524   1.197   0.053  0.00  0.00     0.082 A 
ATOM     12  C   UNL d   1       3.296   0.001  -0.006  0.00  0.00     0.062 A 
ATOM     13  C   UNL d   1      -2.565  -1.159  -0.036  0.00  0.00     0.173 A 
ATOM     14  O   UNL d   1       0.118  -2.639  -0.080  0.00  0.00    -0.265 OA
ATOM     15  O   UNL d   1      -2.803   2.374   0.167  0.00  0.00    -0.266 OA
ATOM     16  H   UNL d   1      -0.084   2.444   0.138  0.00  0.00     0.168 HD
ENDROOT
BRANCH   9  17
ATOM     17  C   UNL d   1      -4.760   0.150   0.012  0.00  0.00     0.165 C 
BRANCH  17  18
ATOM     18  C   UNL d   1      -5.290   0.198  -1.399  0.00  0.00    -0.040 A 
ATOM     19  C   UNL d   1      -5.621  -0.981  -2.081  0.00  0.00     0.009 A 
ATOM     20  C   UNL d   1      -6.077  -0.933  -3.400  0.00  0.00     0.001 A 
ATOM     21  C   UNL d   1      -6.212   0.292  -4.051  0.00  0.00     0.000 A 
ATOM     22  C   UNL d   1      -5.898   1.472  -3.381  0.00  0.00     0.001 A 
ATOM     23  C   UNL d   1      -5.436   1.426  -2.064  0.00  0.00     0.009 A 
ENDBRANCH  17  18
ENDBRANCH   9  17
BRANCH  12  24
ATOM     24  C   UNL d   1       4.760  -0.086  -0.048  0.00  0.00    -0.008 A 
ATOM     25  C   UNL d   1       5.522   0.974  -0.568  0.00  0.00     0.014 A 
ATOM     26  C   UNL d   1       6.917   0.904  -0.602  0.00  0.00     0.001 A 
ATOM     27  C   UNL d   1       7.568  -0.226  -0.115  0.00  0.00     0.000 A 
ATOM     28  C   UNL d   1       6.826  -1.286   0.404  0.00  0.00     0.001 A 
ATOM     29  C   UNL d   1       5.429  -1.219   0.434  0.00  0.00     0.014 A 
ENDBRANCH  12  24
TORSDOF 3
