REMARK  5 active torsions:
REMARK  status: ('A' for Active; 'I' for Inactive)
REMARK    1  A    between atoms: C_13  and  N_1 
REMARK    2  A    between atoms: C_4  and  N_2 
REMARK    3  A    between atoms: C_9  and  C_7 
REMARK    4  A    between atoms: O_19  and  C_9 
REMARK    5  A    between atoms: C_20  and  C_13 
ROOT
ATOM      1  N   UNL d   1      -0.668   1.165   0.037  0.00  0.00    -0.260 N 
ATOM      2  N   UNL d   1      -0.604  -1.194  -0.091  0.00  0.00    -0.272 N 
ATOM      3  C   UNL d   1      -1.386  -0.031  -0.052  0.00  0.00     0.336 A 
ATOM      4  C   UNL d   1       0.719   1.250   0.069  0.00  0.00     0.274 A 
ATOM      5  C   UNL d   1       1.462  -0.029   0.075  0.00  0.00     0.128 A 
ATOM      6  C   UNL d   1       0.769  -1.172   0.001  0.00  0.00     0.130 A 
ATOM      7  C   UNL d   1       2.884  -0.029   0.154  0.00  0.00     0.106 C 
ATOM      8  N   UNL d   1       4.040  -0.087   0.220  0.00  0.00    -0.191 NA
ATOM      9  O   UNL d   1      -2.617  -0.042  -0.139  0.00  0.00    -0.246 OA
ATOM     10  O   UNL d   1       1.333   2.317   0.090  0.00  0.00    -0.266 OA
ENDROOT
BRANCH   1  11
ATOM     11  C   UNL d   1      -1.431   2.411   0.052  0.00  0.00     0.175 C 
BRANCH  11  12
ATOM     12  C   UNL d   1      -1.822   2.812   1.458  0.00  0.00    -0.040 A 
ATOM     13  C   UNL d   1      -0.966   3.605   2.235  0.00  0.00     0.009 A 
ATOM     14  C   UNL d   1      -1.282   3.897   3.562  0.00  0.00     0.001 A 
ATOM     15  C   UNL d   1      -2.457   3.404   4.126  0.00  0.00     0.000 A 
ATOM     16  C   UNL d   1      -3.331   2.640   3.356  0.00  0.00     0.001 A 
ATOM     17  C   UNL d   1      -3.018   2.348   2.028  0.00  0.00     0.009 A 
ENDBRANCH  11  12
ENDBRANCH   1  11
BRANCH   2  18
ATOM     18  C   UNL d   1      -1.233  -2.455  -0.196  0.00  0.00     0.067 A 
ATOM     19  C   UNL d   1      -0.944  -3.462  -1.122  0.00  0.00     0.107 A 
ATOM     20  S   UNL d   1      -2.009  -4.809  -0.919  0.00  0.00    -0.094 SA
ATOM     21  C   UNL d   1      -2.867  -4.059   0.338  0.00  0.00     0.053 A 
ATOM     22  C   UNL d   1      -2.353  -2.822   0.633  0.00  0.00     0.039 A 
BRANCH  19  23
ATOM     23  C   UNL d   1       0.021  -3.465  -2.220  0.00  0.00     0.302 C 
ATOM     24  O   UNL d   1       0.818  -2.567  -2.468  0.00  0.00    -0.259 OA
BRANCH  23  25
ATOM     25  O   UNL d   1      -0.074  -4.605  -2.967  0.00  0.00    -0.322 OA
ATOM     26  C   UNL d   1       0.813  -4.686  -4.084  0.00  0.00     0.213 C 
ENDBRANCH  23  25
ENDBRANCH  19  23
ENDBRANCH   2  18
TORSDOF 5
