REMARK  4 active torsions:
REMARK  status: ('A' for Active; 'I' for Inactive)
REMARK    1  A    between atoms: C_6  and  C_1 
REMARK    2  A    between atoms: S_4  and  N_8 
REMARK    3  A    between atoms: C_11  and  C_5 
REMARK       I    between atoms: N_10  and  C_6 
REMARK    4  A    between atoms: N_8  and  N_10 
ROOT
ATOM      1  C   UNL d   1       1.303   0.809   0.057  0.00  0.00     0.110 A 
ATOM      2  N   UNL d   1       1.444  -0.582   0.015  0.00  0.00    -0.345 N 
ATOM      3  HN  UNL d   1       2.336  -1.077   0.009  1.00  0.00     0.167 HD
ATOM      4  C   UNL d   1       0.258  -1.166  -0.017  0.00  0.00     0.086 A 
ATOM      5  S   UNL d   1      -1.080  -0.077   0.054  0.00  0.00    -0.081 SA
ATOM      6  C   UNL d   1      -0.006   1.249   0.095  0.00  0.00     0.087 A 
ENDROOT
BRANCH   1   7
ATOM      7  C   UNL d   1       2.455   1.710   0.053  0.00  0.00     0.287 C 
ATOM      8  N   UNL d   1       3.671   1.058   0.025  0.00  0.00    -0.255 N 
ATOM      9  H   UNL d   1       3.721   0.041  -0.055  0.00  0.00     0.191 HD
ATOM     10  O   UNL d   1       2.358   2.938   0.049  0.00  0.00    -0.264 OA
BRANCH   8  11
ATOM     11  N   UNL d   1       4.897   1.848  -0.122  0.00  0.00    -0.224 N 
ATOM     12  H   UNL d   1       4.726   2.830  -0.374  0.00  0.00     0.200 HD
BRANCH  11  13
ATOM     13  S   UNL d   1       6.196   1.083  -0.889  0.00  0.00     0.240 S 
ATOM     14  O   UNL d   1       6.410  -0.182  -0.219  0.00  0.00    -0.205 OA
ATOM     15  O   UNL d   1       5.945   1.151  -2.312  0.00  0.00    -0.205 OA
ATOM     16  C   UNL d   1       7.535   2.186  -0.497  0.00  0.00     0.187 C 
ENDBRANCH  11  13
ENDBRANCH   8  11
ENDBRANCH   1   7
BRANCH   4  17
ATOM     17  C   UNL d   1       0.041  -2.619  -0.041  0.00  0.00     0.013 A 
ATOM     18  C   UNL d   1      -1.076  -3.216  -0.624  0.00  0.00     0.101 A 
ATOM     19  N   UNL d   1      -1.319  -4.552  -0.641  0.00  0.00    -0.374 N 
ATOM     20  C   UNL d   1      -0.399  -5.343  -0.053  0.00  0.00     0.087 A 
ATOM     21  HN  UNL d   1      -2.157  -4.938  -1.077  1.00  0.00     0.164 HD
ATOM     22  C   UNL d   1       0.755  -4.862   0.541  0.00  0.00     0.018 A 
ATOM     23  C   UNL d   1       0.977  -3.484   0.538  0.00  0.00     0.017 A 
ENDBRANCH   4  17
TORSDOF 4
