REMARK  4 active torsions:
REMARK  status: ('A' for Active; 'I' for Inactive)
REMARK    1  A    between atoms: C_9  and  N_3 
REMARK    2  A    between atoms: C_7  and  C_4 
REMARK    3  A    between atoms: C_8  and  C_5 
REMARK    4  A    between atoms: O_11  and  C_7 
ROOT
ATOM      1  N   UNL d   1       0.982  -0.631  -0.207  0.00  0.00    -0.287 N 
ATOM      2  HN  UNL d   1       1.784  -1.202  -0.473  1.00  0.00     0.188 HD
ATOM      3  N   UNL d   1       0.957   0.723   0.001  0.00  0.00    -0.259 N 
ATOM      4  C   UNL d   1      -0.275  -1.046   0.015  0.00  0.00     0.124 C 
ATOM      5  C   UNL d   1      -0.361   1.191   0.144  0.00  0.00     0.044 C 
ATOM      6  C   UNL d   1      -1.129   0.039   0.256  0.00  0.00     0.066 C 
ENDROOT
BRANCH   3   7
ATOM      7  C   UNL d   1       2.208   1.401  -0.000  0.00  0.00     0.056 A 
ATOM      8  C   UNL d   1       3.225   0.949  -0.856  0.00  0.00     0.031 A 
ATOM      9  C   UNL d   1       4.419   1.666  -0.972  0.00  0.00     0.002 A 
ATOM     10  C   UNL d   1       4.620   2.817  -0.213  0.00  0.00     0.000 A 
ATOM     11  C   UNL d   1       3.653   3.219   0.704  0.00  0.00     0.002 A 
ATOM     12  C   UNL d   1       2.462   2.497   0.827  0.00  0.00     0.031 A 
ENDBRANCH   3   7
BRANCH   5  13
ATOM     13  C   UNL d   1      -0.895   2.633   0.076  0.00  0.00    -0.007 C 
ATOM     14  C   UNL d   1      -0.126   3.542  -0.901  0.00  0.00     0.021 C 
ATOM     15  C   UNL d   1      -2.351   2.623  -0.485  0.00  0.00     0.021 C 
ATOM     16  C   UNL d   1      -1.001   3.250   1.482  0.00  0.00     0.021 C 
ENDBRANCH   5  13
BRANCH   4  17
ATOM     17  C   UNL d   1      -0.617  -2.471  -0.055  0.00  0.00     0.195 C 
ATOM     18  O   UNL d   1      -1.750  -2.917   0.092  0.00  0.00    -0.645 OA
BRANCH  17  19
ATOM     19  O   UNL d   1       0.465  -3.255  -0.299  0.00  0.00    -0.772 OA
ATOM     20  H   UNL d   1       1.236  -2.648  -0.376  0.00  0.00     0.167 HD
ENDBRANCH  17  19
ENDBRANCH   4  17
TORSDOF 4
