REMARK  5 active torsions:
REMARK  status: ('A' for Active; 'I' for Inactive)
REMARK    1  A    between atoms: C_8  and  C_2 
REMARK    2  A    between atoms: S_19  and  C_5 
REMARK    3  A    between atoms: C_29  and  S_19 
REMARK    4  A    between atoms: C_20  and  N_22 
REMARK    5  A    between atoms: C_21  and  C_29 
REMARK       I    between atoms: N_22  and  C_21 
ROOT
ATOM      1  N   UNL d   1       1.046   0.165   0.193  0.00  0.00    -0.315 N 
ATOM      2  C   UNL d   1       0.112   1.170   0.046  0.00  0.00     0.134 C 
ATOM      3  N   UNL d   1      -1.085   0.610   0.025  0.00  0.00    -0.283 N 
ATOM      4  HN  UNL d   1      -1.964   1.092  -0.166  1.00  0.00     0.188 HD
ATOM      5  C   UNL d   1       0.323  -0.963   0.469  0.00  0.00     0.163 C 
ATOM      6  N   UNL d   1      -0.951  -0.723   0.303  0.00  0.00    -0.278 N 
ATOM      7  HN  UNL d   1      -1.706  -1.404   0.368  1.00  0.00     0.189 HD
ATOM      8  C   UNL d   1       2.476   0.235   0.043  0.00  0.00     0.160 C 
ENDROOT
BRANCH   5   9
ATOM      9  S   UNL d   1       0.982  -2.367   1.230  0.00  0.00    -0.083 SA
BRANCH   9  10
ATOM     10  C   UNL d   1      -0.435  -3.500   1.260  0.00  0.00     0.185 C 
BRANCH  10  11
ATOM     11  C   UNL d   1      -1.551  -3.222   2.268  0.00  0.00     0.231 C 
ATOM     12  N   UNL d   1      -1.650  -1.938   2.761  0.00  0.00    -0.326 N 
ATOM     13  H   UNL d   1      -1.034  -1.259   2.333  0.00  0.00     0.169 HD
ATOM     14  O   UNL d   1      -2.336  -4.134   2.537  0.00  0.00    -0.272 OA
BRANCH  12  15
ATOM     15  C   UNL d   1      -2.684  -1.387   3.546  0.00  0.00     0.037 A 
ATOM     16  C   UNL d   1      -3.676  -2.142   4.170  0.00  0.00     0.053 A 
ATOM     17  C   UNL d   1      -4.708  -1.504   4.862  0.00  0.00     0.037 A 
ATOM     18 CL   UNL d   1      -5.946  -2.444   5.603  0.00  0.00    -0.084 Cl
ATOM     19  C   UNL d   1      -4.758  -0.116   4.951  0.00  0.00     0.048 A 
ATOM     20  C   UNL d   1      -3.751   0.635   4.357  0.00  0.00     0.037 A 
ATOM     21  C   UNL d   1      -2.714   0.009   3.662  0.00  0.00     0.053 A 
ATOM     22 CL   UNL d   1      -3.791   2.353   4.458  0.00  0.00    -0.084 Cl
ENDBRANCH  12  15
ENDBRANCH  10  11
ENDBRANCH   9  10
ENDBRANCH   5   9
BRANCH   2  23
ATOM     23  C   UNL d   1       0.347   2.617  -0.029  0.00  0.00     0.012 A 
ATOM     24  C   UNL d   1      -0.501   3.382  -0.869  0.00  0.00     0.049 A 
ATOM     25  C   UNL d   1      -0.280   4.772  -0.841  0.00  0.00     0.086 A 
ATOM     26  N   UNL d   1      -0.908   5.745  -1.508  0.00  0.00    -0.240 N 
ATOM     27  C   UNL d   1       0.746   5.380  -0.008  0.00  0.00     0.085 A 
ATOM     28  O   UNL d   1      -0.303   6.927  -1.111  0.00  0.00    -0.156 OA
ATOM     29  HN  UNL d   1      -1.675   5.640  -2.171  1.00  0.00     0.197 HD
ATOM     30  N   UNL d   1       0.715   6.704  -0.199  0.00  0.00    -0.240 N 
ATOM     31  HN  UNL d   1       1.316   7.404   0.237  1.00  0.00     0.197 HD
ATOM     32  C   UNL d   1       1.580   4.622   0.832  0.00  0.00     0.035 A 
ATOM     33  C   UNL d   1       1.332   3.236   0.802  0.00  0.00     0.018 A 
ENDBRANCH   2  23
TORSDOF 5
