REMARK  5 active torsions:
REMARK  status: ('A' for Active; 'I' for Inactive)
REMARK    1  A    between atoms: C_2  and  C_1 
REMARK       I    between atoms: N_6  and  C_2 
REMARK    2  A    between atoms: C_14  and  C_5 
REMARK    3  A    between atoms: C_9  and  C_13 
REMARK    4  A    between atoms: O_18  and  C_9 
REMARK    5  A    between atoms: C_22  and  O_18 
ROOT
ATOM      1  C   UNL d   1       0.102  -1.730  -1.152  0.00  0.00     0.092 A 
ATOM      2  N   UNL d   1       0.697  -0.203  -2.740  0.00  0.00    -0.259 N 
ATOM      3  HN  UNL d   1       1.241   0.401  -3.356  1.00  0.00     0.195 HD
ATOM      4  C   UNL d   1       1.176  -0.988  -1.759  0.00  0.00     0.083 A 
ATOM      5  O   UNL d   1      -0.659  -0.367  -2.753  0.00  0.00    -0.241 OA
ATOM      6  C   UNL d   1      -1.028  -1.244  -1.789  0.00  0.00     0.090 A 
ATOM      7  C   UNL d   1      -2.490  -1.410  -1.668  0.00  0.00     0.080 C 
ENDROOT
BRANCH   1   8
ATOM      8  C   UNL d   1       0.174  -2.637  -0.013  0.00  0.00     0.258 C 
ATOM      9  N   UNL d   1      -0.449  -3.905  -0.066  0.00  0.00    -0.348 N 
ATOM     10  C   UNL d   1      -0.533  -4.645   1.193  0.00  0.00     0.127 C 
ATOM     11  C   UNL d   1      -1.355  -4.338  -1.129  0.00  0.00     0.127 C 
ATOM     12  C   UNL d   1      -0.535  -6.159   0.990  0.00  0.00     0.034 C 
ATOM     13  C   UNL d   1      -1.627  -6.601   0.014  0.00  0.00     0.088 C 
ATOM     14  C   UNL d   1      -1.431  -5.853  -1.308  0.00  0.00     0.034 C 
ATOM     15  O   UNL d   1       0.813  -2.297   0.978  0.00  0.00    -0.267 OA
BRANCH  13  16
ATOM     16  C   UNL d   1      -3.021  -6.397   0.600  0.00  0.00     0.263 C 
ATOM     17  O   UNL d   1      -3.909  -5.743   0.075  0.00  0.00    -0.265 OA
BRANCH  16  18
ATOM     18  O   UNL d   1      -3.125  -7.048   1.792  0.00  0.00    -0.322 OA
BRANCH  18  19
ATOM     19  C   UNL d   1      -4.309  -6.805   2.566  0.00  0.00     0.174 C 
ATOM     20  C   UNL d   1      -5.266  -7.975   2.453  0.00  0.00     0.034 C 
ENDBRANCH  18  19
ENDBRANCH  16  18
ENDBRANCH  13  16
ENDBRANCH   1   8
BRANCH   4  21
ATOM     21  C   UNL d   1       2.624  -0.976  -1.504  0.00  0.00    -0.006 A 
ATOM     22  C   UNL d   1       3.357   0.201  -1.744  0.00  0.00     0.014 A 
ATOM     23  C   UNL d   1       4.748   0.228  -1.614  0.00  0.00     0.001 A 
ATOM     24  C   UNL d   1       5.428  -0.924  -1.237  0.00  0.00     0.000 A 
ATOM     25  C   UNL d   1       4.716  -2.094  -0.974  0.00  0.00     0.001 A 
ATOM     26  C   UNL d   1       3.321  -2.123  -1.105  0.00  0.00     0.014 A 
ENDBRANCH   4  21
TORSDOF 5
