REMARK  7 active torsions:
REMARK  status: ('A' for Active; 'I' for Inactive)
REMARK    1  A    between atoms: C_5  and  C_1 
REMARK    2  A    between atoms: C_2  and  O_10 
REMARK    3  A    between atoms: O_7  and  C_3 
REMARK       I    between atoms: C_4  and  N_6 
REMARK    4  A    between atoms: C_8  and  C_4 
REMARK    5  A    between atoms: N_6  and  C_5 
REMARK    6  A    between atoms: C_18  and  O_7 
REMARK    7  A    between atoms: O_10  and  C_17 
ROOT
ATOM      1  C   UNL d   1      -0.637   2.283  -0.073  0.00  0.00     0.166 C 
ENDROOT
BRANCH   1   2
ATOM      2  C   UNL d   1       0.118   0.965  -0.104  0.00  0.00     0.015 A 
ATOM      3  C   UNL d   1       1.513   1.018   0.173  0.00  0.00     0.085 A 
ATOM      4  C   UNL d   1       2.321  -0.128   0.074  0.00  0.00     0.038 A 
ATOM      5  C   UNL d   1       1.758  -1.366  -0.185  0.00  0.00     0.004 A 
ATOM      6  C   UNL d   1       0.390  -1.453  -0.403  0.00  0.00     0.024 A 
ATOM      7  C   UNL d   1      -0.420  -0.305  -0.390  0.00  0.00     0.044 A 
ATOM      8 CL   UNL d   1      -2.080  -0.608  -0.780  0.00  0.00    -0.084 Cl
BRANCH   3   9
ATOM      9  O   UNL d   1       2.066   2.251   0.500  0.00  0.00    -0.310 OA
BRANCH   9  10
ATOM     10  C   UNL d   1       3.145   2.252   1.363  0.00  0.00     0.076 A 
ATOM     11  C   UNL d   1       4.279   2.970   0.985  0.00  0.00     0.037 A 
ATOM     12  C   UNL d   1       5.423   2.933   1.785  0.00  0.00     0.003 A 
ATOM     13  C   UNL d   1       5.428   2.189   2.966  0.00  0.00     0.000 A 
ATOM     14  C   UNL d   1       4.278   1.510   3.368  0.00  0.00     0.003 A 
ATOM     15  C   UNL d   1       3.128   1.559   2.580  0.00  0.00     0.037 A 
ENDBRANCH   9  10
ENDBRANCH   3   9
ENDBRANCH   1   2
BRANCH   1  16
ATOM     16  N   UNL d   1      -2.046   2.258  -0.410  0.00  0.00    -0.352 N 
ATOM     17  C   UNL d   1      -3.029   2.370   0.553  0.00  0.00     0.251 C 
ATOM     18  O   UNL d   1      -2.777   2.564   1.740  0.00  0.00    -0.268 OA
ATOM     19  H   UNL d   1      -2.286   1.896  -1.321  0.00  0.00     0.163 HD
BRANCH  17  20
ATOM     20  C   UNL d   1      -4.454   2.228   0.115  0.00  0.00     0.032 A 
ATOM     21  C   UNL d   1      -4.871   2.326  -1.221  0.00  0.00     0.020 A 
ATOM     22  C   UNL d   1      -6.232   2.224  -1.554  0.00  0.00     0.038 A 
ATOM     23  C   UNL d   1      -7.191   2.062  -0.555  0.00  0.00     0.078 A 
ATOM     24  C   UNL d   1      -6.778   1.925   0.771  0.00  0.00     0.038 A 
ATOM     25  C   UNL d   1      -5.423   2.015   1.105  0.00  0.00     0.020 A 
BRANCH  23  26
ATOM     26  O   UNL d   1      -8.531   1.938  -0.762  0.00  0.00    -0.255 OA
BRANCH  26  27
ATOM     27  C   UNL d   1      -9.156   2.785  -1.719  0.00  0.00     0.530 C 
ATOM     28  F   UNL d   1      -8.321   3.655  -2.323  0.00  0.00    -0.144 F 
ATOM     29  F   UNL d   1      -9.739   2.020  -2.668  0.00  0.00    -0.144 F 
ATOM     30  F   UNL d   1     -10.125   3.497  -1.101  0.00  0.00    -0.144 F 
ENDBRANCH  26  27
ENDBRANCH  23  26
ENDBRANCH  17  20
ENDBRANCH   1  16
TORSDOF 7
