REMARK  5 active torsions:
REMARK  status: ('A' for Active; 'I' for Inactive)
REMARK    1  A    between atoms: N_2  and  C_1 
REMARK    2  A    between atoms: N_11  and  C_3 
REMARK    3  A    between atoms: C_4  and  C_5 
REMARK    4  A    between atoms: O_12  and  C_4 
REMARK    5  A    between atoms: C_17  and  O_12 
ROOT
ATOM      1  C   UNL d   1       1.707   0.978   0.436  0.00  0.00     0.051 A 
ATOM      2  C   UNL d   1       0.686   1.957   0.288  0.00  0.00     0.033 A 
ATOM      3  C   UNL d   1      -1.038   0.247   0.404  0.00  0.00     0.041 A 
ATOM      4  C   UNL d   1      -0.662   1.585   0.270  0.00  0.00     0.043 A 
ATOM      5  C   UNL d   1       1.309  -0.362   0.571  0.00  0.00     0.032 A 
ATOM      6  C   UNL d   1      -0.048  -0.728   0.557  0.00  0.00     0.020 A 
ENDROOT
BRANCH   1   7
ATOM      7  N   UNL d   1       3.051   1.375   0.425  0.00  0.00    -0.375 N 
ATOM      8  C   UNL d   1       4.099   0.419   0.020  0.00  0.00     0.149 C 
ATOM      9  C   UNL d   1       5.386   1.207  -0.307  0.00  0.00     0.187 C 
ATOM     10  O   UNL d   1       5.801   2.053   0.783  0.00  0.00    -0.388 OA
ATOM     11  C   UNL d   1       4.745   2.959   1.151  0.00  0.00     0.187 C 
ATOM     12  C   UNL d   1       3.492   2.182   1.585  0.00  0.00     0.149 C 
ENDBRANCH   1   7
BRANCH   2  13
ATOM     13  N   UNL d   1       1.007   3.278  -0.093  0.00  0.00    -0.301 NA
ATOM     14  H   UNL d   1       1.996   3.473   0.018  0.00  0.00     0.124 HD
ATOM     15  H   UNL d   1       0.385   3.984   0.282  0.00  0.00     0.124 HD
ENDBRANCH   2  13
BRANCH   3  16
ATOM     16  C   UNL d   1      -2.492  -0.065   0.319  0.00  0.00     0.293 C 
ATOM     17  O   UNL d   1      -3.350   0.788   0.168  0.00  0.00    -0.259 OA
BRANCH  16  18
ATOM     18  O   UNL d   1      -2.715  -1.401   0.413  0.00  0.00    -0.318 OA
BRANCH  18  19
ATOM     19  C   UNL d   1      -4.082  -1.803   0.228  0.00  0.00     0.174 C 
ATOM     20  C   UNL d   1      -4.870  -1.670   1.518  0.00  0.00     0.034 C 
ENDBRANCH  18  19
ENDBRANCH  16  18
ENDBRANCH   3  16
TORSDOF 5
