REMARK  4 active torsions:
REMARK  status: ('A' for Active; 'I' for Inactive)
REMARK    1  A    between atoms: C_6  and  N_1 
REMARK    2  A    between atoms: C_8  and  C_3 
REMARK    3  A    between atoms: C_5  and  C_11 
REMARK    4  A    between atoms: O_21  and  C_18 
ROOT
ATOM      1  O   UNL d   1      -1.024  -0.464  -5.832  0.00  0.00    -0.342 OA
ATOM      2  C   UNL d   1      -1.043  -1.595  -6.705  0.00  0.00     0.391 C 
ATOM      3  N   UNL d   1      -1.474  -2.759  -5.937  0.00  0.00     0.119 N 
ATOM      4  C   UNL d   1      -1.874  -0.769  -4.717  0.00  0.00     0.185 C 
ATOM      5  C   UNL d   1      -2.365  -2.202  -4.924  0.00  0.00     0.310 C 
ATOM      6  H   UNL d   1      -1.976  -3.413  -6.532  0.00  0.00     0.319 HD
ENDROOT
BRANCH   4   7
ATOM      7  C   UNL d   1      -1.093  -0.536  -3.444  0.00  0.00    -0.028 A 
ATOM      8  C   UNL d   1      -1.549   0.396  -2.499  0.00  0.00     0.012 A 
ATOM      9  C   UNL d   1      -0.836   0.618  -1.318  0.00  0.00     0.037 A 
ATOM     10  C   UNL d   1       0.345  -0.095  -1.081  0.00  0.00     0.102 A 
ATOM     11  C   UNL d   1       0.822  -1.019  -2.020  0.00  0.00     0.037 A 
ATOM     12  C   UNL d   1       0.101  -1.233  -3.195  0.00  0.00     0.012 A 
BRANCH  10  13
ATOM     13  N   UNL d   1       1.092   0.123   0.164  0.00  0.00    -0.116 N 
ATOM     14  O   UNL d   1       2.122  -0.540   0.344  0.00  0.00    -0.532 OA
ATOM     15  O   UNL d   1       0.643   0.955   0.966  0.00  0.00    -0.532 OA
ENDBRANCH  10  13
ENDBRANCH   4   7
BRANCH   2  16
ATOM     16  C   UNL d   1      -1.906  -1.316  -7.928  0.00  0.00     0.000 A 
ATOM     17  C   UNL d   1      -2.564  -0.086  -8.098  0.00  0.00     0.014 A 
ATOM     18  C   UNL d   1      -3.339   0.172  -9.231  0.00  0.00     0.037 A 
ATOM     19  C   UNL d   1      -3.472  -0.796 -10.225  0.00  0.00     0.068 A 
ATOM     20  C   UNL d   1      -2.808  -2.015 -10.080  0.00  0.00     0.037 A 
ATOM     21  C   UNL d   1      -2.028  -2.272  -8.948  0.00  0.00     0.014 A 
BRANCH  19  22
ATOM     22  O   UNL d   1      -4.208  -0.664 -11.370  0.00  0.00    -0.356 OA
ATOM     23  C   UNL d   1      -4.891   0.572 -11.545  0.00  0.00     0.210 C 
ENDBRANCH  19  22
ENDBRANCH   2  16
TORSDOF 4
