REMARK  3 active torsions:
REMARK  status: ('A' for Active; 'I' for Inactive)
REMARK    1  A    between atoms: C_3  and  C_1 
REMARK    2  A    between atoms: O_5  and  C_1 
REMARK    3  A    between atoms: C_4  and  C_3 
ROOT
ATOM      1  C   UNL d   1       0.694   2.363   0.689  0.00  0.00    -0.048 A 
ATOM      2  C   UNL d   1       1.496   5.022   0.206  0.00  0.00    -0.062 A 
ATOM      3  C   UNL d   1       1.476   2.678  -0.431  0.00  0.00     0.008 A 
ATOM      4  C   UNL d   1       0.309   3.392   1.558  0.00  0.00     0.008 A 
ATOM      5  C   UNL d   1       0.708   4.709   1.318  0.00  0.00     0.007 A 
ATOM      6  C   UNL d   1       1.879   3.996  -0.665  0.00  0.00     0.007 A 
ATOM      7  C   UNL d   1       1.930   6.434  -0.058  0.00  0.00     0.048 C 
ENDROOT
BRANCH   1   8
ATOM      8  C   UNL d   1       0.254   0.940   0.952  0.00  0.00     0.148 C 
BRANCH   8   9
ATOM      9  C   UNL d   1       1.365  -0.073   1.127  0.00  0.00     0.143 C 
ATOM     10  O   UNL d   1       1.229  -1.259   0.853  0.00  0.00    -0.650 OA
BRANCH   9  11
ATOM     11  O   UNL d   1       2.501   0.394   1.688  0.00  0.00    -0.776 OA
ATOM     12  H   UNL d   1       2.492   1.356   1.866  0.00  0.00     0.167 HD
ENDBRANCH   9  11
ENDBRANCH   8   9
ENDBRANCH   1   8
TORSDOF 3
