REMARK  3 active torsions:
REMARK  status: ('A' for Active; 'I' for Inactive)
REMARK    1  A    between atoms: N_2  and  C_1 
REMARK    2  A    between atoms: N_4  and  C_3 
REMARK    3  A    between atoms: N_13  and  C_5 
ROOT
ATOM      1  C   UNL d   1      -0.024  -1.609   0.291  0.00  0.00     0.179 A 
ATOM      2  C   UNL d   1       1.208  -0.999   0.069  0.00  0.00     0.120 A 
ATOM      3  C   UNL d   1      -1.188  -0.864   0.196  0.00  0.00     0.117 A 
ATOM      4  N   UNL d   1       1.257   0.318  -0.217  0.00  0.00    -0.341 N 
ATOM      5  HN  UNL d   1       2.144   0.790  -0.390  1.00  0.00     0.167 HD
ATOM      6  N   UNL d   1      -1.122   0.451  -0.086  0.00  0.00    -0.341 N 
ATOM      7  HN  UNL d   1      -1.965   1.021  -0.158  1.00  0.00     0.167 HD
ATOM      8  C   UNL d   1       0.094   0.980  -0.266  0.00  0.00     0.183 A 
ENDROOT
BRANCH   2   9
ATOM      9  N   UNL d   1       2.418  -1.712   0.112  0.00  0.00    -0.267 NA
ATOM     10  C   UNL d   1       3.632  -0.925   0.413  0.00  0.00     0.097 C 
ATOM     11  C   UNL d   1       4.521  -1.066  -0.817  0.00  0.00     0.016 C 
ATOM     12  C   UNL d   1       4.164  -2.447  -1.327  0.00  0.00     0.016 C 
ATOM     13  C   UNL d   1       2.654  -2.494  -1.121  0.00  0.00     0.097 C 
ENDBRANCH   2   9
BRANCH   1  14
ATOM     14  N   UNL d   1      -0.064  -2.974   0.701  0.00  0.00    -0.109 N 
ATOM     15  O   UNL d   1      -0.025  -3.210   1.918  0.00  0.00    -0.532 OA
ATOM     16  O   UNL d   1      -0.165  -3.826  -0.195  0.00  0.00    -0.532 OA
ENDBRANCH   1  14
BRANCH   3  17
ATOM     17  N   UNL d   1      -2.489  -1.283   0.413  0.00  0.00    -0.281 NA
ATOM     18  C   UNL d   1      -2.979  -2.517  -0.173  0.00  0.00     0.114 C 
ATOM     19  H   UNL d   1      -3.083  -0.481   0.203  0.00  0.00     0.128 HD
ENDBRANCH   3  17
TORSDOF 3
