REMARK  3 active torsions:
REMARK  status: ('A' for Active; 'I' for Inactive)
REMARK    1  A    between atoms: C_14  and  C_6 
REMARK    2  A    between atoms: S_17  and  C_7 
REMARK    3  A    between atoms: C_15  and  C_16 
ROOT
ATOM      1  N   UNL d   1      -0.062  -0.576   0.598  0.00  0.00    -0.237 N 
ATOM      2  C   UNL d   1      -0.041   0.822   0.585  0.00  0.00     0.130 A 
ATOM      3  N   UNL d   1       0.986   1.534   0.039  0.00  0.00    -0.334 N 
ATOM      4  HN  UNL d   1       0.993   2.554   0.041  1.00  0.00     0.168 HD
ATOM      5  C   UNL d   1       2.035  -0.660  -0.533  0.00  0.00     0.107 A 
ATOM      6  C   UNL d   1       0.992  -1.315   0.032  0.00  0.00     0.092 A 
ATOM      7  C   UNL d   1       1.955   0.844  -0.484  0.00  0.00     0.094 A 
ATOM      8  N   UNL d   1      -1.195  -1.038   1.193  0.00  0.00    -0.296 N 
ATOM      9  HN  UNL d   1      -1.465  -2.011   1.336  1.00  0.00     0.187 HD
ATOM     10  C   UNL d   1      -1.199   1.234   1.198  0.00  0.00     0.076 A 
ATOM     11  C   UNL d   1      -1.877   0.053   1.551  0.00  0.00     0.026 A 
ATOM     12  C   UNL d   1       3.129  -1.332  -1.149  0.00  0.00     0.104 C 
ATOM     13  N   UNL d   1       4.013  -1.888  -1.652  0.00  0.00    -0.191 NA
ATOM     14  C   UNL d   1      -3.188  -0.062   2.237  0.00  0.00     0.070 C 
ENDROOT
BRANCH   6  15
ATOM     15  C   UNL d   1       0.936  -2.791   0.036  0.00  0.00    -0.006 A 
ATOM     16  C   UNL d   1       1.491  -3.538   1.079  0.00  0.00     0.014 A 
ATOM     17  C   UNL d   1       1.481  -4.940   1.032  0.00  0.00     0.009 A 
ATOM     18  C   UNL d   1       0.920  -5.636  -0.056  0.00  0.00    -0.051 A 
ATOM     19  C   UNL d   1       0.350  -4.864  -1.082  0.00  0.00     0.009 A 
ATOM     20  C   UNL d   1       0.355  -3.465  -1.040  0.00  0.00     0.014 A 
BRANCH  18  21
ATOM     21  C   UNL d   1       0.956  -7.176  -0.111  0.00  0.00    -0.024 C 
ATOM     22  C   UNL d   1       0.290  -7.752  -1.382  0.00  0.00     0.019 C 
ATOM     23  C   UNL d   1       2.420  -7.668  -0.096  0.00  0.00     0.019 C 
ATOM     24  C   UNL d   1       0.219  -7.781   1.103  0.00  0.00     0.019 C 
ENDBRANCH  18  21
ENDBRANCH   6  15
BRANCH   7  25
ATOM     25  S   UNL d   1       3.304   1.718  -1.206  0.00  0.00    -0.115 SA
ATOM     26  C   UNL d   1       2.832   3.437  -0.915  0.00  0.00     0.097 C 
ENDBRANCH   7  25
TORSDOF 3
