REMARK  6 active torsions:
REMARK  status: ('A' for Active; 'I' for Inactive)
REMARK    1  A    between atoms: C_7  and  N_1 
REMARK    2  A    between atoms: C_2  and  C_15 
REMARK    3  A    between atoms: C_4  and  N_20 
REMARK    4  A    between atoms: C_17  and  C_6 
REMARK    5  A    between atoms: N_20  and  N_8 
REMARK    6  A    between atoms: C_19  and  N_13 
ROOT
ATOM      1  N   UNL d   1      -4.105   1.674   8.558  0.00  0.00    -0.307 N 
ATOM      2  HN  UNL d   1      -4.166   2.677   8.381  1.00  0.00     0.186 HD
ATOM      3  C   UNL d   1      -3.473   0.886   7.750  0.00  0.00     0.144 C 
ENDROOT
BRANCH   1   4
ATOM      4  N   UNL d   1      -4.687   1.110   9.655  0.00  0.00    -0.276 N 
ATOM      5  H   UNL d   1      -5.193   0.238   9.543  0.00  0.00     0.189 HD
BRANCH   4   6
ATOM      6  C   UNL d   1      -4.860   1.858  10.793  0.00  0.00     0.191 C 
ATOM      7  N   UNL d   1      -5.990   1.657  11.533  0.00  0.00    -0.332 N 
ATOM      8  H   UNL d   1      -5.898   2.042  12.469  0.00  0.00     0.168 HD
ATOM      9  S   UNL d   1      -3.726   2.938  11.391  0.00  0.00    -0.039 SA
BRANCH   7  10
ATOM     10  C   UNL d   1      -7.324   1.466  11.107  0.00  0.00     0.036 A 
ATOM     11  C   UNL d   1      -7.725   1.383   9.771  0.00  0.00     0.055 A 
ATOM     12  C   UNL d   1      -9.087   1.311   9.440  0.00  0.00     0.058 A 
ATOM     13 CL   UNL d   1      -9.497   1.216   7.763  0.00  0.00    -0.082 Cl
ATOM     14  C   UNL d   1     -10.059   1.338  10.444  0.00  0.00     0.055 A 
ATOM     15  C   UNL d   1      -9.665   1.420  11.779  0.00  0.00     0.028 A 
ATOM     16 CL   UNL d   1     -11.752   1.299  10.104  0.00  0.00    -0.083 Cl
ATOM     17  C   UNL d   1      -8.307   1.478  12.106  0.00  0.00     0.031 A 
ENDBRANCH   7  10
ENDBRANCH   4   6
ENDBRANCH   1   4
BRANCH   3  18
ATOM     18  C   UNL d   1      -2.928   1.433   6.540  0.00  0.00     0.093 A 
ATOM     19  O   UNL d   1      -1.821   0.859   5.973  0.00  0.00    -0.309 OA
ATOM     20  C   UNL d   1      -1.484   1.624   4.888  0.00  0.00     0.086 A 
ATOM     21  C   UNL d   1      -2.409   2.635   4.721  0.00  0.00     0.041 A 
ATOM     22  C   UNL d   1      -3.313   2.533   5.800  0.00  0.00     0.041 A 
BRANCH  20  23
ATOM     23  C   UNL d   1      -0.260   1.278   4.179  0.00  0.00    -0.002 A 
ATOM     24  C   UNL d   1      -0.164   1.484   2.793  0.00  0.00     0.017 A 
ATOM     25  C   UNL d   1       1.040   1.263   2.116  0.00  0.00     0.037 A 
ATOM     26  C   UNL d   1       2.166   0.840   2.833  0.00  0.00     0.102 A 
ATOM     27  C   UNL d   1       2.085   0.615   4.212  0.00  0.00     0.037 A 
ATOM     28  C   UNL d   1       0.871   0.828   4.877  0.00  0.00     0.017 A 
BRANCH  26  29
ATOM     29  N   UNL d   1       3.444   0.652   2.135  0.00  0.00    -0.116 N 
ATOM     30  O   UNL d   1       4.423   0.302   2.809  0.00  0.00    -0.532 OA
ATOM     31  O   UNL d   1       3.470   0.859   0.913  0.00  0.00    -0.532 OA
ENDBRANCH  26  29
ENDBRANCH  20  23
ENDBRANCH   3  18
TORSDOF 6
