REMARK  4 active torsions:
REMARK  status: ('A' for Active; 'I' for Inactive)
REMARK    1  A    between atoms: C_11  and  C_1 
REMARK    2  A    between atoms: C_2  and  O_10 
REMARK    3  A    between atoms: S_15  and  C_2 
REMARK    4  A    between atoms: O_10  and  C_11 
ROOT
ATOM      1  C   UNL d   1       0.744   0.769   1.139  0.00  0.00    -0.017 C 
ATOM      2  C   UNL d   1       0.517   0.488  -1.373  0.00  0.00    -0.013 C 
ATOM      3  C   UNL d   1      -1.520   0.284   0.095  0.00  0.00    -0.013 C 
ATOM      4  C   UNL d   1       0.248  -1.510   0.137  0.00  0.00    -0.013 C 
ATOM      5  C   UNL d   1      -0.781   1.035   1.217  0.00  0.00     0.016 C 
ATOM      6  C   UNL d   1       0.980  -0.757   1.260  0.00  0.00     0.016 C 
ATOM      7  C   UNL d   1       1.248   1.240  -0.247  0.00  0.00     0.016 C 
ATOM      8  C   UNL d   1      -0.993   0.760  -1.268  0.00  0.00     0.009 C 
ATOM      9  C   UNL d   1       0.770  -1.021  -1.223  0.00  0.00     0.009 C 
ATOM     10  C   UNL d   1      -1.259  -1.224   0.241  0.00  0.00     0.009 C 
ENDROOT
BRANCH   1  11
ATOM     11  C   UNL d   1       1.494   1.518   2.258  0.00  0.00     0.186 C 
BRANCH  11  12
ATOM     12  O   UNL d   1       1.015   1.058   3.546  0.00  0.00    -0.334 OA
BRANCH  12  13
ATOM     13  C   UNL d   1       1.509   1.505   4.735  0.00  0.00     0.174 C 
ATOM     14  S   UNL d   1       2.717   2.660   4.827  0.00  0.00    -0.045 SA
BRANCH  13  15
ATOM     15  S   UNL d   1       0.816   0.816   6.200  0.00  0.00    -0.098 SA
ATOM     16  C   UNL d   1      -0.386  -0.341   5.516  0.00  0.00     0.098 C 
ENDBRANCH  13  15
ENDBRANCH  12  13
ENDBRANCH  11  12
ENDBRANCH   1  11
TORSDOF 4
