REMARK  2 active torsions:
REMARK  status: ('A' for Active; 'I' for Inactive)
REMARK       I    between atoms: N_2  and  C_1 
REMARK    1  A    between atoms: C_5  and  C_1 
REMARK    2  A    between atoms: C_9  and  N_2 
ROOT
ATOM      1  C   UNL d   1       1.071  -0.014   0.126  0.00  0.00     0.256 C 
ATOM      2  N   UNL d   1       0.439  -0.763  -0.844  0.00  0.00    -0.321 N 
ATOM      3  O   UNL d   1       2.275   0.018   0.348  0.00  0.00    -0.267 OA
ATOM      4  H   UNL d   1      -0.455  -0.426  -1.183  0.00  0.00     0.169 HD
ENDROOT
BRANCH   1   5
ATOM      5  C   UNL d   1       0.187   0.895   0.896  0.00  0.00     0.033 A 
ATOM      6  C   UNL d   1      -1.031   0.423   1.408  0.00  0.00     0.038 A 
ATOM      7  C   UNL d   1      -1.791   1.301   2.203  0.00  0.00     0.033 A 
ATOM      8  S   UNL d   1      -3.292   1.012   3.001  0.00  0.00    -0.083 SA
ATOM      9  C   UNL d   1      -1.378   2.607   2.473  0.00  0.00     0.049 A 
ATOM     10  C   UNL d   1      -3.260   2.608   3.618  0.00  0.00     0.139 A 
ATOM     11  N   UNL d   1      -2.230   3.347   3.275  0.00  0.00    -0.359 N 
ATOM     12  HN  UNL d   1      -2.080   4.316   3.557  1.00  0.00     0.166 HD
ATOM     13  C   UNL d   1      -0.155   3.060   1.934  0.00  0.00     0.032 A 
ATOM     14  C   UNL d   1       0.623   2.195   1.159  0.00  0.00     0.019 A 
ENDBRANCH   1   5
BRANCH   2  15
ATOM     15  C   UNL d   1       1.107  -1.690  -1.682  0.00  0.00     0.056 A 
ATOM     16  C   UNL d   1       0.675  -1.857  -3.006  0.00  0.00     0.060 A 
ATOM     17 CL   UNL d   1      -0.652  -0.942  -3.635  0.00  0.00    -0.082 Cl
ATOM     18  C   UNL d   1       1.350  -2.727  -3.866  0.00  0.00     0.026 A 
ATOM     19  C   UNL d   1       2.432  -3.472  -3.395  0.00  0.00     0.002 A 
ATOM     20  C   UNL d   1       2.838  -3.345  -2.068  0.00  0.00     0.002 A 
ATOM     21  C   UNL d   1       2.183  -2.450  -1.217  0.00  0.00     0.031 A 
ENDBRANCH   2  15
TORSDOF 2
