REMARK  2 active torsions:
REMARK  status: ('A' for Active; 'I' for Inactive)
REMARK    1  A    between atoms: N_2  and  C_1 
REMARK    2  A    between atoms: C_3  and  N_2 
ROOT
ATOM      1  C   UNL d   1       0.997   1.405  -2.224  0.00  0.00     0.056 A 
ATOM      2  C   UNL d   1       2.130   0.823  -2.825  0.00  0.00     0.062 A 
ATOM      3  C   UNL d   1       2.875   1.517  -3.780  0.00  0.00     0.050 A 
ATOM      4  C   UNL d   1       0.662   2.721  -2.563  0.00  0.00     0.033 A 
ATOM      5  C   UNL d   1       2.509   2.816  -4.121  0.00  0.00     0.035 A 
ATOM      6 CL   UNL d   1       2.622  -0.788  -2.425  0.00  0.00    -0.082 Cl
ATOM      7  C   UNL d   1       1.415   3.423  -3.512  0.00  0.00     0.026 A 
ATOM      8 CL   UNL d   1       3.425   3.683  -5.290  0.00  0.00    -0.084 Cl
ENDROOT
BRANCH   1   9
ATOM      9  N   UNL d   1       0.285   0.665  -1.251  0.00  0.00    -0.332 N 
ATOM     10  H   UNL d   1       0.788  -0.128  -0.860  0.00  0.00     0.168 HD
BRANCH   9  11
ATOM     11  C   UNL d   1      -0.951   0.838  -0.727  0.00  0.00     0.170 C 
ATOM     12  S   UNL d   1      -1.405   0.056   0.667  0.00  0.00    -0.041 SA
ATOM     13  N   UNL d   1      -1.841   1.606  -1.389  0.00  0.00    -0.376 N 
ATOM     14  H   UNL d   1      -1.769   1.638  -2.398  0.00  0.00     0.158 HD
ATOM     15  H   UNL d   1      -2.791   1.587  -1.034  0.00  0.00     0.158 HD
ENDBRANCH   9  11
ENDBRANCH   1   9
TORSDOF 2
