REMARK  2 active torsions:
REMARK  status: ('A' for Active; 'I' for Inactive)
REMARK       I    between atoms: N_2  and  C_1 
REMARK       I    between atoms: N_6  and  C_1 
REMARK    1  A    between atoms: C_3  and  N_2 
REMARK    2  A    between atoms: C_9  and  N_6 
ROOT
ATOM      1  C   UNL d   1       1.056  -0.463  -0.327  0.00  0.00     0.325 C 
ATOM      2  N   UNL d   1       2.378  -0.678   0.061  0.00  0.00    -0.303 N 
ATOM      3  N   UNL d   1       0.202  -0.664   0.754  0.00  0.00    -0.309 N 
ATOM      4  O   UNL d   1       0.709  -0.182  -1.463  0.00  0.00    -0.247 OA
ATOM      5  H   UNL d   1       2.511  -1.368   0.783  0.00  0.00     0.171 HD
ATOM      6  H   UNL d   1       0.631  -0.634   1.664  0.00  0.00     0.170 HD
ENDROOT
BRANCH   3   7
ATOM      7  C   UNL d   1      -1.208  -0.737   0.717  0.00  0.00     0.039 A 
ATOM      8  C   UNL d   1      -1.953  -0.746  -0.465  0.00  0.00     0.069 A 
ATOM      9  C   UNL d   1      -3.347  -0.795  -0.425  0.00  0.00     0.104 A 
ATOM     10  O   UNL d   1      -3.996  -0.766  -1.634  0.00  0.00    -0.346 OA
ATOM     11  C   UNL d   1      -4.014  -0.878   0.799  0.00  0.00     0.102 A 
ATOM     12  C   UNL d   1      -5.377  -0.429  -1.473  0.00  0.00     0.202 C 
ATOM     13  C   UNL d   1      -5.996  -1.243  -0.349  0.00  0.00     0.202 C 
ATOM     14  O   UNL d   1      -5.379  -0.941   0.909  0.00  0.00    -0.346 OA
ATOM     15  C   UNL d   1      -3.284  -0.887   1.983  0.00  0.00     0.042 A 
ATOM     16  C   UNL d   1      -1.886  -0.821   1.943  0.00  0.00     0.032 A 
ENDBRANCH   3   7
BRANCH   2  17
ATOM     17  C   UNL d   1       3.358  -0.664  -0.907  0.00  0.00     0.077 A 
ATOM     18  S   UNL d   1       4.458  -1.953  -0.809  0.00  0.00    -0.084 SA
ATOM     19  C   UNL d   1       5.176  -1.508  -2.301  0.00  0.00     0.052 A 
ATOM     20  C   UNL d   1       4.665  -0.320  -2.783  0.00  0.00     0.010 A 
ATOM     21  C   UNL d   1       3.597   0.170  -1.972  0.00  0.00     0.038 A 
ENDBRANCH   2  17
TORSDOF 2
