REMARK  6 active torsions:
REMARK  status: ('A' for Active; 'I' for Inactive)
REMARK    1  A    between atoms: C_11  and  C_3 
REMARK    2  A    between atoms: C_12  and  C_6 
REMARK    3  A    between atoms: O_16  and  C_12 
REMARK    4  A    between atoms: N_13  and  O_16 
REMARK    5  A    between atoms: C_22  and  C_20 
REMARK    6  A    between atoms: O_28  and  C_23 
ROOT
ATOM      1  C   UNL d   1       0.244   0.591   0.357  0.00  0.00     0.172 A 
ATOM      2  N   UNL d   1      -0.026  -0.741   0.239  0.00  0.00    -0.235 N 
ATOM      3  C   UNL d   1      -1.836   0.315   0.427  0.00  0.00     0.207 A 
ATOM      4  N   UNL d   1      -0.842   1.302   0.477  0.00  0.00    -0.316 N 
ATOM      5  HN  UNL d   1      -0.942   2.311   0.580  1.00  0.00     0.169 HD
ATOM      6  C   UNL d   1       2.227  -0.833   0.118  0.00  0.00     0.109 A 
ATOM      7  N   UNL d   1      -1.354  -0.944   0.283  0.00  0.00    -0.273 N 
ATOM      8  HN  UNL d   1      -1.869  -1.823   0.223  1.00  0.00     0.189 HD
ATOM      9  C   UNL d   1       1.083  -1.556   0.104  0.00  0.00     0.056 A 
ATOM     10  S   UNL d   1       1.952   0.904   0.304  0.00  0.00    -0.044 SA
ATOM     11  C   UNL d   1       0.908  -3.031  -0.036  0.00  0.00     0.072 C 
ENDROOT
BRANCH   6  12
ATOM     12  C   UNL d   1       3.575  -1.439  -0.013  0.00  0.00     0.324 C 
ATOM     13  O   UNL d   1       3.704  -2.657  -0.134  0.00  0.00    -0.257 OA
BRANCH  12  14
ATOM     14  O   UNL d   1       4.610  -0.536   0.013  0.00  0.00    -0.195 OA
BRANCH  14  15
ATOM     15  N   UNL d   1       5.816  -1.260  -0.139  0.00  0.00    -0.268 N 
ATOM     16  C   UNL d   1       6.861  -0.499  -0.111  0.00  0.00     0.126 C 
ATOM     17  HN  UNL d   1       5.856  -2.272  -0.258  1.00  0.00     0.194 HD
BRANCH  16  18
ATOM     18  C   UNL d   1       8.217  -1.087  -0.257  0.00  0.00    -0.019 A 
ATOM     19  C   UNL d   1       8.382  -2.469  -0.428  0.00  0.00     0.015 A 
ATOM     20  C   UNL d   1       9.661  -3.022  -0.565  0.00  0.00     0.037 A 
ATOM     21  C   UNL d   1      10.787  -2.200  -0.527  0.00  0.00     0.068 A 
ATOM     22  C   UNL d   1      10.616  -0.821  -0.359  0.00  0.00     0.037 A 
ATOM     23  C   UNL d   1       9.339  -0.260  -0.224  0.00  0.00     0.015 A 
BRANCH  21  24
ATOM     24  O   UNL d   1      12.087  -2.609  -0.637  0.00  0.00    -0.356 OA
ATOM     25  C   UNL d   1      12.319  -4.003  -0.814  0.00  0.00     0.210 C 
ENDBRANCH  21  24
ENDBRANCH  16  18
ENDBRANCH  14  15
ENDBRANCH  12  14
ENDBRANCH   6  12
BRANCH   3  26
ATOM     26  C   UNL d   1      -3.323   0.609   0.519  0.00  0.00     0.450 C 
ATOM     27  F   UNL d   1      -3.596   1.932   0.673  0.00  0.00    -0.163 F 
ATOM     28  F   UNL d   1      -3.993   0.204  -0.596  0.00  0.00    -0.163 F 
ATOM     29  F   UNL d   1      -3.906  -0.030   1.572  0.00  0.00    -0.163 F 
ENDBRANCH   3  26
TORSDOF 6
