REMARK  5 active torsions:
REMARK  status: ('A' for Active; 'I' for Inactive)
REMARK    1  A    between atoms: C_13  and  C_5 
REMARK    2  A    between atoms: S_12  and  C_8 
REMARK    3  A    between atoms: O_18  and  C_9 
REMARK    4  A    between atoms: C_10  and  C_11 
REMARK    5  A    between atoms: C_11  and  S_12 
ROOT
ATOM      1  N   UNL d   1      -0.643   1.233   0.018  0.00  0.00    -0.322 N 
ATOM      2  HN  UNL d   1      -1.118   2.135   0.005  1.00  0.00     0.169 HD
ATOM      3  N   UNL d   1      -0.725  -1.132   0.080  0.00  0.00    -0.307 N 
ATOM      4  HN  UNL d   1      -1.253  -2.004   0.111  1.00  0.00     0.171 HD
ATOM      5  C   UNL d   1      -1.306   0.066   0.051  0.00  0.00     0.120 A 
ATOM      6  N   UNL d   1       1.363  -0.026   0.024  0.00  0.00    -0.302 N 
ATOM      7  HN  UNL d   1       2.382  -0.076   0.009  1.00  0.00     0.171 HD
ATOM      8  C   UNL d   1       0.688   1.121   0.002  0.00  0.00     0.149 A 
ATOM      9  C   UNL d   1       0.590  -1.090   0.066  0.00  0.00     0.224 A 
ENDROOT
BRANCH   8  10
ATOM     10  S   UNL d   1       1.707   2.571  -0.170  0.00  0.00    -0.089 SA
BRANCH  10  11
ATOM     11  C   UNL d   1       0.721   3.821   0.710  0.00  0.00     0.126 C 
BRANCH  11  12
ATOM     12  C   UNL d   1       1.493   5.114   0.870  0.00  0.00     0.012 A 
ATOM     13  C   UNL d   1       1.406   6.092  -0.130  0.00  0.00     0.125 A 
ATOM     14  F   UNL d   1       0.632   5.879  -1.203  0.00  0.00    -0.205 F 
ATOM     15  C   UNL d   1       2.102   7.300  -0.051  0.00  0.00     0.043 A 
ATOM     16  C   UNL d   1       2.915   7.558   1.047  0.00  0.00     0.005 A 
ATOM     17  C   UNL d   1       3.029   6.601   2.054  0.00  0.00     0.024 A 
ATOM     18  C   UNL d   1       2.329   5.386   1.964  0.00  0.00     0.044 A 
ATOM     19 CL   UNL d   1       2.543   4.257   3.254  0.00  0.00    -0.084 Cl
ENDBRANCH  11  12
ENDBRANCH  10  11
ENDBRANCH   8  10
BRANCH   9  20
ATOM     20  O   UNL d   1       1.249  -2.279   0.082  0.00  0.00    -0.332 OA
ATOM     21  H   UNL d   1       2.168  -1.963   0.050  0.00  0.00     0.221 HD
ENDBRANCH   9  20
BRANCH   5  22
ATOM     22  C   UNL d   1      -2.788   0.082   0.050  0.00  0.00     0.008 A 
ATOM     23  C   UNL d   1      -3.534  -1.118   0.110  0.00  0.00     0.017 A 
ATOM     24  C   UNL d   1      -4.934  -1.121   0.120  0.00  0.00     0.025 A 
ATOM     25  C   UNL d   1      -5.622   0.085   0.067  0.00  0.00     0.034 A 
ATOM     26  C   UNL d   1      -4.923   1.285  -0.002  0.00  0.00     0.025 A 
ATOM     27 CL   UNL d   1      -7.343   0.091   0.086  0.00  0.00    -0.084 Cl
ATOM     28  C   UNL d   1      -3.520   1.282  -0.011  0.00  0.00     0.017 A 
ENDBRANCH   5  22
TORSDOF 5
