REMARK  4 active torsions:
REMARK  status: ('A' for Active; 'I' for Inactive)
REMARK    1  A    between atoms: S_9  and  C_5 
REMARK    2  A    between atoms: S_10  and  C_6 
REMARK    3  A    between atoms: C_13  and  S_9 
REMARK    4  A    between atoms: C_14  and  S_10 
ROOT
ATOM      1  N   UNL d   1       1.238   1.460  -0.030  0.00  0.00    -0.347 N 
ATOM      2  HN  UNL d   1       1.244   2.480  -0.034  1.00  0.00     0.167 HD
ATOM      3  N   UNL d   1       1.217  -1.355   0.006  0.00  0.00    -0.347 N 
ATOM      4  HN  UNL d   1       1.209  -2.374   0.032  1.00  0.00     0.167 HD
ATOM      5  C   UNL d   1       2.396   0.744  -0.064  0.00  0.00     0.104 A 
ATOM      6  C   UNL d   1       2.383  -0.661  -0.046  0.00  0.00     0.104 A 
ATOM      7  C   UNL d   1       0.082   0.764   0.007  0.00  0.00     0.060 A 
ATOM      8  C   UNL d   1       0.077  -0.651   0.021  0.00  0.00     0.060 A 
ATOM      9  C   UNL d   1      -1.140   1.427   0.022  0.00  0.00     0.032 A 
ATOM     10  C   UNL d   1      -1.132  -1.335   0.039  0.00  0.00     0.032 A 
ATOM     11  C   UNL d   1      -2.353   0.731   0.035  0.00  0.00     0.002 A 
ATOM     12  C   UNL d   1      -2.348  -0.656   0.044  0.00  0.00     0.002 A 
ENDROOT
BRANCH   5  13
ATOM     13  S   UNL d   1       3.915   1.678  -0.251  0.00  0.00    -0.110 SA
BRANCH  13  14
ATOM     14  C   UNL d   1       3.458   3.291   0.455  0.00  0.00     0.076 C 
ATOM     15  C   UNL d   1       4.664   4.216   0.371  0.00  0.00     0.016 C 
ENDBRANCH  13  14
ENDBRANCH   5  13
BRANCH   6  16
ATOM     16  S   UNL d   1       3.865  -1.667  -0.041  0.00  0.00    -0.110 SA
BRANCH  16  17
ATOM     17  C   UNL d   1       3.220  -3.192  -0.799  0.00  0.00     0.076 C 
ATOM     18  C   UNL d   1       4.326  -4.228  -0.899  0.00  0.00     0.016 C 
ENDBRANCH  16  17
ENDBRANCH   6  16
TORSDOF 4
