REMARK  8 active torsions:
REMARK  status: ('A' for Active; 'I' for Inactive)
REMARK       I    between atoms: N_6  and  C_1 
REMARK    1  A    between atoms: C_7  and  C_1 
REMARK    2  A    between atoms: C_3  and  C_7 
REMARK    3  A    between atoms: C_8  and  C_3 
REMARK    4  A    between atoms: C_11  and  C_3 
REMARK    5  A    between atoms: C_4  and  C_8 
REMARK    6  A    between atoms: O_13  and  C_4 
REMARK    7  A    between atoms: C_12  and  N_6 
REMARK    8  A    between atoms: C_19  and  C_14 
ROOT
ATOM      1  N   UNL d   1       7.737   4.067  -1.719  0.00  0.00    -0.197 NA
ATOM      2  C   UNL d   1       7.351   3.764  -0.666  0.00  0.00     0.063 C 
ATOM      3  C   UNL d   1       6.885   3.391   0.678  0.00  0.00     0.162 C 
ENDROOT
BRANCH   3   4
ATOM      4  C   UNL d   1       5.709   2.446   0.639  0.00  0.00    -0.045 A 
ATOM      5  C   UNL d   1       5.905   1.060   0.593  0.00  0.00     0.010 A 
ATOM      6  C   UNL d   1       4.813   0.194   0.484  0.00  0.00     0.030 A 
ATOM      7  C   UNL d   1       3.506   0.693   0.423  0.00  0.00     0.034 A 
ATOM      8  C   UNL d   1       3.307   2.070   0.490  0.00  0.00     0.030 A 
ATOM      9  C   UNL d   1       4.398   2.941   0.592  0.00  0.00     0.010 A 
BRANCH   7  10
ATOM     10  N   UNL d   1       2.468  -0.242   0.244  0.00  0.00    -0.327 N 
ATOM     11  C   UNL d   1       1.103   0.000   0.232  0.00  0.00     0.222 C 
ATOM     12  O   UNL d   1       0.541   1.045   0.536  0.00  0.00    -0.273 OA
ATOM     13  H   UNL d   1       2.762  -1.197   0.085  0.00  0.00     0.169 HD
BRANCH  11  14
ATOM     14  C   UNL d   1       0.334  -1.252  -0.163  0.00  0.00     0.113 C 
BRANCH  14  15
ATOM     15  C   UNL d   1      -1.187  -1.050  -0.348  0.00  0.00     0.037 C 
BRANCH  15  16
ATOM     16  C   UNL d   1      -1.528  -0.072  -1.494  0.00  0.00     0.119 C 
BRANCH  16  17
ATOM     17  C   UNL d   1      -1.071  -0.563  -2.845  0.00  0.00     0.140 C 
ATOM     18  O   UNL d   1       0.066  -0.422  -3.268  0.00  0.00    -0.650 OA
BRANCH  17  19
ATOM     19  O   UNL d   1      -2.026  -1.207  -3.549  0.00  0.00    -0.776 OA
ATOM     20  H   UNL d   1      -2.861  -1.339  -3.060  0.00  0.00     0.167 HD
ENDBRANCH  17  19
ENDBRANCH  16  17
ENDBRANCH  15  16
BRANCH  15  21
ATOM     21  C   UNL d   1      -1.970  -2.359  -0.499  0.00  0.00    -0.053 A 
ATOM     22  C   UNL d   1      -1.346  -3.605  -0.675  0.00  0.00     0.007 A 
ATOM     23  C   UNL d   1      -2.097  -4.776  -0.811  0.00  0.00     0.001 A 
ATOM     24  C   UNL d   1      -3.486  -4.722  -0.794  0.00  0.00     0.000 A 
ATOM     25  C   UNL d   1      -4.127  -3.499  -0.625  0.00  0.00     0.001 A 
ATOM     26  C   UNL d   1      -3.377  -2.330  -0.464  0.00  0.00     0.007 A 
ENDBRANCH  15  21
ENDBRANCH  14  15
ENDBRANCH  11  14
ENDBRANCH   7  10
ENDBRANCH   3   4
TORSDOF 8
