REMARK  5 active torsions:
REMARK  status: ('A' for Active; 'I' for Inactive)
REMARK    1  A    between atoms: S_2  and  C_1 
REMARK    2  A    between atoms: N_7  and  S_2 
REMARK    3  A    between atoms: C_8  and  C_3 
REMARK    4  A    between atoms: O_12  and  C_4 
REMARK    5  A    between atoms: O_13  and  C_8 
ROOT
ATOM      1  C   UNL d   1       0.266   1.425   0.257  0.00  0.00     0.149 A 
ATOM      2  C   UNL d   1       1.528  -0.573   0.153  0.00  0.00     0.081 A 
ATOM      3  C   UNL d   1       1.519   0.869   0.015  0.00  0.00     0.114 A 
ATOM      4  S   UNL d   1      -0.870   0.201   0.671  0.00  0.00    -0.085 SA
ATOM      5  C   UNL d   1       0.266  -1.041   0.464  0.00  0.00     0.071 A 
ENDROOT
BRANCH   1   6
ATOM      6  S   UNL d   1      -0.443   3.061   0.115  0.00  0.00     0.253 S 
ATOM      7  O   UNL d   1      -0.118   3.469  -1.236  0.00  0.00    -0.205 OA
ATOM      8  O   UNL d   1      -1.821   2.998   0.556  0.00  0.00    -0.205 OA
BRANCH   6   9
ATOM      9  N   UNL d   1       0.369   4.122   1.181  0.00  0.00    -0.206 NA
ATOM     10  C   UNL d   1       0.116   3.930   2.630  0.00  0.00     0.107 C 
ATOM     11  C   UNL d   1      -0.854   5.034   3.006  0.00  0.00     0.017 C 
ATOM     12  C   UNL d   1      -0.426   6.199   2.137  0.00  0.00     0.017 C 
ATOM     13  C   UNL d   1       0.147   5.567   0.875  0.00  0.00     0.107 C 
ENDBRANCH   6   9
ENDBRANCH   1   6
BRANCH   3  14
ATOM     14  O   UNL d   1       2.623   1.510  -0.452  0.00  0.00    -0.353 OA
ATOM     15  C   UNL d   1       2.907   2.785   0.098  0.00  0.00     0.210 C 
ENDBRANCH   3  14
BRANCH   2  16
ATOM     16  C   UNL d   1       2.653  -1.501  -0.020  0.00  0.00     0.296 C 
ATOM     17  O   UNL d   1       2.510  -2.721   0.013  0.00  0.00    -0.259 OA
BRANCH  16  18
ATOM     18  O   UNL d   1       3.853  -0.881  -0.166  0.00  0.00    -0.322 OA
ATOM     19  C   UNL d   1       4.967  -1.766  -0.292  0.00  0.00     0.213 C 
ENDBRANCH  16  18
ENDBRANCH   2  16
TORSDOF 5
