REMARK  4 active torsions:
REMARK  status: ('A' for Active; 'I' for Inactive)
REMARK    1  A    between atoms: C_12  and  C_1 
REMARK    2  A    between atoms: O_15  and  C_3 
REMARK    3  A    between atoms: N_5  and  N_8 
REMARK    4  A    between atoms: N_13  and  C_11 
ROOT
ATOM      1  C   UNL d   1      -0.012   2.039   0.003  0.00  0.00     0.017 A 
ATOM      2  C   UNL d   1      -0.927  -0.201  -0.005  0.00  0.00     0.069 A 
ATOM      3  C   UNL d   1      -1.120   1.185  -0.005  0.00  0.00     0.099 A 
ATOM      4  C   UNL d   1       0.359  -0.740   0.002  0.00  0.00     0.050 A 
ATOM      5  C   UNL d   1       1.282   1.501   0.009  0.00  0.00     0.039 A 
ATOM      6  C   UNL d   1       1.457   0.118   0.009  0.00  0.00     0.036 A 
ATOM      7 CL   UNL d   1      -2.283  -1.270  -0.015  0.00  0.00    -0.081 Cl
ATOM      8 CL   UNL d   1       3.047  -0.540   0.018  0.00  0.00    -0.084 Cl
ENDROOT
BRANCH   1   9
ATOM      9  C   UNL d   1      -0.195   3.504   0.006  0.00  0.00     0.121 C 
ATOM     10  N   UNL d   1       0.813   4.322   0.014  0.00  0.00    -0.310 N 
ATOM     11  HN  UNL d   1       1.793   4.039   0.017  1.00  0.00     0.186 HD
BRANCH  10  12
ATOM     12  N   UNL d   1       0.364   5.639   0.017  0.00  0.00    -0.297 N 
ATOM     13  C   UNL d   1       1.344   6.485   0.026  0.00  0.00     0.194 C 
ATOM     14  HN  UNL d   1      -0.620   5.906   0.012  1.00  0.00     0.187 HD
BRANCH  13  15
ATOM     15  N   UNL d   1       1.239   7.857   0.032  0.00  0.00    -0.385 N 
ATOM     16  C   UNL d   1      -0.056   8.515   0.029  0.00  0.00     0.149 C 
ATOM     17  C   UNL d   1       2.399   8.728   0.040  0.00  0.00     0.149 C 
ENDBRANCH  13  15
ENDBRANCH  10  12
ENDBRANCH   1   9
BRANCH   3  18
ATOM     18  O   UNL d   1      -2.386   1.709  -0.012  0.00  0.00    -0.358 OA
ATOM     19  H   UNL d   1      -3.019   0.967  -0.018  0.00  0.00     0.217 HD
ENDBRANCH   3  18
TORSDOF 4
