REMARK  4 active torsions:
REMARK  status: ('A' for Active; 'I' for Inactive)
REMARK    1  A    between atoms: C_3  and  C_1 
REMARK    2  A    between atoms: C_6  and  C_2 
REMARK       I    between atoms: N_8  and  C_3 
REMARK    3  A    between atoms: C_10  and  N_8 
REMARK       I    between atoms: C_12  and  N_13 
REMARK    4  A    between atoms: N_13  and  C_15 
ROOT
ATOM      1  C   UNL d   1       0.323  -2.352   0.377  0.00  0.00     0.261 C 
ATOM      2  N   UNL d   1      -0.322  -3.574   0.267  0.00  0.00    -0.322 N 
ATOM      3  O   UNL d   1      -0.210  -1.279   0.102  0.00  0.00    -0.267 OA
ATOM      4  H   UNL d   1      -0.034  -4.249   0.965  0.00  0.00     0.169 HD
ENDROOT
BRANCH   1   5
ATOM      5  C   UNL d   1       1.694  -2.428   0.861  0.00  0.00     0.093 A 
ATOM      6  C   UNL d   1       2.488  -1.522   1.666  0.00  0.00     0.085 A 
ATOM      7  N   UNL d   1       3.755  -1.968   1.705  0.00  0.00    -0.259 N 
ATOM      8  O   UNL d   1       3.793  -3.170   1.065  0.00  0.00    -0.241 OA
ATOM      9  HN  UNL d   1       4.547  -1.492   2.137  1.00  0.00     0.195 HD
ATOM     10  C   UNL d   1       2.574  -3.457   0.560  0.00  0.00     0.090 A 
ATOM     11  C   UNL d   1       2.498  -4.722  -0.201  0.00  0.00     0.080 C 
BRANCH   6  12
ATOM     12  C   UNL d   1       2.160  -0.276   2.394  0.00  0.00     0.015 A 
ATOM     13  C   UNL d   1       2.748   0.055   3.639  0.00  0.00     0.046 A 
ATOM     14 CL   UNL d   1       3.809  -0.996   4.526  0.00  0.00    -0.083 Cl
ATOM     15  C   UNL d   1       2.473   1.281   4.270  0.00  0.00     0.025 A 
ATOM     16  C   UNL d   1       1.584   2.185   3.702  0.00  0.00     0.002 A 
ATOM     17  C   UNL d   1       0.979   1.872   2.492  0.00  0.00     0.001 A 
ATOM     18  C   UNL d   1       1.282   0.669   1.838  0.00  0.00     0.015 A 
ENDBRANCH   6  12
ENDBRANCH   1   5
BRANCH   2  19
ATOM     19  C   UNL d   1      -1.660  -3.689  -0.181  0.00  0.00     0.043 A 
ATOM     20  C   UNL d   1      -2.532  -4.379   0.673  0.00  0.00     0.059 A 
ATOM     21  C   UNL d   1      -3.901  -4.423   0.415  0.00  0.00     0.036 A 
ATOM     22  C   UNL d   1      -4.383  -3.871  -0.773  0.00  0.00     0.030 A 
ATOM     23  C   UNL d   1      -3.506  -3.255  -1.671  0.00  0.00     0.011 A 
ATOM     24  C   UNL d   1      -2.134  -3.157  -1.391  0.00  0.00    -0.035 A 
ATOM     25  C   UNL d   1      -1.260  -2.489  -2.417  0.00  0.00     0.050 C 
BRANCH  21  26
ATOM     26  N   UNL d   1      -4.851  -4.929   1.329  0.00  0.00    -0.327 N 
ATOM     27  C   UNL d   1      -4.606  -5.408   2.604  0.00  0.00     0.218 C 
ATOM     28  O   UNL d   1      -3.509  -5.628   3.108  0.00  0.00    -0.274 OA
ATOM     29  C   UNL d   1      -5.865  -5.653   3.395  0.00  0.00     0.117 C 
ATOM     30  H   UNL d   1      -5.818  -4.846   1.046  0.00  0.00     0.169 HD
ENDBRANCH  21  26
ENDBRANCH   2  19
TORSDOF 4
