REMARK  4 active torsions:
REMARK  status: ('A' for Active; 'I' for Inactive)
REMARK    1  A    between atoms: C_3  and  S_1 
REMARK    2  A    between atoms: N_8  and  S_1 
REMARK       I    between atoms: C_2  and  N_6 
REMARK       I    between atoms: N_7  and  C_2 
REMARK    3  A    between atoms: N_6  and  C_12 
REMARK    4  A    between atoms: C_13  and  N_7 
ROOT
ATOM      1  C   UNL d   1      -1.292   2.220   0.749  0.00  0.00     0.074 A 
ATOM      2  C   UNL d   1      -0.659   3.439   1.004  0.00  0.00     0.027 A 
ATOM      3  C   UNL d   1      -1.437   1.277   1.763  0.00  0.00     0.027 A 
ATOM      4  C   UNL d   1      -0.450   2.833   3.354  0.00  0.00     0.036 A 
ATOM      5  C   UNL d   1      -0.236   3.740   2.305  0.00  0.00     0.031 A 
ATOM      6  C   UNL d   1      -1.007   1.584   3.056  0.00  0.00     0.031 A 
ENDROOT
BRANCH   4   7
ATOM      7  N   UNL d   1      -0.168   3.274   4.670  0.00  0.00    -0.309 N 
ATOM      8  C   UNL d   1      -0.476   2.594   5.843  0.00  0.00     0.325 C 
ATOM      9  N   UNL d   1      -0.385   3.421   6.953  0.00  0.00    -0.309 N 
ATOM     10  O   UNL d   1      -0.833   1.422   5.883  0.00  0.00    -0.247 OA
ATOM     11  H   UNL d   1      -0.057   4.362   6.803  0.00  0.00     0.170 HD
ATOM     12  H   UNL d   1       0.188   4.212   4.762  0.00  0.00     0.170 HD
BRANCH   9  13
ATOM     13  C   UNL d   1      -0.810   3.114   8.269  0.00  0.00     0.036 A 
ATOM     14  C   UNL d   1      -1.331   1.872   8.650  0.00  0.00     0.029 A 
ATOM     15  C   UNL d   1      -1.786   1.653   9.953  0.00  0.00     0.002 A 
ATOM     16  C   UNL d   1      -1.723   2.674  10.895  0.00  0.00     0.000 A 
ATOM     17  C   UNL d   1      -1.193   3.912  10.535  0.00  0.00     0.002 A 
ATOM     18  C   UNL d   1      -0.737   4.129   9.231  0.00  0.00     0.029 A 
ENDBRANCH   9  13
ENDBRANCH   4   7
BRANCH   1  19
ATOM     19  S   UNL d   1      -2.018   1.899  -0.830  0.00  0.00     0.239 S 
ATOM     20  O   UNL d   1      -1.601   2.921  -1.761  0.00  0.00    -0.206 OA
ATOM     21  O   UNL d   1      -3.404   1.543  -0.637  0.00  0.00    -0.206 OA
BRANCH  19  22
ATOM     22  N   UNL d   1      -1.240   0.497  -1.329  0.00  0.00    -0.225 NA
ATOM     23  H   UNL d   1      -0.703   0.691  -2.174  0.00  0.00     0.136 HD
ATOM     24  H   UNL d   1      -1.929  -0.248  -1.446  0.00  0.00     0.136 HD
ENDBRANCH  19  22
ENDBRANCH   1  19
TORSDOF 4
