REMARK  3 active torsions:
REMARK  status: ('A' for Active; 'I' for Inactive)
REMARK       I    between atoms: C_2  and  N_1 
REMARK    1  A    between atoms: C_3  and  C_2 
REMARK    2  A    between atoms: O_19  and  C_12 
REMARK    3  A    between atoms: O_20  and  C_15 
ROOT
ATOM      1  N   UNL d   1      -2.462   0.688  -0.303  0.00  0.00    -0.337 N 
ATOM      2  C   UNL d   1      -3.389   1.084  -1.273  0.00  0.00     0.280 C 
ATOM      3  C   UNL d   1      -0.012   0.646   0.070  0.00  0.00    -0.026 A 
ATOM      4  C   UNL d   1      -1.289   1.466   0.116  0.00  0.00     0.117 C 
ATOM      5  C   UNL d   1      -0.024  -0.752  -0.015  0.00  0.00    -0.045 A 
ATOM      6  C   UNL d   1       1.216   1.326   0.085  0.00  0.00     0.049 A 
ATOM      7  C   UNL d   1      -2.538  -0.660   0.261  0.00  0.00     0.131 C 
ATOM      8  C   UNL d   1       2.428   0.639   0.007  0.00  0.00     0.102 A 
ATOM      9  C   UNL d   1       1.195  -1.448  -0.066  0.00  0.00     0.047 A 
ATOM     10  C   UNL d   1       2.422  -0.766  -0.044  0.00  0.00     0.102 A 
ATOM     11  O   UNL d   1      -4.223   0.277  -1.697  0.00  0.00    -0.265 OA
ATOM     12  C   UNL d   1      -1.328  -1.503  -0.147  0.00  0.00     0.059 C 
ATOM     13  C   UNL d   1      -1.510   2.078   1.503  0.00  0.00     0.037 C 
ENDROOT
BRANCH   2  14
ATOM     14  C   UNL d   1      -3.350   2.428  -1.818  0.00  0.00     0.167 A 
ATOM     15  O   UNL d   1      -2.876   3.477  -1.084  0.00  0.00    -0.233 OA
ATOM     16  N   UNL d   1      -2.892   4.633  -1.843  0.00  0.00    -0.272 N 
ATOM     17  C   UNL d   1      -3.457   4.284  -3.001  0.00  0.00     0.117 A 
ATOM     18  HN  UNL d   1      -2.547   5.555  -1.576  1.00  0.00     0.194 HD
ATOM     19  C   UNL d   1      -3.794   2.921  -3.029  0.00  0.00     0.064 A 
ENDBRANCH   2  14
BRANCH   8  20
ATOM     20  O   UNL d   1       3.646   1.277   0.014  0.00  0.00    -0.353 OA
ATOM     21  C   UNL d   1       3.657   2.608  -0.495  0.00  0.00     0.210 C 
ENDBRANCH   8  20
BRANCH  10  22
ATOM     22  O   UNL d   1       3.649  -1.379  -0.096  0.00  0.00    -0.353 OA
ATOM     23  C   UNL d   1       3.667  -2.800  -0.138  0.00  0.00     0.210 C 
ENDBRANCH  10  22
TORSDOF 3
