REMARK  2 active torsions:
REMARK  status: ('A' for Active; 'I' for Inactive)
REMARK       I    between atoms: N_2  and  C_1 
REMARK       I    between atoms: N_3  and  C_1 
REMARK    1  A    between atoms: C_4  and  N_2 
REMARK    2  A    between atoms: C_7  and  N_3 
ROOT
ATOM      1  N   UNL d   1      -1.981   0.624  -0.134  0.00  0.00    -0.342 N 
ATOM      2  HN  UNL d   1      -1.498   0.958   0.700  1.00  0.00     0.167 HD
ATOM      3  C   UNL d   1      -1.286   0.118  -1.173  0.00  0.00     0.109 A 
ATOM      4  C   UNL d   1      -3.322   0.678  -0.215  0.00  0.00     0.043 A 
ATOM      5  C   UNL d   1      -4.032   0.160  -1.316  0.00  0.00    -0.009 A 
ATOM      6  C   UNL d   1      -3.293  -0.418  -2.353  0.00  0.00     0.017 A 
ATOM      7  C   UNL d   1      -1.902  -0.424  -2.291  0.00  0.00     0.049 A 
ATOM      8  C   UNL d   1      -4.040   1.289   0.804  0.00  0.00     0.030 A 
ATOM      9  C   UNL d   1      -5.435   0.246  -1.357  0.00  0.00     0.013 A 
ATOM     10  C   UNL d   1      -5.432   1.395   0.758  0.00  0.00     0.002 A 
ATOM     11  C   UNL d   1      -6.131   0.867  -0.322  0.00  0.00     0.001 A 
ENDROOT
BRANCH   3  12
ATOM     12  N   UNL d   1       0.110   0.187  -1.163  0.00  0.00    -0.294 N 
ATOM     13  C   UNL d   1       0.932   0.656  -0.174  0.00  0.00     0.326 C 
ATOM     14  N   UNL d   1       0.364   0.806   1.061  0.00  0.00    -0.303 N 
ATOM     15  O   UNL d   1       2.121   0.839  -0.447  0.00  0.00    -0.247 OA
ATOM     16  H   UNL d   1      -0.583   0.460   1.176  0.00  0.00     0.171 HD
ATOM     17  H   UNL d   1       0.608  -0.041  -2.011  0.00  0.00     0.172 HD
BRANCH  14  18
ATOM     18  C   UNL d   1       1.050   1.210   2.174  0.00  0.00     0.077 A 
ATOM     19  S   UNL d   1       0.317   0.782   3.645  0.00  0.00    -0.084 SA
ATOM     20  C   UNL d   1       1.635   1.415   4.539  0.00  0.00     0.052 A 
ATOM     21  C   UNL d   1       2.560   2.030   3.723  0.00  0.00     0.010 A 
ATOM     22  C   UNL d   1       2.225   1.898   2.342  0.00  0.00     0.038 A 
ENDBRANCH  14  18
ENDBRANCH   3  12
TORSDOF 2
