REMARK  3 active torsions:
REMARK  status: ('A' for Active; 'I' for Inactive)
REMARK    1  A    between atoms: N_7  and  C_2 
REMARK    2  A    between atoms: N_10  and  N_8 
REMARK       I    between atoms: C_9  and  N_10 
REMARK    3  A    between atoms: C_12  and  C_9 
ROOT
ATOM      1  C   UNL d   1       0.485  -1.460   0.133  0.00  0.00     0.172 A 
ATOM      2  C   UNL d   1      -0.646  -1.208  -0.625  0.00  0.00     0.173 A 
ATOM      3  N   UNL d   1       0.633  -0.332   0.910  0.00  0.00    -0.278 N 
ATOM      4  N   UNL d   1      -0.339   0.590   0.729  0.00  0.00    -0.299 N 
ATOM      5  HN  UNL d   1      -0.449   1.485   1.206  1.00  0.00     0.187 HD
ATOM      6  C   UNL d   1      -1.123   0.060  -0.218  0.00  0.00     0.059 A 
ATOM      7  N   UNL d   1       1.355  -2.501   0.239  0.00  0.00    -0.280 N 
ATOM      8  C   UNL d   1      -2.334   0.802  -0.658  0.00  0.00     0.072 C 
ATOM      9  C   UNL d   1       1.615  -0.075   1.940  0.00  0.00     0.179 C 
ATOM     10  H   UNL d   1       2.369  -2.306   0.219  0.00  0.00     0.189 HD
ENDROOT
BRANCH   2  11
ATOM     11  N   UNL d   1      -1.207  -2.037  -1.636  0.00  0.00    -0.110 N 
ATOM     12  O   UNL d   1      -1.520  -3.191  -1.309  0.00  0.00    -0.532 OA
ATOM     13  O   UNL d   1      -1.378  -1.524  -2.747  0.00  0.00    -0.532 OA
ENDBRANCH   2  11
BRANCH   7  14
ATOM     14  N   UNL d   1       1.087  -3.762  -0.307  0.00  0.00    -0.268 N 
ATOM     15  C   UNL d   1       2.178  -4.509  -0.721  0.00  0.00     0.243 C 
ATOM     16  O   UNL d   1       3.304  -4.011  -0.781  0.00  0.00    -0.271 OA
ATOM     17  H   UNL d   1       0.219  -4.203  -0.008  0.00  0.00     0.190 HD
BRANCH  15  18
ATOM     18  C   UNL d   1       1.888  -5.990  -1.037  0.00  0.00     0.032 C 
ATOM     19  C   UNL d   1       0.722  -6.115  -2.028  0.00  0.00     0.025 C 
ATOM     20  C   UNL d   1       3.139  -6.629  -1.665  0.00  0.00     0.025 C 
ATOM     21  C   UNL d   1       1.550  -6.742   0.259  0.00  0.00     0.025 C 
ENDBRANCH  15  18
ENDBRANCH   7  14
TORSDOF 3
