REMARK  5 active torsions:
REMARK  status: ('A' for Active; 'I' for Inactive)
REMARK    1  A    between atoms: C_19  and  C_6 
REMARK    2  A    between atoms: C_20  and  C_11 
REMARK    3  A    between atoms: S_17  and  C_12 
REMARK    4  A    between atoms: C_21  and  S_17 
REMARK    5  A    between atoms: C_23  and  C_21 
ROOT
ATOM      1  C   UNL d   1       0.673  -0.490   0.071  0.00  0.00     0.041 A 
ATOM      2  C   UNL d   1      -1.186   1.004   0.212  0.00  0.00     0.068 A 
ATOM      3  C   UNL d   1       1.258   0.760   0.018  0.00  0.00     0.103 A 
ATOM      4  C   UNL d   1      -0.765  -0.334   0.194  0.00  0.00     0.067 A 
ATOM      5  S   UNL d   1       0.163   2.054   0.113  0.00  0.00    -0.065 SA
ATOM      6  C   UNL d   1       1.555  -1.614   0.013  0.00  0.00     0.018 A 
ATOM      7  N   UNL d   1       3.389  -0.028  -0.163  0.00  0.00    -0.298 N 
ATOM      8  HN  UNL d   1       4.392   0.138  -0.251  1.00  0.00     0.187 HD
ATOM      9  N   UNL d   1       2.572   1.002  -0.097  0.00  0.00    -0.292 N 
ATOM     10  HN  UNL d   1       2.929   1.957  -0.133  1.00  0.00     0.187 HD
ATOM     11  C   UNL d   1       2.932  -1.310  -0.117  0.00  0.00     0.070 A 
ATOM     12  C   UNL d   1      -2.555   1.266   0.312  0.00  0.00     0.090 A 
ATOM     13  N   UNL d   1      -3.421   0.231   0.347  0.00  0.00    -0.346 N 
ATOM     14  HN  UNL d   1      -4.427   0.395   0.390  1.00  0.00     0.167 HD
ATOM     15  N   UNL d   1      -1.657  -1.352   0.267  0.00  0.00    -0.350 N 
ATOM     16  HN  UNL d   1      -1.360  -2.328   0.278  1.00  0.00     0.166 HD
ATOM     17  C   UNL d   1      -2.936  -1.010   0.324  0.00  0.00     0.181 A 
ENDROOT
BRANCH  12  18
ATOM     18  S   UNL d   1      -3.217   2.912   0.384  0.00  0.00    -0.106 SA
BRANCH  18  19
ATOM     19  C   UNL d   1      -4.847   2.525   1.095  0.00  0.00     0.119 C 
BRANCH  19  20
ATOM     20  C   UNL d   1      -5.715   3.743   1.296  0.00  0.00    -0.048 A 
ATOM     21  C   UNL d   1      -6.638   4.124   0.310  0.00  0.00     0.009 A 
ATOM     22  C   UNL d   1      -7.494   5.207   0.522  0.00  0.00     0.024 A 
ATOM     23  C   UNL d   1      -7.423   5.921   1.716  0.00  0.00     0.034 A 
ATOM     24  C   UNL d   1      -6.497   5.569   2.695  0.00  0.00     0.024 A 
ATOM     25 CL   UNL d   1      -8.494   7.240   1.986  0.00  0.00    -0.084 Cl
ATOM     26  C   UNL d   1      -5.641   4.485   2.484  0.00  0.00     0.009 A 
ENDBRANCH  19  20
ENDBRANCH  18  19
ENDBRANCH  12  18
BRANCH   6  27
ATOM     27  C   UNL d   1       1.015  -2.987   0.127  0.00  0.00    -0.023 A 
ATOM     28  C   UNL d   1       0.045  -3.469  -0.771  0.00  0.00     0.012 A 
ATOM     29  C   UNL d   1      -0.480  -4.760  -0.656  0.00  0.00     0.001 A 
ATOM     30  C   UNL d   1      -0.002  -5.620   0.327  0.00  0.00     0.000 A 
ATOM     31  C   UNL d   1       0.987  -5.184   1.203  0.00  0.00     0.001 A 
ATOM     32  C   UNL d   1       1.474  -3.874   1.117  0.00  0.00     0.012 A 
ENDBRANCH   6  27
BRANCH  11  33
ATOM     33  C   UNL d   1       4.029  -2.311  -0.184  0.00  0.00    -0.007 A 
ATOM     34  C   UNL d   1       5.213  -2.113   0.555  0.00  0.00     0.014 A 
ATOM     35  C   UNL d   1       6.246  -3.054   0.551  0.00  0.00     0.001 A 
ATOM     36  C   UNL d   1       6.118  -4.222  -0.193  0.00  0.00     0.000 A 
ATOM     37  C   UNL d   1       4.974  -4.431  -0.957  0.00  0.00     0.001 A 
ATOM     38  C   UNL d   1       3.951  -3.476  -0.967  0.00  0.00     0.014 A 
ENDBRANCH  11  33
TORSDOF 5
