REMARK  4 active torsions:
REMARK  status: ('A' for Active; 'I' for Inactive)
REMARK    1  A    between atoms: C_5  and  C_4 
REMARK    2  A    between atoms: C_8  and  C_5 
REMARK       I    between atoms: N_10  and  C_8 
REMARK    3  A    between atoms: C_12  and  N_10 
REMARK    4  A    between atoms: C_13  and  C_12 
ROOT
ATOM      1  N   UNL d   1       4.121  -0.894   0.580  0.00  0.00    -0.325 N 
ATOM      2  C   UNL d   1       2.888  -1.477   0.502  0.00  0.00     0.236 C 
ATOM      3  S   UNL d   1       1.782   0.959  -0.307  0.00  0.00    -0.113 SA
ATOM      4  C   UNL d   1       1.643  -0.611   0.607  0.00  0.00     0.153 C 
ATOM      5  C   UNL d   1       4.398   0.478   0.533  0.00  0.00     0.051 A 
ATOM      6  C   UNL d   1       3.436   1.422   0.149  0.00  0.00     0.028 A 
ATOM      7  O   UNL d   1       2.804  -2.707   0.456  0.00  0.00    -0.272 OA
ATOM      8  C   UNL d   1       5.685   0.897   0.881  0.00  0.00     0.031 A 
ATOM      9  C   UNL d   1       3.775   2.780   0.120  0.00  0.00     0.021 A 
ATOM     10  C   UNL d   1       6.006   2.255   0.878  0.00  0.00     0.002 A 
ATOM     11  C   UNL d   1       5.053   3.195   0.495  0.00  0.00     0.002 A 
ATOM     12  H   UNL d   1       4.884  -1.549   0.695  0.00  0.00     0.169 HD
ENDROOT
BRANCH   4  13
ATOM     13  C   UNL d   1       1.183  -0.441   2.055  0.00  0.00     0.128 C 
BRANCH  13  14
ATOM     14  C   UNL d   1       2.194   0.180   2.996  0.00  0.00     0.219 C 
ATOM     15  N   UNL d   1       2.131   1.552   3.089  0.00  0.00    -0.357 N 
ATOM     16  H   UNL d   1       1.686   2.061   2.335  0.00  0.00     0.162 HD
ATOM     17  O   UNL d   1       2.998  -0.499   3.627  0.00  0.00    -0.274 OA
BRANCH  15  18
ATOM     18  C   UNL d   1       3.101   2.264   3.896  0.00  0.00     0.161 C 
BRANCH  18  19
ATOM     19  C   UNL d   1       2.914   3.761   3.874  0.00  0.00    -0.041 A 
ATOM     20  C   UNL d   1       1.643   4.348   3.957  0.00  0.00     0.009 A 
ATOM     21  C   UNL d   1       1.500   5.739   3.985  0.00  0.00     0.001 A 
ATOM     22  C   UNL d   1       2.625   6.559   3.949  0.00  0.00     0.000 A 
ATOM     23  C   UNL d   1       3.894   5.992   3.886  0.00  0.00     0.001 A 
ATOM     24  C   UNL d   1       4.039   4.603   3.852  0.00  0.00     0.009 A 
ENDBRANCH  18  19
ENDBRANCH  15  18
ENDBRANCH  13  14
ENDBRANCH   4  13
TORSDOF 4
