REMARK  3 active torsions:
REMARK  status: ('A' for Active; 'I' for Inactive)
REMARK    1  A    between atoms: N_13  and  C_3 
REMARK    2  A    between atoms: N_12  and  C_4 
REMARK    3  A    between atoms: C_11  and  C_6 
ROOT
ATOM      1  C   UNL d   1      -0.418   1.395  -0.086  0.00  0.00     0.069 C 
ATOM      2  C   UNL d   1      -0.860  -1.165  -0.088  0.00  0.00     0.069 C 
ATOM      3  C   UNL d   1       0.925   1.237  -0.076  0.00  0.00     0.087 C 
ATOM      4  C   UNL d   1       0.457  -1.470  -0.079  0.00  0.00     0.087 C 
ATOM      5  S   UNL d   1       1.649  -0.283   0.380  0.00  0.00    -0.053 SA
ATOM      6  C   UNL d   1      -1.431   0.251   0.062  0.00  0.00     0.112 C 
ATOM      7  C   UNL d   1      -1.793  -2.246  -0.271  0.00  0.00     0.099 C 
ATOM      8  C   UNL d   1      -0.933   2.727  -0.271  0.00  0.00     0.099 C 
ATOM      9  N   UNL d   1      -1.294   3.824  -0.390  0.00  0.00    -0.192 NA
ATOM     10  N   UNL d   1      -2.490  -3.164  -0.385  0.00  0.00    -0.192 NA
ENDROOT
BRANCH   6  11
ATOM     11  C   UNL d   1      -2.581   0.454  -0.940  0.00  0.00    -0.044 A 
ATOM     12  C   UNL d   1      -3.887   0.706  -0.491  0.00  0.00     0.008 A 
ATOM     13  C   UNL d   1      -4.917   0.911  -1.411  0.00  0.00     0.001 A 
ATOM     14  C   UNL d   1      -4.655   0.865  -2.780  0.00  0.00     0.000 A 
ATOM     15  C   UNL d   1      -3.364   0.611  -3.236  0.00  0.00     0.001 A 
ATOM     16  C   UNL d   1      -2.332   0.406  -2.325  0.00  0.00     0.008 A 
ENDBRANCH   6  11
BRANCH   4  17
ATOM     17  N   UNL d   1       0.952  -2.735  -0.347  0.00  0.00    -0.392 N 
ATOM     18  H   UNL d   1       0.323  -3.524  -0.226  0.00  0.00     0.156 HD
ATOM     19  H   UNL d   1       1.885  -2.883   0.030  0.00  0.00     0.156 HD
ENDBRANCH   4  17
BRANCH   3  20
ATOM     20  N   UNL d   1       1.819   2.261  -0.340  0.00  0.00    -0.392 N 
ATOM     21  H   UNL d   1       1.493   3.215  -0.206  0.00  0.00     0.156 HD
ATOM     22  H   UNL d   1       2.747   2.081   0.038  0.00  0.00     0.156 HD
ENDBRANCH   3  20
TORSDOF 3
