REMARK  4 active torsions:
REMARK  status: ('A' for Active; 'I' for Inactive)
REMARK    1  A    between atoms: C_2  and  N_1 
REMARK    2  A    between atoms: C_11  and  N_3 
REMARK    3  A    between atoms: C_9  and  C_11 
REMARK    4  A    between atoms: O_18  and  C_10 
ROOT
ATOM      1  N   UNL d   1      -1.387   0.051   0.429  0.00  0.00    -0.375 N 
ATOM      2  N   UNL d   1       1.445   0.009  -0.514  0.00  0.00     0.095 N 
ATOM      3  C   UNL d   1      -0.803  -1.182  -0.126  0.00  0.00     0.153 C 
ATOM      4  C   UNL d   1      -0.758   1.279  -0.104  0.00  0.00     0.153 C 
ATOM      5  C   UNL d   1       0.785   1.222   0.021  0.00  0.00     0.292 C 
ATOM      6  C   UNL d   1       0.740  -1.170   0.056  0.00  0.00     0.292 C 
ENDROOT
BRANCH   2   7
ATOM      7  C   UNL d   1       1.450  -0.049  -1.981  0.00  0.00     0.311 C 
BRANCH   7   8
ATOM      8  C   UNL d   1       2.257   1.046  -2.652  0.00  0.00    -0.029 A 
ATOM      9  C   UNL d   1       1.670   1.840  -3.648  0.00  0.00     0.034 A 
ATOM     10  C   UNL d   1       2.411   2.817  -4.321  0.00  0.00     0.056 A 
ATOM     11 CL   UNL d   1       1.602   3.741  -5.536  0.00  0.00    -0.083 Cl
ATOM     12  C   UNL d   1       3.760   3.008  -4.005  0.00  0.00     0.055 A 
ATOM     13  C   UNL d   1       4.354   2.224  -3.012  0.00  0.00     0.026 A 
ATOM     14 CL   UNL d   1       4.741   4.182  -4.807  0.00  0.00    -0.083 Cl
ATOM     15  C   UNL d   1       3.610   1.250  -2.341  0.00  0.00     0.011 A 
ENDBRANCH   7   8
ENDBRANCH   2   7
BRANCH   1  16
ATOM     16  C   UNL d   1      -2.605   0.099   1.111  0.00  0.00     0.064 A 
ATOM     17  C   UNL d   1      -3.125  -0.937   1.937  0.00  0.00     0.094 A 
ATOM     18  C   UNL d   1      -4.278  -0.728   2.726  0.00  0.00     0.039 A 
ATOM     19  C   UNL d   1      -4.978   0.470   2.682  0.00  0.00     0.003 A 
ATOM     20  C   UNL d   1      -4.544   1.469   1.831  0.00  0.00     0.002 A 
ATOM     21  C   UNL d   1      -3.390   1.276   1.062  0.00  0.00     0.032 A 
BRANCH  17  22
ATOM     22  O   UNL d   1      -2.441  -2.128   2.051  0.00  0.00    -0.354 OA
ATOM     23  C   UNL d   1      -3.257  -3.283   2.250  0.00  0.00     0.210 C 
ENDBRANCH  17  22
ENDBRANCH   1  16
TORSDOF 4
