REMARK  1 active torsions:
REMARK  status: ('A' for Active; 'I' for Inactive)
REMARK    1  A    between atoms: C_12  and  C_5 
ROOT
ATOM      1  N   UNL d   1      -9.260  -0.070  -0.401  0.00  0.00    -0.191 NA
ATOM      2  C   UNL d   1      -3.867  -0.011   0.002  0.00  0.00    -0.008 A 
ATOM      3  C   UNL d   1      -8.104  -0.075  -0.296  0.00  0.00     0.099 C 
ATOM      4  C   UNL d   1      -4.527  -1.125  -0.536  0.00  0.00     0.015 A 
ATOM      5  C   UNL d   1      -4.632   1.062   0.480  0.00  0.00     0.015 A 
ATOM      6  C   UNL d   1      -6.676  -0.066  -0.174  0.00  0.00     0.044 A 
ATOM      7  C   UNL d   1      -6.028   1.036   0.392  0.00  0.00     0.023 A 
ATOM      8  C   UNL d   1      -5.923  -1.152  -0.630  0.00  0.00     0.023 A 
ENDROOT
BRANCH   2   9
ATOM      9  C   UNL d   1      -2.415   0.014   0.036  0.00  0.00     0.060 A 
ATOM     10  C   UNL d   1      -1.629   1.147   0.029  0.00  0.00     0.128 A 
ATOM     11  N   UNL d   1      -0.334   0.698   0.025  0.00  0.00    -0.316 N 
ATOM     12  C   UNL d   1      -0.390  -0.691   0.030  0.00  0.00     0.111 A 
ATOM     13  C   UNL d   1       0.853   1.426   0.012  0.00  0.00     0.104 A 
ATOM     14  N   UNL d   1      -1.634  -1.121   0.026  0.00  0.00    -0.340 N 
ATOM     15  C   UNL d   1       0.853  -1.385   0.029  0.00  0.00     0.050 A 
ATOM     16  HN  UNL d   1      -1.953  -2.089   0.017  1.00  0.00     0.167 HD
ATOM     17  C   UNL d   1       2.009  -0.691   0.018  0.00  0.00     0.012 A 
ATOM     18  C   UNL d   1       2.031   0.773   0.011  0.00  0.00    -0.046 A 
ATOM     19  C   UNL d   1       3.362   1.458   0.002  0.00  0.00     0.049 C 
ENDBRANCH   2   9
TORSDOF 1
