REMARK  5 active torsions:
REMARK  status: ('A' for Active; 'I' for Inactive)
REMARK    1  A    between atoms: C_2  and  C_1 
REMARK    2  A    between atoms: C_7  and  C_3 
REMARK    3  A    between atoms: C_8  and  C_4 
REMARK    4  A    between atoms: O_20  and  C_7 
REMARK    5  A    between atoms: O_19  and  C_8 
ROOT
ATOM      1  C   UNL d   1      -1.193  -1.445   0.024  0.00  0.00     0.016 A 
ATOM      2  C   UNL d   1       0.064  -1.986   0.390  0.00  0.00     0.052 A 
ATOM      3  C   UNL d   1      -1.186  -0.088  -0.388  0.00  0.00     0.048 A 
ATOM      4  C   UNL d   1       0.003   0.637  -0.540  0.00  0.00     0.048 A 
ATOM      5  C   UNL d   1       1.257  -1.250   0.265  0.00  0.00     0.043 A 
ATOM      6  C   UNL d   1       1.218   0.048  -0.223  0.00  0.00     0.036 A 
ATOM      7 CL   UNL d   1      -2.654   0.793  -0.685  0.00  0.00    -0.083 Cl
ATOM      8 CL   UNL d   1       2.678   0.935  -0.412  0.00  0.00    -0.084 Cl
ENDROOT
BRANCH   1   9
ATOM      9  C   UNL d   1      -2.463  -2.237   0.057  0.00  0.00     0.016 A 
ATOM     10  C   UNL d   1      -3.001  -2.786   1.247  0.00  0.00     0.052 A 
ATOM     11  C   UNL d   1      -4.246  -3.440   1.268  0.00  0.00     0.043 A 
ATOM     12  C   UNL d   1      -4.979  -3.569   0.097  0.00  0.00     0.036 A 
ATOM     13  C   UNL d   1      -4.463  -3.099  -1.102  0.00  0.00     0.048 A 
ATOM     14 CL   UNL d   1      -6.519  -4.331   0.130  0.00  0.00    -0.084 Cl
ATOM     15  C   UNL d   1      -3.210  -2.471  -1.126  0.00  0.00     0.048 A 
ATOM     16 CL   UNL d   1      -2.605  -2.046  -2.698  0.00  0.00    -0.083 Cl
BRANCH  10  17
ATOM     17  C   UNL d   1      -2.282  -2.696   2.538  0.00  0.00     0.177 C 
ATOM     18  O   UNL d   1      -1.792  -1.668   2.967  0.00  0.00    -0.646 OA
BRANCH  17  19
ATOM     19  O   UNL d   1      -2.146  -3.898   3.133  0.00  0.00    -0.773 OA
ATOM     20  H   UNL d   1      -2.272  -4.667   2.538  0.00  0.00     0.167 HD
ENDBRANCH  17  19
ENDBRANCH  10  17
ENDBRANCH   1   9
BRANCH   2  21
ATOM     21  C   UNL d   1       0.190  -3.361   0.918  0.00  0.00     0.177 C 
ATOM     22  O   UNL d   1      -0.319  -4.337   0.394  0.00  0.00    -0.646 OA
BRANCH  21  23
ATOM     23  O   UNL d   1       0.850  -3.397   2.094  0.00  0.00    -0.773 OA
ATOM     24  H   UNL d   1       0.894  -2.536   2.566  0.00  0.00     0.167 HD
ENDBRANCH  21  23
ENDBRANCH   2  21
TORSDOF 5
