REMARK  5 active torsions:
REMARK  status: ('A' for Active; 'I' for Inactive)
REMARK    1  A    between atoms: C_4  and  C_2 
REMARK    2  A    between atoms: C_8  and  C_3 
REMARK    3  A    between atoms: O_7  and  C_4 
REMARK    4  A    between atoms: C_14  and  O_7 
REMARK    5  A    between atoms: C_9  and  C_10 
ROOT
ATOM      1  C   UNL d   1      -0.606   3.651   0.743  0.00  0.00     0.305 C 
ATOM      2  O   UNL d   1      -0.838   3.575   1.944  0.00  0.00    -0.258 OA
ENDROOT
BRANCH   1   3
ATOM      3  C   UNL d   1       0.590   4.274   0.182  0.00  0.00     0.081 A 
ATOM      4  S   UNL d   1       0.946   4.295  -1.490  0.00  0.00    -0.088 SA
ATOM      5  C   UNL d   1       2.484   5.050  -1.263  0.00  0.00    -0.009 A 
ATOM      6  C   UNL d   1       2.664   5.350   0.077  0.00  0.00     0.017 A 
ATOM      7  C   UNL d   1       1.592   4.899   0.900  0.00  0.00     0.026 A 
BRANCH   5   8
ATOM      8  C   UNL d   1       3.433   5.300  -2.445  0.00  0.00    -0.018 C 
ATOM      9  C   UNL d   1       2.854   6.367  -3.393  0.00  0.00     0.020 C 
ATOM     10  C   UNL d   1       4.810   5.806  -1.955  0.00  0.00     0.020 C 
ATOM     11  C   UNL d   1       3.681   3.995  -3.229  0.00  0.00     0.020 C 
ENDBRANCH   5   8
ENDBRANCH   1   3
BRANCH   1  12
ATOM     12  O   UNL d   1      -1.442   3.154  -0.262  0.00  0.00    -0.275 OA
BRANCH  12  13
ATOM     13  C   UNL d   1      -2.564   2.341   0.015  0.00  0.00     0.079 A 
ATOM     14  C   UNL d   1      -3.627   2.435  -0.878  0.00  0.00     0.038 A 
ATOM     15  C   UNL d   1      -4.715   1.561  -0.761  0.00  0.00     0.011 A 
ATOM     16  C   UNL d   1      -4.757   0.565   0.237  0.00  0.00    -0.050 A 
ATOM     17  C   UNL d   1      -3.683   0.521   1.144  0.00  0.00     0.011 A 
ATOM     18  C   UNL d   1      -2.589   1.392   1.031  0.00  0.00     0.038 A 
BRANCH  16  19
ATOM     19  C   UNL d   1      -5.917  -0.450   0.270  0.00  0.00    -0.024 C 
ATOM     20  C   UNL d   1      -5.790  -1.508   1.390  0.00  0.00     0.019 C 
ATOM     21  C   UNL d   1      -7.262   0.276   0.478  0.00  0.00     0.019 C 
ATOM     22  C   UNL d   1      -5.963  -1.219  -1.070  0.00  0.00     0.019 C 
ENDBRANCH  16  19
ENDBRANCH  12  13
ENDBRANCH   1  12
TORSDOF 5
