REMARK  3 active torsions:
REMARK  status: ('A' for Active; 'I' for Inactive)
REMARK    1  A    between atoms: C_9  and  N_1 
REMARK    2  A    between atoms: N_3  and  N_8 
REMARK    3  A    between atoms: C_6  and  C_15 
REMARK       I    between atoms: N_8  and  C_6 
ROOT
ATOM      1  C   UNL d   1      -2.084  -2.986   3.689  0.00  0.00     0.270 C 
ATOM      2  N   UNL d   1      -3.322  -3.579   3.478  0.00  0.00    -0.266 N 
ATOM      3  O   UNL d   1      -1.411  -2.466   2.801  0.00  0.00    -0.266 OA
ATOM      4  H   UNL d   1      -3.924  -3.838   4.243  0.00  0.00     0.190 HD
ENDROOT
BRANCH   2   5
ATOM      5  N   UNL d   1      -3.844  -3.583   2.221  0.00  0.00    -0.301 N 
ATOM      6  C   UNL d   1      -4.975  -4.158   1.953  0.00  0.00     0.038 C 
ATOM      7  C   UNL d   1      -5.783  -4.964   2.857  0.00  0.00     0.019 A 
ATOM      8  C   UNL d   1      -5.551  -3.984   0.542  0.00  0.00     0.060 C 
ATOM      9  C   UNL d   1      -7.104  -5.197   2.532  0.00  0.00     0.064 A 
ATOM     10  C   UNL d   1      -5.566  -5.692   4.054  0.00  0.00     0.040 A 
ATOM     11  O   UNL d   1      -7.723  -5.962   3.460  0.00  0.00    -0.326 OA
ATOM     12  C   UNL d   1      -7.853  -4.767   1.326  0.00  0.00     0.066 C 
ATOM     13  C   UNL d   1      -6.779  -6.258   4.391  0.00  0.00     0.143 A 
ATOM     14  C   UNL d   1      -7.055  -3.664   0.607  0.00  0.00     0.013 C 
ATOM     15  HN  UNL d   1      -3.332  -3.120   1.470  1.00  0.00     0.186 HD
ENDBRANCH   2   5
BRANCH   1  16
ATOM     16  C   UNL d   1      -1.539  -2.999   5.087  0.00  0.00     0.033 A 
ATOM     17  C   UNL d   1      -2.176  -3.623   6.171  0.00  0.00     0.019 A 
ATOM     18  C   UNL d   1      -1.571  -3.637   7.438  0.00  0.00     0.037 A 
ATOM     19  C   UNL d   1      -0.322  -3.030   7.625  0.00  0.00     0.102 A 
ATOM     20  C   UNL d   1       0.320  -2.395   6.559  0.00  0.00     0.037 A 
ATOM     21  C   UNL d   1      -0.292  -2.382   5.301  0.00  0.00     0.019 A 
BRANCH  19  22
ATOM     22  N   UNL d   1       0.323  -3.075   8.944  0.00  0.00    -0.116 N 
ATOM     23  O   UNL d   1       1.438  -2.550   9.060  0.00  0.00    -0.532 OA
ATOM     24  O   UNL d   1      -0.289  -3.640   9.862  0.00  0.00    -0.532 OA
ENDBRANCH  19  22
ENDBRANCH   1  16
TORSDOF 3
