REMARK  6 active torsions:
REMARK  status: ('A' for Active; 'I' for Inactive)
REMARK    1  A    between atoms: C_5  and  C_1 
REMARK    2  A    between atoms: S_15  and  C_6 
REMARK    3  A    between atoms: C_11  and  C_12 
REMARK    4  A    between atoms: C_19  and  S_15 
REMARK    5  A    between atoms: C_17  and  C_19 
REMARK    6  A    between atoms: C_18  and  C_17 
ROOT
ATOM      1  C   UNL d   1      -0.041   1.088  -0.079  0.00  0.00     0.152 A 
ATOM      2  N   UNL d   1       0.829   0.030   0.126  0.00  0.00    -0.314 N 
ATOM      3  N   UNL d   1      -1.269   0.590  -0.123  0.00  0.00    -0.281 N 
ATOM      4  HN  UNL d   1      -2.121   1.133  -0.264  1.00  0.00     0.188 HD
ATOM      5  C   UNL d   1       0.045  -1.093   0.198  0.00  0.00     0.163 A 
ATOM      6  N   UNL d   1      -1.214  -0.768   0.051  0.00  0.00    -0.278 N 
ATOM      7  HN  UNL d   1      -2.008  -1.409   0.065  1.00  0.00     0.189 HD
ATOM      8  C   UNL d   1       2.264   0.066   0.258  0.00  0.00     0.160 C 
ENDROOT
BRANCH   1   9
ATOM      9  C   UNL d   1       0.312   2.506  -0.243  0.00  0.00     0.100 A 
ATOM     10  N   UNL d   1       1.520   2.723  -0.839  0.00  0.00    -0.361 N 
ATOM     11  C   UNL d   1       1.907   4.004  -1.051  0.00  0.00     0.104 A 
ATOM     12  HN  UNL d   1       2.115   1.942  -1.117  1.00  0.00     0.165 HD
ATOM     13  C   UNL d   1       1.147   5.110  -0.707  0.00  0.00     0.065 A 
ATOM     14  C   UNL d   1      -0.088   4.875  -0.098  0.00  0.00     0.043 A 
ATOM     15  C   UNL d   1      -0.518   3.564   0.141  0.00  0.00     0.065 A 
ATOM     16 CL   UNL d   1      -2.035   3.369   0.939  0.00  0.00    -0.082 Cl
BRANCH  13  17
ATOM     17  C   UNL d   1       1.666   6.488  -0.986  0.00  0.00     0.418 C 
ATOM     18  F   UNL d   1       0.801   7.476  -0.631  0.00  0.00    -0.166 F 
ATOM     19  F   UNL d   1       2.825   6.748  -0.322  0.00  0.00    -0.166 F 
ATOM     20  F   UNL d   1       1.939   6.682  -2.304  0.00  0.00    -0.166 F 
ENDBRANCH  13  17
ENDBRANCH   1   9
BRANCH   5  21
ATOM     21  S   UNL d   1       0.665  -2.687   0.454  0.00  0.00    -0.085 SA
BRANCH  21  22
ATOM     22  C   UNL d   1      -0.869  -3.663   0.411  0.00  0.00     0.166 C 
BRANCH  22  23
ATOM     23  C   UNL d   1      -0.621  -5.133   0.727  0.00  0.00     0.169 C 
ATOM     24  O   UNL d   1       0.466  -5.586   1.077  0.00  0.00    -0.291 OA
BRANCH  23  25
ATOM     25  C   UNL d   1      -1.776  -6.083   0.609  0.00  0.00     0.011 A 
ATOM     26  C   UNL d   1      -3.081  -5.652   0.331  0.00  0.00     0.017 A 
ATOM     27  C   UNL d   1      -4.120  -6.585   0.211  0.00  0.00     0.025 A 
ATOM     28  C   UNL d   1      -3.862  -7.945   0.371  0.00  0.00     0.034 A 
ATOM     29  C   UNL d   1      -2.573  -8.385   0.661  0.00  0.00     0.025 A 
ATOM     30 CL   UNL d   1      -5.140  -9.084   0.206  0.00  0.00    -0.084 Cl
ATOM     31  C   UNL d   1      -1.534  -7.455   0.782  0.00  0.00     0.017 A 
ENDBRANCH  23  25
ENDBRANCH  22  23
ENDBRANCH  21  22
ENDBRANCH   5  21
TORSDOF 6
