REMARK  3 active torsions:
REMARK  status: ('A' for Active; 'I' for Inactive)
REMARK    1  A    between atoms: C_2  and  C_1 
REMARK    2  A    between atoms: O_3  and  C_1 
REMARK    3  A    between atoms: C_4  and  O_3 
ROOT
ATOM      1  C   UNL d   1       0.839   0.154  -0.201  0.00  0.00     0.300 C 
ATOM      2  O   UNL d   1       2.013   0.411  -0.398  0.00  0.00    -0.259 OA
ENDROOT
BRANCH   1   3
ATOM      3  C   UNL d   1       0.297  -1.193   0.090  0.00  0.00     0.061 A 
ATOM      4  C   UNL d   1      -0.788  -1.423   0.946  0.00  0.00     0.051 A 
ATOM      5  C   UNL d   1      -1.376  -2.691   1.002  0.00  0.00     0.048 A 
ATOM      6 CL   UNL d   1      -1.440  -0.209   1.990  0.00  0.00    -0.083 Cl
ATOM      7  C   UNL d   1      -0.863  -3.730   0.228  0.00  0.00     0.035 A 
ATOM      8  C   UNL d   1       0.256  -3.527  -0.578  0.00  0.00     0.025 A 
ATOM      9 CL   UNL d   1      -1.623  -5.273   0.261  0.00  0.00    -0.084 Cl
ATOM     10  C   UNL d   1       0.837  -2.260  -0.648  0.00  0.00     0.021 A 
ENDBRANCH   1   3
BRANCH   1  11
ATOM     11  O   UNL d   1      -0.254   0.961  -0.449  0.00  0.00    -0.271 OA
BRANCH  11  12
ATOM     12  C   UNL d   1      -0.027   2.096  -1.239  0.00  0.00     0.122 A 
ATOM     13  C   UNL d   1       0.090   1.964  -2.627  0.00  0.00     0.069 A 
ATOM     14 CL   UNL d   1       0.137   0.418  -3.397  0.00  0.00    -0.081 Cl
ATOM     15  C   UNL d   1       0.107   3.102  -3.434  0.00  0.00     0.027 A 
ATOM     16  C   UNL d   1      -0.010   4.369  -2.858  0.00  0.00     0.003 A 
ATOM     17  C   UNL d   1      -0.124   4.499  -1.472  0.00  0.00     0.027 A 
ATOM     18  C   UNL d   1      -0.132   3.363  -0.659  0.00  0.00     0.069 A 
ATOM     19 CL   UNL d   1      -0.321   3.565   1.043  0.00  0.00    -0.081 Cl
ENDBRANCH  11  12
ENDBRANCH   1  11
TORSDOF 3
