REMARK  5 active torsions:
REMARK  status: ('A' for Active; 'I' for Inactive)
REMARK    1  A    between atoms: C_10  and  N_1 
REMARK    2  A    between atoms: C_3  and  C_7 
REMARK    3  A    between atoms: C_8  and  C_10 
REMARK       I    between atoms: N_13  and  C_8 
REMARK       I    between atoms: C_9  and  N_12 
REMARK    4  A    between atoms: C_19  and  C_9 
REMARK    5  A    between atoms: N_12  and  N_13 
ROOT
ATOM      1  N   UNL d   1       0.750   1.317   0.100  0.00  0.00    -0.307 N 
ATOM      2  C   UNL d   1       0.915  -0.060  -0.296  0.00  0.00     0.055 A 
ATOM      3  C   UNL d   1       0.090   1.690   1.274  0.00  0.00     0.234 C 
ATOM      4  C   UNL d   1       1.427  -0.405  -1.560  0.00  0.00     0.047 A 
ATOM      5  S   UNL d   1      -0.076  -0.854   2.215  0.00  0.00    -0.118 SA
ATOM      6  C   UNL d   1       1.616  -1.748  -1.948  0.00  0.00     0.050 A 
ATOM      7  C   UNL d   1       0.599  -1.119   0.587  0.00  0.00     0.028 A 
ATOM      8  C   UNL d   1      -0.896   0.696   1.842  0.00  0.00     0.182 C 
ATOM      9  O   UNL d   1       0.190   2.821   1.756  0.00  0.00    -0.272 OA
ATOM     10  C   UNL d   1       1.324  -2.767  -1.038  0.00  0.00     0.017 A 
ATOM     11  C   UNL d   1       0.822  -2.455   0.220  0.00  0.00     0.021 A 
ENDROOT
BRANCH   1  12
ATOM     12  C   UNL d   1       1.345   2.416  -0.666  0.00  0.00     0.236 C 
BRANCH  12  13
ATOM     13  C   UNL d   1       2.857   2.548  -0.514  0.00  0.00     0.254 C 
ATOM     14  N   UNL d   1       3.291   3.611   0.253  0.00  0.00    -0.266 N 
ATOM     15  H   UNL d   1       2.695   4.117   0.911  0.00  0.00     0.190 HD
ATOM     16  O   UNL d   1       3.650   1.764  -1.048  0.00  0.00    -0.270 OA
BRANCH  14  17
ATOM     17  N   UNL d   1       4.679   3.754   0.410  0.00  0.00    -0.263 N 
ATOM     18  C   UNL d   1       5.185   4.757   1.211  0.00  0.00     0.270 C 
ATOM     19  O   UNL d   1       4.455   5.551   1.802  0.00  0.00    -0.266 OA
ATOM     20  H   UNL d   1       5.241   3.111  -0.142  0.00  0.00     0.190 HD
BRANCH  18  21
ATOM     21  C   UNL d   1       6.677   4.841   1.341  0.00  0.00     0.033 A 
ATOM     22  C   UNL d   1       7.551   3.894   0.785  0.00  0.00     0.017 A 
ATOM     23  C   UNL d   1       8.934   4.007   0.973  0.00  0.00     0.001 A 
ATOM     24  C   UNL d   1       9.456   5.061   1.718  0.00  0.00     0.000 A 
ATOM     25  C   UNL d   1       8.601   6.012   2.269  0.00  0.00     0.001 A 
ATOM     26  C   UNL d   1       7.219   5.903   2.081  0.00  0.00     0.017 A 
ENDBRANCH  18  21
ENDBRANCH  14  17
ENDBRANCH  12  13
ENDBRANCH   1  12
BRANCH   6  27
ATOM     27  C   UNL d   1       2.123  -2.105  -3.326  0.00  0.00     0.417 C 
ATOM     28  F   UNL d   1       2.237  -1.037  -4.162  0.00  0.00    -0.166 F 
ATOM     29  F   UNL d   1       3.347  -2.698  -3.297  0.00  0.00    -0.166 F 
ATOM     30  F   UNL d   1       1.297  -2.984  -3.961  0.00  0.00    -0.166 F 
ENDBRANCH   6  27
TORSDOF 5
