REMARK  5 active torsions:
REMARK  status: ('A' for Active; 'I' for Inactive)
REMARK    1  A    between atoms: C_4  and  C_2 
REMARK    2  A    between atoms: C_8  and  C_3 
REMARK       I    between atoms: N_7  and  C_4 
REMARK    3  A    between atoms: C_13  and  C_5 
REMARK    4  A    between atoms: C_6  and  N_7 
REMARK    5  A    between atoms: O_15  and  C_8 
ROOT
ATOM      1  C   UNL d   1      -0.151   2.638  -0.644  0.00  0.00     0.263 C 
ATOM      2  N   UNL d   1      -1.315   2.990   0.023  0.00  0.00    -0.321 N 
ATOM      3  O   UNL d   1       0.532   3.457  -1.257  0.00  0.00    -0.267 OA
ATOM      4  H   UNL d   1      -1.648   2.334   0.725  0.00  0.00     0.169 HD
ENDROOT
BRANCH   1   5
ATOM      5  C   UNL d   1       0.286   1.258  -0.475  0.00  0.00     0.073 A 
ATOM      6  S   UNL d   1      -0.702   0.045   0.206  0.00  0.00    -0.084 SA
ATOM      7  C   UNL d   1       0.535  -1.151   0.119  0.00  0.00     0.016 A 
ATOM      8  C   UNL d   1       1.656  -0.628  -0.503  0.00  0.00     0.021 A 
ATOM      9  C   UNL d   1       1.514   0.748  -0.843  0.00  0.00     0.026 A 
BRANCH   7  10
ATOM     10  C   UNL d   1       0.336  -2.511   0.665  0.00  0.00    -0.019 A 
ATOM     11  C   UNL d   1       1.114  -3.585   0.197  0.00  0.00     0.013 A 
ATOM     12  C   UNL d   1       0.986  -4.866   0.746  0.00  0.00     0.001 A 
ATOM     13  C   UNL d   1       0.072  -5.099   1.769  0.00  0.00     0.000 A 
ATOM     14  C   UNL d   1      -0.716  -4.054   2.240  0.00  0.00     0.001 A 
ATOM     15  C   UNL d   1      -0.582  -2.773   1.695  0.00  0.00     0.013 A 
ENDBRANCH   7  10
ENDBRANCH   1   5
BRANCH   2  16
ATOM     16  C   UNL d   1      -1.945   4.260  -0.057  0.00  0.00     0.052 A 
ATOM     17  C   UNL d   1      -2.635   4.800   1.051  0.00  0.00     0.070 A 
ATOM     18  C   UNL d   1      -3.345   6.014   0.928  0.00  0.00    -0.043 A 
ATOM     19  C   UNL d   1      -4.132   6.678   2.025  0.00  0.00     0.049 C 
ATOM     20  C   UNL d   1      -3.316   6.687  -0.311  0.00  0.00     0.008 A 
ATOM     21  C   UNL d   1      -2.604   6.176  -1.389  0.00  0.00     0.003 A 
ATOM     22  C   UNL d   1      -1.924   4.968  -1.267  0.00  0.00     0.030 A 
BRANCH  17  23
ATOM     23  C   UNL d   1      -2.523   4.121   2.376  0.00  0.00     0.179 C 
ATOM     24  O   UNL d   1      -3.456   3.920   3.132  0.00  0.00    -0.646 OA
BRANCH  23  25
ATOM     25  O   UNL d   1      -1.258   3.728   2.654  0.00  0.00    -0.773 OA
ATOM     26  H   UNL d   1      -0.590   4.021   2.001  0.00  0.00     0.167 HD
ENDBRANCH  23  25
ENDBRANCH  17  23
ENDBRANCH   2  16
TORSDOF 5
