REMARK  4 active torsions:
REMARK  status: ('A' for Active; 'I' for Inactive)
REMARK    1  A    between atoms: C_2  and  C_1 
REMARK       I    between atoms: N_3  and  C_1 
REMARK    2  A    between atoms: N_5  and  N_3 
REMARK    3  A    between atoms: C_8  and  N_5 
REMARK    4  A    between atoms: C_12  and  C_11 
ROOT
ATOM      1  N   UNL d   1      -1.211   0.928  -0.645  0.00  0.00    -0.203 NA
ATOM      2  H   UNL d   1      -0.691   0.374  -1.327  0.00  0.00     0.153 HD
ENDROOT
BRANCH   1   3
ATOM      3  N   UNL d   1      -1.955   0.088   0.206  0.00  0.00    -0.282 N 
ATOM      4  C   UNL d   1      -1.415  -0.438   1.379  0.00  0.00     0.273 C 
ATOM      5  O   UNL d   1      -2.211  -0.811   2.243  0.00  0.00    -0.266 OA
ATOM      6  H   UNL d   1      -2.964   0.183   0.196  0.00  0.00     0.184 HD
BRANCH   4   7
ATOM      7  C   UNL d   1       0.028  -0.528   1.561  0.00  0.00     0.073 A 
ATOM      8  S   UNL d   1       1.136  -0.765   0.272  0.00  0.00    -0.097 SA
ATOM      9  C   UNL d   1       2.483  -0.755   1.322  0.00  0.00     0.050 A 
ATOM     10  C   UNL d   1       2.105  -0.653   2.640  0.00  0.00     0.009 A 
ATOM     11  C   UNL d   1       0.690  -0.545   2.779  0.00  0.00     0.025 A 
ENDBRANCH   4   7
ENDBRANCH   1   3
BRANCH   1  12
ATOM     12  C   UNL d   1      -1.941   1.975  -1.266  0.00  0.00     0.034 A 
ATOM     13  C   UNL d   1      -1.542   2.488  -2.522  0.00  0.00    -0.036 A 
ATOM     14  C   UNL d   1      -2.286   3.531  -3.109  0.00  0.00     0.009 A 
ATOM     15  C   UNL d   1      -3.362   4.114  -2.442  0.00  0.00     0.001 A 
ATOM     16  C   UNL d   1      -3.694   3.680  -1.167  0.00  0.00     0.002 A 
ATOM     17  C   UNL d   1      -2.980   2.634  -0.580  0.00  0.00     0.026 A 
BRANCH  13  18
ATOM     18  C   UNL d   1      -0.330   1.992  -3.283  0.00  0.00     0.036 C 
ATOM     19  C   UNL d   1      -0.658   0.910  -4.301  0.00  0.00     0.010 C 
ENDBRANCH  13  18
ENDBRANCH   1  12
TORSDOF 4
