REMARK  3 active torsions:
REMARK  status: ('A' for Active; 'I' for Inactive)
REMARK    1  A    between atoms: C_5  and  C_1 
REMARK    2  A    between atoms: C_8  and  C_2 
REMARK    3  A    between atoms: O_12  and  C_8 
ROOT
ATOM      1  C   UNL d   1      -1.320  -0.842   0.223  0.00  0.00     0.087 A 
ATOM      2  C   UNL d   1       0.002  -1.329  -0.038  0.00  0.00     0.100 A 
ATOM      3  N   UNL d   1      -1.271   0.456   0.569  0.00  0.00    -0.259 N 
ATOM      4  HN  UNL d   1      -2.058   1.042   0.844  1.00  0.00     0.195 HD
ATOM      5  O   UNL d   1       0.044   0.840   0.480  0.00  0.00    -0.241 OA
ATOM      6  C   UNL d   1       0.810  -0.222   0.125  0.00  0.00     0.091 A 
ATOM      7  C   UNL d   1       2.252   0.065  -0.013  0.00  0.00     0.080 C 
ENDROOT
BRANCH   1   8
ATOM      8  C   UNL d   1      -2.607  -1.549   0.213  0.00  0.00     0.037 A 
ATOM      9  C   UNL d   1      -2.812  -2.727   0.961  0.00  0.00     0.048 A 
ATOM     10 CL   UNL d   1      -1.619  -3.394   2.030  0.00  0.00    -0.083 Cl
ATOM     11  C   UNL d   1      -4.043  -3.398   0.932  0.00  0.00     0.025 A 
ATOM     12  C   UNL d   1      -5.113  -2.883   0.209  0.00  0.00     0.003 A 
ATOM     13  C   UNL d   1      -4.948  -1.699  -0.503  0.00  0.00     0.025 A 
ATOM     14  C   UNL d   1      -3.706  -1.046  -0.518  0.00  0.00     0.048 A 
ATOM     15 CL   UNL d   1      -3.621   0.381  -1.503  0.00  0.00    -0.083 Cl
ENDBRANCH   1   8
BRANCH   2  16
ATOM     16  C   UNL d   1       0.419  -2.670  -0.371  0.00  0.00     0.297 C 
ATOM     17  O   UNL d   1      -0.276  -3.454  -1.010  0.00  0.00    -0.259 OA
BRANCH  16  18
ATOM     18  O   UNL d   1       1.625  -2.984   0.182  0.00  0.00    -0.322 OA
ATOM     19  C   UNL d   1       1.962  -4.369   0.134  0.00  0.00     0.213 C 
ENDBRANCH  16  18
ENDBRANCH   2  16
TORSDOF 3
