REMARK  3 active torsions:
REMARK  status: ('A' for Active; 'I' for Inactive)
REMARK    1  A    between atoms: C_12  and  C_2 
REMARK    2  A    between atoms: C_14  and  C_10 
REMARK    3  A    between atoms: C_13  and  C_11 
ROOT
ATOM      1  N   UNL d   1       0.281   0.628   0.009  0.00  0.00    -0.235 N 
ATOM      2  C   UNL d   1      -0.852   1.432   0.010  0.00  0.00     0.144 A 
ATOM      3  C   UNL d   1       0.154  -0.771   0.003  0.00  0.00     0.130 A 
ATOM      4  N   UNL d   1       1.583   0.990   0.015  0.00  0.00    -0.296 N 
ATOM      5  HN  UNL d   1       1.963   1.936   0.030  1.00  0.00     0.187 HD
ATOM      6  N   UNL d   1      -1.056  -1.402   0.024  0.00  0.00    -0.339 N 
ATOM      7  HN  UNL d   1      -1.123  -2.420   0.030  1.00  0.00     0.167 HD
ATOM      8  C   UNL d   1      -2.069   0.852   0.014  0.00  0.00     0.069 A 
ATOM      9  C   UNL d   1       1.433  -1.279  -0.022  0.00  0.00     0.077 A 
ATOM     10  C   UNL d   1       2.265  -0.155  -0.004  0.00  0.00     0.034 A 
ATOM     11  C   UNL d   1      -2.125  -0.651   0.037  0.00  0.00     0.070 A 
ENDROOT
BRANCH  11  12
ATOM     12  C   UNL d   1      -3.453  -1.255   0.086  0.00  0.00     0.101 A 
ATOM     13  N   UNL d   1      -4.566  -0.545   0.036  0.00  0.00    -0.358 N 
ATOM     14  C   UNL d   1      -5.658  -1.388   0.123  0.00  0.00     0.096 A 
ATOM     15  HN  UNL d   1      -4.612   0.470  -0.053  1.00  0.00     0.166 HD
ATOM     16  C   UNL d   1      -5.368  -2.728   0.244  0.00  0.00     0.069 A 
ATOM     17  S   UNL d   1      -3.670  -2.954   0.237  0.00  0.00    -0.081 SA
ENDBRANCH  11  12
BRANCH   2  18
ATOM     18  C   UNL d   1      -0.698   2.906   0.006  0.00  0.00     0.434 C 
ATOM     19  F   UNL d   1       0.563   3.391  -0.003  0.00  0.00    -0.165 F 
ATOM     20  F   UNL d   1      -1.322   3.447  -1.077  0.00  0.00    -0.165 F 
ATOM     21  F   UNL d   1      -1.309   3.452   1.094  0.00  0.00    -0.165 F 
ENDBRANCH   2  18
BRANCH  10  22
ATOM     22  C   UNL d   1       3.783  -0.227   0.003  0.00  0.00     0.037 A 
ATOM     23  C   UNL d   1       4.552   0.820   0.786  0.00  0.00     0.011 A 
ATOM     24  C   UNL d   1       4.563   0.865  -0.703  0.00  0.00     0.011 A 
ENDBRANCH  10  22
TORSDOF 3
