REMARK  7 active torsions:
REMARK  status: ('A' for Active; 'I' for Inactive)
REMARK    1  A    between atoms: C_2  and  C_1 
REMARK    2  A    between atoms: C_3  and  C_1 
REMARK    3  A    between atoms: O_9  and  C_1 
REMARK       I    between atoms: N_5  and  C_2 
REMARK    4  A    between atoms: C_4  and  C_3 
REMARK    5  A    between atoms: O_10  and  C_3 
REMARK    6  A    between atoms: O_11  and  C_4 
REMARK    7  A    between atoms: C_8  and  N_5 
ROOT
ATOM      1  C   UNL d   1       0.645  -1.246  -0.720  0.00  0.00     0.254 C 
ATOM      2  N   UNL d   1      -0.244  -2.077  -0.072  0.00  0.00    -0.325 N 
ATOM      3  O   UNL d   1       1.053  -1.373  -1.870  0.00  0.00    -0.270 OA
ATOM      4  H   UNL d   1      -0.774  -1.658   0.696  0.00  0.00     0.169 HD
ENDROOT
BRANCH   1   5
ATOM      5  C   UNL d   1       1.150  -0.082   0.151  0.00  0.00     0.249 C 
BRANCH   5   6
ATOM      6  C   UNL d   1       0.356   1.193  -0.116  0.00  0.00     0.253 C 
BRANCH   6   7
ATOM      7  C   UNL d   1      -1.036   1.166   0.503  0.00  0.00     0.172 C 
ATOM      8  O   UNL d   1      -1.695   0.162   0.740  0.00  0.00    -0.648 OA
BRANCH   7   9
ATOM      9  O   UNL d   1      -1.492   2.423   0.750  0.00  0.00    -0.774 OA
ATOM     10  H   UNL d   1      -0.775   3.067   0.538  0.00  0.00     0.167 HD
ENDBRANCH   7   9
ENDBRANCH   6   7
BRANCH   6  11
ATOM     11  O   UNL d   1       1.032   2.333   0.464  0.00  0.00    -0.382 OA
ATOM     12  H   UNL d   1       1.336   2.032   1.348  0.00  0.00     0.210 HD
ENDBRANCH   6  11
ENDBRANCH   5   6
BRANCH   5  13
ATOM     13  O   UNL d   1       1.222  -0.341   1.553  0.00  0.00    -0.383 OA
ATOM     14  H   UNL d   1       1.714  -1.179   1.656  0.00  0.00     0.210 HD
ENDBRANCH   5  13
ENDBRANCH   1   5
BRANCH   2  15
ATOM     15  C   UNL d   1      -0.581  -3.395  -0.443  0.00  0.00     0.034 A 
ATOM     16  C   UNL d   1       0.129  -4.120  -1.407  0.00  0.00     0.031 A 
ATOM     17  C   UNL d   1      -0.180  -5.460  -1.661  0.00  0.00     0.026 A 
ATOM     18  C   UNL d   1      -1.206  -6.080  -0.955  0.00  0.00     0.034 A 
ATOM     19  C   UNL d   1      -1.936  -5.366  -0.007  0.00  0.00     0.026 A 
ATOM     20 CL   UNL d   1      -1.560  -7.739  -1.241  0.00  0.00    -0.084 Cl
ATOM     21  C   UNL d   1      -1.622  -4.026   0.249  0.00  0.00     0.031 A 
ENDBRANCH   2  15
TORSDOF 7
