REMARK  3 active torsions:
REMARK  status: ('A' for Active; 'I' for Inactive)
REMARK    1  A    between atoms: N_2  and  S_1 
REMARK    2  A    between atoms: C_3  and  S_1 
REMARK    3  A    between atoms: C_8  and  N_2 
ROOT
ATOM      1  S   UNL d   1       0.927  -0.014  -0.053  0.00  0.00     0.263 S 
ATOM      2  O   UNL d   1       0.215  -1.055  -0.758  0.00  0.00    -0.200 OA
ATOM      3  O   UNL d   1       2.374   0.044  -0.046  0.00  0.00    -0.200 OA
ENDROOT
BRANCH   1   4
ATOM      4  N   UNL d   1       0.445  -0.007   1.569  0.00  0.00    -0.281 N 
ATOM      5  H   UNL d   1       1.079   0.536   2.154  0.00  0.00     0.179 HD
BRANCH   4   6
ATOM      6  C   UNL d   1      -0.943   0.043   1.865  0.00  0.00     0.045 A 
ATOM      7  C   UNL d   1      -1.560   1.266   2.116  0.00  0.00     0.075 A 
ATOM      8  C   UNL d   1      -2.933   1.299   2.336  0.00  0.00     0.157 A 
ATOM      9  F   UNL d   1      -3.531   2.479   2.550  0.00  0.00    -0.203 F 
ATOM     10  C   UNL d   1      -3.682   0.127   2.325  0.00  0.00     0.154 A 
ATOM     11  C   UNL d   1      -3.068  -1.097   2.081  0.00  0.00     0.048 A 
ATOM     12  F   UNL d   1      -5.003   0.169   2.544  0.00  0.00    -0.203 F 
ATOM     13  C   UNL d   1      -1.693  -1.137   1.836  0.00  0.00     0.033 A 
ENDBRANCH   4   6
ENDBRANCH   1   4
BRANCH   1  14
ATOM     14  C   UNL d   1       0.342   1.560  -0.653  0.00  0.00     0.080 A 
ATOM     15  C   UNL d   1       1.151   2.693  -0.507  0.00  0.00     0.026 A 
ATOM     16  C   UNL d   1       0.716   3.920  -1.013  0.00  0.00     0.020 A 
ATOM     17  C   UNL d   1      -0.516   4.004  -1.662  0.00  0.00     0.011 A 
ATOM     18  C   UNL d   1      -1.322   2.873  -1.810  0.00  0.00     0.020 A 
ATOM     19 BR   UNL d   1      -1.088   5.661  -2.369  0.00  0.00    -0.051 Br
ATOM     20  C   UNL d   1      -0.890   1.643  -1.312  0.00  0.00     0.026 A 
ENDBRANCH   1  14
TORSDOF 3
