REMARK  5 active torsions:
REMARK  status: ('A' for Active; 'I' for Inactive)
REMARK    1  A    between atoms: C_2  and  S_1 
REMARK    2  A    between atoms: N_3  and  S_1 
REMARK    3  A    between atoms: C_11  and  C_9 
REMARK    4  A    between atoms: O_16  and  C_11 
REMARK    5  A    between atoms: C_21  and  O_16 
ROOT
ATOM      1  N   UNL d   1       0.484   0.421  -1.642  0.00  0.00    -0.205 NA
ATOM      2  C   UNL d   1       0.275   2.107  -3.485  0.00  0.00     0.100 C 
ATOM      3  C   UNL d   1       0.838   1.806  -2.091  0.00  0.00     0.122 C 
ATOM      4  C   UNL d   1       0.963  -0.624  -2.603  0.00  0.00     0.107 C 
ATOM      5  C   UNL d   1       0.784   1.053  -4.478  0.00  0.00     0.017 C 
ATOM      6  C   UNL d   1       0.437  -0.358  -4.009  0.00  0.00     0.016 C 
ENDROOT
BRANCH   1   7
ATOM      7  S   UNL d   1       1.011   0.062  -0.040  0.00  0.00     0.248 S 
ATOM      8  O   UNL d   1       0.382  -1.177   0.372  0.00  0.00    -0.206 OA
ATOM      9  O   UNL d   1       2.449   0.212  -0.035  0.00  0.00    -0.206 OA
BRANCH   7  10
ATOM     10  C   UNL d   1       0.432   1.220   1.071  0.00  0.00     0.130 A 
ATOM     11  C   UNL d   1      -0.876   1.576   1.295  0.00  0.00     0.097 A 
ATOM     12  O   UNL d   1      -0.909   2.539   2.256  0.00  0.00    -0.241 OA
ATOM     13  C   UNL d   1      -2.190   1.161   0.773  0.00  0.00     0.081 C 
ATOM     14  N   UNL d   1       0.371   2.811   2.685  0.00  0.00    -0.264 N 
ATOM     15  C   UNL d   1       1.179   1.998   1.988  0.00  0.00     0.054 A 
ATOM     16  HN  UNL d   1       0.649   3.493   3.390  1.00  0.00     0.194 HD
ATOM     17  C   UNL d   1       2.636   2.042   2.260  0.00  0.00     0.072 C 
ENDBRANCH   7  10
ENDBRANCH   1   7
BRANCH   2  18
ATOM     18  C   UNL d   1      -1.243   2.215  -3.417  0.00  0.00     0.264 C 
ATOM     19  O   UNL d   1      -1.860   2.636  -2.446  0.00  0.00    -0.265 OA
BRANCH  18  20
ATOM     20  O   UNL d   1      -1.824   1.800  -4.576  0.00  0.00    -0.322 OA
BRANCH  20  21
ATOM     21  C   UNL d   1      -3.225   1.497  -4.515  0.00  0.00     0.174 C 
ATOM     22  C   UNL d   1      -4.036   2.548  -5.243  0.00  0.00     0.034 C 
ENDBRANCH  20  21
ENDBRANCH  18  20
ENDBRANCH   2  18
TORSDOF 5
