REMARK  5 active torsions:
REMARK  status: ('A' for Active; 'I' for Inactive)
REMARK    1  A    between atoms: C_8  and  C_1 
REMARK    2  A    between atoms: O_14  and  C_2 
REMARK    3  A    between atoms: N_4  and  C_11 
REMARK    4  A    between atoms: C_13  and  N_6 
REMARK    5  A    between atoms: N_9  and  C_8 
ROOT
ATOM      1  C   UNL d   1      -0.417  -0.859  -0.105  0.00  0.00     0.006 A 
ATOM      2  C   UNL d   1      -0.540   0.536  -0.068  0.00  0.00     0.079 A 
ATOM      3  C   UNL d   1       0.590   1.361  -0.012  0.00  0.00    -0.026 A 
ATOM      4  C   UNL d   1       0.871  -1.419  -0.130  0.00  0.00     0.042 A 
ATOM      5  C   UNL d   1       2.024  -0.624  -0.093  0.00  0.00     0.049 A 
ATOM      6  C   UNL d   1       1.865   0.764  -0.033  0.00  0.00     0.040 A 
ATOM      7  C   UNL d   1       0.503   2.858   0.057  0.00  0.00     0.051 C 
ENDROOT
BRANCH   5   8
ATOM      8  N   UNL d   1       3.335  -1.145  -0.141  0.00  0.00    -0.300 N 
ATOM      9  N   UNL d   1       3.395  -2.313   0.295  0.00  0.00    -0.300 N 
ATOM     10  HN  UNL d   1       2.583  -2.827   0.637  1.00  0.00     0.187 HD
ATOM     11  HN  UNL d   1       4.141  -0.627  -0.493  1.00  0.00     0.187 HD
BRANCH   9  12
ATOM     12  C   UNL d   1       4.696  -2.850   0.268  0.00  0.00     0.048 A 
ATOM     13  C   UNL d   1       5.013  -3.821   1.226  0.00  0.00     0.032 A 
ATOM     14  C   UNL d   1       6.275  -4.425   1.251  0.00  0.00     0.026 A 
ATOM     15  C   UNL d   1       7.229  -4.060   0.305  0.00  0.00     0.034 A 
ATOM     16  C   UNL d   1       6.932  -3.106  -0.666  0.00  0.00     0.026 A 
ATOM     17 CL   UNL d   1       8.783  -4.796   0.333  0.00  0.00    -0.084 Cl
ATOM     18  C   UNL d   1       5.667  -2.508  -0.685  0.00  0.00     0.032 A 
ENDBRANCH   9  12
ENDBRANCH   5   8
BRANCH   1  19
ATOM     19  C   UNL d   1      -1.608  -1.792  -0.116  0.00  0.00     0.313 C 
BRANCH  19  20
ATOM     20  N   UNL d   1      -2.462  -1.659  -1.309  0.00  0.00     0.092 N 
ATOM     21  C   UNL d   1      -3.503  -2.712  -1.313  0.00  0.00     0.273 C 
ATOM     22  C   UNL d   1      -3.236  -3.581  -2.533  0.00  0.00     0.032 C 
ATOM     23  C   UNL d   1      -2.578  -2.617  -3.493  0.00  0.00     0.032 C 
ATOM     24  C   UNL d   1      -1.697  -1.804  -2.566  0.00  0.00     0.273 C 
ENDBRANCH  19  20
ENDBRANCH   1  19
BRANCH   2  25
ATOM     25  O   UNL d   1      -1.778   1.117  -0.118  0.00  0.00    -0.360 OA
ATOM     26  H   UNL d   1      -2.387   0.462  -0.516  0.00  0.00     0.217 HD
ENDBRANCH   2  25
TORSDOF 5
