REMARK  7 active torsions:
REMARK  status: ('A' for Active; 'I' for Inactive)
REMARK    1  A    between atoms: C_3  and  S_1 
REMARK    2  A    between atoms: C_5  and  S_1 
REMARK    3  A    between atoms: C_6  and  N_2 
REMARK    4  A    between atoms: C_11  and  C_3 
REMARK    5  A    between atoms: N_4  and  C_11 
REMARK    6  A    between atoms: C_12  and  C_6 
REMARK    7  A    between atoms: C_13  and  C_6 
ROOT
ATOM      1  N   UNL d   1      -0.885   3.733  -0.725  0.00  0.00     0.105 N 
ATOM      2  N   UNL d   1       0.346   2.999   1.970  0.00  0.00     0.092 N 
ATOM      3  C   UNL d   1      -1.046   2.420  -0.053  0.00  0.00     0.304 C 
ATOM      4  C   UNL d   1       0.358   4.356  -0.215  0.00  0.00     0.304 C 
ATOM      5  C   UNL d   1       0.566   4.310   1.320  0.00  0.00     0.302 C 
ATOM      6  C   UNL d   1      -0.938   2.458   1.485  0.00  0.00     0.302 C 
ENDROOT
BRANCH   1   7
ATOM      7  C   UNL d   1      -2.095   4.607  -0.614  0.00  0.00     0.289 C 
BRANCH   7   8
ATOM      8  C   UNL d   1      -1.904   5.965  -1.310  0.00  0.00    -0.021 A 
ATOM      9  C   UNL d   1      -1.610   6.043  -2.683  0.00  0.00     0.010 A 
ATOM     10  C   UNL d   1      -1.385   7.278  -3.296  0.00  0.00     0.001 A 
ATOM     11  C   UNL d   1      -1.443   8.450  -2.550  0.00  0.00     0.000 A 
ATOM     12  C   UNL d   1      -1.733   8.395  -1.193  0.00  0.00     0.001 A 
ATOM     13  C   UNL d   1      -1.967   7.161  -0.575  0.00  0.00     0.010 A 
ENDBRANCH   7   8
BRANCH   7  14
ATOM     14  C   UNL d   1      -3.380   3.915  -1.117  0.00  0.00    -0.021 A 
ATOM     15  C   UNL d   1      -4.607   4.132  -0.465  0.00  0.00     0.010 A 
ATOM     16  C   UNL d   1      -5.741   3.387  -0.812  0.00  0.00     0.001 A 
ATOM     17  C   UNL d   1      -5.668   2.423  -1.816  0.00  0.00     0.000 A 
ATOM     18  C   UNL d   1      -4.480   2.238  -2.514  0.00  0.00     0.001 A 
ATOM     19  C   UNL d   1      -3.354   2.998  -2.187  0.00  0.00     0.010 A 
ENDBRANCH   7  14
ENDBRANCH   1   7
BRANCH   2  20
ATOM     20  C   UNL d   1       1.451   2.020   1.802  0.00  0.00     0.287 C 
BRANCH  20  21
ATOM     21  C   UNL d   1       2.723   2.538   2.458  0.00  0.00     0.176 C 
BRANCH  21  22
ATOM     22  S   UNL d   1       4.045   1.356   2.527  0.00  0.00     0.177 S 
ATOM     23  O   UNL d   1       4.585   1.163   1.197  0.00  0.00    -0.223 OA
ATOM     24  O   UNL d   1       3.652   0.233   3.349  0.00  0.00    -0.223 OA
BRANCH  22  25
ATOM     25  C   UNL d   1       5.250   2.309   3.458  0.00  0.00     0.059 A 
ATOM     26  C   UNL d   1       5.256   2.229   4.853  0.00  0.00     0.025 A 
ATOM     27  C   UNL d   1       6.086   3.081   5.585  0.00  0.00     0.025 A 
ATOM     28  C   UNL d   1       6.904   3.996   4.920  0.00  0.00     0.034 A 
ATOM     29  C   UNL d   1       6.916   4.053   3.525  0.00  0.00     0.025 A 
ATOM     30 CL   UNL d   1       7.891   5.074   5.828  0.00  0.00    -0.084 Cl
ATOM     31  C   UNL d   1       6.089   3.204   2.786  0.00  0.00     0.025 A 
ENDBRANCH  22  25
ENDBRANCH  21  22
ENDBRANCH  20  21
ENDBRANCH   2  20
TORSDOF 7
