REMARK  5 active torsions:
REMARK  status: ('A' for Active; 'I' for Inactive)
REMARK    1  A    between atoms: C_6  and  C_1 
REMARK    2  A    between atoms: N_3  and  C_2 
REMARK    3  A    between atoms: O_7  and  C_4 
REMARK    4  A    between atoms: C_5  and  O_7 
REMARK    5  A    between atoms: O_17  and  C_6 
ROOT
ATOM      1  C   UNL d   1       3.731   3.529  -0.421  0.00  0.00     0.138 A 
ATOM      2  C   UNL d   1       2.595   2.906   0.114  0.00  0.00     0.109 A 
ATOM      3  C   UNL d   1       3.897   4.918  -0.400  0.00  0.00     0.062 A 
ATOM      4  C   UNL d   1       1.660   3.697   0.786  0.00  0.00     0.041 A 
ATOM      5  C   UNL d   1       2.912   5.692   0.203  0.00  0.00     0.036 A 
ATOM      6  C   UNL d   1       1.809   5.089   0.811  0.00  0.00     0.026 A 
ATOM      7 CL   UNL d   1       3.058   7.404   0.206  0.00  0.00    -0.084 Cl
ENDROOT
BRANCH   2   8
ATOM      8  O   UNL d   1       2.467   1.553  -0.058  0.00  0.00    -0.307 OA
BRANCH   8   9
ATOM      9  C   UNL d   1       1.305   0.859  -0.007  0.00  0.00     0.099 A 
ATOM     10  C   UNL d   1       0.084   1.185  -0.582  0.00  0.00     0.114 A 
ATOM     11  S   UNL d   1      -1.094  -0.029  -0.216  0.00  0.00    -0.093 SA
ATOM     12  C   UNL d   1       0.041  -1.006   0.595  0.00  0.00     0.053 A 
ATOM     13  C   UNL d   1       1.283  -0.420   0.629  0.00  0.00     0.046 A 
BRANCH  10  14
ATOM     14  C   UNL d   1      -0.382   2.303  -1.384  0.00  0.00     0.302 C 
ATOM     15  O   UNL d   1      -1.545   2.681  -1.474  0.00  0.00    -0.259 OA
BRANCH  14  16
ATOM     16  O   UNL d   1       0.652   2.900  -2.047  0.00  0.00    -0.322 OA
ATOM     17  C   UNL d   1       0.266   4.052  -2.802  0.00  0.00     0.213 C 
ENDBRANCH  14  16
ENDBRANCH  10  14
ENDBRANCH   8   9
ENDBRANCH   2   8
BRANCH   1  18
ATOM     18  N   UNL d   1       4.787   2.725  -1.006  0.00  0.00    -0.113 N 
ATOM     19  O   UNL d   1       5.304   1.856  -0.292  0.00  0.00    -0.532 OA
ATOM     20  O   UNL d   1       5.130   3.006  -2.163  0.00  0.00    -0.532 OA
ENDBRANCH   1  18
TORSDOF 5
