REMARK  3 active torsions:
REMARK  status: ('A' for Active; 'I' for Inactive)
REMARK    1  A    between atoms: C_7  and  C_1 
REMARK    2  A    between atoms: N_5  and  C_9 
REMARK    3  A    between atoms: N_6  and  C_7 
ROOT
ATOM      1  N   UNL d   1      -0.927  -3.517   0.012  0.00  0.00     0.092 N 
ATOM      2  C   UNL d   1       1.967  -4.193   0.322  0.00  0.00     0.226 C 
ATOM      3  C   UNL d   1       1.171  -4.461  -0.969  0.00  0.00     0.066 C 
ATOM      4  C   UNL d   1       0.980  -4.168   1.502  0.00  0.00     0.066 C 
ATOM      5  C   UNL d   1      -0.048  -3.562  -1.157  0.00  0.00     0.275 C 
ATOM      6  C   UNL d   1      -0.258  -3.295   1.291  0.00  0.00     0.275 C 
ENDROOT
BRANCH   1   7
ATOM      7  C   UNL d   1      -2.110  -2.648  -0.162  0.00  0.00     0.313 C 
BRANCH   7   8
ATOM      8  C   UNL d   1      -1.834  -1.318  -0.820  0.00  0.00    -0.002 A 
ATOM      9  C   UNL d   1      -0.961  -0.322  -0.414  0.00  0.00     0.098 A 
ATOM     10  N   UNL d   1      -0.962   0.673  -1.353  0.00  0.00    -0.365 N 
ATOM     11  C   UNL d   1      -1.877   0.395  -2.340  0.00  0.00     0.043 A 
ATOM     12  H   UNL d   1      -0.382   1.501  -1.331  0.00  0.00     0.165 HD
ATOM     13  C   UNL d   1      -2.462  -0.832  -2.019  0.00  0.00    -0.000 A 
ATOM     14  C   UNL d   1      -2.230   1.131  -3.478  0.00  0.00     0.030 A 
ATOM     15  C   UNL d   1      -3.470  -1.331  -2.872  0.00  0.00     0.014 A 
ATOM     16  C   UNL d   1      -3.852  -0.597  -4.000  0.00  0.00     0.001 A 
ATOM     17  C   UNL d   1      -3.233   0.611  -4.301  0.00  0.00     0.002 A 
ENDBRANCH   7   8
ENDBRANCH   1   7
BRANCH   2  18
ATOM     18  N   UNL d   1       2.978  -3.102   0.333  0.00  0.00     0.093 N 
ATOM     19  C   UNL d   1       2.475  -1.730   0.272  0.00  0.00     0.273 C 
ATOM     20  C   UNL d   1       3.582  -0.685   0.441  0.00  0.00     0.030 C 
ATOM     21  C   UNL d   1       4.706  -0.897  -0.559  0.00  0.00     0.003 C 
ATOM     22  C   UNL d   1       5.202  -2.334  -0.475  0.00  0.00     0.030 C 
ATOM     23  C   UNL d   1       4.049  -3.325  -0.651  0.00  0.00     0.273 C 
ENDBRANCH   2  18
TORSDOF 3
