REMARK  5 active torsions:
REMARK  status: ('A' for Active; 'I' for Inactive)
REMARK    1  A    between atoms: S_10  and  C_3 
REMARK    2  A    between atoms: C_4  and  C_5 
REMARK    3  A    between atoms: C_9  and  C_13 
REMARK    4  A    between atoms: C_16  and  C_9 
REMARK    5  A    between atoms: C_13  and  S_10 
ROOT
ATOM      1  N   UNL d   1      -1.095   0.848  -0.494  0.00  0.00    -0.336 N 
ATOM      2  HN  UNL d   1      -1.796   1.474  -0.890  1.00  0.00     0.168 HD
ATOM      3  C   UNL d   1       0.043   1.314   0.050  0.00  0.00     0.144 A 
ATOM      4  C   UNL d   1      -1.261  -0.493  -0.489  0.00  0.00     0.052 A 
ATOM      5  N   UNL d   1       1.007   0.550   0.585  0.00  0.00    -0.347 N 
ATOM      6  HN  UNL d   1       1.863   0.954   0.965  1.00  0.00     0.167 HD
ATOM      7  C   UNL d   1      -0.337  -1.356   0.062  0.00  0.00     0.048 A 
ATOM      8  C   UNL d   1       0.787  -0.773   0.593  0.00  0.00     0.092 A 
ENDROOT
BRANCH   3   9
ATOM      9  S   UNL d   1       0.351   3.062   0.008  0.00  0.00    -0.086 SA
BRANCH   9  10
ATOM     10  C   UNL d   1      -1.361   3.671   0.049  0.00  0.00     0.166 C 
BRANCH  10  11
ATOM     11  C   UNL d   1      -2.085   3.261   1.322  0.00  0.00     0.169 C 
ATOM     12  O   UNL d   1      -1.511   3.128   2.402  0.00  0.00    -0.291 OA
BRANCH  11  13
ATOM     13  C   UNL d   1      -3.568   3.060   1.280  0.00  0.00     0.010 A 
ATOM     14  C   UNL d   1      -4.353   3.402   0.172  0.00  0.00     0.015 A 
ATOM     15  C   UNL d   1      -5.731   3.163   0.186  0.00  0.00     0.001 A 
ATOM     16  C   UNL d   1      -6.335   2.600   1.309  0.00  0.00     0.000 A 
ATOM     17  C   UNL d   1      -5.566   2.277   2.424  0.00  0.00     0.001 A 
ATOM     18  C   UNL d   1      -4.188   2.504   2.409  0.00  0.00     0.015 A 
ENDBRANCH  11  13
ENDBRANCH  10  11
ENDBRANCH   9  10
ENDBRANCH   3   9
BRANCH   4  19
ATOM     19  C   UNL d   1      -2.521  -0.949  -1.097  0.00  0.00     0.031 A 
ATOM     20  S   UNL d   1      -2.640  -2.482  -1.869  0.00  0.00    -0.100 SA
ATOM     21  C   UNL d   1      -4.287  -2.251  -2.255  0.00  0.00     0.050 A 
ATOM     22  C   UNL d   1      -4.749  -1.028  -1.829  0.00  0.00     0.008 A 
ATOM     23  C   UNL d   1      -3.729  -0.277  -1.177  0.00  0.00     0.021 A 
ENDBRANCH   4  19
TORSDOF 5
