REMARK  3 active torsions:
REMARK  status: ('A' for Active; 'I' for Inactive)
REMARK    1  A    between atoms: C_2  and  C_1 
REMARK       I    between atoms: N_5  and  C_2 
REMARK    2  A    between atoms: N_6  and  C_3 
REMARK    3  A    between atoms: N_7  and  N_5 
ROOT
ATOM      1  C   UNL d   1       1.418  -0.221   0.217  0.00  0.00     0.059 A 
ATOM      2  C   UNL d   1       0.545  -1.337   0.225  0.00  0.00     0.043 A 
ATOM      3  C   UNL d   1       0.922   1.088   0.071  0.00  0.00     0.019 A 
ATOM      4  C   UNL d   1      -0.826  -1.074   0.080  0.00  0.00     0.030 A 
ATOM      5  C   UNL d   1      -0.446   1.311  -0.050  0.00  0.00     0.001 A 
ATOM      6  C   UNL d   1      -1.318   0.229  -0.058  0.00  0.00     0.002 A 
ENDROOT
BRANCH   1   7
ATOM      7  C   UNL d   1       2.898  -0.424   0.332  0.00  0.00     0.268 C 
ATOM      8  O   UNL d   1       3.445  -1.405  -0.164  0.00  0.00    -0.266 OA
ATOM      9  N   UNL d   1       3.594   0.560   1.025  0.00  0.00    -0.290 N 
ATOM     10  H   UNL d   1       3.111   1.292   1.539  0.00  0.00     0.183 HD
BRANCH   9  11
ATOM     11  N   UNL d   1       4.999   0.470   1.133  0.00  0.00    -0.247 NA
ATOM     12  H   UNL d   1       5.349   0.215   0.202  0.00  0.00     0.143 HD
ATOM     13  H   UNL d   1       5.203  -0.369   1.688  0.00  0.00     0.143 HD
ENDBRANCH   9  11
ENDBRANCH   1   7
BRANCH   2  14
ATOM     14  N   UNL d   1       1.031  -2.603   0.537  0.00  0.00    -0.393 N 
ATOM     15  C   UNL d   1       0.227  -3.795   0.679  0.00  0.00     0.146 C 
ATOM     16  H   UNL d   1       1.990  -2.755   0.204  0.00  0.00     0.159 HD
ENDBRANCH   2  14
TORSDOF 3
