REMARK  6 active torsions:
REMARK  status: ('A' for Active; 'I' for Inactive)
REMARK    1  A    between atoms: N_2  and  C_1 
REMARK    2  A    between atoms: C_3  and  C_4 
REMARK       I    between atoms: C_4  and  N_7 
REMARK    3  A    between atoms: C_5  and  C_11 
REMARK    4  A    between atoms: S_10  and  C_6 
REMARK    5  A    between atoms: N_7  and  C_12 
REMARK    6  A    between atoms: C_13  and  S_10 
ROOT
ATOM      1  C   UNL d   1       3.302  -2.239   0.686  0.00  0.00     0.052 A 
ATOM      2  C   UNL d   1       2.866  -2.551  -0.624  0.00  0.00     0.032 A 
ATOM      3  C   UNL d   1       4.654  -2.469   1.014  0.00  0.00     0.031 A 
ATOM      4  C   UNL d   1       3.760  -3.198  -1.504  0.00  0.00     0.021 A 
ATOM      5  C   UNL d   1       5.074  -3.480  -1.131  0.00  0.00     0.002 A 
ATOM      6  C   UNL d   1       5.531  -3.083   0.116  0.00  0.00     0.002 A 
ENDROOT
BRANCH   2   7
ATOM      7  S   UNL d   1       1.424  -1.846  -1.435  0.00  0.00    -0.086 SA
BRANCH   7   8
ATOM      8  C   UNL d   1       0.122  -3.077  -1.363  0.00  0.00     0.038 A 
ATOM      9  C   UNL d   1      -1.234  -2.703  -1.373  0.00  0.00     0.120 A 
ATOM     10  C   UNL d   1      -2.280  -3.623  -1.180  0.00  0.00     0.053 A 
ATOM     11  C   UNL d   1      -1.986  -4.974  -0.975  0.00  0.00     0.050 A 
ATOM     12  C   UNL d   1      -0.641  -5.374  -0.999  0.00  0.00     0.017 A 
ATOM     13  C   UNL d   1       0.393  -4.444  -1.198  0.00  0.00     0.022 A 
BRANCH   9  14
ATOM     14  N   UNL d   1      -1.622  -1.318  -1.562  0.00  0.00    -0.114 N 
ATOM     15  O   UNL d   1      -1.417  -0.817  -2.676  0.00  0.00    -0.532 OA
ATOM     16  O   UNL d   1      -2.212  -0.766  -0.621  0.00  0.00    -0.532 OA
ENDBRANCH   9  14
BRANCH  11  17
ATOM     17  C   UNL d   1      -3.078  -5.985  -0.716  0.00  0.00     0.417 C 
ATOM     18  F   UNL d   1      -4.331  -5.453  -0.765  0.00  0.00    -0.166 F 
ATOM     19  F   UNL d   1      -3.068  -7.002  -1.621  0.00  0.00    -0.166 F 
ATOM     20  F   UNL d   1      -2.969  -6.571   0.508  0.00  0.00    -0.166 F 
ENDBRANCH  11  17
ENDBRANCH   7   8
ENDBRANCH   2   7
BRANCH   1  21
ATOM     21  N   UNL d   1       2.518  -1.708   1.755  0.00  0.00    -0.322 N 
ATOM     22  C   UNL d   1       1.212  -2.053   2.020  0.00  0.00     0.257 C 
ATOM     23  O   UNL d   1       0.497  -2.757   1.307  0.00  0.00    -0.267 OA
ATOM     24  H   UNL d   1       3.046  -1.380   2.556  0.00  0.00     0.169 HD
BRANCH  22  25
ATOM     25  C   UNL d   1       0.599  -1.686   3.325  0.00  0.00     0.054 A 
ATOM     26  C   UNL d   1       1.262  -1.717   4.559  0.00  0.00     0.051 A 
ATOM     27  C   UNL d   1       0.521  -1.703   5.750  0.00  0.00     0.048 A 
ATOM     28 CL   UNL d   1       2.978  -1.838   4.719  0.00  0.00    -0.083 Cl
ATOM     29  C   UNL d   1      -0.871  -1.644   5.713  0.00  0.00     0.035 A 
ATOM     30  C   UNL d   1      -1.538  -1.530   4.499  0.00  0.00     0.025 A 
ATOM     31 CL   UNL d   1      -1.773  -1.762   7.172  0.00  0.00    -0.084 Cl
ATOM     32  C   UNL d   1      -0.805  -1.545   3.313  0.00  0.00     0.020 A 
ENDBRANCH  22  25
ENDBRANCH   1  21
TORSDOF 6
