REMARK  1 active torsions:
REMARK  status: ('A' for Active; 'I' for Inactive)
REMARK       I    between atoms: C_7  and  N_3 
REMARK    1  A    between atoms: C_14  and  C_7 
ROOT
ATOM      1  C   UNL d   1      -0.457  -0.466   0.361  0.00  0.00    -0.005 A 
ATOM      2  C   UNL d   1      -0.777   0.875   0.289  0.00  0.00     0.020 A 
ATOM      3  N   UNL d   1      -2.862  -0.984   0.414  0.00  0.00    -0.347 N 
ATOM      4  N   UNL d   1       0.366   1.611   0.246  0.00  0.00    -0.358 N 
ATOM      5  C   UNL d   1       0.963  -0.549   0.248  0.00  0.00     0.003 A 
ATOM      6  C   UNL d   1      -1.492  -1.555   0.442  0.00  0.00     0.167 C 
ATOM      7  C   UNL d   1      -3.897  -1.797   0.868  0.00  0.00     0.224 C 
ATOM      8  C   UNL d   1       1.451   0.763   0.174  0.00  0.00     0.043 A 
ATOM      9  C   UNL d   1      -2.162   1.397   0.213  0.00  0.00     0.077 C 
ATOM     10  C   UNL d   1      -3.040   0.265  -0.360  0.00  0.00     0.132 C 
ATOM     11  C   UNL d   1       1.889  -1.611   0.170  0.00  0.00     0.056 A 
ATOM     12  O   UNL d   1      -3.665  -2.922   1.315  0.00  0.00    -0.273 OA
ATOM     13  C   UNL d   1       2.812   1.066   0.035  0.00  0.00     0.033 A 
ATOM     14  C   UNL d   1       3.243  -1.312   0.011  0.00  0.00     0.117 A 
ATOM     15  C   UNL d   1       3.704  -0.004  -0.054  0.00  0.00     0.044 A 
ATOM     16  F   UNL d   1       4.124  -2.317  -0.094  0.00  0.00    -0.206 F 
ATOM     17  H   UNL d   1       0.423   2.619   0.208  0.00  0.00     0.166 HD
ENDROOT
BRANCH   7  18
ATOM     18  C   UNL d   1      -5.340  -1.260   0.792  0.00  0.00     0.078 C 
ATOM     19  C   UNL d   1      -5.592  -0.059   1.717  0.00  0.00     0.014 C 
ATOM     20  C   UNL d   1      -5.711  -0.448   3.187  0.00  0.00     0.001 C 
ATOM     21  C   UNL d   1      -6.781  -1.507   3.406  0.00  0.00     0.000 C 
ATOM     22  C   UNL d   1      -6.565  -2.726   2.520  0.00  0.00     0.001 C 
ATOM     23  C   UNL d   1      -6.394  -2.356   1.045  0.00  0.00     0.014 C 
ENDBRANCH   7  18
TORSDOF 1
