REMARK  4 active torsions:
REMARK  status: ('A' for Active; 'I' for Inactive)
REMARK    1  A    between atoms: C_2  and  S_1 
REMARK    2  A    between atoms: O_3  and  S_1 
REMARK    3  A    between atoms: C_4  and  O_3 
REMARK    4  A    between atoms: N_5  and  C_6 
ROOT
ATOM      1  C   UNL d   1       0.601   1.250  -2.430  0.00  0.00     0.116 A 
ATOM      2  C   UNL d   1       1.996   1.436  -2.258  0.00  0.00     0.065 A 
ATOM      3  C   UNL d   1      -0.113   2.063  -3.328  0.00  0.00     0.040 A 
ATOM      4  C   UNL d   1       2.592   2.504  -2.962  0.00  0.00     0.032 A 
ATOM      5  C   UNL d   1       0.510   3.102  -4.011  0.00  0.00     0.003 A 
ATOM      6  C   UNL d   1       1.861   3.331  -3.819  0.00  0.00     0.002 A 
ENDROOT
BRANCH   1   7
ATOM      7  O   UNL d   1      -0.034   0.203  -1.777  0.00  0.00    -0.226 OA
BRANCH   7   8
ATOM      8  S   UNL d   1      -1.527   0.451  -1.159  0.00  0.00     0.309 S 
ATOM      9  O   UNL d   1      -1.456   1.399  -0.059  0.00  0.00    -0.192 OA
ATOM     10  O   UNL d   1      -2.515   0.569  -2.214  0.00  0.00    -0.192 OA
BRANCH   8  11
ATOM     11  C   UNL d   1      -1.990  -1.081  -0.371  0.00  0.00     0.127 A 
ATOM     12  S   UNL d   1      -1.175  -2.511  -0.813  0.00  0.00    -0.088 SA
ATOM     13  C   UNL d   1      -2.235  -3.480   0.128  0.00  0.00     0.051 A 
ATOM     14  C   UNL d   1      -3.177  -2.725   0.789  0.00  0.00     0.009 A 
ATOM     15  C   UNL d   1      -3.025  -1.338   0.515  0.00  0.00     0.034 A 
ENDBRANCH   8  11
ENDBRANCH   7   8
ENDBRANCH   1   7
BRANCH   2  16
ATOM     16  N   UNL d   1       2.768   0.562  -1.478  0.00  0.00    -0.374 N 
ATOM     17  C   UNL d   1       4.221   0.463  -1.752  0.00  0.00     0.149 C 
ATOM     18  C   UNL d   1       4.777  -0.798  -1.071  0.00  0.00     0.187 C 
ATOM     19  O   UNL d   1       4.517  -0.792   0.343  0.00  0.00    -0.388 OA
ATOM     20  C   UNL d   1       3.102  -0.692   0.594  0.00  0.00     0.187 C 
ATOM     21  C   UNL d   1       2.509   0.587  -0.026  0.00  0.00     0.149 C 
ENDBRANCH   2  16
TORSDOF 4
