REMARK  4 active torsions:
REMARK  status: ('A' for Active; 'I' for Inactive)
REMARK    1  A    between atoms: C_14  and  N_3 
REMARK    2  A    between atoms: C_8  and  C_4 
REMARK       I    between atoms: N_11  and  C_8 
REMARK       I    between atoms: C_9  and  N_12 
REMARK    3  A    between atoms: C_10  and  C_9 
REMARK    4  A    between atoms: N_12  and  N_11 
ROOT
ATOM      1  C   UNL d   1      -2.444   0.011  -0.393  0.00  0.00     0.290 C 
ATOM      2  N   UNL d   1      -3.427   0.984  -0.386  0.00  0.00    -0.262 N 
ATOM      3  O   UNL d   1      -1.317   0.239   0.049  0.00  0.00    -0.264 OA
ATOM      4  H   UNL d   1      -4.377   0.810  -0.713  0.00  0.00     0.190 HD
ENDROOT
BRANCH   1   5
ATOM      5  C   UNL d   1      -2.832  -1.282  -0.962  0.00  0.00     0.143 A 
ATOM      6  N   UNL d   1      -4.027  -1.512  -1.547  0.00  0.00    -0.272 N 
ATOM      7  N   UNL d   1      -3.905  -2.804  -1.970  0.00  0.00    -0.196 N 
ATOM      8  HN  UNL d   1      -4.821  -0.880  -1.647  1.00  0.00     0.189 HD
ATOM      9  N   UNL d   1      -2.757  -3.434  -1.621  0.00  0.00    -0.281 N 
ATOM     10  C   UNL d   1      -2.053  -2.464  -1.031  0.00  0.00     0.057 A 
ATOM     11  HN  UNL d   1      -2.495  -4.408  -1.772  1.00  0.00     0.189 HD
ATOM     12  C   UNL d   1      -0.664  -2.740  -0.596  0.00  0.00     0.072 C 
BRANCH   7  13
ATOM     13  C   UNL d   1      -4.871  -3.449  -2.789  0.00  0.00     0.074 A 
ATOM     14  C   UNL d   1      -5.988  -2.749  -3.265  0.00  0.00     0.033 A 
ATOM     15  C   UNL d   1      -6.889  -3.383  -4.124  0.00  0.00     0.002 A 
ATOM     16  C   UNL d   1      -6.690  -4.712  -4.500  0.00  0.00     0.000 A 
ATOM     17  C   UNL d   1      -5.593  -5.419  -4.013  0.00  0.00     0.002 A 
ATOM     18  C   UNL d   1      -4.682  -4.791  -3.162  0.00  0.00     0.033 A 
ENDBRANCH   7  13
ENDBRANCH   1   5
BRANCH   2  19
ATOM     19  N   UNL d   1      -3.100   2.247   0.126  0.00  0.00    -0.263 N 
ATOM     20  C   UNL d   1      -4.085   3.195   0.330  0.00  0.00     0.271 C 
ATOM     21  O   UNL d   1      -5.263   3.001   0.046  0.00  0.00    -0.266 OA
ATOM     22  H   UNL d   1      -2.114   2.410   0.319  0.00  0.00     0.190 HD
BRANCH  20  23
ATOM     23  C   UNL d   1      -3.604   4.482   0.929  0.00  0.00     0.044 A 
ATOM     24  C   UNL d   1      -4.085   5.752   0.492  0.00  0.00    -0.010 A 
ATOM     25  C   UNL d   1      -3.559   6.915   1.117  0.00  0.00    -0.025 A 
ATOM     26  C   UNL d   1      -5.045   5.950  -0.531  0.00  0.00     0.013 A 
ATOM     27  C   UNL d   1      -3.996   8.192   0.724  0.00  0.00     0.012 A 
ATOM     28  C   UNL d   1      -2.597   6.800   2.130  0.00  0.00     0.012 A 
ATOM     29  C   UNL d   1      -4.950   8.348  -0.279  0.00  0.00     0.001 A 
ATOM     30  C   UNL d   1      -5.474   7.228  -0.907  0.00  0.00     0.001 A 
ATOM     31  C   UNL d   1      -2.149   5.554   2.557  0.00  0.00     0.002 A 
ATOM     32  C   UNL d   1      -2.653   4.401   1.965  0.00  0.00     0.018 A 
ENDBRANCH  20  23
ENDBRANCH   2  19
TORSDOF 4
