REMARK  7 active torsions:
REMARK  status: ('A' for Active; 'I' for Inactive)
REMARK       I    between atoms: N_2  and  C_1 
REMARK    1  A    between atoms: C_3  and  C_1 
REMARK    2  A    between atoms: C_10  and  N_2 
REMARK    3  A    between atoms: C_9  and  C_3 
REMARK    4  A    between atoms: S_7  and  C_9 
REMARK    5  A    between atoms: C_8  and  S_7 
REMARK    6  A    between atoms: C_16  and  C_10 
REMARK    7  A    between atoms: O_17  and  C_11 
ROOT
ATOM      1  C   UNL d   1       0.856   0.176  -0.104  0.00  0.00     0.218 C 
ATOM      2  N   UNL d   1       2.135   0.603   0.175  0.00  0.00    -0.357 N 
ATOM      3  O   UNL d   1       0.351   0.239  -1.220  0.00  0.00    -0.274 OA
ATOM      4  H   UNL d   1       2.475   0.573   1.127  0.00  0.00     0.162 HD
ENDROOT
BRANCH   1   5
ATOM      5  C   UNL d   1       0.148  -0.438   1.087  0.00  0.00     0.113 C 
BRANCH   5   6
ATOM      6  C   UNL d   1      -1.366  -0.379   0.909  0.00  0.00     0.088 C 
BRANCH   6   7
ATOM      7  S   UNL d   1      -2.169  -1.118   2.378  0.00  0.00    -0.130 SA
BRANCH   7   8
ATOM      8  C   UNL d   1      -3.910  -0.869   2.061  0.00  0.00     0.000 A 
ATOM      9  C   UNL d   1      -4.803  -1.826   2.561  0.00  0.00     0.021 A 
ATOM     10  C   UNL d   1      -6.190  -1.663   2.430  0.00  0.00     0.038 A 
ATOM     11  C   UNL d   1      -6.704  -0.534   1.798  0.00  0.00     0.068 A 
ATOM     12  C   UNL d   1      -5.819   0.420   1.295  0.00  0.00     0.038 A 
ATOM     13  C   UNL d   1      -4.434   0.260   1.427  0.00  0.00     0.021 A 
BRANCH  11  14
ATOM     14  O   UNL d   1      -8.027  -0.243   1.615  0.00  0.00    -0.356 OA
ATOM     15  C   UNL d   1      -8.970  -1.157   2.163  0.00  0.00     0.210 C 
ENDBRANCH  11  14
ENDBRANCH   7   8
ENDBRANCH   6   7
ENDBRANCH   5   6
ENDBRANCH   1   5
BRANCH   2  16
ATOM     16  C   UNL d   1       2.999   1.165  -0.837  0.00  0.00     0.161 C 
BRANCH  16  17
ATOM     17  C   UNL d   1       3.312   2.610  -0.559  0.00  0.00    -0.038 A 
ATOM     18  C   UNL d   1       4.432   2.978   0.193  0.00  0.00     0.025 A 
ATOM     19  C   UNL d   1       4.682   4.326   0.400  0.00  0.00     0.088 A 
ATOM     20  N   UNL d   1       3.901   5.318  -0.077  0.00  0.00    -0.375 N 
ATOM     21  C   UNL d   1       2.816   4.943  -0.790  0.00  0.00     0.088 A 
ATOM     22  HN  UNL d   1       4.118   6.300   0.092  1.00  0.00     0.164 HD
ATOM     23  C   UNL d   1       2.481   3.623  -1.048  0.00  0.00     0.025 A 
ENDBRANCH  16  17
ENDBRANCH   2  16
TORSDOF 7
