REMARK  7 active torsions:
REMARK  status: ('A' for Active; 'I' for Inactive)
REMARK    1  A    between atoms: N_3  and  C_1 
REMARK    2  A    between atoms: N_10  and  C_1 
REMARK    3  A    between atoms: C_2  and  N_9 
REMARK    4  A    between atoms: N_5  and  C_2 
REMARK    5  A    between atoms: C_4  and  N_3 
REMARK    6  A    between atoms: C_8  and  N_5 
REMARK    7  A    between atoms: N_9  and  N_10 
ROOT
ATOM      1  N   UNL d   1      -1.445   1.014  -0.036  0.00  0.00    -0.274 N 
ATOM      2  H   UNL d   1      -1.799   0.262   0.553  0.00  0.00     0.189 HD
ENDROOT
BRANCH   1   3
ATOM      3  C   UNL d   1      -2.165   2.179   0.073  0.00  0.00     0.191 C 
ATOM      4  S   UNL d   1      -3.580   2.197   0.957  0.00  0.00    -0.039 SA
BRANCH   3   5
ATOM      5  N   UNL d   1      -1.657   3.344  -0.425  0.00  0.00    -0.331 N 
ATOM      6  H   UNL d   1      -1.956   4.187   0.059  0.00  0.00     0.168 HD
BRANCH   5   7
ATOM      7  C   UNL d   1      -0.875   3.565  -1.587  0.00  0.00     0.056 A 
ATOM      8  C   UNL d   1      -0.084   4.721  -1.680  0.00  0.00     0.060 A 
ATOM      9 CL   UNL d   1      -0.012   5.862  -0.383  0.00  0.00    -0.082 Cl
ATOM     10  C   UNL d   1       0.726   4.937  -2.798  0.00  0.00     0.026 A 
ATOM     11  C   UNL d   1       0.722   4.018  -3.848  0.00  0.00     0.002 A 
ATOM     12  C   UNL d   1      -0.087   2.886  -3.778  0.00  0.00     0.002 A 
ATOM     13  C   UNL d   1      -0.880   2.656  -2.651  0.00  0.00     0.031 A 
ENDBRANCH   5   7
ENDBRANCH   3   5
ENDBRANCH   1   3
BRANCH   1  14
ATOM     14  N   UNL d   1      -0.027   1.113  -0.082  0.00  0.00    -0.274 N 
ATOM     15  H   UNL d   1       0.313   2.066  -0.196  0.00  0.00     0.189 HD
BRANCH  14  16
ATOM     16  C   UNL d   1       0.755   0.400   0.789  0.00  0.00     0.186 C 
ATOM     17  S   UNL d   1       2.109   1.159   1.403  0.00  0.00    -0.040 SA
BRANCH  16  18
ATOM     18  N   UNL d   1       0.335  -0.878   1.041  0.00  0.00    -0.361 N 
ATOM     19  H   UNL d   1      -0.309  -1.255   0.357  0.00  0.00     0.162 HD
BRANCH  18  20
ATOM     20  C   UNL d   1       1.072  -1.839   1.857  0.00  0.00     0.092 C 
ATOM     21  C   UNL d   1       0.827  -1.707   3.387  0.00  0.00     0.031 C 
ATOM     22  C   UNL d   1      -0.637  -1.949   3.696  0.00  0.00    -0.024 C 
ATOM     23  C   UNL d   1       1.385  -3.055   3.860  0.00  0.00     0.019 C 
ATOM     24  C   UNL d   1      -0.885  -3.245   3.472  0.00  0.00    -0.026 C 
ATOM     25  C   UNL d   1       0.408  -3.870   3.006  0.00  0.00     0.010 C 
ATOM     26  C   UNL d   1       0.701  -3.329   1.587  0.00  0.00     0.034 C 
ENDBRANCH  18  20
ENDBRANCH  16  18
ENDBRANCH  14  16
ENDBRANCH   1  14
TORSDOF 7
