REMARK  4 active torsions:
REMARK  status: ('A' for Active; 'I' for Inactive)
REMARK    1  A    between atoms: N_4  and  C_1 
REMARK    2  A    between atoms: C_2  and  C_5 
REMARK    3  A    between atoms: C_10  and  C_3 
REMARK       I    between atoms: C_5  and  N_4 
REMARK    4  A    between atoms: C_12  and  N_4 
ROOT
ATOM      1  N   UNL d   1      -3.340  -1.401  -0.237  0.00  0.00    -0.257 N 
ATOM      2  C   UNL d   1      -3.520  -2.817  -0.250  0.00  0.00     0.269 C 
ATOM      3  O   UNL d   1      -2.633  -3.633  -0.029  0.00  0.00    -0.266 OA
ENDROOT
BRANCH   1   4
ATOM      4  C   UNL d   1      -2.008  -0.896  -0.197  0.00  0.00     0.159 A 
ATOM      5  N   UNL d   1      -1.650   0.322   0.170  0.00  0.00    -0.335 N 
ATOM      6  C   UNL d   1      -0.276   0.492   0.105  0.00  0.00     0.051 A 
ATOM      7  HN  UNL d   1      -2.304   1.047   0.465  1.00  0.00     0.168 HD
ATOM      8  C   UNL d   1       0.440   1.667   0.413  0.00  0.00     0.031 A 
ATOM      9  C   UNL d   1       0.436  -0.628  -0.312  0.00  0.00     0.035 A 
ATOM     10  C   UNL d   1       1.838   1.673   0.326  0.00  0.00     0.002 A 
ATOM     11  C   UNL d   1       2.527   0.522  -0.046  0.00  0.00     0.002 A 
ATOM     12  C   UNL d   1       1.838  -0.649  -0.371  0.00  0.00     0.021 A 
ATOM     13  S   UNL d   1      -0.677  -1.855  -0.732  0.00  0.00    -0.051 SA
ENDBRANCH   1   4
BRANCH   1  14
ATOM     14  C   UNL d   1      -4.399  -0.413  -0.040  0.00  0.00     0.046 A 
ATOM     15  C   UNL d   1      -5.612  -0.714   0.606  0.00  0.00     0.054 A 
ATOM     16  C   UNL d   1      -6.646   0.228   0.717  0.00  0.00     0.036 A 
ATOM     17 CL   UNL d   1      -8.141  -0.230   1.438  0.00  0.00    -0.084 Cl
ATOM     18  C   UNL d   1      -6.487   1.519   0.238  0.00  0.00     0.024 A 
ATOM     19  C   UNL d   1      -5.290   1.864  -0.372  0.00  0.00     0.004 A 
ATOM     20  C   UNL d   1      -4.276   0.906  -0.527  0.00  0.00     0.030 A 
ENDBRANCH   1  14
BRANCH   2  21
ATOM     21  C   UNL d   1      -4.837  -3.383  -0.505  0.00  0.00     0.093 C 
ATOM     22  C   UNL d   1      -5.442  -4.510   0.164  0.00  0.00     0.086 C 
ATOM     23  N   UNL d   1      -6.681  -4.699  -0.320  0.00  0.00    -0.259 N 
ATOM     24  O   UNL d   1      -6.837  -3.831  -1.373  0.00  0.00    -0.241 OA
ATOM     25  HN  UNL d   1      -7.373  -5.362   0.029  1.00  0.00     0.195 HD
ATOM     26  C   UNL d   1      -5.729  -3.061  -1.509  0.00  0.00     0.090 C 
ATOM     27  C   UNL d   1      -5.739  -2.117  -2.645  0.00  0.00     0.080 C 
BRANCH  22  28
ATOM     28  C   UNL d   1      -4.886  -5.397   1.212  0.00  0.00     0.037 A 
ATOM     29  C   UNL d   1      -4.195  -4.900   2.339  0.00  0.00     0.048 A 
ATOM     30 CL   UNL d   1      -4.171  -3.228   2.799  0.00  0.00    -0.083 Cl
ATOM     31  C   UNL d   1      -3.530  -5.759   3.231  0.00  0.00     0.025 A 
ATOM     32  C   UNL d   1      -3.615  -7.135   3.082  0.00  0.00     0.003 A 
ATOM     33  C   UNL d   1      -4.368  -7.656   2.039  0.00  0.00     0.025 A 
ATOM     34  C   UNL d   1      -4.979  -6.805   1.100  0.00  0.00     0.048 A 
ATOM     35 CL   UNL d   1      -5.810  -7.619  -0.188  0.00  0.00    -0.083 Cl
ENDBRANCH  22  28
ENDBRANCH   2  21
TORSDOF 4
