REMARK  5 active torsions:
REMARK  status: ('A' for Active; 'I' for Inactive)
REMARK    1  A    between atoms: C_9  and  C_2 
REMARK    2  A    between atoms: S_18  and  C_3 
REMARK    3  A    between atoms: C_20  and  C_8 
REMARK    4  A    between atoms: O_14  and  C_20 
REMARK    5  A    between atoms: C_16  and  O_14 
ROOT
ATOM      1  C   UNL d   1      -0.638   0.029   0.044  0.00  0.00     0.106 A 
ATOM      2  C   UNL d   1       0.064   1.223   0.078  0.00  0.00     0.074 A 
ATOM      3  C   UNL d   1       0.137  -1.120   0.048  0.00  0.00     0.094 A 
ATOM      4  N   UNL d   1       1.485  -1.093   0.084  0.00  0.00    -0.337 N 
ATOM      5  HN  UNL d   1       2.029  -1.956   0.085  1.00  0.00     0.168 HD
ATOM      6  N   UNL d   1       1.421   1.266   0.105  0.00  0.00    -0.342 N 
ATOM      7  HN  UNL d   1       1.918   2.157   0.114  1.00  0.00     0.167 HD
ATOM      8  C   UNL d   1       2.088   0.105   0.120  0.00  0.00     0.107 A 
ATOM      9  C   UNL d   1      -2.064  -0.028  -0.001  0.00  0.00     0.104 C 
ATOM     10  N   UNL d   1      -3.222  -0.057  -0.068  0.00  0.00    -0.191 NA
ENDROOT
BRANCH   2  11
ATOM     11  C   UNL d   1      -0.552   2.569   0.044  0.00  0.00     0.033 A 
ATOM     12  S   UNL d   1       0.199   3.866   0.905  0.00  0.00    -0.100 SA
ATOM     13  C   UNL d   1      -0.974   4.995   0.398  0.00  0.00     0.050 A 
ATOM     14  C   UNL d   1      -1.938   4.415  -0.391  0.00  0.00     0.008 A 
ATOM     15  C   UNL d   1      -1.689   3.026  -0.605  0.00  0.00     0.021 A 
ENDBRANCH   2  11
BRANCH   3  16
ATOM     16  S   UNL d   1      -0.595  -2.760  -0.040  0.00  0.00    -0.115 SA
ATOM     17  C   UNL d   1       0.882  -3.813   0.044  0.00  0.00     0.097 C 
ENDBRANCH   3  16
BRANCH   8  18
ATOM     18  C   UNL d   1       3.600   0.128   0.060  0.00  0.00     0.252 C 
BRANCH  18  19
ATOM     19  O   UNL d   1       4.172   0.024   1.369  0.00  0.00    -0.342 OA
BRANCH  19  20
ATOM     20  C   UNL d   1       5.539  -0.114   1.407  0.00  0.00     0.090 A 
ATOM     21  C   UNL d   1       6.235   0.446   2.490  0.00  0.00     0.067 A 
ATOM     22 CL   UNL d   1       5.418   1.338   3.724  0.00  0.00    -0.081 Cl
ATOM     23  C   UNL d   1       7.623   0.302   2.595  0.00  0.00     0.026 A 
ATOM     24  C   UNL d   1       8.329  -0.413   1.629  0.00  0.00     0.002 A 
ATOM     25  C   UNL d   1       7.646  -0.991   0.562  0.00  0.00     0.003 A 
ATOM     26  C   UNL d   1       6.260  -0.848   0.456  0.00  0.00     0.038 A 
ENDBRANCH  19  20
ENDBRANCH  18  19
ENDBRANCH   8  18
TORSDOF 5
