REMARK  3 active torsions:
REMARK  status: ('A' for Active; 'I' for Inactive)
REMARK    1  A    between atoms: C_11  and  C_1 
REMARK    2  A    between atoms: C_15  and  C_10 
REMARK    3  A    between atoms: N_12  and  C_14 
ROOT
ATOM      1  C   UNL d   1       0.908  -1.385  -0.034  0.00  0.00     0.144 A 
ATOM      2  N   UNL d   1      -0.263  -0.641  -0.029  0.00  0.00    -0.235 N 
ATOM      3  C   UNL d   1      -0.209   0.761  -0.028  0.00  0.00     0.129 A 
ATOM      4  N   UNL d   1       0.970   1.454  -0.035  0.00  0.00    -0.340 N 
ATOM      5  HN  UNL d   1       0.992   2.473  -0.022  1.00  0.00     0.167 HD
ATOM      6  C   UNL d   1       2.097  -0.750  -0.051  0.00  0.00     0.067 A 
ATOM      7  N   UNL d   1      -1.546  -1.072  -0.016  0.00  0.00    -0.297 N 
ATOM      8  HN  UNL d   1      -1.871  -2.039  -0.014  1.00  0.00     0.187 HD
ATOM      9  C   UNL d   1      -1.514   1.198  -0.013  0.00  0.00     0.076 A 
ATOM     10  C   UNL d   1       2.063   0.747  -0.059  0.00  0.00     0.046 A 
ATOM     11  C   UNL d   1      -2.297   0.030  -0.008  0.00  0.00     0.026 A 
ATOM     12  C   UNL d   1      -3.776  -0.075   0.005  0.00  0.00     0.070 C 
ENDROOT
BRANCH  10  13
ATOM     13  C   UNL d   1       3.387   1.436  -0.041  0.00  0.00    -0.007 A 
ATOM     14  C   UNL d   1       4.499   0.903  -0.703  0.00  0.00     0.049 A 
ATOM     15  C   UNL d   1       5.744   1.538  -0.581  0.00  0.00     0.103 A 
ATOM     16  C   UNL d   1       5.881   2.709   0.175  0.00  0.00     0.036 A 
ATOM     17  C   UNL d   1       4.759   3.260   0.794  0.00  0.00     0.003 A 
ATOM     18  C   UNL d   1       3.516   2.630   0.682  0.00  0.00     0.014 A 
BRANCH  15  19
ATOM     19  N   UNL d   1       6.918   0.955  -1.243  0.00  0.00    -0.116 N 
ATOM     20  O   UNL d   1       6.750  -0.087  -1.893  0.00  0.00    -0.532 OA
ATOM     21  O   UNL d   1       8.005   1.532  -1.105  0.00  0.00    -0.532 OA
ENDBRANCH  15  19
ENDBRANCH  10  13
BRANCH   1  22
ATOM     22  C   UNL d   1       0.834  -2.865   0.001  0.00  0.00     0.434 C 
ATOM     23  F   UNL d   1      -0.397  -3.422   0.017  0.00  0.00    -0.165 F 
ATOM     24  F   UNL d   1       1.482  -3.398  -1.073  0.00  0.00    -0.165 F 
ATOM     25  F   UNL d   1       1.487  -3.346   1.096  0.00  0.00    -0.165 F 
ENDBRANCH   1  22
TORSDOF 3
