REMARK  8 active torsions:
REMARK  status: ('A' for Active; 'I' for Inactive)
REMARK    1  A    between atoms: N_11  and  C_3 
REMARK    2  A    between atoms: C_17  and  C_10 
REMARK       I    between atoms: C_12  and  N_11 
REMARK    3  A    between atoms: O_18  and  C_12 
REMARK    4  A    between atoms: C_13  and  O_20 
REMARK    5  A    between atoms: N_14  and  O_18 
REMARK    6  A    between atoms: C_19  and  C_16 
REMARK    7  A    between atoms: N_29  and  C_16 
REMARK    8  A    between atoms: O_20  and  C_31 
ROOT
ATOM      1  N   UNL d   1      -3.263   0.569   0.178  0.00  0.00    -0.293 N 
ATOM      2  C   UNL d   1      -3.943   1.754   0.006  0.00  0.00     0.387 C 
ATOM      3  O   UNL d   1      -5.131   1.700  -0.315  0.00  0.00    -0.236 OA
ATOM      4  H   UNL d   1      -3.902  -0.205   0.050  0.00  0.00     0.172 HD
ENDROOT
BRANCH   1   5
ATOM      5  C   UNL d   1      -1.933   0.272   0.292  0.00  0.00     0.106 A 
ATOM      6  S   UNL d   1      -0.649   1.484   0.290  0.00  0.00    -0.032 SA
ATOM      7  C   UNL d   1       0.514   0.211   0.295  0.00  0.00     0.174 A 
ATOM      8  N   UNL d   1      -0.071  -1.015   0.326  0.00  0.00    -0.234 N 
ATOM      9  N   UNL d   1       1.810   0.140   0.234  0.00  0.00    -0.319 N 
ATOM     10  N   UNL d   1       0.885  -1.970   0.300  0.00  0.00    -0.276 N 
ATOM     11  C   UNL d   1      -1.460  -0.999   0.340  0.00  0.00     0.067 A 
ATOM     12  C   UNL d   1       2.013  -1.231   0.231  0.00  0.00     0.132 A 
ATOM     13  HN  UNL d   1       0.781  -2.984   0.326  1.00  0.00     0.189 HD
ATOM     14  C   UNL d   1      -2.234  -2.270   0.364  0.00  0.00     0.073 C 
ATOM     15  HN  UNL d   1       2.496   0.894   0.199  1.00  0.00     0.169 HD
BRANCH  12  16
ATOM     16  C   UNL d   1       3.362  -1.794   0.151  0.00  0.00     0.009 A 
ATOM     17  C   UNL d   1       4.476  -0.939   0.146  0.00  0.00     0.017 A 
ATOM     18  C   UNL d   1       5.775  -1.451   0.076  0.00  0.00     0.025 A 
ATOM     19  C   UNL d   1       5.971  -2.828   0.006  0.00  0.00     0.034 A 
ATOM     20  C   UNL d   1       4.879  -3.693   0.001  0.00  0.00     0.025 A 
ATOM     21 CL   UNL d   1       7.569  -3.460  -0.074  0.00  0.00    -0.084 Cl
ATOM     22  C   UNL d   1       3.578  -3.178   0.073  0.00  0.00     0.017 A 
ENDBRANCH  12  16
ENDBRANCH   1   5
BRANCH   2  23
ATOM     23  O   UNL d   1      -3.234   2.911   0.235  0.00  0.00    -0.179 OA
BRANCH  23  24
ATOM     24  N   UNL d   1      -3.827   3.969  -0.481  0.00  0.00    -0.240 N 
ATOM     25  C   UNL d   1      -3.597   5.164  -0.000  0.00  0.00     0.129 C 
ATOM     26  HN  UNL d   1      -4.395   3.815  -1.314  1.00  0.00     0.196 HD
BRANCH  25  27
ATOM     27  C   UNL d   1      -2.939   5.485   1.303  0.00  0.00     0.009 A 
ATOM     28  C   UNL d   1      -2.041   6.556   1.402  0.00  0.00     0.018 A 
ATOM     29  C   UNL d   1      -1.466   6.899   2.638  0.00  0.00     0.038 A 
ATOM     30  C   UNL d   1      -1.815   6.197   3.789  0.00  0.00     0.078 A 
ATOM     31  C   UNL d   1      -2.709   5.128   3.686  0.00  0.00     0.038 A 
ATOM     32  C   UNL d   1      -3.284   4.781   2.458  0.00  0.00     0.018 A 
BRANCH  30  33
ATOM     33  O   UNL d   1      -1.358   6.415   5.053  0.00  0.00    -0.255 OA
BRANCH  33  34
ATOM     34  C   UNL d   1      -0.834   7.680   5.419  0.00  0.00     0.530 C 
ATOM     35  F   UNL d   1      -1.245   8.689   4.622  0.00  0.00    -0.144 F 
ATOM     36  F   UNL d   1      -1.246   7.959   6.677  0.00  0.00    -0.144 F 
ATOM     37  F   UNL d   1       0.515   7.636   5.419  0.00  0.00    -0.144 F 
ENDBRANCH  33  34
ENDBRANCH  30  33
ENDBRANCH  25  27
BRANCH  25  38
ATOM     38  N   UNL d   1      -4.030   6.197  -0.791  0.00  0.00    -0.383 N 
ATOM     39  H   UNL d   1      -4.251   5.893  -1.736  0.00  0.00     0.157 HD
ATOM     40  H   UNL d   1      -3.545   7.082  -0.753  0.00  0.00     0.157 HD
ENDBRANCH  25  38
ENDBRANCH  23  24
ENDBRANCH   2  23
TORSDOF 8
