REMARK  2 active torsions:
REMARK  status: ('A' for Active; 'I' for Inactive)
REMARK    1  A    between atoms: C_2  and  N_1 
REMARK    2  A    between atoms: N_5  and  C_3 
ROOT
ATOM      1  C   UNL d   1       0.448   0.481   1.418  0.00  0.00     0.104 A 
ATOM      2  C   UNL d   1      -1.132   0.826   3.766  0.00  0.00     0.052 A 
ATOM      3  C   UNL d   1      -1.015  -0.431   3.119  0.00  0.00     0.062 A 
ATOM      4  C   UNL d   1      -0.219  -0.609   1.974  0.00  0.00     0.062 A 
ATOM      5  C   UNL d   1      -0.448   1.898   3.153  0.00  0.00     0.033 A 
ATOM      6  C   UNL d   1       0.324   1.743   1.994  0.00  0.00     0.038 A 
ATOM      7 CL   UNL d   1      -1.929  -1.833   3.590  0.00  0.00    -0.082 Cl
ENDROOT
BRANCH   2   8
ATOM      8  N   UNL d   1      -1.836   1.059   4.936  0.00  0.00    -0.375 N 
ATOM      9  C   UNL d   1      -1.916   0.085   6.041  0.00  0.00     0.149 C 
ATOM     10  C   UNL d   1      -1.526   0.756   7.370  0.00  0.00     0.187 C 
ATOM     11  O   UNL d   1      -2.282   1.950   7.623  0.00  0.00    -0.388 OA
ATOM     12  C   UNL d   1      -2.085   2.896   6.561  0.00  0.00     0.187 C 
ATOM     13  C   UNL d   1      -2.552   2.318   5.214  0.00  0.00     0.149 C 
ENDBRANCH   2   8
BRANCH   1  14
ATOM     14  N   UNL d   1       1.272   0.302   0.218  0.00  0.00    -0.116 N 
ATOM     15  O   UNL d   1       1.395  -0.849  -0.229  0.00  0.00    -0.532 OA
ATOM     16  O   UNL d   1       1.798   1.307  -0.276  0.00  0.00    -0.532 OA
ENDBRANCH   1  14
TORSDOF 2
