REMARK  3 active torsions:
REMARK  status: ('A' for Active; 'I' for Inactive)
REMARK    1  A    between atoms: C_7  and  N_1 
REMARK    2  A    between atoms: C_10  and  C_5 
REMARK    3  A    between atoms: O_16  and  C_10 
ROOT
ATOM      1  N   UNL d   1       1.004  -0.590  -0.070  0.00  0.00    -0.261 N 
ATOM      2  N   UNL d   1      -0.242  -1.077  -0.318  0.00  0.00    -0.304 N 
ATOM      3  HN  UNL d   1      -0.501  -2.039  -0.534  1.00  0.00     0.186 HD
ATOM      4  C   UNL d   1       0.988   0.797   0.014  0.00  0.00     0.040 C 
ATOM      5  C   UNL d   1      -0.347   1.180  -0.024  0.00  0.00     0.006 C 
ATOM      6  C   UNL d   1      -1.047  -0.023  -0.218  0.00  0.00     0.119 C 
ATOM      7  C   UNL d   1       2.188   1.678   0.024  0.00  0.00     0.071 C 
ENDROOT
BRANCH   1   8
ATOM      8  C   UNL d   1       2.089  -1.503   0.059  0.00  0.00     0.056 A 
ATOM      9  C   UNL d   1       2.027  -2.731  -0.623  0.00  0.00     0.034 A 
ATOM     10  C   UNL d   1       3.087  -3.637  -0.534  0.00  0.00     0.044 A 
ATOM     11  C   UNL d   1       4.183  -3.330   0.263  0.00  0.00     0.116 A 
ATOM     12  C   UNL d   1       4.241  -2.138   0.976  0.00  0.00     0.044 A 
ATOM     13  F   UNL d   1       5.196  -4.202   0.354  0.00  0.00    -0.206 F 
ATOM     14  C   UNL d   1       3.192  -1.217   0.874  0.00  0.00     0.034 A 
ENDBRANCH   1   8
BRANCH   5  15
ATOM     15  C   UNL d   1      -0.920   2.549   0.038  0.00  0.00     0.206 C 
BRANCH  15  16
ATOM     16  O   UNL d   1      -0.530   3.229   1.226  0.00  0.00    -0.396 OA
ATOM     17  H   UNL d   1      -0.779   2.653   1.968  0.00  0.00     0.209 HD
ENDBRANCH  15  16
ENDBRANCH   5  15
TORSDOF 3
