REMARK  5 active torsions:
REMARK  status: ('A' for Active; 'I' for Inactive)
REMARK    1  A    between atoms: C_3  and  C_1 
REMARK    2  A    between atoms: N_4  and  C_2 
REMARK       I    between atoms: C_6  and  N_4 
REMARK    3  A    between atoms: C_18  and  C_6 
REMARK    4  A    between atoms: C_8  and  S_11 
REMARK    5  A    between atoms: S_11  and  C_18 
ROOT
ATOM      1  N   UNL d   1      -1.193   1.727  -4.303  0.00  0.00    -0.325 N 
ATOM      2  C   UNL d   1      -1.320   2.477  -5.463  0.00  0.00     0.231 C 
ATOM      3  O   UNL d   1      -0.536   3.359  -5.812  0.00  0.00    -0.272 OA
ATOM      4  H   UNL d   1      -1.771   0.898  -4.228  0.00  0.00     0.169 HD
ENDROOT
BRANCH   1   5
ATOM      5  C   UNL d   1      -0.290   1.962  -3.239  0.00  0.00     0.057 A 
ATOM      6  C   UNL d   1       0.408   3.168  -3.111  0.00  0.00     0.047 A 
ATOM      7  C   UNL d   1       1.325   3.381  -2.069  0.00  0.00     0.050 A 
ATOM      8  C   UNL d   1       1.520   2.369  -1.120  0.00  0.00     0.018 A 
ATOM      9  C   UNL d   1       0.808   1.172  -1.211  0.00  0.00     0.027 A 
ATOM     10  C   UNL d   1      -0.096   0.972  -2.261  0.00  0.00     0.060 A 
ATOM     11 CL   UNL d   1      -0.934  -0.540  -2.338  0.00  0.00    -0.082 Cl
BRANCH   7  12
ATOM     12  C   UNL d   1       2.098   4.676  -1.982  0.00  0.00     0.417 C 
ATOM     13  F   UNL d   1       1.792   5.571  -2.960  0.00  0.00    -0.166 F 
ATOM     14  F   UNL d   1       3.443   4.478  -2.063  0.00  0.00    -0.166 F 
ATOM     15  F   UNL d   1       1.887   5.327  -0.804  0.00  0.00    -0.166 F 
ENDBRANCH   7  12
ENDBRANCH   1   5
BRANCH   2  16
ATOM     16  C   UNL d   1      -2.436   2.051  -6.406  0.00  0.00     0.184 C 
BRANCH  16  17
ATOM     17  S   UNL d   1      -3.884   1.305  -5.593  0.00  0.00    -0.103 SA
BRANCH  17  18
ATOM     18  C   UNL d   1      -4.498   2.697  -4.659  0.00  0.00     0.069 A 
ATOM     19  N   UNL d   1      -3.799   3.850  -4.691  0.00  0.00    -0.361 N 
ATOM     20  C   UNL d   1      -4.243   4.869  -3.923  0.00  0.00     0.089 A 
ATOM     21  HN  UNL d   1      -2.967   3.949  -5.272  1.00  0.00     0.165 HD
ATOM     22  C   UNL d   1      -5.366   4.793  -3.119  0.00  0.00     0.017 A 
ATOM     23  C   UNL d   1      -6.084   3.603  -3.112  0.00  0.00     0.004 A 
ATOM     24  C   UNL d   1      -5.646   2.537  -3.894  0.00  0.00     0.037 A 
ENDBRANCH  17  18
ENDBRANCH  16  17
ENDBRANCH   2  16
TORSDOF 5
