REMARK  8 active torsions:
REMARK  status: ('A' for Active; 'I' for Inactive)
REMARK    1  A    between atoms: N_3  and  C_1 
REMARK    2  A    between atoms: C_2  and  N_3 
REMARK    3  A    between atoms: N_10  and  C_2 
REMARK    4  A    between atoms: C_16  and  N_10 
REMARK    5  A    between atoms: N_11  and  C_18 
REMARK    6  A    between atoms: C_15  and  N_11 
REMARK    7  A    between atoms: C_12  and  C_15 
REMARK    8  A    between atoms: C_18  and  C_16 
ROOT
ATOM      1  C   UNL d   1       3.885   0.235  -0.573  0.00  0.00     0.172 C 
ATOM      2  S   UNL d   1       3.796   1.704  -1.371  0.00  0.00    -0.041 SA
ENDROOT
BRANCH   1   3
ATOM      3  N   UNL d   1       2.817  -0.591  -0.249  0.00  0.00    -0.332 N 
ATOM      4  H   UNL d   1       2.988  -1.548  -0.528  0.00  0.00     0.168 HD
BRANCH   3   5
ATOM      5  C   UNL d   1       1.451  -0.235  -0.096  0.00  0.00     0.046 A 
ATOM      6  C   UNL d   1       0.470  -1.051  -0.707  0.00  0.00    -0.034 A 
ATOM      7  C   UNL d   1      -0.894  -0.796  -0.469  0.00  0.00     0.015 A 
ATOM      8  C   UNL d   1       0.798  -2.210  -1.610  0.00  0.00     0.050 C 
ATOM      9  C   UNL d   1      -1.304   0.263   0.341  0.00  0.00    -0.061 A 
ATOM     10  C   UNL d   1      -0.333   1.068   0.933  0.00  0.00     0.015 A 
ATOM     11  C   UNL d   1      -2.763   0.499   0.593  0.00  0.00     0.048 C 
ATOM     12  C   UNL d   1       1.043   0.818   0.756  0.00  0.00    -0.034 A 
ATOM     13  C   UNL d   1       1.979   1.685   1.556  0.00  0.00     0.050 C 
ENDBRANCH   3   5
ENDBRANCH   1   3
BRANCH   1  14
ATOM     14  N   UNL d   1       5.072  -0.376  -0.197  0.00  0.00    -0.365 N 
ATOM     15  H   UNL d   1       4.982  -1.205   0.376  0.00  0.00     0.161 HD
BRANCH  14  16
ATOM     16  C   UNL d   1       6.381   0.271  -0.152  0.00  0.00     0.152 C 
BRANCH  16  17
ATOM     17  C   UNL d   1       7.510  -0.687   0.266  0.00  0.00     0.289 C 
BRANCH  17  18
ATOM     18  N   UNL d   1       7.596  -1.844  -0.629  0.00  0.00     0.089 N 
ATOM     19  H   UNL d   1       7.594  -1.529  -1.601  0.00  0.00     0.316 HD
BRANCH  18  20
ATOM     20  C   UNL d   1       8.814  -2.619  -0.391  0.00  0.00     0.308 C 
BRANCH  20  21
ATOM     21  C   UNL d   1       8.916  -3.773  -1.362  0.00  0.00    -0.030 A 
ATOM     22  C   UNL d   1      10.021  -3.898  -2.219  0.00  0.00     0.009 A 
ATOM     23  C   UNL d   1      10.104  -4.964  -3.117  0.00  0.00     0.001 A 
ATOM     24  C   UNL d   1       9.088  -5.916  -3.168  0.00  0.00     0.000 A 
ATOM     25  C   UNL d   1       7.989  -5.807  -2.319  0.00  0.00     0.001 A 
ATOM     26  C   UNL d   1       7.906  -4.744  -1.419  0.00  0.00     0.009 A 
ENDBRANCH  20  21
ENDBRANCH  18  20
ENDBRANCH  17  18
ENDBRANCH  16  17
ENDBRANCH  14  16
ENDBRANCH   1  14
TORSDOF 8
