REMARK  1 active torsions:
REMARK  status: ('A' for Active; 'I' for Inactive)
REMARK    1  A    between atoms: C_8  and  C_7 
ROOT
ATOM      1  C   UNL d   1       1.571  -3.150   0.005  0.00  0.00    -0.033 A 
ATOM      2  C   UNL d   1       1.976  -5.331   1.023  0.00  0.00    -0.025 A 
ATOM      3  C   UNL d   1       2.086  -3.929   1.047  0.00  0.00     0.023 A 
ATOM      4  C   UNL d   1       1.336  -5.956  -0.072  0.00  0.00    -0.026 A 
ATOM      5  C   UNL d   1       0.821  -5.165  -1.110  0.00  0.00     0.013 A 
ATOM      6  C   UNL d   1       0.937  -3.773  -1.072  0.00  0.00     0.012 A 
ATOM      7  C   UNL d   1       2.487  -6.125   2.062  0.00  0.00     0.012 A 
ATOM      8  C   UNL d   1       1.228  -7.356  -0.097  0.00  0.00     0.012 A 
ATOM      9  C   UNL d   1       2.372  -7.516   2.022  0.00  0.00     0.001 A 
ATOM     10  C   UNL d   1       1.743  -8.131   0.943  0.00  0.00     0.001 A 
ENDROOT
BRANCH   1  11
ATOM     11  C   UNL d   1       1.687  -1.692   0.041  0.00  0.00     0.047 C 
ATOM     12  C   UNL d   1       0.777  -0.901   0.621  0.00  0.00     0.111 A 
ATOM     13  N   UNL d   1      -0.368  -1.278   1.270  0.00  0.00    -0.335 N 
ATOM     14  C   UNL d   1       0.917   0.579   0.635  0.00  0.00     0.316 A 
ATOM     15  C   UNL d   1      -0.861  -0.145   1.646  0.00  0.00     0.124 A 
ATOM     16  HN  UNL d   1      -0.738  -2.217   1.419  1.00  0.00     0.168 HD
ATOM     17  C   UNL d   1      -2.114   0.047   2.417  0.00  0.00     0.098 C 
ATOM     18  O   UNL d   1      -0.189   0.981   1.323  0.00  0.00    -0.261 OA
ATOM     19  O   UNL d   1       1.787   1.280   0.159  0.00  0.00    -0.257 OA
ENDBRANCH   1  11
TORSDOF 1
