REMARK  4 active torsions:
REMARK  status: ('A' for Active; 'I' for Inactive)
REMARK    1  A    between atoms: N_2  and  C_1 
REMARK    2  A    between atoms: N_3  and  C_6 
REMARK    3  A    between atoms: N_7  and  C_5 
REMARK    4  A    between atoms: C_14  and  N_7 
ROOT
ATOM      1  C   UNL d   1      -0.616   2.132  -0.586  0.00  0.00     0.131 A 
ATOM      2  C   UNL d   1      -1.700   2.620  -1.338  0.00  0.00     0.074 A 
ATOM      3  C   UNL d   1       0.720   2.548  -0.800  0.00  0.00     0.061 A 
ATOM      4  C   UNL d   1      -1.456   3.577  -2.322  0.00  0.00     0.105 A 
ATOM      5  C   UNL d   1       0.911   3.506  -1.811  0.00  0.00     0.034 A 
ATOM      6  C   UNL d   1      -0.157   4.034  -2.552  0.00  0.00     0.038 A 
ENDROOT
BRANCH   3   7
ATOM      7  N   UNL d   1       1.792   1.942  -0.146  0.00  0.00    -0.383 N 
ATOM      8  H   UNL d   1       1.602   1.668   0.822  0.00  0.00     0.160 HD
BRANCH   7   9
ATOM      9  C   UNL d   1       3.204   2.147  -0.481  0.00  0.00     0.081 C 
ATOM     10  C   UNL d   1       3.576   1.317  -1.722  0.00  0.00     0.025 C 
ATOM     11  C   UNL d   1       3.639  -0.183  -1.438  0.00  0.00     0.002 C 
ATOM     12  C   UNL d   1       4.602  -0.488  -0.299  0.00  0.00     0.000 C 
ATOM     13  C   UNL d   1       4.229   0.278   0.964  0.00  0.00     0.002 C 
ATOM     14  C   UNL d   1       4.102   1.780   0.713  0.00  0.00     0.025 C 
ENDBRANCH   7   9
ENDBRANCH   3   7
BRANCH   1  15
ATOM     15  N   UNL d   1      -0.917   1.141   0.442  0.00  0.00    -0.113 N 
ATOM     16  O   UNL d   1      -1.725   0.250   0.154  0.00  0.00    -0.532 OA
ATOM     17  O   UNL d   1      -0.373   1.283   1.550  0.00  0.00    -0.532 OA
ENDBRANCH   1  15
BRANCH   4  18
ATOM     18  N   UNL d   1      -2.564   4.102  -3.129  0.00  0.00    -0.116 N 
ATOM     19  O   UNL d   1      -3.650   3.511  -3.062  0.00  0.00    -0.532 OA
ATOM     20  O   UNL d   1      -2.343   5.102  -3.825  0.00  0.00    -0.532 OA
ENDBRANCH   4  18
TORSDOF 4
