REMARK  3 active torsions:
REMARK  status: ('A' for Active; 'I' for Inactive)
REMARK    1  A    between atoms: C_2  and  C_1 
REMARK       I    between atoms: N_9  and  C_1 
REMARK       I    between atoms: N_3  and  C_2 
REMARK    2  A    between atoms: C_6  and  N_3 
REMARK    3  A    between atoms: N_14  and  N_9 
ROOT
ATOM      1  C   UNL d   1       0.340   1.210  -0.547  0.00  0.00     0.315 C 
ATOM      2  N   UNL d   1      -1.034   1.091  -0.615  0.00  0.00    -0.319 N 
ATOM      3  O   UNL d   1       1.144   0.474   0.012  0.00  0.00    -0.262 OA
ATOM      4  H   UNL d   1      -1.495   1.763  -1.224  0.00  0.00     0.169 HD
ENDROOT
BRANCH   2   5
ATOM      5  C   UNL d   1      -1.818   0.100   0.008  0.00  0.00     0.036 A 
ATOM      6  C   UNL d   1      -1.319  -0.764   0.989  0.00  0.00     0.055 A 
ATOM      7  C   UNL d   1      -2.137  -1.748   1.557  0.00  0.00     0.058 A 
ATOM      8 CL   UNL d   1      -1.441  -2.767   2.769  0.00  0.00    -0.082 Cl
ATOM      9  C   UNL d   1      -3.464  -1.879   1.142  0.00  0.00     0.055 A 
ATOM     10  C   UNL d   1      -3.974  -1.004   0.180  0.00  0.00     0.028 A 
ATOM     11 CL   UNL d   1      -4.519  -3.092   1.772  0.00  0.00    -0.083 Cl
ATOM     12  C   UNL d   1      -3.157  -0.012  -0.375  0.00  0.00     0.031 A 
ENDBRANCH   2   5
BRANCH   1  13
ATOM     13  C   UNL d   1       0.887   2.427  -1.314  0.00  0.00     0.323 C 
ATOM     14  O   UNL d   1       0.124   3.213  -1.859  0.00  0.00    -0.261 OA
ATOM     15  N   UNL d   1       2.272   2.495  -1.285  0.00  0.00    -0.286 N 
ATOM     16  H   UNL d   1       2.763   1.803  -0.712  0.00  0.00     0.184 HD
BRANCH  15  17
ATOM     17  N   UNL d   1       2.953   3.635  -1.757  0.00  0.00    -0.247 NA
ATOM     18  H   UNL d   1       2.252   4.351  -1.987  0.00  0.00     0.143 HD
ATOM     19  H   UNL d   1       3.392   3.401  -2.651  0.00  0.00     0.143 HD
ENDBRANCH  15  17
ENDBRANCH   1  13
TORSDOF 3
