REMARK  5 active torsions:
REMARK  status: ('A' for Active; 'I' for Inactive)
REMARK    1  A    between atoms: C_4  and  N_1 
REMARK    2  A    between atoms: C_14  and  C_2 
REMARK    3  A    between atoms: N_5  and  C_3 
REMARK       I    between atoms: C_6  and  N_13 
REMARK    4  A    between atoms: C_17  and  C_6 
REMARK    5  A    between atoms: N_13  and  N_8 
ROOT
ATOM      1  C   UNL d   1       0.236   1.960  -3.078  0.00  0.00     0.010 A 
ATOM      2  C   UNL d   1      -0.985   2.609  -2.772  0.00  0.00     0.042 A 
ATOM      3  C   UNL d   1       0.377   0.988  -0.858  0.00  0.00     0.103 A 
ATOM      4  C   UNL d   1       0.908   1.153  -2.136  0.00  0.00     0.051 A 
ATOM      5  C   UNL d   1      -1.452   2.446  -1.449  0.00  0.00     0.033 A 
ATOM      6  C   UNL d   1      -0.794   1.651  -0.501  0.00  0.00     0.038 A 
ENDROOT
BRANCH   1   7
ATOM      7  C   UNL d   1       0.880   2.071  -4.406  0.00  0.00     0.120 C 
ATOM      8  N   UNL d   1       2.169   2.107  -4.490  0.00  0.00    -0.308 N 
ATOM      9  HN  UNL d   1       2.757   1.988  -3.665  1.00  0.00     0.186 HD
BRANCH   8  10
ATOM     10  N   UNL d   1       2.714   2.308  -5.723  0.00  0.00    -0.266 N 
ATOM     11  C   UNL d   1       4.097   2.330  -5.836  0.00  0.00     0.270 C 
ATOM     12  O   UNL d   1       4.877   2.114  -4.910  0.00  0.00    -0.266 OA
ATOM     13  H   UNL d   1       2.108   2.425  -6.524  0.00  0.00     0.190 HD
BRANCH  11  14
ATOM     14  C   UNL d   1       4.655   2.618  -7.187  0.00  0.00     0.033 A 
ATOM     15  C   UNL d   1       4.003   3.434  -8.119  0.00  0.00     0.017 A 
ATOM     16  C   UNL d   1       4.604   3.697  -9.355  0.00  0.00     0.001 A 
ATOM     17  C   UNL d   1       5.852   3.153  -9.660  0.00  0.00     0.000 A 
ATOM     18  C   UNL d   1       6.511   2.351  -8.730  0.00  0.00     0.001 A 
ATOM     19  C   UNL d   1       5.918   2.089  -7.496  0.00  0.00     0.017 A 
ENDBRANCH  11  14
ENDBRANCH   8  10
ENDBRANCH   1   7
BRANCH   2  20
ATOM     20  N   UNL d   1      -1.724   3.378  -3.663  0.00  0.00    -0.380 N 
ATOM     21  C   UNL d   1      -3.193   3.410  -3.602  0.00  0.00     0.123 C 
ATOM     22  C   UNL d   1      -3.678   4.822  -3.279  0.00  0.00     0.020 C 
ATOM     23  C   UNL d   1      -3.123   5.824  -4.287  0.00  0.00     0.003 C 
ATOM     24  C   UNL d   1      -1.602   5.748  -4.332  0.00  0.00     0.020 C 
ATOM     25  C   UNL d   1      -1.108   4.329  -4.596  0.00  0.00     0.123 C 
ENDBRANCH   2  20
BRANCH   3  26
ATOM     26  N   UNL d   1       1.038   0.104   0.108  0.00  0.00    -0.116 N 
ATOM     27  O   UNL d   1       2.037  -0.524  -0.269  0.00  0.00    -0.532 OA
ATOM     28  O   UNL d   1       0.542   0.019   1.241  0.00  0.00    -0.532 OA
ENDBRANCH   3  26
TORSDOF 5
