REMARK  6 active torsions:
REMARK  status: ('A' for Active; 'I' for Inactive)
REMARK    1  A    between atoms: C_2  and  S_1 
REMARK    2  A    between atoms: C_11  and  S_1 
REMARK    3  A    between atoms: N_6  and  C_3 
REMARK    4  A    between atoms: C_8  and  N_4 
REMARK    5  A    between atoms: C_14  and  C_8 
REMARK    6  A    between atoms: C_15  and  C_8 
ROOT
ATOM      1  C   UNL d   1      -0.249  -2.676  -2.549  0.00  0.00     0.159 C 
ATOM      2  C   UNL d   1      -0.244  -2.077  -1.347  0.00  0.00     0.121 C 
ATOM      3  C   UNL d   1      -0.844  -3.934  -2.796  0.00  0.00     0.113 C 
ATOM      4  N   UNL d   1      -1.349  -4.967  -2.951  0.00  0.00    -0.191 NA
ENDROOT
BRANCH   1   5
ATOM      5  S   UNL d   1       0.565  -1.912  -3.869  0.00  0.00     0.218 S 
ATOM      6  O   UNL d   1       1.706  -2.722  -4.255  0.00  0.00    -0.216 OA
ATOM      7  O   UNL d   1       0.760  -0.495  -3.593  0.00  0.00    -0.216 OA
BRANCH   5   8
ATOM      8  C   UNL d   1      -0.603  -1.988  -5.215  0.00  0.00     0.065 A 
ATOM      9  C   UNL d   1      -1.539  -0.961  -5.372  0.00  0.00     0.024 A 
ATOM     10  C   UNL d   1      -2.396  -0.976  -6.473  0.00  0.00     0.002 A 
ATOM     11  C   UNL d   1      -2.311  -2.010  -7.408  0.00  0.00     0.000 A 
ATOM     12  C   UNL d   1      -1.371  -3.029  -7.248  0.00  0.00     0.002 A 
ATOM     13  C   UNL d   1      -0.507  -3.020  -6.153  0.00  0.00     0.024 A 
ENDBRANCH   5   8
ENDBRANCH   1   5
BRANCH   2  14
ATOM     14  N   UNL d   1      -0.696  -2.530  -0.106  0.00  0.00    -0.385 N 
ATOM     15  C   UNL d   1      -0.665  -3.955   0.302  0.00  0.00     0.152 C 
ATOM     16  C   UNL d   1       0.109  -4.155   1.626  0.00  0.00     0.293 C 
ATOM     17  N   UNL d   1      -0.335  -3.296   2.756  0.00  0.00     0.105 N 
ATOM     18  C   UNL d   1      -0.261  -1.895   2.263  0.00  0.00     0.293 C 
ATOM     19  C   UNL d   1      -1.071  -1.603   0.984  0.00  0.00     0.152 C 
BRANCH  17  20
ATOM     20  C   UNL d   1      -1.699  -3.692   3.222  0.00  0.00     0.289 C 
BRANCH  20  21
ATOM     21  C   UNL d   1      -1.742  -5.144   3.721  0.00  0.00    -0.021 A 
ATOM     22  C   UNL d   1      -0.899  -5.583   4.755  0.00  0.00     0.010 A 
ATOM     23  C   UNL d   1      -0.963  -6.897   5.219  0.00  0.00     0.001 A 
ATOM     24  C   UNL d   1      -1.864  -7.794   4.650  0.00  0.00     0.000 A 
ATOM     25  C   UNL d   1      -2.698  -7.380   3.613  0.00  0.00     0.001 A 
ATOM     26  C   UNL d   1      -2.640  -6.063   3.151  0.00  0.00     0.010 A 
ENDBRANCH  20  21
BRANCH  20  27
ATOM     27  C   UNL d   1      -2.307  -2.770   4.285  0.00  0.00    -0.021 A 
ATOM     28  C   UNL d   1      -3.694  -2.542   4.284  0.00  0.00     0.010 A 
ATOM     29  C   UNL d   1      -4.285  -1.735   5.255  0.00  0.00     0.001 A 
ATOM     30  C   UNL d   1      -3.499  -1.143   6.241  0.00  0.00     0.000 A 
ATOM     31  C   UNL d   1      -2.125  -1.367   6.264  0.00  0.00     0.001 A 
ATOM     32  C   UNL d   1      -1.534  -2.185   5.301  0.00  0.00     0.010 A 
ENDBRANCH  20  27
ENDBRANCH  17  20
ENDBRANCH   2  14
TORSDOF 6
