REMARK  5 active torsions:
REMARK  status: ('A' for Active; 'I' for Inactive)
REMARK    1  A    between atoms: C_2  and  S_1 
REMARK    2  A    between atoms: N_3  and  S_1 
REMARK    3  A    between atoms: C_4  and  N_3 
REMARK    4  A    between atoms: O_14  and  C_8 
REMARK    5  A    between atoms: O_15  and  C_11 
ROOT
ATOM      1  S   UNL d   1       1.201   0.247  -0.042  0.00  0.00     0.248 S 
ATOM      2  O   UNL d   1       0.007   0.951  -0.460  0.00  0.00    -0.205 OA
ATOM      3  O   UNL d   1       2.267   0.013  -0.990  0.00  0.00    -0.205 OA
ENDROOT
BRANCH   1   4
ATOM      4  C   UNL d   1       0.672  -1.331   0.577  0.00  0.00     0.110 A 
ATOM      5  C   UNL d   1       1.155  -2.491  -0.045  0.00  0.00     0.064 A 
ATOM      6  C   UNL d   1       0.758  -3.747   0.418  0.00  0.00     0.069 A 
ATOM      7  C   UNL d   1      -0.097  -3.832   1.521  0.00  0.00     0.039 A 
ATOM      8  C   UNL d   1      -0.591  -2.674   2.130  0.00  0.00     0.041 A 
ATOM      9  C   UNL d   1      -0.233  -1.421   1.635  0.00  0.00     0.091 A 
BRANCH   6  10
ATOM     10  O   UNL d   1       1.149  -4.948  -0.106  0.00  0.00    -0.356 OA
ATOM     11  C   UNL d   1       1.791  -4.909  -1.377  0.00  0.00     0.210 C 
ENDBRANCH   6  10
BRANCH   9  12
ATOM     12  O   UNL d   1      -0.703  -0.313   2.289  0.00  0.00    -0.354 OA
ATOM     13  C   UNL d   1      -1.898   0.195   1.692  0.00  0.00     0.210 C 
ENDBRANCH   9  12
ENDBRANCH   1   4
BRANCH   1  14
ATOM     14  N   UNL d   1       1.823   1.055   1.309  0.00  0.00    -0.180 NA
ATOM     15  H   UNL d   1       1.093   1.151   2.022  0.00  0.00     0.146 HD
BRANCH  14  16
ATOM     16  C   UNL d   1       3.101   0.656   1.836  0.00  0.00     0.044 A 
ATOM     17  C   UNL d   1       3.234   0.124   3.130  0.00  0.00     0.056 A 
ATOM     18 CL   UNL d   1       1.871  -0.117   4.158  0.00  0.00    -0.082 Cl
ATOM     19  C   UNL d   1       4.496  -0.189   3.641  0.00  0.00     0.026 A 
ATOM     20  C   UNL d   1       5.638   0.051   2.879  0.00  0.00     0.002 A 
ATOM     21  C   UNL d   1       5.518   0.591   1.601  0.00  0.00     0.002 A 
ATOM     22  C   UNL d   1       4.255   0.889   1.081  0.00  0.00     0.026 A 
ENDBRANCH  14  16
ENDBRANCH   1  14
TORSDOF 5
