REMARK  2 active torsions:
REMARK  status: ('A' for Active; 'I' for Inactive)
REMARK    1  A    between atoms: C_2  and  C_1 
REMARK       I    between atoms: N_4  and  C_2 
REMARK    2  A    between atoms: C_7  and  N_4 
ROOT
ATOM      1  C   UNL d   1      -4.608   3.683   0.163  0.00  0.00     0.280 C 
ATOM      2  N   UNL d   1      -3.437   3.010  -0.134  0.00  0.00    -0.321 N 
ATOM      3  O   UNL d   1      -4.689   4.896   0.343  0.00  0.00    -0.265 OA
ATOM      4  H   UNL d   1      -3.548   2.061  -0.472  0.00  0.00     0.169 HD
ENDROOT
BRANCH   2   5
ATOM      5  C   UNL d   1      -2.142   3.567  -0.127  0.00  0.00     0.041 A 
ATOM      6  C   UNL d   1      -1.143   3.054  -0.974  0.00  0.00    -0.035 A 
ATOM      7  C   UNL d   1       0.165   3.577  -0.882  0.00  0.00     0.015 A 
ATOM      8  C   UNL d   1      -1.395   2.035  -2.052  0.00  0.00     0.050 C 
ATOM      9  C   UNL d   1       0.485   4.595   0.023  0.00  0.00    -0.061 A 
ATOM     10  C   UNL d   1      -0.520   5.108   0.842  0.00  0.00     0.009 A 
ATOM     11  C   UNL d   1       1.886   5.127   0.096  0.00  0.00     0.048 C 
ATOM     12  C   UNL d   1      -1.819   4.600   0.763  0.00  0.00     0.030 A 
ENDBRANCH   2   5
BRANCH   1  13
ATOM     13  C   UNL d   1      -5.783   2.835   0.178  0.00  0.00     0.144 A 
ATOM     14  O   UNL d   1      -5.647   1.476   0.294  0.00  0.00    -0.298 OA
ATOM     15  C   UNL d   1      -6.904   0.957   0.374  0.00  0.00     0.122 A 
ATOM     16 BR   UNL d   1      -7.279  -0.853   0.630  0.00  0.00    -0.023 Br
ATOM     17  C   UNL d   1      -7.848   1.950   0.257  0.00  0.00     0.048 A 
ATOM     18  C   UNL d   1      -7.126   3.162   0.131  0.00  0.00     0.046 A 
ENDBRANCH   1  13
TORSDOF 2
