REMARK  4 active torsions:
REMARK  status: ('A' for Active; 'I' for Inactive)
REMARK    1  A    between atoms: N_2  and  C_1 
REMARK    2  A    between atoms: C_5  and  C_4 
REMARK       I    between atoms: N_8  and  C_5 
REMARK    3  A    between atoms: C_17  and  N_8 
REMARK    4  A    between atoms: C_10  and  C_17 
ROOT
ATOM      1  C   UNL d   1      -0.937  -2.331  -0.044  0.00  0.00     0.275 C 
ATOM      2  N   UNL d   1      -2.276  -2.650  -0.054  0.00  0.00    -0.350 N 
ATOM      3  O   UNL d   1      -0.549  -1.165  -0.043  0.00  0.00    -0.265 OA
ATOM      4  H   UNL d   1      -2.557  -3.622  -0.015  0.00  0.00     0.163 HD
ENDROOT
BRANCH   1   5
ATOM      5  C   UNL d   1      -0.025  -3.458  -0.034  0.00  0.00     0.145 A 
ATOM      6  O   UNL d   1      -0.503  -4.748  -0.044  0.00  0.00    -0.283 OA
ATOM      7  C   UNL d   1       0.595  -5.557  -0.036  0.00  0.00     0.215 A 
ATOM      8  C   UNL d   1       1.763  -4.835  -0.020  0.00  0.00     0.066 A 
ATOM      9  C   UNL d   1       1.361  -3.478  -0.017  0.00  0.00     0.047 A 
BRANCH   7  10
ATOM     10  N   UNL d   1       0.359  -6.967  -0.049  0.00  0.00    -0.090 N 
ATOM     11  O   UNL d   1       1.363  -7.691  -0.043  0.00  0.00    -0.530 OA
ATOM     12  O   UNL d   1      -0.817  -7.354  -0.067  0.00  0.00    -0.530 OA
ENDBRANCH   7  10
ENDBRANCH   1   5
BRANCH   2  13
ATOM     13  C   UNL d   1      -3.268  -1.602  -0.021  0.00  0.00     0.169 C 
BRANCH  13  14
ATOM     14  C   UNL d   1      -4.635  -2.199   0.014  0.00  0.00     0.000 A 
ATOM     15  S   UNL d   1      -5.388  -2.538   1.517  0.00  0.00    -0.105 SA
ATOM     16  C   UNL d   1      -6.805  -3.111   0.752  0.00  0.00     0.050 A 
ATOM     17  C   UNL d   1      -6.713  -3.050  -0.620  0.00  0.00     0.008 A 
ATOM     18  C   UNL d   1      -5.460  -2.522  -1.047  0.00  0.00     0.017 A 
ENDBRANCH  13  14
ENDBRANCH   2  13
TORSDOF 4
