REMARK  3 active torsions:
REMARK  status: ('A' for Active; 'I' for Inactive)
REMARK    1  A    between atoms: C_7  and  C_1 
REMARK    2  A    between atoms: C_6  and  C_7 
REMARK    3  A    between atoms: N_12  and  C_8 
ROOT
ATOM      1  C   UNL d   1       2.368  -0.080   0.021  0.00  0.00     0.062 A 
ATOM      2  S   UNL d   1       1.603   1.452   0.131  0.00  0.00    -0.085 SA
ATOM      3  C   UNL d   1       1.433  -1.102  -0.124  0.00  0.00    -0.029 A 
ATOM      4  C   UNL d   1       0.070  -0.603  -0.035  0.00  0.00    -0.010 A 
ATOM      5  C   UNL d   1       0.029   0.788   0.061  0.00  0.00     0.016 A 
ATOM      6  C   UNL d   1      -1.170  -1.296  -0.066  0.00  0.00     0.037 A 
ATOM      7  C   UNL d   1      -1.188   1.499   0.088  0.00  0.00     0.021 A 
ATOM      8  C   UNL d   1      -2.377  -0.595  -0.021  0.00  0.00     0.035 A 
ATOM      9  C   UNL d   1       1.726  -2.551  -0.377  0.00  0.00     0.050 C 
ATOM     10  C   UNL d   1      -2.390   0.789   0.043  0.00  0.00     0.025 A 
ATOM     11 CL   UNL d   1      -3.863  -1.463  -0.054  0.00  0.00    -0.084 Cl
ENDROOT
BRANCH   1  12
ATOM     12  C   UNL d   1       3.833  -0.077   0.023  0.00  0.00     0.190 C 
ATOM     13  O   UNL d   1       4.501   0.844  -0.452  0.00  0.00    -0.287 OA
BRANCH  12  14
ATOM     14  C   UNL d   1       4.618  -1.219   0.576  0.00  0.00     0.073 C 
ATOM     15  C   UNL d   1       4.212  -2.064   1.531  0.00  0.00     0.088 C 
BRANCH  15  16
ATOM     16  N   UNL d   1       4.852  -3.182   2.050  0.00  0.00    -0.398 N 
ATOM     17  C   UNL d   1       6.152  -3.680   1.597  0.00  0.00     0.148 C 
ATOM     18  C   UNL d   1       4.199  -4.051   3.033  0.00  0.00     0.148 C 
ENDBRANCH  15  16
ENDBRANCH  12  14
ENDBRANCH   1  12
TORSDOF 3
