REMARK  5 active torsions:
REMARK  status: ('A' for Active; 'I' for Inactive)
REMARK    1  A    between atoms: C_3  and  S_1 
REMARK    2  A    between atoms: S_2  and  C_4 
REMARK    3  A    between atoms: O_19  and  C_17 
REMARK    4  A    between atoms: K_21  and  K_21 
REMARK    5  A    between atoms: K_22  and  K_22 
ROOT
ATOM      1  K   UNL d   2       3.371  -1.530  -0.968  0.00  0.00     0.000 K 
ENDROOT
TORSDOF 5
