REMARK  8 active torsions:
REMARK  status: ('A' for Active; 'I' for Inactive)
REMARK    1  A    between atoms: O_10  and  C_1 
REMARK    2  A    between atoms: C_4  and  N_9 
REMARK    3  A    between atoms: C_6  and  C_8 
REMARK    4  A    between atoms: O_21  and  C_6 
REMARK    5  A    between atoms: N_9  and  C_26 
REMARK    6  A    between atoms: C_20  and  O_10 
REMARK    7  A    between atoms: C_25  and  O_21 
REMARK    8  A    between atoms: C_26  and  C_25 
ROOT
ATOM      1  N   UNL d   1       5.819 -10.230   0.101  0.00  0.00    -0.351 N 
ATOM      2  HN  UNL d   1       5.975  -9.286   0.454  1.00  0.00     0.166 HD
ATOM      3  C   UNL d   1       5.624 -10.453  -1.217  0.00  0.00     0.102 A 
ATOM      4  N   UNL d   1       5.477 -14.529   2.269  0.00  0.00    -0.191 NA
ATOM      5  C   UNL d   1       5.522 -13.664   1.500  0.00  0.00     0.101 C 
ATOM      6  C   UNL d   1       5.570 -12.600   0.547  0.00  0.00     0.060 A 
ATOM      7  C   UNL d   1       5.398 -11.748  -1.691  0.00  0.00     0.050 A 
ATOM      8  C   UNL d   1       5.802 -11.294   0.946  0.00  0.00     0.112 A 
ATOM      9  C   UNL d   1       5.365 -12.828  -0.807  0.00  0.00     0.028 A 
ENDROOT
BRANCH   3  10
ATOM     10  N   UNL d   1       5.552  -9.383  -2.112  0.00  0.00    -0.370 N 
ATOM     11  C   UNL d   1       6.520  -9.412  -3.206  0.00  0.00     0.151 C 
BRANCH  10  12
ATOM     12  C   UNL d   1       5.315  -8.053  -1.527  0.00  0.00     0.150 C 
BRANCH  12  13
ATOM     13  C   UNL d   1       3.881  -7.915  -0.995  0.00  0.00     0.199 C 
BRANCH  13  14
ATOM     14  O   UNL d   1       3.584  -6.552  -0.634  0.00  0.00    -0.316 OA
BRANCH  14  15
ATOM     15  C   UNL d   1       3.201  -5.753  -1.660  0.00  0.00     0.293 C 
ATOM     16  O   UNL d   1       3.122  -6.082  -2.833  0.00  0.00    -0.259 OA
BRANCH  15  17
ATOM     17  C   UNL d   1       2.912  -4.374  -1.182  0.00  0.00     0.039 A 
ATOM     18  C   UNL d   1       2.553  -3.407  -2.130  0.00  0.00     0.020 A 
ATOM     19  C   UNL d   1       2.298  -2.087  -1.742  0.00  0.00     0.038 A 
ATOM     20  C   UNL d   1       2.437  -1.712  -0.407  0.00  0.00     0.078 A 
ATOM     21  C   UNL d   1       2.744  -2.687   0.547  0.00  0.00     0.038 A 
ATOM     22  C   UNL d   1       2.986  -4.011   0.167  0.00  0.00     0.020 A 
BRANCH  20  23
ATOM     23  O   UNL d   1       2.229  -0.463   0.091  0.00  0.00    -0.255 OA
BRANCH  23  24
ATOM     24  C   UNL d   1       2.608   0.668  -0.682  0.00  0.00     0.530 C 
ATOM     25  F   UNL d   1       3.208   0.369  -1.854  0.00  0.00    -0.144 F 
ATOM     26  F   UNL d   1       3.470   1.416   0.043  0.00  0.00    -0.144 F 
ATOM     27  F   UNL d   1       1.513   1.416  -0.937  0.00  0.00    -0.144 F 
ENDBRANCH  23  24
ENDBRANCH  20  23
ENDBRANCH  15  17
ENDBRANCH  14  15
ENDBRANCH  13  14
ENDBRANCH  12  13
ENDBRANCH  10  12
ENDBRANCH   3  10
TORSDOF 8
