REMARK  4 active torsions:
REMARK  status: ('A' for Active; 'I' for Inactive)
REMARK    1  A    between atoms: S_5  and  C_1 
REMARK    2  A    between atoms: S_6  and  C_2 
REMARK    3  A    between atoms: C_9  and  S_5 
REMARK    4  A    between atoms: C_10  and  S_6 
ROOT
ATOM      1  C   UNL d   1       0.691  -1.537   0.026  0.00  0.00     0.081 A 
ATOM      2  C   UNL d   1      -0.661  -1.429   0.070  0.00  0.00     0.081 A 
ATOM      3  C   UNL d   1       0.878  -0.089   0.191  0.00  0.00     0.241 A 
ATOM      4  C   UNL d   1      -0.611   0.025   0.233  0.00  0.00     0.241 A 
ATOM      5  O   UNL d   1       1.758   0.732   0.181  0.00  0.00    -0.283 OA
ATOM      6  O   UNL d   1      -1.362   0.960   0.335  0.00  0.00    -0.283 OA
ENDROOT
BRANCH   1   7
ATOM      7  S   UNL d   1       1.758  -2.875  -0.245  0.00  0.00    -0.085 SA
BRANCH   7   8
ATOM      8  C   UNL d   1       2.860  -2.641   1.137  0.00  0.00     0.005 A 
ATOM      9  C   UNL d   1       2.568  -3.251   2.362  0.00  0.00     0.019 A 
ATOM     10  C   UNL d   1       3.487  -3.205   3.412  0.00  0.00     0.001 A 
ATOM     11  C   UNL d   1       4.705  -2.549   3.245  0.00  0.00     0.000 A 
ATOM     12  C   UNL d   1       4.996  -1.925   2.032  0.00  0.00     0.001 A 
ATOM     13  C   UNL d   1       4.077  -1.970   0.980  0.00  0.00     0.019 A 
ENDBRANCH   7   8
ENDBRANCH   1   7
BRANCH   2  14
ATOM     14  S   UNL d   1      -1.969  -2.554  -0.129  0.00  0.00    -0.085 SA
BRANCH  14  15
ATOM     15  C   UNL d   1      -2.233  -2.978   1.585  0.00  0.00     0.005 A 
ATOM     16  C   UNL d   1      -2.538  -2.014   2.552  0.00  0.00     0.019 A 
ATOM     17  C   UNL d   1      -2.804  -2.394   3.871  0.00  0.00     0.001 A 
ATOM     18  C   UNL d   1      -2.786  -3.740   4.228  0.00  0.00     0.000 A 
ATOM     19  C   UNL d   1      -2.498  -4.709   3.269  0.00  0.00     0.001 A 
ATOM     20  C   UNL d   1      -2.221  -4.329   1.954  0.00  0.00     0.019 A 
ENDBRANCH  14  15
ENDBRANCH   2  14
TORSDOF 4
