REMARK  8 active torsions:
REMARK  status: ('A' for Active; 'I' for Inactive)
REMARK    1  A    between atoms: C_5  and  C_1 
REMARK    2  A    between atoms: C_6  and  C_1 
REMARK    3  A    between atoms: C_7  and  C_1 
REMARK    4  A    between atoms: O_14  and  C_1 
REMARK    5  A    between atoms: C_4  and  N_2 
REMARK    6  A    between atoms: N_3  and  C_5 
REMARK    7  A    between atoms: C_10  and  C_4 
REMARK    8  A    between atoms: C_11  and  C_4 
ROOT
ATOM      1  N   UNL d   1       3.434   3.523   1.026  0.00  0.00     0.105 N 
ATOM      2  N   UNL d   1       1.099   1.675   1.654  0.00  0.00     0.095 N 
ATOM      3  C   UNL d   1       3.500   2.035   0.929  0.00  0.00     0.304 C 
ATOM      4  C   UNL d   1       2.017   3.906   0.821  0.00  0.00     0.304 C 
ATOM      5  C   UNL d   1       2.510   1.300   1.869  0.00  0.00     0.302 C 
ATOM      6  C   UNL d   1       0.990   3.152   1.703  0.00  0.00     0.302 C 
ENDROOT
BRANCH   2   7
ATOM      7  C   UNL d   1       0.539   1.158   0.376  0.00  0.00     0.320 C 
BRANCH   7   8
ATOM      8  C   UNL d   1       0.548  -0.398   0.072  0.00  0.00     0.138 C 
BRANCH   8   9
ATOM      9  C   UNL d   1      -0.083  -0.736  -1.300  0.00  0.00    -0.018 A 
ATOM     10  C   UNL d   1       0.233  -1.965  -1.915  0.00  0.00     0.010 A 
ATOM     11  C   UNL d   1      -0.273  -2.301  -3.171  0.00  0.00     0.001 A 
ATOM     12  C   UNL d   1      -1.121  -1.421  -3.835  0.00  0.00     0.000 A 
ATOM     13  C   UNL d   1      -1.462  -0.209  -3.244  0.00  0.00     0.001 A 
ATOM     14  C   UNL d   1      -0.950   0.132  -1.986  0.00  0.00     0.010 A 
ENDBRANCH   8   9
BRANCH   8  15
ATOM     15  C   UNL d   1      -0.113  -1.216   1.192  0.00  0.00    -0.018 A 
ATOM     16  C   UNL d   1      -1.412  -0.915   1.638  0.00  0.00     0.010 A 
ATOM     17  C   UNL d   1      -2.038  -1.691   2.620  0.00  0.00     0.001 A 
ATOM     18  C   UNL d   1      -1.378  -2.786   3.171  0.00  0.00     0.000 A 
ATOM     19  C   UNL d   1      -0.089  -3.098   2.751  0.00  0.00     0.001 A 
ATOM     20  C   UNL d   1       0.538  -2.320   1.774  0.00  0.00     0.010 A 
ENDBRANCH   8  15
BRANCH   8  21
ATOM     21  O   UNL d   1       1.940  -0.780  -0.070  0.00  0.00    -0.378 OA
ATOM     22  H   UNL d   1       2.222  -0.477  -0.945  0.00  0.00     0.211 HD
ENDBRANCH   8  21
ENDBRANCH   7   8
ENDBRANCH   2   7
BRANCH   1  23
ATOM     23  C   UNL d   1       3.988   3.985   2.338  0.00  0.00     0.289 C 
BRANCH  23  24
ATOM     24  C   UNL d   1       5.463   3.591   2.491  0.00  0.00    -0.021 A 
ATOM     25  C   UNL d   1       6.439   4.058   1.594  0.00  0.00     0.010 A 
ATOM     26  C   UNL d   1       7.770   3.659   1.719  0.00  0.00     0.001 A 
ATOM     27  C   UNL d   1       8.142   2.780   2.734  0.00  0.00     0.000 A 
ATOM     28  C   UNL d   1       7.186   2.297   3.624  0.00  0.00     0.001 A 
ATOM     29  C   UNL d   1       5.855   2.702   3.507  0.00  0.00     0.010 A 
ENDBRANCH  23  24
BRANCH  23  30
ATOM     30  C   UNL d   1       3.797   5.475   2.654  0.00  0.00    -0.021 A 
ATOM     31  C   UNL d   1       3.540   5.858   3.983  0.00  0.00     0.010 A 
ATOM     32  C   UNL d   1       3.333   7.197   4.315  0.00  0.00     0.001 A 
ATOM     33  C   UNL d   1       3.385   8.174   3.325  0.00  0.00     0.000 A 
ATOM     34  C   UNL d   1       3.664   7.815   2.007  0.00  0.00     0.001 A 
ATOM     35  C   UNL d   1       3.884   6.477   1.675  0.00  0.00     0.010 A 
ENDBRANCH  23  30
ENDBRANCH   1  23
TORSDOF 8
