REMARK  4 active torsions:
REMARK  status: ('A' for Active; 'I' for Inactive)
REMARK    1  A    between atoms: C_2  and  C_1 
REMARK       I    between atoms: N_9  and  C_1 
REMARK       I    between atoms: N_3  and  C_2 
REMARK    2  A    between atoms: C_4  and  N_3 
REMARK    3  A    between atoms: N_6  and  N_9 
REMARK    4  A    between atoms: C_17  and  C_11 
ROOT
ATOM      1  C   UNL d   1       1.143  -0.165  -0.319  0.00  0.00     0.328 C 
ATOM      2  N   UNL d   1       0.461  -1.329  -0.608  0.00  0.00    -0.262 N 
ATOM      3  O   UNL d   1       2.347   0.049  -0.382  0.00  0.00    -0.261 OA
ATOM      4  H   UNL d   1      -0.556  -1.324  -0.580  0.00  0.00     0.190 HD
ENDROOT
BRANCH   1   5
ATOM      5  C   UNL d   1       0.206   0.998   0.054  0.00  0.00     0.315 C 
ATOM      6  N   UNL d   1       0.804   2.226  -0.153  0.00  0.00    -0.317 N 
ATOM      7  H   UNL d   1       1.722   2.189  -0.600  0.00  0.00     0.169 HD
ATOM      8  O   UNL d   1      -0.936   0.756   0.421  0.00  0.00    -0.262 OA
BRANCH   6   9
ATOM      9  C   UNL d   1       0.300   3.503   0.154  0.00  0.00     0.057 A 
ATOM     10  C   UNL d   1       0.963   4.637  -0.356  0.00  0.00     0.062 A 
ATOM     11  C   UNL d   1       0.530   5.925  -0.040  0.00  0.00     0.050 A 
ATOM     12 CL   UNL d   1       2.326   4.472  -1.409  0.00  0.00    -0.082 Cl
ATOM     13  C   UNL d   1      -0.563   6.093   0.801  0.00  0.00     0.035 A 
ATOM     14  C   UNL d   1      -1.232   4.984   1.317  0.00  0.00     0.026 A 
ATOM     15 CL   UNL d   1      -1.087   7.677   1.220  0.00  0.00    -0.084 Cl
ATOM     16  C   UNL d   1      -0.809   3.692   0.986  0.00  0.00     0.033 A 
ENDBRANCH   6   9
ENDBRANCH   1   5
BRANCH   2  17
ATOM     17  N   UNL d   1       1.148  -2.401  -1.094  0.00  0.00    -0.307 N 
ATOM     18  C   UNL d   1       0.426  -3.337  -1.624  0.00  0.00     0.136 C 
ATOM     19  HN  UNL d   1       2.165  -2.462  -1.044  1.00  0.00     0.186 HD
BRANCH  18  20
ATOM     20  C   UNL d   1       1.038  -4.521  -2.262  0.00  0.00     0.049 A 
ATOM     21  N   UNL d   1       0.212  -5.200  -3.094  0.00  0.00    -0.365 N 
ATOM     22  C   UNL d   1       0.767  -6.224  -3.779  0.00  0.00     0.088 A 
ATOM     23  HN  UNL d   1      -0.772  -4.953  -3.198  1.00  0.00     0.165 HD
ATOM     24  C   UNL d   1       2.093  -6.611  -3.652  0.00  0.00     0.017 A 
ATOM     25  C   UNL d   1       2.906  -5.912  -2.766  0.00  0.00     0.004 A 
ATOM     26  C   UNL d   1       2.374  -4.839  -2.056  0.00  0.00     0.031 A 
ENDBRANCH  18  20
ENDBRANCH   2  17
TORSDOF 4
