REMARK  3 active torsions:
REMARK  status: ('A' for Active; 'I' for Inactive)
REMARK    1  A    between atoms: C_7  and  N_1 
REMARK    2  A    between atoms: C_15  and  N_8 
REMARK    3  A    between atoms: C_16  and  C_15 
ROOT
ATOM      1  C   UNL d   1       2.422  -2.136  -0.106  0.00  0.00     0.111 C 
ATOM      2  N   UNL d   1       3.895  -4.621   0.297  0.00  0.00     0.092 N 
ATOM      3  C   UNL d   1       3.095  -2.438   1.230  0.00  0.00     0.057 C 
ATOM      4  C   UNL d   1       1.884  -3.452  -0.668  0.00  0.00     0.057 C 
ATOM      5  C   UNL d   1       3.061  -4.408  -0.901  0.00  0.00     0.275 C 
ATOM      6  C   UNL d   1       4.275  -3.370   0.977  0.00  0.00     0.275 C 
ENDROOT
BRANCH   1   7
ATOM      7  N   UNL d   1       1.471  -1.054  -0.006  0.00  0.00    -0.254 N 
ATOM      8  N   UNL d   1       0.189  -1.243   0.382  0.00  0.00    -0.018 NA
ATOM      9  N   UNL d   1      -0.402  -0.050   0.402  0.00  0.00    -0.280 N 
ATOM     10  C   UNL d   1       0.523   0.890   0.037  0.00  0.00     0.091 A 
ATOM     11  HN  UNL d   1      -1.376   0.131   0.646  1.00  0.00     0.184 HD
ATOM     12  C   UNL d   1       1.734   0.273  -0.230  0.00  0.00     0.149 A 
ATOM     13  C   UNL d   1       0.460   2.283  -0.096  0.00  0.00     0.036 A 
ATOM     14  N   UNL d   1       2.896   0.847  -0.608  0.00  0.00    -0.349 N 
ATOM     15  C   UNL d   1       2.786   2.193  -0.721  0.00  0.00     0.090 A 
ATOM     16  HN  UNL d   1       3.756   0.328  -0.788  1.00  0.00     0.167 HD
ATOM     17  C   UNL d   1       1.632   2.938  -0.485  0.00  0.00     0.019 A 
ENDBRANCH   1   7
BRANCH   2  18
ATOM     18  C   UNL d   1       5.140  -5.357  -0.038  0.00  0.00     0.311 C 
BRANCH  18  19
ATOM     19  C   UNL d   1       4.925  -6.720  -0.655  0.00  0.00    -0.030 A 
ATOM     20  C   UNL d   1       5.400  -6.998  -1.946  0.00  0.00     0.009 A 
ATOM     21  C   UNL d   1       5.182  -8.247  -2.527  0.00  0.00     0.001 A 
ATOM     22  C   UNL d   1       4.496  -9.233  -1.821  0.00  0.00     0.000 A 
ATOM     23  C   UNL d   1       4.039  -8.976  -0.529  0.00  0.00     0.001 A 
ATOM     24  C   UNL d   1       4.255  -7.727   0.053  0.00  0.00     0.009 A 
ENDBRANCH  18  19
ENDBRANCH   2  18
TORSDOF 3
