REMARK  3 active torsions:
REMARK  status: ('A' for Active; 'I' for Inactive)
REMARK    1  A    between atoms: C_2  and  N_1 
REMARK       I    between atoms: C_6  and  N_1 
REMARK    2  A    between atoms: C_7  and  C_3 
REMARK    3  A    between atoms: N_11  and  C_4 
ROOT
ATOM      1  C   UNL d   1       1.007   0.305  -0.041  0.00  0.00     0.056 A 
ATOM      2  C   UNL d   1      -1.843   0.042  -0.011  0.00  0.00    -0.049 A 
ATOM      3  C   UNL d   1       0.196   1.454  -0.076  0.00  0.00     0.033 A 
ATOM      4  C   UNL d   1      -1.206   1.295  -0.092  0.00  0.00     0.033 A 
ATOM      5  C   UNL d   1       0.383  -0.952   0.001  0.00  0.00     0.032 A 
ATOM      6  C   UNL d   1      -1.013  -1.082   0.031  0.00  0.00     0.010 A 
ENDROOT
BRANCH   1   7
ATOM      7  N   UNL d   1       2.428   0.272  -0.041  0.00  0.00    -0.326 N 
ATOM      8  C   UNL d   1       3.312   1.283   0.277  0.00  0.00     0.218 C 
ATOM      9  O   UNL d   1       3.029   2.414   0.658  0.00  0.00    -0.274 OA
ATOM     10  C   UNL d   1       4.760   0.882   0.129  0.00  0.00     0.117 C 
ATOM     11  H   UNL d   1       2.831  -0.647  -0.158  0.00  0.00     0.169 HD
ENDBRANCH   1   7
BRANCH   3  12
ATOM     12  N   UNL d   1       0.687   2.740  -0.381  0.00  0.00    -0.301 NA
ATOM     13  H   UNL d   1       1.643   2.862  -0.029  0.00  0.00     0.124 HD
ATOM     14  H   UNL d   1       0.099   3.488  -0.030  0.00  0.00     0.124 HD
ENDBRANCH   3  12
BRANCH   2  15
ATOM     15  C   UNL d   1      -3.379  -0.048   0.013  0.00  0.00    -0.024 C 
ATOM     16  C   UNL d   1      -3.913  -1.498   0.056  0.00  0.00     0.019 C 
ATOM     17  C   UNL d   1      -3.922   0.679   1.262  0.00  0.00     0.019 C 
ATOM     18  C   UNL d   1      -3.973   0.617  -1.249  0.00  0.00     0.019 C 
ENDBRANCH   2  15
TORSDOF 3
