REMARK  2 active torsions:
REMARK  status: ('A' for Active; 'I' for Inactive)
REMARK    1  A    between atoms: C_2  and  C_1 
REMARK    2  A    between atoms: O_10  and  C_2 
ROOT
ATOM      1  C   UNL d   1      -1.281   0.434  -0.978  0.00  0.00     0.092 C 
ATOM      2  C   UNL d   1      -0.478   0.569   1.339  0.00  0.00    -0.025 C 
ATOM      3  C   UNL d   1      -1.217  -0.340   0.368  0.00  0.00     0.022 C 
ATOM      4  C   UNL d   1       0.763   0.907   0.946  0.00  0.00    -0.026 C 
ATOM      5  C   UNL d   1       0.163   0.765  -1.449  0.00  0.00     0.024 C 
ATOM      6  C   UNL d   1      -0.341  -1.609   0.218  0.00  0.00     0.010 C 
ATOM      7  C   UNL d   1       1.187   0.311  -0.382  0.00  0.00     0.009 C 
ATOM      8  C   UNL d   1       1.079  -1.223  -0.255  0.00  0.00     0.009 C 
ENDROOT
BRANCH   1   9
ATOM      9  C   UNL d   1      -2.084  -0.302  -2.035  0.00  0.00     0.144 C 
ATOM     10  O   UNL d   1      -2.649  -1.372  -1.876  0.00  0.00    -0.650 OA
BRANCH   9  11
ATOM     11  O   UNL d   1      -2.180   0.386  -3.199  0.00  0.00    -0.776 OA
ATOM     12  H   UNL d   1      -1.735   1.254  -3.185  0.00  0.00     0.167 HD
ENDBRANCH   9  11
ENDBRANCH   1   9
TORSDOF 2
