REMARK  3 active torsions:
REMARK  status: ('A' for Active; 'I' for Inactive)
REMARK    1  A    between atoms: C_8  and  C_1 
REMARK    2  A    between atoms: C_9  and  C_5 
REMARK    3  A    between atoms: O_16  and  C_8 
ROOT
ATOM      1  C   UNL d   1      -2.393   1.680  -0.002  0.00  0.00     0.052 A 
ATOM      2  N   UNL d   1      -3.245  -0.937  -0.099  0.00  0.00    -0.355 N 
ATOM      3  HN  UNL d   1      -3.563  -1.906  -0.082  1.00  0.00     0.166 HD
ATOM      4  C   UNL d   1      -1.427   0.652   0.006  0.00  0.00     0.009 A 
ATOM      5  C   UNL d   1      -4.148   0.068  -0.208  0.00  0.00     0.045 A 
ATOM      6  C   UNL d   1      -3.753   1.391  -0.127  0.00  0.00     0.049 A 
ATOM      7  C   UNL d   1      -1.933  -0.661  -0.015  0.00  0.00     0.044 A 
ATOM      8  C   UNL d   1      -0.020   0.845   0.006  0.00  0.00     0.034 A 
ATOM      9  C   UNL d   1      -1.044  -1.726   0.036  0.00  0.00     0.032 A 
ATOM     10  C   UNL d   1       0.847  -0.244   0.037  0.00  0.00     0.011 A 
ATOM     11  C   UNL d   1       0.340  -1.534   0.067  0.00  0.00     0.021 A 
ATOM     12 BR   UNL d   1       2.714   0.036   0.031  0.00  0.00    -0.051 Br
ENDROOT
BRANCH   5  13
ATOM     13  C   UNL d   1      -5.541  -0.345  -0.449  0.00  0.00     0.006 A 
ATOM     14  C   UNL d   1      -6.028  -1.576  -0.005  0.00  0.00     0.101 A 
ATOM     15  N   UNL d   1      -7.290  -2.038  -0.206  0.00  0.00    -0.374 N 
ATOM     16  C   UNL d   1      -8.121  -1.242  -0.907  0.00  0.00     0.087 A 
ATOM     17  HN  UNL d   1      -7.593  -2.942   0.156  1.00  0.00     0.164 HD
ATOM     18  C   UNL d   1      -7.752  -0.007  -1.407  0.00  0.00     0.018 A 
ATOM     19  C   UNL d   1      -6.452   0.441  -1.173  0.00  0.00     0.016 A 
ENDBRANCH   5  13
BRANCH   1  20
ATOM     20  C   UNL d   1      -2.047   3.115   0.081  0.00  0.00     0.177 C 
ATOM     21  O   UNL d   1      -2.525   3.947  -0.670  0.00  0.00    -0.646 OA
BRANCH  20  22
ATOM     22  O   UNL d   1      -1.242   3.415   1.119  0.00  0.00    -0.773 OA
ATOM     23  H   UNL d   1      -1.038   2.674   1.722  0.00  0.00     0.167 HD
ENDBRANCH  20  22
ENDBRANCH   1  20
TORSDOF 3
