REMARK  4 active torsions:
REMARK  status: ('A' for Active; 'I' for Inactive)
REMARK    1  A    between atoms: C_8  and  N_2 
REMARK    2  A    between atoms: C_7  and  N_3 
REMARK    3  A    between atoms: N_11  and  C_4 
REMARK    4  A    between atoms: C_15  and  C_8 
ROOT
ATOM      1  C   UNL d   1      -0.611   1.234   0.247  0.00  0.00     0.338 A 
ATOM      2  N   UNL d   1      -1.320   0.050   0.068  0.00  0.00    -0.262 N 
ATOM      3  N   UNL d   1       0.789   1.153   0.062  0.00  0.00    -0.254 N 
ATOM      4  C   UNL d   1       1.443  -0.060  -0.157  0.00  0.00     0.094 A 
ATOM      5  C   UNL d   1      -0.734  -1.178  -0.122  0.00  0.00     0.254 A 
ATOM      6  C   UNL d   1       0.727  -1.188  -0.223  0.00  0.00     0.117 A 
ATOM      7  O   UNL d   1      -1.190   2.287   0.526  0.00  0.00    -0.246 OA
ATOM      8  O   UNL d   1      -1.333  -2.248  -0.195  0.00  0.00    -0.268 OA
ENDROOT
BRANCH   2   9
ATOM      9  C   UNL d   1      -2.776   0.113   0.079  0.00  0.00     0.175 C 
BRANCH   9  10
ATOM     10  C   UNL d   1      -3.344   0.446  -1.287  0.00  0.00    -0.040 A 
ATOM     11  C   UNL d   1      -3.631  -0.569  -2.213  0.00  0.00     0.009 A 
ATOM     12  C   UNL d   1      -4.136  -0.256  -3.477  0.00  0.00     0.001 A 
ATOM     13  C   UNL d   1      -4.353   1.075  -3.833  0.00  0.00     0.000 A 
ATOM     14  C   UNL d   1      -4.064   2.092  -2.926  0.00  0.00     0.001 A 
ATOM     15  C   UNL d   1      -3.561   1.779  -1.662  0.00  0.00     0.009 A 
ENDBRANCH   9  10
ENDBRANCH   2   9
BRANCH   3  16
ATOM     16  C   UNL d   1       1.508   2.396   0.035  0.00  0.00     0.045 A 
ATOM     17  C   UNL d   1       1.478   3.269   1.131  0.00  0.00     0.032 A 
ATOM     18  C   UNL d   1       2.202   4.463   1.100  0.00  0.00     0.026 A 
ATOM     19  C   UNL d   1       2.934   4.803  -0.037  0.00  0.00     0.034 A 
ATOM     20  C   UNL d   1       2.960   3.952  -1.140  0.00  0.00     0.026 A 
ATOM     21 CL   UNL d   1       3.813   6.281  -0.079  0.00  0.00    -0.084 Cl
ATOM     22  C   UNL d   1       2.258   2.746  -1.099  0.00  0.00     0.032 A 
ENDBRANCH   3  16
BRANCH   4  23
ATOM     23  N   UNL d   1       2.827  -0.144  -0.248  0.00  0.00    -0.288 NA
ATOM     24  H   UNL d   1       3.292   0.600   0.266  0.00  0.00     0.125 HD
ATOM     25  H   UNL d   1       3.207  -1.057  -0.013  0.00  0.00     0.125 HD
ENDBRANCH   4  23
TORSDOF 4
