REMARK  2 active torsions:
REMARK  status: ('A' for Active; 'I' for Inactive)
REMARK    1  A    between atoms: N_4  and  C_3 
REMARK    2  A    between atoms: C_5  and  N_4 
ROOT
ATOM      1  N   UNL d   1       1.980   0.621   1.313  0.00  0.00    -0.195 NA
ATOM      2  C   UNL d   1       1.306   0.515   0.378  0.00  0.00     0.101 C 
ATOM      3  C   UNL d   1       0.406   0.412  -0.808  0.00  0.00     0.244 C 
ATOM      4  C   UNL d   1      -0.361  -0.939  -0.778  0.00  0.00     0.057 C 
ATOM      5  C   UNL d   1      -0.662   1.543  -0.668  0.00  0.00     0.057 C 
ATOM      6  C   UNL d   1      -1.242  -1.122   0.463  0.00  0.00     0.004 C 
ATOM      7  C   UNL d   1      -1.529   1.391   0.598  0.00  0.00     0.004 C 
ATOM      8  C   UNL d   1      -2.215   0.030   0.670  0.00  0.00     0.000 C 
ENDROOT
BRANCH   3   9
ATOM      9  N   UNL d   1       1.157   0.612  -2.094  0.00  0.00     0.111 N 
ATOM     10  H   UNL d   1       1.635   1.513  -2.083  0.00  0.00     0.318 HD
BRANCH   9  11
ATOM     11  C   UNL d   1       2.089  -0.463  -2.506  0.00  0.00     0.222 C 
ATOM     12  C   UNL d   1       3.446  -0.536  -1.768  0.00  0.00     0.036 C 
ATOM     13  C   UNL d   1       4.561   0.372  -2.284  0.00  0.00     0.002 C 
ATOM     14  C   UNL d   1       4.711   0.320  -3.796  0.00  0.00     0.000 C 
ATOM     15  C   UNL d   1       3.380   0.590  -4.483  0.00  0.00     0.002 C 
ATOM     16  C   UNL d   1       2.323  -0.413  -4.032  0.00  0.00     0.036 C 
ENDBRANCH   9  11
ENDBRANCH   3   9
TORSDOF 2
