REMARK  2 active torsions:
REMARK  status: ('A' for Active; 'I' for Inactive)
REMARK    1  A    between atoms: C_6  and  N_1 
REMARK    2  A    between atoms: C_11  and  C_6 
ROOT
ATOM      1  N   UNL d   1       0.085  -1.607  -0.029  0.00  0.00    -0.345 N 
ATOM      2  C   UNL d   1       1.200  -0.789  -0.012  0.00  0.00     0.046 A 
ATOM      3  C   UNL d   1      -1.076  -0.853  -0.028  0.00  0.00     0.046 A 
ATOM      4  C   UNL d   1      -0.691   0.488  -0.024  0.00  0.00     0.003 A 
ATOM      5  C   UNL d   1       0.738   0.529  -0.021  0.00  0.00     0.003 A 
ATOM      6  C   UNL d   1      -2.430  -1.232  -0.026  0.00  0.00     0.030 A 
ATOM      7  C   UNL d   1       2.575  -1.087   0.006  0.00  0.00     0.030 A 
ATOM      8  C   UNL d   1      -1.689   1.485  -0.019  0.00  0.00     0.014 A 
ATOM      9  C   UNL d   1       1.676   1.583  -0.016  0.00  0.00     0.014 A 
ATOM     10  C   UNL d   1      -3.037   1.117  -0.012  0.00  0.00     0.001 A 
ATOM     11  C   UNL d   1       3.044   1.294  -0.005  0.00  0.00     0.001 A 
ATOM     12  C   UNL d   1       3.484  -0.024   0.006  0.00  0.00     0.002 A 
ATOM     13  C   UNL d   1      -3.400  -0.226  -0.015  0.00  0.00     0.002 A 
ENDROOT
BRANCH   1  14
ATOM     14  C   UNL d   1       0.120  -3.062   0.010  0.00  0.00     0.129 C 
BRANCH  14  15
ATOM     15  C   UNL d   1       0.002  -3.732  -1.361  0.00  0.00     0.016 C 
ATOM     16  C   UNL d   1       1.206  -3.499  -2.262  0.00  0.00     0.006 C 
ENDBRANCH  14  15
ENDBRANCH   1  14
TORSDOF 2
