REMARK  4 active torsions:
REMARK  status: ('A' for Active; 'I' for Inactive)
REMARK    1  A    between atoms: C_2  and  S_1 
REMARK    2  A    between atoms: C_10  and  S_1 
REMARK    3  A    between atoms: C_3  and  C_11 
REMARK    4  A    between atoms: N_6  and  C_4 
ROOT
ATOM      1  C   UNL d   1       0.382  -0.862  -1.419  0.00  0.00     0.159 C 
ATOM      2  C   UNL d   1      -0.378  -1.964  -1.282  0.00  0.00     0.120 C 
ATOM      3  C   UNL d   1       0.848  -0.106  -0.320  0.00  0.00     0.113 C 
ATOM      4  N   UNL d   1       1.248   0.493   0.591  0.00  0.00    -0.191 NA
ENDROOT
BRANCH   1   5
ATOM      5  S   UNL d   1       0.800  -0.314  -3.001  0.00  0.00     0.218 S 
ATOM      6  O   UNL d   1       0.240   1.010  -3.206  0.00  0.00    -0.216 OA
ATOM      7  O   UNL d   1       0.540  -1.355  -3.988  0.00  0.00    -0.216 OA
BRANCH   5   8
ATOM      8  C   UNL d   1       2.575  -0.123  -2.956  0.00  0.00     0.065 A 
ATOM      9  C   UNL d   1       3.392  -1.209  -3.287  0.00  0.00     0.024 A 
ATOM     10  C   UNL d   1       4.775  -1.033  -3.346  0.00  0.00     0.002 A 
ATOM     11  C   UNL d   1       5.333   0.219  -3.083  0.00  0.00     0.000 A 
ATOM     12  C   UNL d   1       4.513   1.301  -2.758  0.00  0.00     0.002 A 
ATOM     13  C   UNL d   1       3.129   1.136  -2.699  0.00  0.00     0.024 A 
ENDBRANCH   5   8
ENDBRANCH   1   5
BRANCH   2  14
ATOM     14  N   UNL d   1      -0.897  -2.507  -0.113  0.00  0.00    -0.388 N 
ATOM     15  C   UNL d   1      -1.863  -1.767   0.717  0.00  0.00     0.123 C 
ATOM     16  C   UNL d   1      -1.436  -1.884   2.176  0.00  0.00     0.033 C 
ATOM     17  C   UNL d   1      -1.280  -3.350   2.615  0.00  0.00     0.096 C 
ATOM     18  C   UNL d   1      -0.394  -4.123   1.616  0.00  0.00     0.033 C 
ATOM     19  C   UNL d   1      -0.858  -3.946   0.166  0.00  0.00     0.123 C 
BRANCH  17  20
ATOM     20  C   UNL d   1      -2.627  -4.036   2.842  0.00  0.00     0.391 C 
ATOM     21  F   UNL d   1      -3.673  -3.212   2.617  0.00  0.00    -0.171 F 
ATOM     22  F   UNL d   1      -2.793  -5.122   2.057  0.00  0.00    -0.171 F 
ATOM     23  F   UNL d   1      -2.722  -4.457   4.125  0.00  0.00    -0.171 F 
ENDBRANCH  17  20
ENDBRANCH   2  14
TORSDOF 4
