REMARK  9 active torsions:
REMARK  status: ('A' for Active; 'I' for Inactive)
REMARK    1  A    between atoms: N_2  and  C_1 
REMARK    2  A    between atoms: C_3  and  C_1 
REMARK    3  A    between atoms: C_4  and  C_1 
REMARK    4  A    between atoms: O_6  and  C_1 
REMARK       I    between atoms: C_5  and  N_2 
REMARK    5  A    between atoms: O_8  and  C_5 
REMARK    6  A    between atoms: C_15  and  O_6 
REMARK    7  A    between atoms: C_16  and  O_8 
REMARK    8  A    between atoms: C_17  and  C_15 
REMARK    9  A    between atoms: C_18  and  C_16 
ROOT
ATOM      1  C   UNL d   1       0.935  -0.080   0.135  0.00  0.00     0.338 C 
ENDROOT
BRANCH   1   2
ATOM      2  N   UNL d   1       0.517  -0.549   1.474  0.00  0.00    -0.290 N 
ATOM      3  C   UNL d   1      -0.785  -0.761   1.762  0.00  0.00     0.363 C 
ATOM      4  O   UNL d   1      -1.682  -0.485   0.981  0.00  0.00    -0.238 OA
ATOM      5  H   UNL d   1       1.188  -0.920   2.115  0.00  0.00     0.168 HD
BRANCH   3   6
ATOM      6  O   UNL d   1      -0.911  -1.298   2.983  0.00  0.00    -0.299 OA
BRANCH   6   7
ATOM      7  C   UNL d   1      -2.254  -1.528   3.431  0.00  0.00     0.219 C 
BRANCH   7   8
ATOM      8  C   UNL d   1      -2.400  -2.956   3.894  0.00  0.00    -0.034 A 
ATOM      9  C   UNL d   1      -2.824  -3.243   5.199  0.00  0.00     0.009 A 
ATOM     10  C   UNL d   1      -3.037  -4.563   5.601  0.00  0.00     0.001 A 
ATOM     11  C   UNL d   1      -2.826  -5.609   4.704  0.00  0.00     0.000 A 
ATOM     12  C   UNL d   1      -2.393  -5.336   3.408  0.00  0.00     0.001 A 
ATOM     13  C   UNL d   1      -2.181  -4.017   3.004  0.00  0.00     0.009 A 
ENDBRANCH   7   8
ENDBRANCH   6   7
ENDBRANCH   3   6
ENDBRANCH   1   2
BRANCH   1  14
ATOM     14  C   UNL d   1       0.315   1.299  -0.284  0.00  0.00     0.447 C 
ATOM     15  F   UNL d   1      -0.129   1.969   0.819  0.00  0.00    -0.166 F 
ATOM     16  F   UNL d   1       1.247   2.116  -0.845  0.00  0.00    -0.166 F 
ATOM     17  F   UNL d   1      -0.721   1.263  -1.141  0.00  0.00    -0.166 F 
ENDBRANCH   1  14
BRANCH   1  18
ATOM     18  C   UNL d   1       0.599  -1.113  -1.002  0.00  0.00     0.447 C 
ATOM     19  F   UNL d   1       0.054  -2.250  -0.479  0.00  0.00    -0.166 F 
ATOM     20  F   UNL d   1      -0.239  -0.698  -1.969  0.00  0.00    -0.166 F 
ATOM     21  F   UNL d   1       1.726  -1.530  -1.642  0.00  0.00    -0.166 F 
ENDBRANCH   1  18
BRANCH   1  22
ATOM     22  O   UNL d   1       2.396  -0.031   0.234  0.00  0.00    -0.342 OA
BRANCH  22  23
ATOM     23  C   UNL d   1       2.969   0.917   1.128  0.00  0.00     0.210 C 
BRANCH  23  24
ATOM     24  C   UNL d   1       4.472   0.863   0.983  0.00  0.00    -0.035 A 
ATOM     25  C   UNL d   1       5.203   2.019   0.675  0.00  0.00     0.009 A 
ATOM     26  C   UNL d   1       6.597   1.978   0.590  0.00  0.00     0.001 A 
ATOM     27  C   UNL d   1       7.277   0.782   0.810  0.00  0.00     0.000 A 
ATOM     28  C   UNL d   1       6.563  -0.377   1.106  0.00  0.00     0.001 A 
ATOM     29  C   UNL d   1       5.169  -0.338   1.190  0.00  0.00     0.009 A 
ENDBRANCH  23  24
ENDBRANCH  22  23
ENDBRANCH   1  22
TORSDOF 9
