REMARK  5 active torsions:
REMARK  status: ('A' for Active; 'I' for Inactive)
REMARK    1  A    between atoms: C_6  and  C_1 
REMARK    2  A    between atoms: CA_8  and  C_6 
REMARK    3  A    between atoms: C_7  and  CA_8 
REMARK    4  A    between atoms: OXT_11  and  C_7 
REMARK    5  A    between atoms: N_10  and  CA_8 
ROOT
ATOM      1  C   UNL d   1       2.003   0.196  -0.137  0.00  0.00    -0.007 A 
ATOM      2  S   UNL d   1       1.233  -1.327   0.002  0.00  0.00    -0.093 SA
ATOM      3  C   UNL d   1       1.080   1.226  -0.257  0.00  0.00    -0.037 A 
ATOM      4  C   UNL d   1      -0.287   0.737  -0.185  0.00  0.00    -0.012 A 
ATOM      5  C   UNL d   1      -0.339  -0.651  -0.061  0.00  0.00     0.016 A 
ATOM      6  C   UNL d   1       1.395   2.684  -0.412  0.00  0.00     0.050 C 
ATOM      7  C   UNL d   1      -1.521   1.440  -0.210  0.00  0.00     0.013 A 
ATOM      8  C   UNL d   1      -1.562  -1.347   0.011  0.00  0.00     0.019 A 
ATOM      9  C   UNL d   1      -2.737   0.758  -0.113  0.00  0.00     0.001 A 
ATOM     10  C   UNL d   1      -2.756  -0.624  -0.009  0.00  0.00     0.001 A 
ENDROOT
BRANCH   1  11
ATOM     11  C   UNL d   1       3.516   0.260  -0.072  0.00  0.00     0.093 C 
BRANCH  11  12
ATOM     12  CA  UNL d   1       4.247  -0.602  -1.115  0.00  0.00     0.319 C 
BRANCH  12  13
ATOM     13  C   UNL d   1       4.111  -0.018  -2.534  0.00  0.00     0.174 C 
ATOM     14  O   UNL d   1       5.038   0.495  -3.146  0.00  0.00    -0.648 OA
BRANCH  13  15
ATOM     15  OXT UNL d   1       2.883  -0.147  -3.083  0.00  0.00    -0.775 OA
ATOM     16  HXT UNL d   1       2.215  -0.568  -2.502  0.00  0.00     0.167 HD
ENDBRANCH  13  15
ENDBRANCH  12  13
BRANCH  12  17
ATOM     17  N   UNL d   1       5.691  -0.674  -0.756  0.00  0.00     0.093 N 
ATOM     18  H1  UNL d   1       6.114   0.231  -0.993  0.00  0.00     0.314 HD
ATOM     19  H2  UNL d   1       6.149  -1.316  -1.407  0.00  0.00     0.314 HD
ENDBRANCH  12  17
ENDBRANCH  11  12
ENDBRANCH   1  11
TORSDOF 5
