REMARK  6 active torsions:
REMARK  status: ('A' for Active; 'I' for Inactive)
REMARK    1  A    between atoms: C_2  and  S_1 
REMARK    2  A    between atoms: C_7  and  S_1 
REMARK    3  A    between atoms: N_6  and  C_3 
REMARK    4  A    between atoms: S_14  and  C_3 
REMARK    5  A    between atoms: C_4  and  C_9 
REMARK    6  A    between atoms: C_12  and  N_6 
ROOT
ATOM      1  C   UNL d   1       0.457   0.513   1.624  0.00  0.00     0.172 C 
ATOM      2  C   UNL d   1      -0.439   1.529   1.723  0.00  0.00     0.082 C 
ATOM      3  C   UNL d   1       0.953  -0.146   2.778  0.00  0.00     0.114 C 
ATOM      4  N   UNL d   1       1.293  -0.751   3.712  0.00  0.00    -0.191 NA
ENDROOT
BRANCH   1   5
ATOM      5  S   UNL d   1       0.973  -0.130   0.096  0.00  0.00     0.219 S 
ATOM      6  O   UNL d   1       1.196   0.929  -0.876  0.00  0.00    -0.216 OA
ATOM      7  O   UNL d   1       0.121  -1.252  -0.243  0.00  0.00    -0.216 OA
BRANCH   5   8
ATOM      8  C   UNL d   1       2.614  -0.819   0.364  0.00  0.00     0.065 A 
ATOM      9  C   UNL d   1       2.751  -2.176   0.658  0.00  0.00     0.025 A 
ATOM     10  C   UNL d   1       4.025  -2.745   0.712  0.00  0.00     0.025 A 
ATOM     11  C   UNL d   1       5.152  -1.964   0.456  0.00  0.00     0.034 A 
ATOM     12  C   UNL d   1       5.017  -0.609   0.152  0.00  0.00     0.025 A 
ATOM     13 CL   UNL d   1       6.713  -2.684   0.481  0.00  0.00    -0.084 Cl
ATOM     14  C   UNL d   1       3.746  -0.029   0.100  0.00  0.00     0.025 A 
ENDBRANCH   5   8
ENDBRANCH   1   5
BRANCH   2  15
ATOM     15  N   UNL d   1      -0.666   2.205   2.925  0.00  0.00    -0.252 NA
ATOM     16  H   UNL d   1      -0.974   3.158   2.724  0.00  0.00     0.134 HD
BRANCH  15  17
ATOM     17  C   UNL d   1      -1.413   1.722   4.029  0.00  0.00     0.014 A 
ATOM     18  C   UNL d   1      -1.334   2.443   5.231  0.00  0.00     0.039 A 
ATOM     19  C   UNL d   1      -1.964   1.983   6.397  0.00  0.00     0.049 A 
ATOM     20  C   UNL d   1      -2.745   0.822   6.333  0.00  0.00     0.016 A 
ATOM     21  C   UNL d   1      -2.857   0.117   5.138  0.00  0.00     0.003 A 
ATOM     22  C   UNL d   1      -2.180   0.555   3.999  0.00  0.00     0.024 A 
BRANCH  19  23
ATOM     23  C   UNL d   1      -1.759   2.677   7.720  0.00  0.00     0.417 C 
ATOM     24  F   UNL d   1      -0.936   3.760   7.648  0.00  0.00    -0.166 F 
ATOM     25  F   UNL d   1      -2.923   3.128   8.264  0.00  0.00    -0.166 F 
ATOM     26  F   UNL d   1      -1.206   1.853   8.653  0.00  0.00    -0.166 F 
ENDBRANCH  19  23
ENDBRANCH  15  17
ENDBRANCH   2  15
BRANCH   2  27
ATOM     27  S   UNL d   1      -1.323   2.178   0.333  0.00  0.00    -0.120 SA
ATOM     28  C   UNL d   1      -2.474   0.805   0.016  0.00  0.00     0.097 C 
ENDBRANCH   2  27
TORSDOF 6
