REMARK  4 active torsions:
REMARK  status: ('A' for Active; 'I' for Inactive)
REMARK    1  A    between atoms: C_3  and  C_1 
REMARK    2  A    between atoms: N_4  and  C_2 
REMARK    3  A    between atoms: O_11  and  C_3 
REMARK       I    between atoms: C_5  and  N_4 
REMARK    4  A    between atoms: O_13  and  C_10 
ROOT
ATOM      1  C   UNL d   1       1.414  -0.152   0.160  0.00  0.00     0.067 A 
ATOM      2  C   UNL d   1       0.624  -1.315   0.198  0.00  0.00     0.051 A 
ATOM      3  C   UNL d   1       0.809   1.113   0.074  0.00  0.00     0.057 A 
ATOM      4  C   UNL d   1      -0.768  -1.175   0.139  0.00  0.00     0.033 A 
ATOM      5  C   UNL d   1      -0.581   1.235   0.051  0.00  0.00     0.069 A 
ATOM      6  C   UNL d   1      -1.366   0.086   0.068  0.00  0.00     0.039 A 
ENDROOT
BRANCH   2   7
ATOM      7  N   UNL d   1       1.230  -2.593   0.258  0.00  0.00    -0.327 N 
ATOM      8  C   UNL d   1       0.641  -3.740   0.751  0.00  0.00     0.218 C 
ATOM      9  O   UNL d   1      -0.440  -3.797   1.331  0.00  0.00    -0.274 OA
ATOM     10  C   UNL d   1       1.450  -4.988   0.515  0.00  0.00     0.117 C 
ATOM     11  H   UNL d   1       2.232  -2.622   0.057  0.00  0.00     0.169 HD
ENDBRANCH   2   7
BRANCH   1  12
ATOM     12  C   UNL d   1       2.893  -0.257   0.239  0.00  0.00     0.178 C 
ATOM     13  O   UNL d   1       3.512  -1.191  -0.252  0.00  0.00    -0.646 OA
BRANCH  12  14
ATOM     14  O   UNL d   1       3.478   0.710   0.972  0.00  0.00    -0.773 OA
ATOM     15  H   UNL d   1       2.865   1.282   1.474  0.00  0.00     0.167 HD
ENDBRANCH  12  14
ENDBRANCH   1  12
BRANCH   5  16
ATOM     16  O   UNL d   1      -1.041   2.522   0.018  0.00  0.00    -0.356 OA
ATOM     17  C   UNL d   1      -2.453   2.703   0.065  0.00  0.00     0.210 C 
ENDBRANCH   5  16
TORSDOF 4
