REMARK  6 active torsions:
REMARK  status: ('A' for Active; 'I' for Inactive)
REMARK    1  A    between atoms: N_2  and  C_1 
REMARK    2  A    between atoms: N_3  and  C_1 
REMARK    3  A    between atoms: C_8  and  N_2 
REMARK    4  A    between atoms: C_10  and  N_2 
REMARK    5  A    between atoms: C_11  and  N_3 
REMARK    6  A    between atoms: C_17  and  C_10 
ROOT
ATOM      1  N   UNL d   1       0.104  -1.084   0.694  0.00  0.00    -0.320 N 
ENDROOT
BRANCH   1   2
ATOM      2  C   UNL d   1       0.710   0.031   0.115  0.00  0.00     0.179 C 
ATOM      3  S   UNL d   1       0.329   0.678  -1.400  0.00  0.00    -0.040 SA
BRANCH   2   4
ATOM      4  N   UNL d   1       1.812   0.597   0.699  0.00  0.00    -0.333 N 
ATOM      5  H   UNL d   1       2.318   1.173   0.032  0.00  0.00     0.168 HD
BRANCH   4   6
ATOM      6  C   UNL d   1       2.124   0.869   2.049  0.00  0.00     0.035 A 
ATOM      7  C   UNL d   1       1.334   0.508   3.136  0.00  0.00     0.055 A 
ATOM      8  C   UNL d   1       1.683   0.919   4.434  0.00  0.00     0.058 A 
ATOM      9 CL   UNL d   1       0.659   0.419   5.733  0.00  0.00    -0.082 Cl
ATOM     10  C   UNL d   1       2.815   1.715   4.643  0.00  0.00     0.055 A 
ATOM     11  C   UNL d   1       3.616   2.071   3.560  0.00  0.00     0.028 A 
ATOM     12 CL   UNL d   1       3.261   2.313   6.202  0.00  0.00    -0.083 Cl
ATOM     13  C   UNL d   1       3.276   1.641   2.272  0.00  0.00     0.031 A 
ENDBRANCH   4   6
ENDBRANCH   2   4
ENDBRANCH   1   2
BRANCH   1  14
ATOM     14  C   UNL d   1      -1.328  -1.325   0.601  0.00  0.00     0.037 A 
ATOM     15  C   UNL d   1      -1.887  -2.615   0.651  0.00  0.00     0.033 A 
ATOM     16  C   UNL d   1      -3.261  -2.833   0.491  0.00  0.00     0.044 A 
ATOM     17  C   UNL d   1      -4.110  -1.754   0.326  0.00  0.00     0.116 A 
ATOM     18  C   UNL d   1      -3.610  -0.464   0.342  0.00  0.00     0.044 A 
ATOM     19  F   UNL d   1      -5.422  -1.962   0.163  0.00  0.00    -0.206 F 
ATOM     20  C   UNL d   1      -2.231  -0.252   0.489  0.00  0.00     0.033 A 
ENDBRANCH   1  14
BRANCH   1  21
ATOM     21  C   UNL d   1       0.976  -2.171   1.200  0.00  0.00     0.170 C 
BRANCH  21  22
ATOM     22  C   UNL d   1       1.146  -3.373   0.285  0.00  0.00    -0.037 A 
ATOM     23  C   UNL d   1       1.277  -3.242  -1.107  0.00  0.00     0.048 A 
ATOM     24  C   UNL d   1       1.345  -4.391  -1.867  0.00  0.00     0.105 A 
ATOM     25  O   UNL d   1       1.449  -4.440  -3.222  0.00  0.00    -0.323 OA
ATOM     26  C   UNL d   1       1.298  -5.642  -1.301  0.00  0.00     0.105 A 
ATOM     27  C   UNL d   1       1.541  -5.864  -3.433  0.00  0.00     0.352 A 
ATOM     28  O   UNL d   1       1.352  -6.635  -2.228  0.00  0.00    -0.323 OA
ATOM     29  C   UNL d   1       1.208  -5.817   0.061  0.00  0.00     0.040 A 
ATOM     30  C   UNL d   1       1.153  -4.671   0.859  0.00  0.00     0.012 A 
ENDBRANCH  21  22
ENDBRANCH   1  21
TORSDOF 6
