REMARK  4 active torsions:
REMARK  status: ('A' for Active; 'I' for Inactive)
REMARK    1  A    between atoms: S_2  and  C_1 
REMARK    2  A    between atoms: C_12  and  C_1 
REMARK    3  A    between atoms: C_3  and  S_2 
REMARK    4  A    between atoms: C_10  and  C_5 
ROOT
ATOM      1  C   UNL d   1      -1.911  -2.125  -0.336  0.00  0.00     0.124 C 
ATOM      2  N   UNL d   1      -0.823  -4.388  -0.938  0.00  0.00    -0.191 NA
ATOM      3  N   UNL d   1      -4.469  -2.011   0.006  0.00  0.00    -0.191 NA
ATOM      4  C   UNL d   1      -1.329  -3.377  -0.670  0.00  0.00     0.110 C 
ATOM      5  C   UNL d   1      -3.322  -2.072  -0.149  0.00  0.00     0.110 C 
ATOM      6  C   UNL d   1      -1.183  -1.002  -0.169  0.00  0.00     0.035 C 
ENDROOT
BRANCH   6   7
ATOM      7  C   UNL d   1       0.264  -0.885  -0.306  0.00  0.00     0.022 C 
ATOM      8  C   UNL d   1       1.035   0.182  -0.000  0.00  0.00     0.016 C 
BRANCH   8   9
ATOM      9  S   UNL d   1       0.328   1.691   0.533  0.00  0.00    -0.088 SA
BRANCH   9  10
ATOM     10  C   UNL d   1       1.215   2.063   2.044  0.00  0.00     0.029 A 
ATOM     11  C   UNL d   1       1.797   3.343   2.109  0.00  0.00     0.044 A 
ATOM     12  C   UNL d   1       2.477   3.760   3.254  0.00  0.00     0.035 A 
ATOM     13 CL   UNL d   1       3.154   5.340   3.316  0.00  0.00    -0.084 Cl
ATOM     14  C   UNL d   1       2.595   2.914   4.351  0.00  0.00     0.025 A 
ATOM     15  C   UNL d   1       1.997   1.654   4.314  0.00  0.00     0.027 A 
ATOM     16  C   UNL d   1       1.294   1.234   3.176  0.00  0.00     0.051 A 
ATOM     17 CL   UNL d   1       0.496  -0.297   3.277  0.00  0.00    -0.083 Cl
ENDBRANCH   9  10
ENDBRANCH   8   9
BRANCH   8  18
ATOM     18  C   UNL d   1       2.520   0.100  -0.162  0.00  0.00    -0.019 A 
ATOM     19  C   UNL d   1       3.290   1.193  -0.595  0.00  0.00     0.014 A 
ATOM     20  C   UNL d   1       4.687   1.114  -0.672  0.00  0.00     0.024 A 
ATOM     21  C   UNL d   1       5.337  -0.072  -0.348  0.00  0.00     0.034 A 
ATOM     22  C   UNL d   1       4.601  -1.186   0.038  0.00  0.00     0.024 A 
ATOM     23 CL   UNL d   1       7.053  -0.159  -0.406  0.00  0.00    -0.084 Cl
ATOM     24  C   UNL d   1       3.208  -1.095   0.141  0.00  0.00     0.014 A 
ENDBRANCH   8  18
ENDBRANCH   6   7
TORSDOF 4
