REMARK  5 active torsions:
REMARK  status: ('A' for Active; 'I' for Inactive)
REMARK    1  A    between atoms: C_9  and  C_3 
REMARK    2  A    between atoms: C_12  and  C_7 
REMARK       I    between atoms: N_11  and  C_9 
REMARK    3  A    between atoms: C_10  and  O_14 
REMARK    4  A    between atoms: C_15  and  N_11 
REMARK    5  A    between atoms: O_14  and  C_20 
ROOT
ATOM      1  C   UNL d   1      -3.637  -1.491  -0.103  0.00  0.00     0.263 C 
ATOM      2  N   UNL d   1      -4.699  -0.599   0.026  0.00  0.00    -0.323 N 
ATOM      3  O   UNL d   1      -3.837  -2.690  -0.299  0.00  0.00    -0.267 OA
ATOM      4  H   UNL d   1      -4.496   0.384  -0.140  0.00  0.00     0.169 HD
ENDROOT
BRANCH   1   5
ATOM      5  C   UNL d   1      -2.265  -0.970  -0.042  0.00  0.00     0.081 A 
ATOM      6  C   UNL d   1      -1.120  -1.761   0.005  0.00  0.00    -0.021 A 
ATOM      7  C   UNL d   1       0.062  -0.963   0.023  0.00  0.00     0.030 A 
ATOM      8  C   UNL d   1      -0.981  -3.241   0.025  0.00  0.00     0.051 C 
ATOM      9  C   UNL d   1      -0.173   0.374   0.000  0.00  0.00     0.024 A 
ATOM     10  S   UNL d   1       1.758  -1.339   0.063  0.00  0.00    -0.092 SA
ATOM     11  S   UNL d   1      -1.895   0.712  -0.025  0.00  0.00    -0.083 SA
ATOM     12  C   UNL d   1       1.042   1.145  -0.002  0.00  0.00     0.035 A 
ATOM     13  C   UNL d   1       2.171   0.335   0.017  0.00  0.00    -0.008 A 
BRANCH  13  14
ATOM     14  C   UNL d   1       3.668   0.710  -0.000  0.00  0.00    -0.018 C 
ATOM     15  C   UNL d   1       4.345   0.144  -1.268  0.00  0.00     0.020 C 
ATOM     16  C   UNL d   1       3.873   2.237  -0.004  0.00  0.00     0.020 C 
ATOM     17  C   UNL d   1       4.384   0.146   1.248  0.00  0.00     0.020 C 
ENDBRANCH  13  14
ENDBRANCH   1   5
BRANCH   2  18
ATOM     18  C   UNL d   1      -6.052  -1.018   0.067  0.00  0.00     0.035 A 
ATOM     19  C   UNL d   1      -6.421  -2.281   0.553  0.00  0.00     0.032 A 
ATOM     20  C   UNL d   1      -7.736  -2.748   0.456  0.00  0.00     0.039 A 
ATOM     21  C   UNL d   1      -8.703  -1.957  -0.150  0.00  0.00     0.078 A 
ATOM     22  C   UNL d   1      -8.370  -0.650  -0.521  0.00  0.00     0.039 A 
ATOM     23  C   UNL d   1      -7.054  -0.173  -0.405  0.00  0.00     0.032 A 
BRANCH  21  24
ATOM     24  O   UNL d   1      -9.983  -2.338  -0.423  0.00  0.00    -0.255 OA
BRANCH  24  25
ATOM     25  C   UNL d   1     -10.246  -3.726  -0.596  0.00  0.00     0.530 C 
ATOM     26  F   UNL d   1      -9.184  -4.423  -1.054  0.00  0.00    -0.144 F 
ATOM     27  F   UNL d   1     -10.662  -4.266   0.570  0.00  0.00    -0.144 F 
ATOM     28  F   UNL d   1     -11.243  -3.862  -1.501  0.00  0.00    -0.144 F 
ENDBRANCH  24  25
ENDBRANCH  21  24
ENDBRANCH   2  18
TORSDOF 5
