REMARK  2 active torsions:
REMARK  status: ('A' for Active; 'I' for Inactive)
REMARK    1  A    between atoms: N_6  and  C_1 
REMARK       I    between atoms: C_5  and  N_8 
REMARK       I    between atoms: N_10  and  C_5 
REMARK    2  A    between atoms: C_16  and  N_10 
ROOT
ATOM      1  C   UNL d   1      -8.256   1.583   0.392  0.00  0.00     0.322 C 
ATOM      2  N   UNL d   1      -4.617   0.198   0.032  0.00  0.00    -0.360 N 
ATOM      3  N   UNL d   1      -6.932   1.938   0.663  0.00  0.00    -0.332 N 
ATOM      4  N   UNL d   1      -9.043   1.359   1.499  0.00  0.00    -0.309 N 
ATOM      5  O   UNL d   1      -8.645   1.478  -0.770  0.00  0.00    -0.247 OA
ATOM      6  C   UNL d   1      -5.378   0.882  -1.024  0.00  0.00     0.145 C 
ATOM      7  C   UNL d   1      -6.050   2.163  -0.500  0.00  0.00     0.147 C 
ATOM      8  C   UNL d   1      -5.765   0.341   2.233  0.00  0.00     0.040 C 
ATOM      9  C   UNL d   1      -5.409  -0.522   1.023  0.00  0.00     0.126 C 
ATOM     10  C   UNL d   1      -6.229   1.769   1.935  0.00  0.00     0.129 C 
ATOM     11  H   UNL d   1      -8.675   1.658   2.385  0.00  0.00     0.170 HD
ENDROOT
BRANCH   2  12
ATOM     12  C   UNL d   1      -3.253   0.281   0.051  0.00  0.00     0.147 A 
ATOM     13  N   UNL d   1      -2.560   0.955  -0.840  0.00  0.00    -0.336 N 
ATOM     14  C   UNL d   1      -1.197   0.825  -0.633  0.00  0.00     0.051 A 
ATOM     15  HN  UNL d   1      -2.975   1.506  -1.591  1.00  0.00     0.168 HD
ATOM     16  C   UNL d   1      -0.176   1.387  -1.433  0.00  0.00     0.032 A 
ATOM     17  C   UNL d   1      -0.837   0.058   0.472  0.00  0.00     0.036 A 
ATOM     18  C   UNL d   1       1.166   1.167  -1.102  0.00  0.00     0.026 A 
ATOM     19  C   UNL d   1       1.496   0.399   0.008  0.00  0.00     0.035 A 
ATOM     20  C   UNL d   1       0.508  -0.170   0.817  0.00  0.00     0.045 A 
ATOM     21 CL   UNL d   1       3.154   0.139   0.400  0.00  0.00    -0.084 Cl
ATOM     22  S   UNL d   1      -2.262  -0.497   1.243  0.00  0.00    -0.052 SA
ENDBRANCH   2  12
BRANCH   4  23
ATOM     23  C   UNL d   1     -10.368   0.861   1.534  0.00  0.00     0.036 A 
ATOM     24  C   UNL d   1     -11.084   0.455   0.407  0.00  0.00     0.030 A 
ATOM     25  C   UNL d   1     -12.359  -0.111   0.534  0.00  0.00     0.009 A 
ATOM     26  C   UNL d   1     -12.940  -0.291   1.792  0.00  0.00    -0.062 A 
ATOM     27  C   UNL d   1     -12.250   0.163   2.919  0.00  0.00     0.009 A 
ATOM     28  C   UNL d   1     -14.277  -0.960   1.912  0.00  0.00     0.048 C 
ATOM     29  C   UNL d   1     -10.977   0.733   2.790  0.00  0.00     0.030 A 
ENDBRANCH   4  23
TORSDOF 2
