REMARK  1 active torsions:
REMARK  status: ('A' for Active; 'I' for Inactive)
REMARK    1  A    between atoms: C_8  and  C_7 
ROOT
ATOM      1  C   UNL d   1       2.508   0.068  -0.021  0.00  0.00     0.115 C 
ATOM      2  C   UNL d   1       1.740   1.115  -0.692  0.00  0.00     0.302 C 
ATOM      3  C   UNL d   1       1.820  -1.133   0.464  0.00  0.00     0.302 C 
ATOM      4  O   UNL d   1       0.510   1.271  -0.172  0.00  0.00    -0.279 OA
ATOM      5  O   UNL d   1       0.498  -0.987   0.680  0.00  0.00    -0.279 OA
ATOM      6  C   UNL d   1      -0.223   0.078   0.059  0.00  0.00     0.182 C 
ATOM      7  C   UNL d   1       3.819   0.179   0.274  0.00  0.00     0.037 C 
ATOM      8  O   UNL d   1       2.401  -2.175   0.739  0.00  0.00    -0.259 OA
ATOM      9  O   UNL d   1       2.167   1.842  -1.574  0.00  0.00    -0.259 OA
ATOM     10  C   UNL d   1      -0.844  -0.427  -1.255  0.00  0.00     0.069 C 
ATOM     11  C   UNL d   1      -1.414   0.431   0.972  0.00  0.00     0.069 C 
ATOM     12  C   UNL d   1      -2.258  -0.839  -0.873  0.00  0.00     0.006 C 
ATOM     13  C   UNL d   1      -2.662   0.238   0.116  0.00  0.00     0.006 C 
ENDROOT
BRANCH   7  14
ATOM     14  C   UNL d   1       4.672   1.314   0.122  0.00  0.00    -0.011 A 
ATOM     15  C   UNL d   1       6.033   1.244  -0.080  0.00  0.00     0.152 A 
ATOM     16  O   UNL d   1       6.572   2.491  -0.133  0.00  0.00    -0.334 OA
ATOM     17  C   UNL d   1       5.552   3.367   0.050  0.00  0.00     0.142 A 
ATOM     18  C   UNL d   1       4.366   2.695   0.230  0.00  0.00     0.038 A 
ENDBRANCH   7  14
TORSDOF 1
