REMARK  3 active torsions:
REMARK  status: ('A' for Active; 'I' for Inactive)
REMARK    1  A    between atoms: C_2  and  C_1 
REMARK    2  A    between atoms: O_8  and  C_1 
REMARK    3  A    between atoms: C_9  and  C_7 
ROOT
ATOM      1  C   UNL d   1      -1.255   0.024  -0.121  0.00  0.00     0.233 C 
ATOM      2  N   UNL d   1      -0.264   1.052   0.245  0.00  0.00    -0.198 NA
ATOM      3  N   UNL d   1       1.012   0.642   0.058  0.00  0.00    -0.322 N 
ATOM      4  HN  UNL d   1       1.843   1.230  -0.003  1.00  0.00     0.180 HD
ATOM      5  C   UNL d   1      -0.425  -1.237   0.098  0.00  0.00     0.124 C 
ATOM      6  C   UNL d   1       0.962  -0.657  -0.027  0.00  0.00     0.035 C 
ATOM      7  H   UNL d   1      -0.449   1.943  -0.211  0.00  0.00     0.150 HD
ENDROOT
BRANCH   1   8
ATOM      8  C   UNL d   1      -2.566   0.010   0.727  0.00  0.00     0.434 C 
ATOM      9  F   UNL d   1      -2.480   0.757   1.849  0.00  0.00    -0.166 F 
ATOM     10  F   UNL d   1      -3.592   0.522  -0.005  0.00  0.00    -0.166 F 
ATOM     11  F   UNL d   1      -2.930  -1.240   1.095  0.00  0.00    -0.166 F 
ENDBRANCH   1   8
BRANCH   1  12
ATOM     12  O   UNL d   1      -1.529   0.128  -1.530  0.00  0.00    -0.366 OA
ATOM     13  H   UNL d   1      -2.213   0.814  -1.629  0.00  0.00     0.212 HD
ENDBRANCH   1  12
BRANCH   6  14
ATOM     14  C   UNL d   1       2.148  -1.524  -0.225  0.00  0.00    -0.013 A 
ATOM     15  C   UNL d   1       2.036  -2.916  -0.286  0.00  0.00     0.013 A 
ATOM     16  C   UNL d   1       3.173  -3.701  -0.502  0.00  0.00     0.001 A 
ATOM     17  C   UNL d   1       4.421  -3.101  -0.649  0.00  0.00     0.000 A 
ATOM     18  C   UNL d   1       4.539  -1.712  -0.581  0.00  0.00     0.001 A 
ATOM     19  C   UNL d   1       3.405  -0.925  -0.371  0.00  0.00     0.013 A 
ENDBRANCH   6  14
TORSDOF 3
