REMARK  7 active torsions:
REMARK  status: ('A' for Active; 'I' for Inactive)
REMARK    1  A    between atoms: N_3  and  C_1 
REMARK    2  A    between atoms: N_4  and  C_1 
REMARK    3  A    between atoms: C_2  and  C_6 
REMARK    4  A    between atoms: C_14  and  N_3 
REMARK    5  A    between atoms: C_16  and  N_3 
REMARK    6  A    between atoms: C_9  and  N_4 
REMARK    7  A    between atoms: C_15  and  C_16 
ROOT
ATOM      1  N   UNL d   1       1.656  -3.786   0.112  0.00  0.00    -0.197 NA
ATOM      2  C   UNL d   1       1.825  -2.944  -0.666  0.00  0.00     0.060 C 
ATOM      3  C   UNL d   1       2.063  -1.891  -1.669  0.00  0.00     0.143 C 
ENDROOT
BRANCH   3   4
ATOM      4  C   UNL d   1       0.764  -1.208  -2.132  0.00  0.00     0.139 C 
BRANCH   4   5
ATOM      5  N   UNL d   1      -0.027  -0.502  -1.105  0.00  0.00    -0.352 N 
BRANCH   5   6
ATOM      6  C   UNL d   1       0.674   0.235  -0.119  0.00  0.00     0.174 C 
ATOM      7  S   UNL d   1       1.681   1.528  -0.479  0.00  0.00    -0.041 SA
BRANCH   6   8
ATOM      8  N   UNL d   1       0.440  -0.330   1.129  0.00  0.00    -0.333 N 
ATOM      9  H   UNL d   1      -0.435  -0.837   1.190  0.00  0.00     0.168 HD
BRANCH   8  10
ATOM     10  C   UNL d   1       1.351  -0.613   2.175  0.00  0.00     0.035 A 
ATOM     11  C   UNL d   1       2.729  -0.422   2.080  0.00  0.00     0.045 A 
ATOM     12  C   UNL d   1       3.607  -0.934   3.051  0.00  0.00     0.050 A 
ATOM     13  C   UNL d   1       3.078  -1.596   4.165  0.00  0.00     0.016 A 
ATOM     14  C   UNL d   1       1.699  -1.751   4.297  0.00  0.00     0.003 A 
ATOM     15  C   UNL d   1       0.843  -1.270   3.303  0.00  0.00     0.029 A 
BRANCH  12  16
ATOM     16  C   UNL d   1       5.099  -0.841   2.854  0.00  0.00     0.417 C 
ATOM     17  F   UNL d   1       5.462  -0.167   1.726  0.00  0.00    -0.166 F 
ATOM     18  F   UNL d   1       5.731  -0.214   3.883  0.00  0.00    -0.166 F 
ATOM     19  F   UNL d   1       5.682  -2.068   2.749  0.00  0.00    -0.166 F 
ENDBRANCH  12  16
ENDBRANCH   8  10
ENDBRANCH   6   8
ENDBRANCH   5   6
BRANCH   5  20
ATOM     20  C   UNL d   1      -1.430  -0.086  -1.404  0.00  0.00     0.086 C 
ATOM     21  C   UNL d   1      -2.295  -1.143  -2.123  0.00  0.00     0.025 C 
ATOM     22  C   UNL d   1      -2.213  -1.126  -3.655  0.00  0.00     0.002 C 
ATOM     23  C   UNL d   1      -2.362   0.271  -4.241  0.00  0.00     0.000 C 
ATOM     24  C   UNL d   1      -1.395   1.256  -3.600  0.00  0.00     0.002 C 
ATOM     25  C   UNL d   1      -1.576   1.290  -2.087  0.00  0.00     0.025 C 
ENDBRANCH   5  20
ENDBRANCH   4   5
ENDBRANCH   3   4
TORSDOF 7
