REMARK  4 active torsions:
REMARK  status: ('A' for Active; 'I' for Inactive)
REMARK    1  A    between atoms: N_5  and  C_1 
REMARK       I    between atoms: C_4  and  N_5 
REMARK    2  A    between atoms: C_10  and  C_4 
REMARK    3  A    between atoms: S_8  and  C_10 
REMARK    4  A    between atoms: C_11  and  S_8 
ROOT
ATOM      1  C   UNL d   1       4.755   1.071  -0.096  0.00  0.00     0.227 C 
ATOM      2  N   UNL d   1       3.858   0.089   0.262  0.00  0.00    -0.355 N 
ATOM      3  O   UNL d   1       4.446   2.013  -0.825  0.00  0.00    -0.273 OA
ATOM      4  H   UNL d   1       4.214  -0.692   0.806  0.00  0.00     0.162 HD
ENDROOT
BRANCH   1   5
ATOM      5  C   UNL d   1       6.147   0.976   0.522  0.00  0.00     0.182 C 
BRANCH   5   6
ATOM      6  S   UNL d   1       6.638  -0.761   0.826  0.00  0.00    -0.121 SA
BRANCH   6   7
ATOM      7  C   UNL d   1       8.221  -0.602   1.638  0.00  0.00     0.001 A 
ATOM      8  C   UNL d   1       8.578  -1.622   2.535  0.00  0.00     0.020 A 
ATOM      9  C   UNL d   1       9.819  -1.613   3.178  0.00  0.00     0.025 A 
ATOM     10  C   UNL d   1      10.718  -0.582   2.923  0.00  0.00     0.034 A 
ATOM     11  C   UNL d   1      10.384   0.435   2.029  0.00  0.00     0.025 A 
ATOM     12 CL   UNL d   1      12.251  -0.570   3.702  0.00  0.00    -0.084 Cl
ATOM     13  C   UNL d   1       9.138   0.422   1.386  0.00  0.00     0.020 A 
ENDBRANCH   6   7
ENDBRANCH   5   6
ENDBRANCH   1   5
BRANCH   2  14
ATOM     14  C   UNL d   1       2.500   0.042  -0.257  0.00  0.00     0.092 C 
ATOM     15  C   UNL d   1       1.684  -1.150   0.298  0.00  0.00     0.064 C 
ATOM     16  C   UNL d   1       0.673  -1.356  -0.787  0.00  0.00    -0.050 A 
ATOM     17  C   UNL d   1      -0.514  -2.064  -0.729  0.00  0.00     0.007 A 
ATOM     18  C   UNL d   1       1.093  -0.749  -1.977  0.00  0.00    -0.050 A 
ATOM     19  C   UNL d   1      -1.293  -2.146  -1.886  0.00  0.00     0.001 A 
ATOM     20  C   UNL d   1      -0.872  -1.538  -3.079  0.00  0.00     0.001 A 
ATOM     21  C   UNL d   1       0.336  -0.839  -3.133  0.00  0.00     0.007 A 
ATOM     22  C   UNL d   1       2.421  -0.076  -1.798  0.00  0.00     0.064 C 
ENDBRANCH   2  14
TORSDOF 4
