REMARK  7 active torsions:
REMARK  status: ('A' for Active; 'I' for Inactive)
REMARK    1  A    between atoms: N_2  and  S_1 
REMARK    2  A    between atoms: C_3  and  S_1 
REMARK    3  A    between atoms: C_4  and  N_2 
REMARK    4  A    between atoms: C_17  and  N_2 
REMARK    5  A    between atoms: O_18  and  C_10 
REMARK    6  A    between atoms: O_20  and  C_12 
REMARK    7  A    between atoms: C_16  and  C_17 
ROOT
ATOM      1  N   UNL d   1      -3.674   2.267  -3.616  0.00  0.00    -0.197 NA
ATOM      2  C   UNL d   1      -2.815   1.497  -3.545  0.00  0.00     0.060 C 
ATOM      3  C   UNL d   1      -1.737   0.517  -3.505  0.00  0.00     0.139 C 
ENDROOT
BRANCH   3   4
ATOM      4  C   UNL d   1      -0.916   0.558  -2.225  0.00  0.00     0.122 C 
BRANCH   4   5
ATOM      5  N   UNL d   1      -1.442  -0.032  -0.891  0.00  0.00    -0.197 NA
BRANCH   5   6
ATOM      6  S   UNL d   1      -0.058   0.197   0.227  0.00  0.00     0.244 S 
ATOM      7  O   UNL d   1      -0.173   1.550   0.732  0.00  0.00    -0.206 OA
ATOM      8  O   UNL d   1       1.131  -0.168  -0.526  0.00  0.00    -0.206 OA
BRANCH   6   9
ATOM      9  C   UNL d   1      -0.044  -0.894   1.626  0.00  0.00     0.077 C 
ATOM     10  C   UNL d   1       0.691  -2.099   1.525  0.00  0.00     0.064 C 
ATOM     11  C   UNL d   1       0.532  -3.110   2.476  0.00  0.00     0.102 C 
ATOM     12  C   UNL d   1      -0.196  -2.818   3.640  0.00  0.00     0.101 C 
ATOM     13  C   UNL d   1      -0.742  -1.534   3.823  0.00  0.00     0.041 C 
ATOM     14  C   UNL d   1      -0.697  -0.574   2.807  0.00  0.00     0.028 C 
BRANCH  11  15
ATOM     15  O   UNL d   1       1.052  -4.366   2.312  0.00  0.00    -0.353 OA
ATOM     16  C   UNL d   1       1.272  -4.821   0.978  0.00  0.00     0.210 C 
ENDBRANCH  11  15
BRANCH  12  17
ATOM     17  O   UNL d   1      -0.438  -3.672   4.686  0.00  0.00    -0.353 OA
ATOM     18  C   UNL d   1      -0.642  -5.041   4.349  0.00  0.00     0.210 C 
ENDBRANCH  12  17
ENDBRANCH   6   9
ENDBRANCH   5   6
BRANCH   5  19
ATOM     19  C   UNL d   1      -2.245  -1.326  -1.041  0.00  0.00     0.108 C 
ATOM     20  C   UNL d   1      -3.733  -1.287  -0.601  0.00  0.00    -0.033 A 
ATOM     21  C   UNL d   1      -4.329  -2.388   0.076  0.00  0.00    -0.050 A 
ATOM     22  C   UNL d   1      -4.606  -0.285  -1.052  0.00  0.00     0.009 A 
ATOM     23  C   UNL d   1      -5.720  -2.464   0.271  0.00  0.00     0.007 A 
ATOM     24  C   UNL d   1      -3.502  -3.527   0.603  0.00  0.00     0.039 C 
ATOM     25  C   UNL d   1      -6.556  -1.484  -0.240  0.00  0.00     0.001 A 
ATOM     26  C   UNL d   1      -5.999  -0.392  -0.893  0.00  0.00     0.001 A 
ATOM     27  C   UNL d   1      -2.364  -3.811  -0.364  0.00  0.00     0.006 C 
ATOM     28  C   UNL d   1      -1.538  -2.545  -0.478  0.00  0.00     0.026 C 
ENDBRANCH   5  19
ENDBRANCH   4   5
ENDBRANCH   3   4
TORSDOF 7
