REMARK  5 active torsions:
REMARK  status: ('A' for Active; 'I' for Inactive)
REMARK    1  A    between atoms: C_2  and  C_1 
REMARK       I    between atoms: N_5  and  C_2 
REMARK    2  A    between atoms: C_3  and  N_6 
REMARK    3  A    between atoms: N_4  and  C_3 
REMARK    4  A    between atoms: C_7  and  N_4 
REMARK    5  A    between atoms: N_6  and  N_5 
ROOT
ATOM      1  N   UNL d   1       1.843   3.929  -0.451  0.00  0.00    -0.273 N 
ATOM      2  H   UNL d   1       1.038   3.662   0.117  0.00  0.00     0.189 HD
ENDROOT
BRANCH   1   3
ATOM      3  C   UNL d   1       2.397   5.172  -0.309  0.00  0.00     0.191 C 
ATOM      4  S   UNL d   1       4.049   5.472  -0.302  0.00  0.00    -0.039 SA
BRANCH   3   5
ATOM      5  N   UNL d   1       1.565   6.248  -0.193  0.00  0.00    -0.332 N 
ATOM      6  H   UNL d   1       2.076   7.078   0.075  0.00  0.00     0.168 HD
BRANCH   5   7
ATOM      7  C   UNL d   1       0.226   6.447  -0.617  0.00  0.00     0.040 A 
ATOM      8  C   UNL d   1      -0.397   7.698  -0.404  0.00  0.00    -0.035 A 
ATOM      9  C   UNL d   1       0.256   8.902   0.225  0.00  0.00     0.050 C 
ATOM     10  C   UNL d   1      -1.737   7.878  -0.813  0.00  0.00     0.009 A 
ATOM     11  C   UNL d   1      -2.440   6.867  -1.461  0.00  0.00     0.001 A 
ATOM     12  C   UNL d   1      -1.808   5.667  -1.727  0.00  0.00     0.002 A 
ATOM     13  C   UNL d   1      -0.488   5.463  -1.317  0.00  0.00     0.030 A 
ENDBRANCH   5   7
ENDBRANCH   3   5
ENDBRANCH   1   3
BRANCH   1  14
ATOM     14  N   UNL d   1       2.569   2.896  -1.035  0.00  0.00    -0.264 N 
ATOM     15  C   UNL d   1       2.226   1.577  -0.796  0.00  0.00     0.271 C 
ATOM     16  O   UNL d   1       1.383   1.268   0.043  0.00  0.00    -0.266 OA
ATOM     17  H   UNL d   1       3.176   3.158  -1.807  0.00  0.00     0.190 HD
BRANCH  15  18
ATOM     18  C   UNL d   1       2.941   0.528  -1.604  0.00  0.00     0.055 A 
ATOM     19  C   UNL d   1       3.737   0.750  -2.740  0.00  0.00     0.049 A 
ATOM     20 CL   UNL d   1       3.978   2.291  -3.492  0.00  0.00    -0.083 Cl
ATOM     21  C   UNL d   1       4.383  -0.324  -3.374  0.00  0.00     0.025 A 
ATOM     22  C   UNL d   1       4.233  -1.624  -2.900  0.00  0.00     0.002 A 
ATOM     23  C   UNL d   1       3.426  -1.862  -1.795  0.00  0.00     0.001 A 
ATOM     24  C   UNL d   1       2.785  -0.797  -1.153  0.00  0.00     0.019 A 
ENDBRANCH  15  18
ENDBRANCH   1  14
TORSDOF 5
