REMARK  4 active torsions:
REMARK  status: ('A' for Active; 'I' for Inactive)
REMARK    1  A    between atoms: C_5  and  C_1 
REMARK    2  A    between atoms: C_10  and  N_4 
REMARK       I    between atoms: C_7  and  N_11 
REMARK       I    between atoms: N_9  and  C_7 
REMARK    3  A    between atoms: C_14  and  N_9 
REMARK    4  A    between atoms: N_11  and  C_24 
ROOT
ATOM      1  C   UNL d   1       3.418   0.704   2.345  0.00  0.00     0.056 A 
ATOM      2  C   UNL d   1       3.326   2.058   2.703  0.00  0.00     0.034 A 
ATOM      3  C   UNL d   1       4.153   0.343   1.217  0.00  0.00     0.034 A 
ATOM      4  C   UNL d   1       4.824   2.661   0.894  0.00  0.00     0.036 A 
ATOM      5  C   UNL d   1       4.032   3.029   1.985  0.00  0.00     0.032 A 
ATOM      6  C   UNL d   1       4.851   1.319   0.502  0.00  0.00     0.032 A 
ENDROOT
BRANCH   4   7
ATOM      7  N   UNL d   1       5.635   3.648   0.294  0.00  0.00    -0.309 N 
ATOM      8  C   UNL d   1       6.342   3.478  -0.876  0.00  0.00     0.325 C 
ATOM      9  N   UNL d   1       7.378   4.393  -1.008  0.00  0.00    -0.309 N 
ATOM     10  O   UNL d   1       6.099   2.597  -1.697  0.00  0.00    -0.247 OA
ATOM     11  H   UNL d   1       7.222   5.311  -0.620  0.00  0.00     0.170 HD
ATOM     12  H   UNL d   1       5.674   4.551   0.741  0.00  0.00     0.170 HD
BRANCH   9  13
ATOM     13  C   UNL d   1       8.332   4.284  -2.043  0.00  0.00     0.037 C 
ATOM     14  C   UNL d   1       8.684   3.033  -2.567  0.00  0.00     0.039 C 
ATOM     15  C   UNL d   1       9.383   2.995  -3.751  0.00  0.00    -0.021 C 
ATOM     16  C   UNL d   1       9.754   1.836  -4.593  0.00  0.00     0.068 C 
ATOM     17  C   UNL d   1       9.799   4.162  -4.368  0.00  0.00     0.075 C 
ATOM     18  C   UNL d   1       9.866   2.598  -5.910  0.00  0.00     0.180 C 
ATOM     19  O   UNL d   1      10.342   3.938  -5.610  0.00  0.00    -0.350 OA
ATOM     20  C   UNL d   1       9.610   5.400  -3.789  0.00  0.00     0.039 C 
ATOM     21  C   UNL d   1       8.868   5.459  -2.603  0.00  0.00     0.032 C 
ENDBRANCH   9  13
ENDBRANCH   4   7
BRANCH   1  22
ATOM     22  N   UNL d   1       2.828  -0.290   3.175  0.00  0.00    -0.267 N 
ATOM     23  N   UNL d   1       2.175   0.057   4.311  0.00  0.00    -0.290 N 
ATOM     24  C   UNL d   1       1.885  -1.103   4.928  0.00  0.00     0.134 A 
ATOM     25  HN  UNL d   1       1.952   1.000   4.632  1.00  0.00     0.187 HD
ATOM     26  C   UNL d   1       2.316  -2.206   4.152  0.00  0.00     0.055 A 
ATOM     27  C   UNL d   1       2.888  -1.656   3.033  0.00  0.00     0.119 A 
BRANCH  24  28
ATOM     28  C   UNL d   1       1.209  -1.175   6.269  0.00  0.00     0.434 C 
ATOM     29  F   UNL d   1       0.792   0.029   6.739  0.00  0.00    -0.165 F 
ATOM     30  F   UNL d   1       0.112  -1.982   6.233  0.00  0.00    -0.165 F 
ATOM     31  F   UNL d   1       2.036  -1.700   7.214  0.00  0.00    -0.165 F 
ENDBRANCH  24  28
ENDBRANCH   1  22
TORSDOF 4
