REMARK  3 active torsions:
REMARK  status: ('A' for Active; 'I' for Inactive)
REMARK    1  A    between atoms: C_2  and  S_1 
REMARK    2  A    between atoms: N_4  and  S_1 
REMARK    3  A    between atoms: C_7  and  N_4 
ROOT
ATOM      1  N   UNL d   1       0.305  -1.135   1.101  0.00  0.00    -0.310 N 
ATOM      2  H   UNL d   1      -0.003  -0.779   2.005  0.00  0.00     0.172 HD
ENDROOT
BRANCH   1   3
ATOM      3  S   UNL d   1      -0.757  -0.716  -0.145  0.00  0.00     0.265 S 
ATOM      4  O   UNL d   1      -0.810   0.727  -0.203  0.00  0.00    -0.200 OA
ATOM      5  O   UNL d   1      -0.469  -1.529  -1.303  0.00  0.00    -0.200 OA
BRANCH   3   6
ATOM      6  C   UNL d   1      -2.390  -1.209   0.366  0.00  0.00     0.121 A 
ATOM      7  S   UNL d   1      -2.966  -0.493   1.814  0.00  0.00    -0.069 SA
ATOM      8  C   UNL d   1      -4.445  -1.308   1.688  0.00  0.00     0.052 A 
ATOM      9 BR   UNL d   1      -5.837  -1.091   2.922  0.00  0.00    -0.043 Br
ATOM     10  C   UNL d   1      -4.519  -2.139   0.599  0.00  0.00     0.028 A 
ATOM     11  C   UNL d   1      -3.318  -2.083  -0.172  0.00  0.00     0.035 A 
ENDBRANCH   3   6
ENDBRANCH   1   3
BRANCH   1  12
ATOM     12  C   UNL d   1       0.884  -2.491   1.083  0.00  0.00     0.101 C 
ATOM     13  C   UNL d   1      -0.152  -3.624   1.197  0.00  0.00     0.065 C 
ATOM     14  C   UNL d   1       0.715  -4.730   1.714  0.00  0.00    -0.050 A 
ATOM     15  C   UNL d   1       0.497  -6.093   1.634  0.00  0.00     0.007 A 
ATOM     16  C   UNL d   1       1.864  -4.210   2.326  0.00  0.00    -0.050 A 
ATOM     17  C   UNL d   1       1.466  -6.946   2.166  0.00  0.00     0.001 A 
ATOM     18  C   UNL d   1       2.616  -6.427   2.783  0.00  0.00     0.001 A 
ATOM     19  C   UNL d   1       2.817  -5.047   2.877  0.00  0.00     0.007 A 
ATOM     20  C   UNL d   1       1.858  -2.712   2.263  0.00  0.00     0.065 C 
ENDBRANCH   1  12
TORSDOF 3
