REMARK  2 active torsions:
REMARK  status: ('A' for Active; 'I' for Inactive)
REMARK    1  A    between atoms: C_6  and  N_1 
REMARK    2  A    between atoms: C_7  and  C_2 
ROOT
ATOM      1  N   UNL d   1      -0.609  -1.196   0.220  0.00  0.00    -0.299 N 
ATOM      2  C   UNL d   1       0.787  -1.347  -0.161  0.00  0.00     0.188 C 
ATOM      3  S   UNL d   1       1.488   0.325  -0.299  0.00  0.00    -0.129 SA
ATOM      4  C   UNL d   1      -1.138   0.094   0.142  0.00  0.00     0.235 C 
ATOM      5  C   UNL d   1      -0.119   1.119  -0.292  0.00  0.00     0.179 C 
ATOM      6  O   UNL d   1      -2.311   0.413   0.323  0.00  0.00    -0.272 OA
ENDROOT
BRANCH   1   7
ATOM      7  C   UNL d   1      -1.434  -2.330   0.475  0.00  0.00     0.038 A 
ATOM      8  C   UNL d   1      -1.233  -3.545  -0.197  0.00  0.00     0.030 A 
ATOM      9  C   UNL d   1      -2.039  -4.653   0.080  0.00  0.00     0.002 A 
ATOM     10  C   UNL d   1      -3.027  -4.575   1.058  0.00  0.00     0.000 A 
ATOM     11  C   UNL d   1      -3.226  -3.382   1.746  0.00  0.00     0.002 A 
ATOM     12  C   UNL d   1      -2.446  -2.262   1.443  0.00  0.00     0.030 A 
ENDBRANCH   1   7
BRANCH   2  13
ATOM     13  C   UNL d   1       1.647  -2.178   0.781  0.00  0.00    -0.025 A 
ATOM     14  C   UNL d   1       2.756  -2.876   0.267  0.00  0.00     0.010 A 
ATOM     15  C   UNL d   1       3.595  -3.614   1.108  0.00  0.00     0.001 A 
ATOM     16  C   UNL d   1       3.336  -3.668   2.475  0.00  0.00     0.000 A 
ATOM     17  C   UNL d   1       2.247  -2.981   3.004  0.00  0.00     0.001 A 
ATOM     18  C   UNL d   1       1.415  -2.234   2.168  0.00  0.00     0.010 A 
ENDBRANCH   2  13
TORSDOF 2
