REMARK  1 active torsions:
REMARK  status: ('A' for Active; 'I' for Inactive)
REMARK    1  A    between atoms: N_5  and  C_2 
ROOT
ATOM      1  C   UNL d   1      -0.060  -0.801  -0.919  0.00  0.00     0.043 A 
ATOM      2  C   UNL d   1      -0.932  -1.532  -0.065  0.00  0.00     0.097 A 
ATOM      3  C   UNL d   1      -0.200   0.582  -0.869  0.00  0.00     0.088 A 
ATOM      4  S   UNL d   1       0.868   1.410  -1.901  0.00  0.00    -0.083 SA
ATOM      5  C   UNL d   1       1.010  -1.166  -1.843  0.00  0.00    -0.039 A 
ATOM      6  N   UNL d   1      -1.792  -0.838   0.721  0.00  0.00    -0.342 N 
ATOM      7  HN  UNL d   1      -2.422  -1.332   1.353  1.00  0.00     0.167 HD
ATOM      8  C   UNL d   1       1.570  -0.046  -2.435  0.00  0.00     0.059 A 
ATOM      9  N   UNL d   1      -1.056   1.284  -0.110  0.00  0.00    -0.346 N 
ATOM     10  HN  UNL d   1      -1.123   2.302  -0.121  1.00  0.00     0.167 HD
ATOM     11  C   UNL d   1      -1.809   0.498   0.660  0.00  0.00     0.182 A 
ATOM     12  C   UNL d   1       1.498  -2.543  -2.153  0.00  0.00     0.050 C 
ENDROOT
BRANCH   2  13
ATOM     13  N   UNL d   1      -0.883  -2.930   0.040  0.00  0.00    -0.269 NA
ATOM     14  C   UNL d   1      -1.270  -3.427   1.366  0.00  0.00     0.097 C 
ATOM     15  C   UNL d   1      -0.862  -4.897   1.461  0.00  0.00     0.015 C 
ATOM     16  C   UNL d   1      -1.478  -5.723   0.330  0.00  0.00     0.002 C 
ATOM     17  C   UNL d   1      -1.240  -5.082  -1.038  0.00  0.00     0.015 C 
ATOM     18  C   UNL d   1      -1.621  -3.596  -1.044  0.00  0.00     0.097 C 
ENDBRANCH   2  13
TORSDOF 1
