REMARK  6 active torsions:
REMARK  status: ('A' for Active; 'I' for Inactive)
REMARK    1  A    between atoms: C_4  and  C_1 
REMARK    2  A    between atoms: C_8  and  C_1 
REMARK    3  A    between atoms: N_5  and  N_2 
REMARK    4  A    between atoms: O_15  and  C_4 
REMARK    5  A    between atoms: C_6  and  N_5 
REMARK    6  A    between atoms: C_19  and  O_15 
ROOT
ATOM      1  C   UNL d   1       1.000  -0.021   0.026  0.00  0.00     0.165 C 
ATOM      2  N   UNL d   1       0.284  -0.565   0.977  0.00  0.00    -0.308 N 
ATOM      3  HN  UNL d   1      -0.726  -0.426   1.011  1.00  0.00     0.181 HD
ENDROOT
BRANCH   2   4
ATOM      4  N   UNL d   1       0.913  -1.320   1.921  0.00  0.00    -0.202 NA
ATOM      5  H   UNL d   1       1.901  -1.110   2.122  0.00  0.00     0.153 HD
BRANCH   4   6
ATOM      6  C   UNL d   1       0.218  -1.499   3.141  0.00  0.00     0.066 A 
ATOM      7  C   UNL d   1       0.952  -1.657   4.330  0.00  0.00     0.142 A 
ATOM      8  C   UNL d   1       0.318  -1.819   5.554  0.00  0.00     0.086 A 
ATOM      9  F   UNL d   1       2.293  -1.614   4.287  0.00  0.00    -0.204 F 
ATOM     10  C   UNL d   1      -1.066  -1.852   5.590  0.00  0.00     0.119 A 
ATOM     11  C   UNL d   1      -1.824  -1.744   4.424  0.00  0.00     0.044 A 
ATOM     12  F   UNL d   1      -1.694  -1.997   6.766  0.00  0.00    -0.206 F 
ATOM     13  C   UNL d   1      -1.176  -1.574   3.197  0.00  0.00     0.031 A 
ENDBRANCH   4   6
ENDBRANCH   2   4
BRANCH   1  14
ATOM     14  C   UNL d   1       2.501  -0.190  -0.133  0.00  0.00     0.314 C 
ATOM     15  O   UNL d   1       3.012  -0.409  -1.215  0.00  0.00    -0.257 OA
BRANCH  14  16
ATOM     16  O   UNL d   1       3.109  -0.186   1.077  0.00  0.00    -0.317 OA
BRANCH  16  17
ATOM     17  C   UNL d   1       4.450  -0.703   1.105  0.00  0.00     0.175 C 
ATOM     18  C   UNL d   1       4.407  -2.223   1.102  0.00  0.00     0.034 C 
ENDBRANCH  16  17
ENDBRANCH  14  16
ENDBRANCH   1  14
BRANCH   1  19
ATOM     19  C   UNL d   1       0.234   0.789  -0.987  0.00  0.00     0.179 C 
ATOM     20  O   UNL d   1       0.682   1.871  -1.342  0.00  0.00    -0.291 OA
ATOM     21  C   UNL d   1      -1.072   0.223  -1.470  0.00  0.00     0.099 C 
ENDBRANCH   1  19
TORSDOF 6
