REMARK  5 active torsions:
REMARK  status: ('A' for Active; 'I' for Inactive)
REMARK    1  A    between atoms: C_5  and  C_1 
REMARK    2  A    between atoms: C_11  and  C_3 
REMARK    3  A    between atoms: C_7  and  C_5 
REMARK    4  A    between atoms: N_12  and  C_8 
REMARK    5  A    between atoms: C_14  and  N_12 
ROOT
ATOM      1  C   UNL d   1      -5.281   1.446   0.687  0.00  0.00     0.110 C 
ATOM      2  C   UNL d   1      -6.501   1.032   0.252  0.00  0.00     0.115 C 
ATOM      3  C   UNL d   1      -5.129   2.327   1.828  0.00  0.00     0.105 C 
ATOM      4  N   UNL d   1      -5.033   3.057   2.741  0.00  0.00    -0.191 NA
ENDROOT
BRANCH   1   5
ATOM      5  C   UNL d   1      -4.038   0.896  -0.009  0.00  0.00     0.206 C 
ATOM      6  O   UNL d   1      -4.035  -0.206  -0.553  0.00  0.00    -0.286 OA
BRANCH   5   7
ATOM      7  C   UNL d   1      -2.838   1.757   0.015  0.00  0.00     0.047 A 
ATOM      8  C   UNL d   1      -2.727   3.191   0.129  0.00  0.00     0.051 A 
ATOM      9  C   UNL d   1      -1.385   3.519   0.085  0.00  0.00     0.061 A 
ATOM     10  O   UNL d   1      -0.663   2.381  -0.055  0.00  0.00    -0.318 OA
ATOM     11  C   UNL d   1      -1.520   1.331  -0.142  0.00  0.00     0.063 A 
ATOM     12  C   UNL d   1      -0.818   0.049  -0.377  0.00  0.00     0.077 C 
BRANCH   9  13
ATOM     13  C   UNL d   1      -0.568   4.790   0.119  0.00  0.00    -0.002 C 
ATOM     14  C   UNL d   1      -1.466   6.035   0.056  0.00  0.00     0.021 C 
ATOM     15  C   UNL d   1       0.268   4.842   1.412  0.00  0.00     0.021 C 
ATOM     16  C   UNL d   1       0.391   4.817  -1.090  0.00  0.00     0.021 C 
ENDBRANCH   9  13
ENDBRANCH   5   7
ENDBRANCH   1   5
BRANCH   2  17
ATOM     17  N   UNL d   1      -7.735   1.456   0.721  0.00  0.00    -0.364 N 
ATOM     18  H   UNL d   1      -7.726   2.196   1.420  0.00  0.00     0.165 HD
BRANCH  17  19
ATOM     19  C   UNL d   1      -9.018   0.940   0.465  0.00  0.00     0.032 A 
ATOM     20  C   UNL d   1      -9.238  -0.333  -0.069  0.00  0.00     0.031 A 
ATOM     21  C   UNL d   1     -10.533  -0.781  -0.347  0.00  0.00     0.026 A 
ATOM     22  C   UNL d   1     -11.622   0.054  -0.116  0.00  0.00     0.034 A 
ATOM     23  C   UNL d   1     -11.428   1.332   0.397  0.00  0.00     0.026 A 
ATOM     24 CL   UNL d   1     -13.213  -0.494  -0.470  0.00  0.00    -0.084 Cl
ATOM     25  C   UNL d   1     -10.133   1.771   0.685  0.00  0.00     0.031 A 
ENDBRANCH  17  19
ENDBRANCH   2  17
TORSDOF 5
