REMARK  6 active torsions:
REMARK  status: ('A' for Active; 'I' for Inactive)
REMARK    1  A    between atoms: N_4  and  C_1 
REMARK    2  A    between atoms: N_8  and  C_1 
REMARK    3  A    between atoms: C_3  and  N_4 
REMARK    4  A    between atoms: N_5  and  N_8 
REMARK    5  A    between atoms: N_11  and  C_9 
REMARK    6  A    between atoms: C_16  and  C_15 
ROOT
ATOM      1  N   UNL d   1       2.435  -0.171   0.001  0.00  0.00    -0.276 N 
ATOM      2  H   UNL d   1       2.941   0.624   0.381  0.00  0.00     0.189 HD
ENDROOT
BRANCH   1   3
ATOM      3  N   UNL d   1       3.068  -1.368  -0.169  0.00  0.00    -0.309 N 
ATOM      4  C   UNL d   1       4.332  -1.338   0.122  0.00  0.00     0.118 C 
ATOM      5  HN  UNL d   1       2.591  -2.209  -0.494  1.00  0.00     0.186 HD
BRANCH   4   6
ATOM      6  C   UNL d   1       5.201  -2.524   0.014  0.00  0.00    -0.019 A 
ATOM      7  C   UNL d   1       4.687  -3.765  -0.337  0.00  0.00     0.015 A 
ATOM      8  C   UNL d   1       5.541  -4.873  -0.431  0.00  0.00     0.030 A 
ATOM      9  C   UNL d   1       6.922  -4.782  -0.190  0.00  0.00     0.029 A 
ATOM     10  C   UNL d   1       7.409  -3.511   0.160  0.00  0.00     0.030 A 
ATOM     11  C   UNL d   1       6.566  -2.392   0.265  0.00  0.00     0.015 A 
BRANCH   9  12
ATOM     12  N   UNL d   1       7.759  -5.878  -0.305  0.00  0.00    -0.390 N 
ATOM     13  C   UNL d   1       8.985  -6.007   0.475  0.00  0.00     0.149 C 
ATOM     14  C   UNL d   1       7.440  -7.006  -1.173  0.00  0.00     0.149 C 
ENDBRANCH   9  12
ENDBRANCH   4   6
ENDBRANCH   1   3
BRANCH   1  15
ATOM     15  C   UNL d   1       1.185   0.087  -0.511  0.00  0.00     0.191 C 
ATOM     16  S   UNL d   1       0.588   1.643  -0.351  0.00  0.00    -0.039 SA
BRANCH  15  17
ATOM     17  N   UNL d   1       0.563  -0.999  -1.083  0.00  0.00    -0.331 N 
ATOM     18  H   UNL d   1       0.815  -1.882  -0.645  0.00  0.00     0.168 HD
BRANCH  17  19
ATOM     19  C   UNL d   1      -0.459  -1.022  -2.062  0.00  0.00     0.058 A 
ATOM     20  C   UNL d   1      -1.384  -2.082  -2.112  0.00  0.00     0.082 A 
ATOM     21  C   UNL d   1      -2.356  -2.112  -3.127  0.00  0.00     0.058 A 
ATOM     22 CL   UNL d   1      -1.338  -3.312  -0.886  0.00  0.00    -0.080 Cl
ATOM     23 CL   UNL d   1      -3.557  -3.353  -3.234  0.00  0.00    -0.082 Cl
ATOM     24  C   UNL d   1      -2.385  -1.114  -4.107  0.00  0.00     0.026 A 
ATOM     25  C   UNL d   1      -1.452  -0.083  -4.078  0.00  0.00     0.004 A 
ATOM     26  C   UNL d   1      -0.499  -0.038  -3.061  0.00  0.00     0.031 A 
ENDBRANCH  17  19
ENDBRANCH  15  17
ENDBRANCH   1  15
TORSDOF 6
