REMARK  3 active torsions:
REMARK  status: ('A' for Active; 'I' for Inactive)
REMARK    1  A    between atoms: N_2  and  C_1 
REMARK    2  A    between atoms: N_3  and  C_1 
REMARK    3  A    between atoms: C_8  and  N_3 
ROOT
ATOM      1  C   UNL d   1       1.005   0.070  -0.155  0.00  0.00     0.174 C 
ATOM      2  S   UNL d   1       2.552  -0.106  -0.820  0.00  0.00    -0.041 SA
ENDROOT
BRANCH   1   3
ATOM      3  N   UNL d   1       0.390   1.327   0.025  0.00  0.00    -0.353 N 
ATOM      4  C   UNL d   1      -0.778   1.562   0.902  0.00  0.00     0.164 C 
ATOM      5  C   UNL d   1      -1.730   2.623   0.403  0.00  0.00    -0.034 A 
ATOM      6  C   UNL d   1      -3.110   2.527   0.615  0.00  0.00     0.009 A 
ATOM      7  C   UNL d   1      -1.208   3.764  -0.224  0.00  0.00    -0.049 A 
ATOM      8  C   UNL d   1      -3.958   3.547   0.181  0.00  0.00     0.001 A 
ATOM      9  C   UNL d   1      -3.434   4.674  -0.450  0.00  0.00     0.001 A 
ATOM     10  C   UNL d   1      -2.059   4.790  -0.646  0.00  0.00     0.008 A 
ATOM     11  C   UNL d   1       0.281   3.845  -0.382  0.00  0.00     0.059 C 
ATOM     12  C   UNL d   1       0.836   2.480  -0.791  0.00  0.00     0.130 C 
ENDBRANCH   1   3
BRANCH   1  13
ATOM     13  N   UNL d   1       0.259  -1.012   0.294  0.00  0.00    -0.333 N 
ATOM     14  H   UNL d   1      -0.171  -0.898   1.199  0.00  0.00     0.168 HD
BRANCH  13  15
ATOM     15  C   UNL d   1       0.229  -2.335  -0.217  0.00  0.00     0.035 A 
ATOM     16  C   UNL d   1       0.572  -2.659  -1.536  0.00  0.00     0.053 A 
ATOM     17  C   UNL d   1       0.511  -3.981  -1.976  0.00  0.00     0.036 A 
ATOM     18 CL   UNL d   1       0.957  -4.363  -3.595  0.00  0.00    -0.084 Cl
ATOM     19  C   UNL d   1       0.080  -4.992  -1.125  0.00  0.00     0.024 A 
ATOM     20  C   UNL d   1      -0.299  -4.678   0.177  0.00  0.00     0.004 A 
ATOM     21  C   UNL d   1      -0.234  -3.354   0.625  0.00  0.00     0.029 A 
ENDBRANCH  13  15
ENDBRANCH   1  13
TORSDOF 3
