REMARK  2 active torsions:
REMARK  status: ('A' for Active; 'I' for Inactive)
REMARK    1  A    between atoms: C_4  and  C_1 
REMARK    2  A    between atoms: C_7  and  C_4 
ROOT
ATOM      1  C   UNL d   1      -2.326  -0.211  -0.046  0.00  0.00     0.127 A 
ATOM      2  O   UNL d   1      -1.551   0.917  -0.025  0.00  0.00    -0.306 OA
ATOM      3  C   UNL d   1      -1.513  -1.328  -0.126  0.00  0.00     0.055 A 
ATOM      4  C   UNL d   1      -0.253   0.520  -0.043  0.00  0.00     0.086 A 
ATOM      5  C   UNL d   1      -0.172  -0.865  -0.085  0.00  0.00     0.001 A 
ATOM      6  C   UNL d   1       0.849   1.372  -0.011  0.00  0.00     0.038 A 
ATOM      7  C   UNL d   1       1.102  -1.461  -0.076  0.00  0.00     0.014 A 
ATOM      8  C   UNL d   1       2.232  -0.631  -0.029  0.00  0.00     0.001 A 
ATOM      9  C   UNL d   1       2.106   0.761  -0.003  0.00  0.00     0.003 A 
ENDROOT
BRANCH   1  10
ATOM     10  C   UNL d   1      -3.768  -0.084  -0.006  0.00  0.00     0.215 C 
ATOM     11  O   UNL d   1      -4.531  -0.947  -0.438  0.00  0.00    -0.284 OA
BRANCH  10  12
ATOM     12  C   UNL d   1      -4.365   1.133   0.616  0.00  0.00     0.017 A 
ATOM     13  C   UNL d   1      -3.770   1.749   1.728  0.00  0.00     0.017 A 
ATOM     14  C   UNL d   1      -4.353   2.882   2.300  0.00  0.00     0.025 A 
ATOM     15  C   UNL d   1      -5.536   3.393   1.772  0.00  0.00     0.034 A 
ATOM     16  C   UNL d   1      -6.149   2.775   0.681  0.00  0.00     0.025 A 
ATOM     17 CL   UNL d   1      -6.249   4.791   2.475  0.00  0.00    -0.084 Cl
ATOM     18  C   UNL d   1      -5.567   1.640   0.106  0.00  0.00     0.017 A 
ENDBRANCH  10  12
ENDBRANCH   1  10
TORSDOF 2
