REMARK  2 active torsions:
REMARK  status: ('A' for Active; 'I' for Inactive)
REMARK    1  A    between atoms: C_5  and  C_3 
REMARK    2  A    between atoms: O_13  and  C_7 
ROOT
ATOM      1  N   UNL d   1       1.212  -1.321  -0.026  0.00  0.00    -0.349 N 
ATOM      2  HN  UNL d   1       1.221  -2.341  -0.024  1.00  0.00     0.166 HD
ATOM      3  C   UNL d   1       2.384  -0.630  -0.044  0.00  0.00     0.119 A 
ATOM      4  C   UNL d   1       0.035  -0.656  -0.010  0.00  0.00     0.084 A 
ATOM      5  C   UNL d   1      -0.034   0.754  -0.007  0.00  0.00     0.027 A 
ATOM      6  C   UNL d   1       1.199   1.439  -0.003  0.00  0.00     0.080 A 
ATOM      7  C   UNL d   1       2.406   0.755  -0.026  0.00  0.00     0.071 A 
ATOM      8  C   UNL d   1      -1.166  -1.367  -0.005  0.00  0.00     0.143 A 
ATOM      9  F   UNL d   1      -1.145  -2.711   0.002  0.00  0.00    -0.204 F 
ATOM     10  C   UNL d   1      -1.306   1.385  -0.018  0.00  0.00     0.017 A 
ATOM     11  C   UNL d   1      -2.485   0.639  -0.021  0.00  0.00     0.004 A 
ATOM     12  C   UNL d   1      -2.413  -0.745  -0.010  0.00  0.00     0.045 A 
ENDROOT
BRANCH   3  13
ATOM     13  C   UNL d   1       3.706  -1.384  -0.098  0.00  0.00     0.432 C 
ATOM     14  F   UNL d   1       3.583  -2.740  -0.133  0.00  0.00    -0.165 F 
ATOM     15  F   UNL d   1       4.448  -1.051  -1.195  0.00  0.00    -0.165 F 
ATOM     16  F   UNL d   1       4.505  -1.112   0.976  0.00  0.00    -0.165 F 
ENDBRANCH   3  13
BRANCH   6  17
ATOM     17  O   UNL d   1       1.314   2.803   0.019  0.00  0.00    -0.360 OA
ATOM     18  H   UNL d   1       0.450   3.214   0.167  0.00  0.00     0.217 HD
ENDBRANCH   6  17
TORSDOF 2
