REMARK  2 active torsions:
REMARK  status: ('A' for Active; 'I' for Inactive)
REMARK       I    between atoms: N_2  and  C_1 
REMARK       I    between atoms: N_3  and  C_1 
REMARK    1  A    between atoms: C_8  and  N_3 
REMARK    2  A    between atoms: C_5  and  N_4 
ROOT
ATOM      1  C   UNL d   1      -2.585   3.382  -2.980  0.00  0.00     0.103 A 
ATOM      2  N   UNL d   1      -3.838   3.637  -2.550  0.00  0.00    -0.351 N 
ATOM      3  HN  UNL d   1      -4.270   3.062  -1.828  1.00  0.00     0.166 HD
ATOM      4  N   UNL d   1      -5.346   7.500  -5.004  0.00  0.00    -0.191 NA
ATOM      5  C   UNL d   1      -4.733   6.609  -4.587  0.00  0.00     0.101 C 
ATOM      6  C   UNL d   1      -3.974   5.515  -4.071  0.00  0.00     0.060 A 
ATOM      7  C   UNL d   1      -1.987   4.179  -3.962  0.00  0.00     0.050 A 
ATOM      8  C   UNL d   1      -4.507   4.679  -3.105  0.00  0.00     0.112 A 
ATOM      9  C   UNL d   1      -2.683   5.259  -4.505  0.00  0.00     0.028 A 
ENDROOT
BRANCH   1  10
ATOM     10  N   UNL d   1      -1.841   2.363  -2.400  0.00  0.00    -0.366 N 
ATOM     11  C   UNL d   1      -2.221   1.935  -1.045  0.00  0.00     0.144 C 
ATOM     12  C   UNL d   1      -0.975   1.851  -0.136  0.00  0.00     0.147 C 
ATOM     13  N   UNL d   1       0.144   1.061  -0.685  0.00  0.00    -0.332 N 
ATOM     14  C   UNL d   1       0.668  -0.100  -0.140  0.00  0.00     0.323 C 
ATOM     15  C   UNL d   1       0.733   1.540  -1.934  0.00  0.00     0.129 C 
ATOM     16  N   UNL d   1       0.402  -0.277   1.203  0.00  0.00    -0.306 N 
ATOM     17  O   UNL d   1       1.388  -0.849  -0.798  0.00  0.00    -0.247 OA
ATOM     18  H   UNL d   1       0.335   0.596   1.709  0.00  0.00     0.171 HD
ATOM     19  C   UNL d   1       0.063   1.002  -3.193  0.00  0.00     0.040 C 
ATOM     20  C   UNL d   1      -1.435   1.274  -3.296  0.00  0.00     0.126 C 
BRANCH  16  21
ATOM     21  C   UNL d   1       1.025  -1.313   1.939  0.00  0.00     0.075 A 
ATOM     22  C   UNL d   1       1.605  -0.989   3.171  0.00  0.00     0.146 A 
ATOM     23  C   UNL d   1       2.368  -1.914   3.871  0.00  0.00     0.086 A 
ATOM     24  F   UNL d   1       1.486   0.260   3.650  0.00  0.00    -0.204 F 
ATOM     25  C   UNL d   1       2.510  -3.192   3.349  0.00  0.00     0.119 A 
ATOM     26  C   UNL d   1       1.883  -3.560   2.161  0.00  0.00     0.044 A 
ATOM     27  F   UNL d   1       3.271  -4.085   3.994  0.00  0.00    -0.206 F 
ATOM     28  C   UNL d   1       1.137  -2.617   1.451  0.00  0.00     0.036 A 
ENDBRANCH  16  21
ENDBRANCH   1  10
TORSDOF 2
