REMARK  2 active torsions:
REMARK  status: ('A' for Active; 'I' for Inactive)
REMARK    1  A    between atoms: C_8  and  C_1 
REMARK    2  A    between atoms: C_11  and  N_9 
ROOT
ATOM      1  C   UNL d   1      -0.076   1.208  -0.066  0.00  0.00     0.104 A 
ATOM      2  S   UNL d   1       1.161   0.007  -0.157  0.00  0.00    -0.033 SA
ATOM      3  C   UNL d   1      -0.064  -1.195   0.031  0.00  0.00     0.166 A 
ATOM      4  N   UNL d   1      -1.283   0.696   0.045  0.00  0.00    -0.291 N 
ATOM      5  HN  UNL d   1      -2.132   1.257   0.108  1.00  0.00     0.187 HD
ATOM      6  N   UNL d   1      -1.272  -0.675   0.067  0.00  0.00    -0.279 N 
ATOM      7  HN  UNL d   1      -2.122  -1.239   0.107  1.00  0.00     0.189 HD
ATOM      8  N   UNL d   1       0.262  -2.508   0.116  0.00  0.00    -0.336 N 
ATOM      9  H   UNL d   1       1.234  -2.765  -0.021  0.00  0.00     0.168 HD
ENDROOT
BRANCH   8  10
ATOM     10  C   UNL d   1      -0.549  -3.544   0.624  0.00  0.00     0.034 A 
ATOM     11  C   UNL d   1      -1.772  -3.312   1.278  0.00  0.00     0.032 A 
ATOM     12  C   UNL d   1      -2.574  -4.366   1.720  0.00  0.00     0.044 A 
ATOM     13  C   UNL d   1      -2.163  -5.672   1.500  0.00  0.00     0.116 A 
ATOM     14  C   UNL d   1      -0.967  -5.938   0.847  0.00  0.00     0.044 A 
ATOM     15  F   UNL d   1      -2.929  -6.684   1.921  0.00  0.00    -0.206 F 
ATOM     16  C   UNL d   1      -0.168  -4.878   0.405  0.00  0.00     0.032 A 
ENDBRANCH   8  10
BRANCH   1  17
ATOM     17  C   UNL d   1       0.227   2.646  -0.111  0.00  0.00     0.021 A 
ATOM     18  C   UNL d   1      -0.602   3.565  -0.784  0.00  0.00     0.047 A 
ATOM     19 CL   UNL d   1      -2.018   3.098  -1.667  0.00  0.00    -0.083 Cl
ATOM     20  C   UNL d   1      -0.292   4.932  -0.797  0.00  0.00     0.025 A 
ATOM     21  C   UNL d   1       0.842   5.406  -0.142  0.00  0.00     0.002 A 
ATOM     22  C   UNL d   1       1.666   4.517   0.539  0.00  0.00     0.001 A 
ATOM     23  C   UNL d   1       1.359   3.154   0.561  0.00  0.00     0.016 A 
ENDBRANCH   1  17
TORSDOF 2
