REMARK  2 active torsions:
REMARK  status: ('A' for Active; 'I' for Inactive)
REMARK    1  A    between atoms: C_5  and  N_1 
REMARK    2  A    between atoms: C_16  and  C_11 
ROOT
ATOM      1  N   UNL d   1       1.253   0.021  -0.494  0.00  0.00    -0.364 N 
ATOM      2  HN  UNL d   1       0.795  -0.869  -0.692  1.00  0.00     0.165 HD
ATOM      3  C   UNL d   1       2.397   0.048   0.108  0.00  0.00     0.100 C 
ENDROOT
BRANCH   1   4
ATOM      4  C   UNL d   1       0.647   1.236  -0.875  0.00  0.00     0.054 A 
ATOM      5  C   UNL d   1       0.046   1.374  -2.142  0.00  0.00     0.062 A 
ATOM      6  C   UNL d   1      -0.603   2.557  -2.510  0.00  0.00     0.045 A 
ATOM      7 CL   UNL d   1       0.082   0.082  -3.294  0.00  0.00    -0.082 Cl
ATOM      8  C   UNL d   1      -0.661   3.617  -1.611  0.00  0.00     0.012 A 
ATOM      9  C   UNL d   1      -0.086   3.504  -0.348  0.00  0.00     0.021 A 
ATOM     10 BR   UNL d   1      -1.541   5.218  -2.097  0.00  0.00    -0.051 Br
ATOM     11  C   UNL d   1       0.552   2.315   0.019  0.00  0.00     0.032 A 
ENDBRANCH   1   4
BRANCH   3  12
ATOM     12  C   UNL d   1       3.078  -1.189   0.539  0.00  0.00    -0.018 A 
ATOM     13  C   UNL d   1       4.171  -1.083   1.406  0.00  0.00     0.052 A 
ATOM     14  C   UNL d   1       4.778  -2.255   1.803  0.00  0.00     0.105 A 
ATOM     15  O   UNL d   1       5.838  -2.349   2.651  0.00  0.00    -0.323 OA
ATOM     16  C   UNL d   1       4.348  -3.486   1.362  0.00  0.00     0.105 A 
ATOM     17  C   UNL d   1       6.009  -3.781   2.714  0.00  0.00     0.352 A 
ATOM     18  O   UNL d   1       5.086  -4.506   1.875  0.00  0.00    -0.323 OA
ATOM     19  C   UNL d   1       3.280  -3.616   0.500  0.00  0.00     0.040 A 
ATOM     20  C   UNL d   1       2.632  -2.449   0.087  0.00  0.00     0.016 A 
ENDBRANCH   3  12
TORSDOF 2
