REMARK  4 active torsions:
REMARK  status: ('A' for Active; 'I' for Inactive)
REMARK    1  A    between atoms: C_4  and  C_1 
REMARK       I    between atoms: N_7  and  C_4 
REMARK    2  A    between atoms: N_11  and  N_7 
REMARK    3  A    between atoms: C_9  and  C_10 
REMARK    4  A    between atoms: C_15  and  N_11 
ROOT
ATOM      1  N   UNL d   1      -4.040   0.380  -0.339  0.00  0.00    -0.203 NA
ATOM      2  H   UNL d   1      -3.341   0.974  -0.805  0.00  0.00     0.153 HD
ENDROOT
BRANCH   1   3
ATOM      3  N   UNL d   1      -3.461  -0.252   0.784  0.00  0.00    -0.281 N 
ATOM      4  C   UNL d   1      -2.073  -0.282   0.839  0.00  0.00     0.284 C 
ATOM      5  O   UNL d   1      -1.368   0.377   0.070  0.00  0.00    -0.265 OA
ATOM      6  H   UNL d   1      -3.981  -1.006   1.226  0.00  0.00     0.184 HD
BRANCH   4   7
ATOM      7  C   UNL d   1      -1.508  -1.157   1.865  0.00  0.00     0.126 A 
ATOM      8  N   UNL d   1      -2.270  -1.819   2.755  0.00  0.00    -0.256 N 
ATOM      9  O   UNL d   1      -1.384  -2.491   3.583  0.00  0.00    -0.242 OA
ATOM     10  HN  UNL d   1      -3.288  -1.825   2.809  1.00  0.00     0.195 HD
ATOM     11  C   UNL d   1      -0.108  -2.250   3.180  0.00  0.00     0.075 A 
ATOM     12  C   UNL d   1      -0.133  -1.425   2.085  0.00  0.00     0.071 A 
ATOM     13  C   UNL d   1       0.969  -2.879   3.966  0.00  0.00     0.079 C 
ENDBRANCH   4   7
ENDBRANCH   1   3
BRANCH   1  14
ATOM     14  C   UNL d   1      -5.222   1.111  -0.063  0.00  0.00     0.027 A 
ATOM     15  C   UNL d   1      -5.518   2.244  -0.830  0.00  0.00     0.026 A 
ATOM     16  C   UNL d   1      -6.740   2.920  -0.694  0.00  0.00     0.010 A 
ATOM     17  C   UNL d   1      -7.734   2.470   0.191  0.00  0.00    -0.051 A 
ATOM     18  C   UNL d   1      -7.432   1.332   0.954  0.00  0.00     0.010 A 
ATOM     19  C   UNL d   1      -6.205   0.660   0.821  0.00  0.00     0.026 A 
BRANCH  17  20
ATOM     20  C   UNL d   1      -9.090   3.196   0.278  0.00  0.00    -0.024 C 
ATOM     21  C   UNL d   1     -10.093   2.522   1.241  0.00  0.00     0.019 C 
ATOM     22  C   UNL d   1      -8.880   4.643   0.769  0.00  0.00     0.019 C 
ATOM     23  C   UNL d   1      -9.760   3.232  -1.115  0.00  0.00     0.019 C 
ENDBRANCH  17  20
ENDBRANCH   1  14
TORSDOF 4
