REMARK  3 active torsions:
REMARK  status: ('A' for Active; 'I' for Inactive)
REMARK       I    between atoms: N_2  and  C_1 
REMARK    1  A    between atoms: C_8  and  C_1 
REMARK    2  A    between atoms: C_3  and  C_7 
REMARK    3  A    between atoms: O_12  and  C_9 
ROOT
ATOM      1  C   UNL d   1       0.820   0.332   0.322  0.00  0.00     0.253 C 
ATOM      2  N   UNL d   1      -0.004  -0.804   0.254  0.00  0.00    -0.348 N 
ATOM      3  C   UNL d   1      -0.594  -1.057  -1.062  0.00  0.00     0.127 C 
ATOM      4  C   UNL d   1       0.138  -1.989   1.092  0.00  0.00     0.127 C 
ATOM      5  O   UNL d   1       0.703   1.279  -0.457  0.00  0.00    -0.267 OA
ATOM      6  C   UNL d   1      -1.792  -3.133  -0.165  0.00  0.00     0.024 C 
ATOM      7  C   UNL d   1      -1.897  -1.841  -0.998  0.00  0.00     0.029 C 
ATOM      8  C   UNL d   1      -1.169  -2.776   1.198  0.00  0.00     0.029 C 
ENDROOT
BRANCH   1   9
ATOM      9  C   UNL d   1       1.975   0.395   1.255  0.00  0.00     0.032 A 
ATOM     10  C   UNL d   1       3.217   0.717   0.685  0.00  0.00     0.017 A 
ATOM     11  C   UNL d   1       4.361   0.799   1.477  0.00  0.00     0.001 A 
ATOM     12  C   UNL d   1       4.272   0.556   2.846  0.00  0.00     0.000 A 
ATOM     13  C   UNL d   1       3.034   0.272   3.426  0.00  0.00     0.001 A 
ATOM     14  C   UNL d   1       1.880   0.220   2.637  0.00  0.00     0.017 A 
ENDBRANCH   1   9
BRANCH   6  15
ATOM     15  C   UNL d   1      -1.190  -4.330  -0.904  0.00  0.00    -0.021 A 
ATOM     16  C   UNL d   1      -1.811  -4.861  -2.054  0.00  0.00     0.074 A 
ATOM     17  C   UNL d   1      -1.286  -5.969  -2.732  0.00  0.00     0.037 A 
ATOM     18  C   UNL d   1      -0.143  -6.604  -2.250  0.00  0.00     0.003 A 
ATOM     19  C   UNL d   1       0.471  -6.122  -1.103  0.00  0.00     0.001 A 
ATOM     20  C   UNL d   1      -0.048  -5.005  -0.438  0.00  0.00     0.010 A 
BRANCH  16  21
ATOM     21  O   UNL d   1      -2.924  -4.286  -2.608  0.00  0.00    -0.355 OA
ATOM     22  C   UNL d   1      -4.122  -4.711  -1.957  0.00  0.00     0.210 C 
ENDBRANCH  16  21
ENDBRANCH   6  15
TORSDOF 3
