REMARK  5 active torsions:
REMARK  status: ('A' for Active; 'I' for Inactive)
REMARK    1  A    between atoms: C_2  and  C_1 
REMARK    2  A    between atoms: C_3  and  N_5 
REMARK    3  A    between atoms: N_7  and  C_3 
REMARK    4  A    between atoms: N_5  and  C_4 
REMARK    5  A    between atoms: N_11  and  N_7 
ROOT
ATOM      1  C   UNL d   1       0.765   1.547   0.174  0.00  0.00     0.074 A 
ATOM      2  C   UNL d   1      -0.511   1.603   0.770  0.00  0.00     0.049 A 
ATOM      3  C   UNL d   1       1.393   2.746  -0.224  0.00  0.00     0.018 A 
ATOM      4  C   UNL d   1      -1.130   2.852   0.921  0.00  0.00     0.030 A 
ATOM      5  C   UNL d   1       0.769   3.979  -0.048  0.00  0.00     0.001 A 
ATOM      6  C   UNL d   1      -0.495   4.029   0.522  0.00  0.00     0.002 A 
ENDROOT
BRANCH   2   7
ATOM      7  N   UNL d   1      -1.198   0.414   1.110  0.00  0.00    -0.332 N 
ATOM      8  H   UNL d   1      -0.803  -0.458   0.772  0.00  0.00     0.168 HD
BRANCH   7   9
ATOM      9  C   UNL d   1      -2.178   0.190   2.055  0.00  0.00     0.186 C 
ATOM     10  S   UNL d   1      -2.512   1.069   3.435  0.00  0.00    -0.040 SA
BRANCH   9  11
ATOM     11  N   UNL d   1      -2.925  -0.955   1.814  0.00  0.00    -0.300 N 
ATOM     12  H   UNL d   1      -3.693  -1.125   2.464  0.00  0.00     0.183 HD
BRANCH  11  13
ATOM     13  N   UNL d   1      -2.984  -1.562   0.544  0.00  0.00    -0.248 NA
ATOM     14  H   UNL d   1      -2.158  -2.147   0.406  0.00  0.00     0.143 HD
ATOM     15  H   UNL d   1      -2.965  -0.830  -0.172  0.00  0.00     0.143 HD
ENDBRANCH  11  13
ENDBRANCH   9  11
ENDBRANCH   7   9
ENDBRANCH   2   7
BRANCH   1  16
ATOM     16  C   UNL d   1       1.530   0.267  -0.050  0.00  0.00     0.419 C 
ATOM     17  F   UNL d   1       0.879  -0.859   0.366  0.00  0.00    -0.166 F 
ATOM     18  F   UNL d   1       2.736   0.255   0.584  0.00  0.00    -0.166 F 
ATOM     19  F   UNL d   1       1.803   0.053  -1.369  0.00  0.00    -0.166 F 
ENDBRANCH   1  16
TORSDOF 5
