REMARK  4 active torsions:
REMARK  status: ('A' for Active; 'I' for Inactive)
REMARK    1  A    between atoms: N_16  and  C_1 
REMARK    2  A    between atoms: C_7  and  C_3 
REMARK    3  A    between atoms: C_9  and  C_15 
REMARK    4  A    between atoms: N_10  and  N_16 
ROOT
ATOM      1  C   UNL d   1       0.731  -1.029   0.486  0.00  0.00     0.164 A 
ATOM      2  S   UNL d   1       0.189   0.296   1.438  0.00  0.00    -0.051 SA
ATOM      3  C   UNL d   1      -0.041   1.238   0.017  0.00  0.00     0.034 A 
ATOM      4  N   UNL d   1       0.669  -0.832  -0.814  0.00  0.00    -0.344 N 
ATOM      5  HN  UNL d   1       0.925  -1.521  -1.521  1.00  0.00     0.167 HD
ATOM      6  C   UNL d   1       0.207   0.436  -1.081  0.00  0.00     0.110 A 
ENDROOT
BRANCH   3   7
ATOM      7  C   UNL d   1      -0.414   2.656   0.065  0.00  0.00    -0.015 A 
ATOM      8  C   UNL d   1      -1.175   3.189   1.113  0.00  0.00     0.052 A 
ATOM      9  C   UNL d   1      -1.531   4.542   1.132  0.00  0.00     0.102 A 
ATOM     10  O   UNL d   1      -2.319   4.911   2.194  0.00  0.00    -0.348 OA
ATOM     11  C   UNL d   1      -1.081   5.399   0.121  0.00  0.00     0.102 A 
ATOM     12  C   UNL d   1      -3.316   5.868   1.839  0.00  0.00     0.178 C 
ATOM     13  C   UNL d   1      -2.768   7.282   1.924  0.00  0.00     0.053 C 
ATOM     14  C   UNL d   1      -1.377   7.389   1.324  0.00  0.00     0.178 C 
ATOM     15  O   UNL d   1      -1.313   6.748   0.051  0.00  0.00    -0.348 OA
ATOM     16  C   UNL d   1      -0.342   4.876  -0.939  0.00  0.00     0.040 A 
ATOM     17  C   UNL d   1      -0.008   3.520  -0.965  0.00  0.00     0.016 A 
ENDBRANCH   3   7
BRANCH   1  18
ATOM     18  N   UNL d   1       1.242  -2.137   1.085  0.00  0.00    -0.280 N 
ATOM     19  H   UNL d   1       0.925  -2.341   2.030  0.00  0.00     0.189 HD
BRANCH  18  20
ATOM     20  N   UNL d   1       2.071  -3.075   0.522  0.00  0.00    -0.309 N 
ATOM     21  C   UNL d   1       2.934  -2.619  -0.337  0.00  0.00     0.126 C 
ATOM     22  HN  UNL d   1       2.013  -4.064   0.762  1.00  0.00     0.186 HD
BRANCH  21  23
ATOM     23  C   UNL d   1       3.880  -3.493  -0.978  0.00  0.00     0.021 A 
ATOM     24  S   UNL d   1       5.043  -2.823  -2.038  0.00  0.00    -0.101 SA
ATOM     25  C   UNL d   1       5.768  -4.349  -2.302  0.00  0.00     0.050 A 
ATOM     26  C   UNL d   1       5.122  -5.353  -1.615  0.00  0.00     0.008 A 
ATOM     27  C   UNL d   1       4.024  -4.856  -0.855  0.00  0.00     0.021 A 
ENDBRANCH  21  23
ENDBRANCH  18  20
ENDBRANCH   1  18
TORSDOF 4
