REMARK  2 active torsions:
REMARK  status: ('A' for Active; 'I' for Inactive)
REMARK    1  A    between atoms: C_6  and  CA_1 
REMARK    2  A    between atoms: OXT_10  and  C_6 
ROOT
ATOM      1  CA  UNL d   1      -2.741  -0.467   0.009  0.00  0.00     0.107 A 
ATOM      2  N   UNL d   1      -2.118   0.766   0.004  0.00  0.00    -0.350 N 
ATOM      3  C   UNL d   1      -1.726  -1.410  -0.001  0.00  0.00     0.050 A 
ATOM      4  C   UNL d   1      -0.476  -0.729  -0.004  0.00  0.00    -0.007 A 
ATOM      5  C   UNL d   1      -0.751   0.635  -0.002  0.00  0.00     0.043 A 
ATOM      6  C   UNL d   1       0.868  -1.151  -0.005  0.00  0.00     0.020 A 
ATOM      7  C   UNL d   1       0.253   1.608  -0.004  0.00  0.00     0.031 A 
ATOM      8  C   UNL d   1       1.899  -0.197   0.001  0.00  0.00    -0.061 A 
ATOM      9  C   UNL d   1       1.581   1.166  -0.002  0.00  0.00     0.009 A 
ATOM     10  C   UNL d   1       3.337  -0.628   0.018  0.00  0.00     0.048 C 
ATOM     11  H   UNL d   1      -2.619   1.646   0.010  0.00  0.00     0.166 HD
ENDROOT
BRANCH   1  12
ATOM     12  C   UNL d   1      -4.181  -0.558   0.023  0.00  0.00     0.193 C 
ATOM     13  O   UNL d   1      -4.931   0.407   0.031  0.00  0.00    -0.645 OA
BRANCH  12  14
ATOM     14  OXT UNL d   1      -4.640  -1.830   0.028  0.00  0.00    -0.772 OA
ATOM     15  HXT UNL d   1      -3.937  -2.499   0.022  0.00  0.00     0.167 HD
ENDBRANCH  12  14
ENDBRANCH   1  12
TORSDOF 2
