REMARK  6 active torsions:
REMARK  status: ('A' for Active; 'I' for Inactive)
REMARK    1  A    between atoms: C_7  and  C_1 
REMARK    2  A    between atoms: C_11  and  C_3 
REMARK    3  A    between atoms: N_10  and  N_4 
REMARK    4  A    between atoms: O_12  and  C_6 
REMARK    5  A    between atoms: C_13  and  N_10 
REMARK    6  A    between atoms: C_14  and  C_11 
ROOT
ATOM      1  C   UNL d   1       0.347   1.213   0.052  0.00  0.00     0.014 A 
ATOM      2  C   UNL d   1      -1.053   1.275   0.079  0.00  0.00     0.023 A 
ATOM      3  C   UNL d   1      -1.822   0.105  -0.045  0.00  0.00    -0.053 A 
ATOM      4  C   UNL d   1       0.986  -0.029  -0.072  0.00  0.00     0.077 A 
ATOM      5  C   UNL d   1      -1.153  -1.126  -0.190  0.00  0.00     0.010 A 
ATOM      6  C   UNL d   1       0.240  -1.192  -0.193  0.00  0.00     0.038 A 
ENDROOT
BRANCH   1   7
ATOM      7  C   UNL d   1       1.118   2.474   0.129  0.00  0.00     0.121 C 
ATOM      8  N   UNL d   1       2.414   2.444   0.108  0.00  0.00    -0.311 N 
ATOM      9  HN  UNL d   1       2.932   1.566   0.066  1.00  0.00     0.186 HD
BRANCH   8  10
ATOM     10  N   UNL d   1       3.042   3.642   0.147  0.00  0.00    -0.301 N 
ATOM     11  H   UNL d   1       2.591   4.446   0.582  0.00  0.00     0.187 HD
BRANCH  10  12
ATOM     12  C   UNL d   1       4.453   3.655   0.239  0.00  0.00     0.048 A 
ATOM     13  C   UNL d   1       5.228   2.501   0.044  0.00  0.00     0.031 A 
ATOM     14  C   UNL d   1       6.624   2.550   0.074  0.00  0.00     0.002 A 
ATOM     15  C   UNL d   1       7.272   3.763   0.276  0.00  0.00     0.000 A 
ATOM     16  C   UNL d   1       6.524   4.927   0.441  0.00  0.00     0.002 A 
ATOM     17  C   UNL d   1       5.125   4.872   0.413  0.00  0.00     0.031 A 
ENDBRANCH  10  12
ENDBRANCH   8  10
ENDBRANCH   1   7
BRANCH   4  18
ATOM     18  O   UNL d   1       2.347  -0.175  -0.085  0.00  0.00    -0.360 OA
ATOM     19  H   UNL d   1       2.728   0.728   0.002  0.00  0.00     0.217 HD
ENDBRANCH   4  18
BRANCH   3  20
ATOM     20  C   UNL d   1      -3.345   0.104  -0.012  0.00  0.00     0.014 C 
ATOM     21  C   UNL d   1      -3.963   1.330  -0.701  0.00  0.00     0.015 C 
BRANCH  20  22
ATOM     22  C   UNL d   1      -3.909  -0.014   1.420  0.00  0.00     0.004 C 
ATOM     23  C   UNL d   1      -3.525  -1.299   2.143  0.00  0.00     0.006 C 
ENDBRANCH  20  22
ENDBRANCH   3  20
TORSDOF 6
