REMARK  4 active torsions:
REMARK  status: ('A' for Active; 'I' for Inactive)
REMARK       I    between atoms: N_12  and  C_1 
REMARK       I    between atoms: N_13  and  C_1 
REMARK    1  A    between atoms: C_2  and  C_10 
REMARK    2  A    between atoms: C_3  and  C_11 
REMARK    3  A    between atoms: N_4  and  N_13 
REMARK    4  A    between atoms: N_6  and  N_12 
ROOT
ATOM      1  C   UNL d   1       0.992  -0.120  -0.061  0.00  0.00     0.353 C 
ATOM      2  N   UNL d   1       0.345   0.444   1.044  0.00  0.00    -0.251 N 
ATOM      3  N   UNL d   1       0.082  -0.490  -1.046  0.00  0.00    -0.251 N 
ATOM      4  O   UNL d   1       2.211  -0.244  -0.169  0.00  0.00    -0.244 OA
ATOM      5  H   UNL d   1      -0.597   0.119   1.222  0.00  0.00     0.191 HD
ATOM      6  H   UNL d   1      -0.907  -0.323  -0.917  0.00  0.00     0.191 HD
ENDROOT
BRANCH   2   7
ATOM      7  N   UNL d   1       0.988   0.850   2.194  0.00  0.00    -0.307 N 
ATOM      8  C   UNL d   1       2.153   1.413   2.064  0.00  0.00     0.126 C 
ATOM      9  HN  UNL d   1       0.566   0.715   3.112  1.00  0.00     0.186 HD
BRANCH   8  10
ATOM     10  C   UNL d   1       2.909   1.817   3.225  0.00  0.00     0.021 A 
ATOM     11  S   UNL d   1       4.435   2.559   3.002  0.00  0.00    -0.101 SA
ATOM     12  C   UNL d   1       4.666   2.736   4.687  0.00  0.00     0.050 A 
ATOM     13  C   UNL d   1       3.605   2.236   5.409  0.00  0.00     0.008 A 
ATOM     14  C   UNL d   1       2.591   1.698   4.563  0.00  0.00     0.021 A 
ENDBRANCH   8  10
ENDBRANCH   2   7
BRANCH   3  15
ATOM     15  N   UNL d   1       0.544  -0.945  -2.248  0.00  0.00    -0.307 N 
ATOM     16  C   UNL d   1      -0.349  -1.235  -3.139  0.00  0.00     0.126 C 
ATOM     17  HN  UNL d   1       1.541  -1.051  -2.434  1.00  0.00     0.186 HD
BRANCH  16  18
ATOM     18  C   UNL d   1       0.051  -1.695  -4.446  0.00  0.00     0.021 A 
ATOM     19  S   UNL d   1      -1.148  -2.095  -5.596  0.00  0.00    -0.101 SA
ATOM     20  C   UNL d   1       0.028  -2.498  -6.772  0.00  0.00     0.050 A 
ATOM     21  C   UNL d   1       1.311  -2.332  -6.298  0.00  0.00     0.008 A 
ATOM     22  C   UNL d   1       1.323  -1.868  -4.951  0.00  0.00     0.021 A 
ENDBRANCH  16  18
ENDBRANCH   3  15
TORSDOF 4
