REMARK  6 active torsions:
REMARK  status: ('A' for Active; 'I' for Inactive)
REMARK    1  A    between atoms: C_9  and  C_1 
REMARK    2  A    between atoms: C_3  and  N_2 
REMARK    3  A    between atoms: C_13  and  C_4 
REMARK    4  A    between atoms: C_15  and  C_11 
REMARK    5  A    between atoms: O_22  and  C_13 
REMARK    6  A    between atoms: C_27  and  O_22 
ROOT
ATOM      1  C   UNL d   1       1.054  -0.769   0.081  0.00  0.00     0.160 C 
ATOM      2  N   UNL d   1       0.992   0.594   0.258  0.00  0.00    -0.228 N 
ATOM      3  C   UNL d   1      -0.257  -1.225   0.015  0.00  0.00     0.090 C 
ATOM      4  N   UNL d   1      -0.285   0.985   0.548  0.00  0.00    -0.302 N 
ATOM      5  HN  UNL d   1      -0.599   1.901   0.868  1.00  0.00     0.186 HD
ATOM      6  C   UNL d   1      -1.029  -0.094   0.321  0.00  0.00     0.127 C 
ENDROOT
BRANCH   2   7
ATOM      7  C   UNL d   1       1.968   1.596   0.099  0.00  0.00     0.171 A 
ATOM      8  N   UNL d   1       3.087   1.439  -0.576  0.00  0.00    -0.334 N 
ATOM      9  C   UNL d   1       3.796   2.638  -0.563  0.00  0.00     0.051 A 
ATOM     10  HN  UNL d   1       3.386   0.579  -1.035  1.00  0.00     0.168 HD
ATOM     11  C   UNL d   1       3.195   3.662   0.152  0.00  0.00     0.083 A 
ATOM     12  S   UNL d   1       1.687   3.140   0.773  0.00  0.00    -0.062 SA
BRANCH   9  13
ATOM     13  C   UNL d   1       5.035   2.822  -1.309  0.00  0.00    -0.009 A 
ATOM     14  C   UNL d   1       5.219   2.155  -2.530  0.00  0.00     0.015 A 
ATOM     15  C   UNL d   1       6.356   2.396  -3.308  0.00  0.00     0.024 A 
ATOM     16  C   UNL d   1       7.323   3.297  -2.866  0.00  0.00     0.034 A 
ATOM     17  C   UNL d   1       7.172   3.944  -1.643  0.00  0.00     0.024 A 
ATOM     18 CL   UNL d   1       8.704   3.619  -3.838  0.00  0.00    -0.084 Cl
ATOM     19  C   UNL d   1       6.034   3.707  -0.867  0.00  0.00     0.015 A 
ENDBRANCH   9  13
ENDBRANCH   2   7
BRANCH   1  20
ATOM     20  C   UNL d   1       2.321  -1.515   0.019  0.00  0.00     0.435 C 
ATOM     21  F   UNL d   1       3.381  -0.847   0.534  0.00  0.00    -0.165 F 
ATOM     22  F   UNL d   1       2.238  -2.656   0.754  0.00  0.00    -0.165 F 
ATOM     23  F   UNL d   1       2.638  -1.875  -1.246  0.00  0.00    -0.165 F 
ENDBRANCH   1  20
BRANCH   3  24
ATOM     24  C   UNL d   1      -0.705  -2.566  -0.297  0.00  0.00     0.297 C 
ATOM     25  O   UNL d   1       0.054  -3.476  -0.597  0.00  0.00    -0.259 OA
BRANCH  24  26
ATOM     26  O   UNL d   1      -2.066  -2.657  -0.296  0.00  0.00    -0.318 OA
BRANCH  26  27
ATOM     27  C   UNL d   1      -2.610  -3.881  -0.811  0.00  0.00     0.174 C 
ATOM     28  C   UNL d   1      -2.718  -3.782  -2.325  0.00  0.00     0.034 C 
ENDBRANCH  26  27
ENDBRANCH  24  26
ENDBRANCH   3  24
TORSDOF 6
