REMARK  5 active torsions:
REMARK  status: ('A' for Active; 'I' for Inactive)
REMARK    1  A    between atoms: C_4  and  S_1 
REMARK    2  A    between atoms: C_14  and  S_1 
REMARK       I    between atoms: C_2  and  N_5 
REMARK       I    between atoms: N_7  and  C_2 
REMARK    3  A    between atoms: N_5  and  C_3 
REMARK    4  A    between atoms: C_15  and  N_7 
REMARK    5  A    between atoms: O_16  and  C_10 
ROOT
ATOM      1  C   UNL d   1       0.357   3.739   0.456  0.00  0.00     0.071 A 
ATOM      2  C   UNL d   1       0.452   1.317   0.396  0.00  0.00     0.061 A 
ATOM      3  C   UNL d   1       1.008   2.559   0.076  0.00  0.00     0.055 A 
ATOM      4  C   UNL d   1      -0.895   3.643   1.080  0.00  0.00     0.092 A 
ATOM      5  C   UNL d   1      -0.755   1.235   1.095  0.00  0.00     0.026 A 
ATOM      6  C   UNL d   1      -1.443   2.405   1.420  0.00  0.00     0.040 A 
ENDROOT
BRANCH   1   7
ATOM      7  N   UNL d   1       0.894   5.037   0.265  0.00  0.00    -0.306 N 
ATOM      8  C   UNL d   1       2.205   5.326  -0.070  0.00  0.00     0.325 C 
ATOM      9  N   UNL d   1       2.492   6.678   0.004  0.00  0.00    -0.309 N 
ATOM     10  O   UNL d   1       3.032   4.462  -0.346  0.00  0.00    -0.247 OA
ATOM     11  H   UNL d   1       1.762   7.285   0.343  0.00  0.00     0.170 HD
ATOM     12  H   UNL d   1       0.290   5.784   0.579  0.00  0.00     0.171 HD
BRANCH   9  13
ATOM     13  C   UNL d   1       3.779   7.256  -0.143  0.00  0.00     0.036 A 
ATOM     14  C   UNL d   1       4.893   6.551  -0.616  0.00  0.00     0.029 A 
ATOM     15  C   UNL d   1       6.161   7.135  -0.639  0.00  0.00     0.002 A 
ATOM     16  C   UNL d   1       6.332   8.445  -0.207  0.00  0.00     0.000 A 
ATOM     17  C   UNL d   1       5.227   9.178   0.218  0.00  0.00     0.002 A 
ATOM     18  C   UNL d   1       3.955   8.591   0.242  0.00  0.00     0.029 A 
ENDBRANCH   9  13
ENDBRANCH   1   7
BRANCH   4  19
ATOM     19  O   UNL d   1      -1.581   4.799   1.357  0.00  0.00    -0.358 OA
ATOM     20  H   UNL d   1      -2.499   4.557   1.573  0.00  0.00     0.217 HD
ENDBRANCH   4  19
BRANCH   2  21
ATOM     21  S   UNL d   1       1.216  -0.174  -0.215  0.00  0.00     0.175 S 
ATOM     22  O   UNL d   1       1.213  -0.062  -1.661  0.00  0.00    -0.223 OA
ATOM     23  O   UNL d   1       0.547  -1.281   0.444  0.00  0.00    -0.223 OA
BRANCH  21  24
ATOM     24  C   UNL d   1       2.901  -0.157   0.358  0.00  0.00     0.141 C 
ATOM     25  C   UNL d   1       3.647  -1.389  -0.137  0.00  0.00     0.021 C 
ENDBRANCH  21  24
ENDBRANCH   2  21
TORSDOF 5
