REMARK  6 active torsions:
REMARK  status: ('A' for Active; 'I' for Inactive)
REMARK    1  A    between atoms: C_2  and  C_1 
REMARK    2  A    between atoms: O_12  and  C_2 
REMARK    3  A    between atoms: S_3  and  C_4 
REMARK    4  A    between atoms: C_7  and  S_3 
REMARK    5  A    between atoms: C_5  and  C_7 
REMARK    6  A    between atoms: C_6  and  C_5 
ROOT
ATOM      1  S   UNL d   1       1.190  -3.045   0.442  0.00  0.00    -0.121 SA
ENDROOT
BRANCH   1   2
ATOM      2  C   UNL d   1       0.758  -1.311   0.393  0.00  0.00     0.017 A 
ATOM      3  C   UNL d   1       1.334  -0.297   1.178  0.00  0.00     0.054 A 
ATOM      4  C   UNL d   1       0.817   1.010   1.131  0.00  0.00     0.020 A 
ATOM      5  C   UNL d   1      -0.287   1.311   0.334  0.00  0.00     0.001 A 
ATOM      6  C   UNL d   1      -0.868   0.313  -0.439  0.00  0.00     0.001 A 
ATOM      7  C   UNL d   1      -0.349  -0.984  -0.411  0.00  0.00     0.019 A 
BRANCH   3   8
ATOM      8  C   UNL d   1       2.477  -0.501   2.101  0.00  0.00     0.177 C 
ATOM      9  O   UNL d   1       3.373   0.315   2.218  0.00  0.00    -0.646 OA
BRANCH   8  10
ATOM     10  O   UNL d   1       2.406  -1.631   2.833  0.00  0.00    -0.773 OA
ATOM     11  H   UNL d   1       1.645  -2.209   2.616  0.00  0.00     0.167 HD
ENDBRANCH   8  10
ENDBRANCH   3   8
ENDBRANCH   1   2
BRANCH   1  12
ATOM     12  C   UNL d   1       2.932  -3.070  -0.160  0.00  0.00     0.163 C 
BRANCH  12  13
ATOM     13  C   UNL d   1       3.412  -4.518  -0.287  0.00  0.00     0.169 C 
ATOM     14  O   UNL d   1       2.688  -5.491  -0.077  0.00  0.00    -0.291 OA
BRANCH  13  15
ATOM     15  C   UNL d   1       4.828  -4.788  -0.691  0.00  0.00     0.011 A 
ATOM     16  C   UNL d   1       5.744  -3.773  -0.991  0.00  0.00     0.017 A 
ATOM     17  C   UNL d   1       7.052  -4.101  -1.373  0.00  0.00     0.025 A 
ATOM     18  C   UNL d   1       7.448  -5.437  -1.456  0.00  0.00     0.034 A 
ATOM     19  C   UNL d   1       6.548  -6.454  -1.156  0.00  0.00     0.025 A 
ATOM     20 CL   UNL d   1       9.053  -5.829  -1.930  0.00  0.00    -0.084 Cl
ATOM     21  C   UNL d   1       5.243  -6.129  -0.776  0.00  0.00     0.017 A 
ENDBRANCH  13  15
ENDBRANCH  12  13
ENDBRANCH   1  12
TORSDOF 6
