REMARK  5 active torsions:
REMARK  status: ('A' for Active; 'I' for Inactive)
REMARK    1  A    between atoms: C_7  and  C_1 
REMARK    2  A    between atoms: C_2  and  C_8 
REMARK    3  A    between atoms: C_8  and  C_7 
REMARK    4  A    between atoms: O_19  and  C_7 
REMARK    5  A    between atoms: O_20  and  C_8 
ROOT
ATOM      1  C   UNL d   1      -4.199   0.763  -0.049  0.00  0.00     0.221 C 
ENDROOT
BRANCH   1   2
ATOM      2  C   UNL d   1      -4.719   0.274  -1.368  0.00  0.00     0.114 A 
ATOM      3  N   UNL d   1      -4.271  -0.752  -2.057  0.00  0.00    -0.342 N 
ATOM      4  C   UNL d   1      -5.067  -0.817  -3.175  0.00  0.00     0.063 A 
ATOM      5  HN  UNL d   1      -3.496  -1.369  -1.814  1.00  0.00     0.167 HD
ATOM      6  C   UNL d   1      -5.021  -1.710  -4.250  0.00  0.00     0.074 A 
ATOM      7  C   UNL d   1      -6.032   0.183  -3.156  0.00  0.00     0.060 A 
ATOM      8  C   UNL d   1      -5.955  -1.544  -5.272  0.00  0.00     0.118 A 
ATOM      9  F   UNL d   1      -5.927  -2.380  -6.319  0.00  0.00    -0.206 F 
ATOM     10  C   UNL d   1      -6.916  -0.536  -5.238  0.00  0.00     0.044 A 
ATOM     11  C   UNL d   1      -6.982   0.359  -4.165  0.00  0.00     0.035 A 
ATOM     12  N   UNL d   1      -5.798   0.865  -1.988  0.00  0.00    -0.342 N 
ATOM     13  H   UNL d   1      -6.345   1.621  -1.608  0.00  0.00     0.167 HD
ENDBRANCH   1   2
BRANCH   1  14
ATOM     14  C   UNL d   1      -4.926   0.095   1.147  0.00  0.00     0.221 C 
BRANCH  14  15
ATOM     15  C   UNL d   1      -6.393   0.413   1.157  0.00  0.00     0.114 A 
ATOM     16  N   UNL d   1      -6.985   1.455   0.620  0.00  0.00    -0.342 N 
ATOM     17  C   UNL d   1      -8.329   1.281   0.864  0.00  0.00     0.063 A 
ATOM     18  HN  UNL d   1      -6.543   2.229   0.126  1.00  0.00     0.167 HD
ATOM     19  C   UNL d   1      -9.403   2.110   0.538  0.00  0.00     0.074 A 
ATOM     20  C   UNL d   1      -8.558   0.088   1.535  0.00  0.00     0.060 A 
ATOM     21  C   UNL d   1     -10.676   1.691   0.918  0.00  0.00     0.118 A 
ATOM     22  F   UNL d   1     -11.728   2.470   0.630  0.00  0.00    -0.206 F 
ATOM     23  C   UNL d   1     -10.892   0.488   1.589  0.00  0.00     0.044 A 
ATOM     24  C   UNL d   1      -9.826  -0.358   1.910  0.00  0.00     0.035 A 
ATOM     25  N   UNL d   1      -7.312  -0.450   1.723  0.00  0.00    -0.342 N 
ATOM     26  H   UNL d   1      -7.095  -1.317   2.175  0.00  0.00     0.167 HD
ENDBRANCH  14  15
BRANCH  14  27
ATOM     27  O   UNL d   1      -4.792  -1.337   1.168  0.00  0.00    -0.385 OA
ATOM     28  H   UNL d   1      -5.486  -1.716   0.598  0.00  0.00     0.210 HD
ENDBRANCH  14  27
ENDBRANCH   1  14
BRANCH   1  29
ATOM     29  O   UNL d   1      -2.794   0.473  -0.026  0.00  0.00    -0.385 OA
ATOM     30  H   UNL d   1      -2.669  -0.257  -0.667  0.00  0.00     0.210 HD
ENDBRANCH   1  29
TORSDOF 5
