REMARK  6 active torsions:
REMARK  status: ('A' for Active; 'I' for Inactive)
REMARK    1  A    between atoms: C_13  and  N_1 
REMARK    2  A    between atoms: S_7  and  C_2 
REMARK    3  A    between atoms: C_22  and  C_3 
REMARK    4  A    between atoms: C_4  and  S_7 
REMARK    5  A    between atoms: C_15  and  C_20 
REMARK    6  A    between atoms: C_23  and  C_24 
ROOT
ATOM      1  C   UNL d   1       2.920  -1.375   1.940  0.00  0.00     0.099 A 
ATOM      2  C   UNL d   1       4.250  -1.426   2.368  0.00  0.00     0.085 A 
ATOM      3  N   UNL d   1       1.880  -1.477   2.803  0.00  0.00    -0.349 N 
ATOM      4  HN  UNL d   1       0.921  -1.431   2.459  1.00  0.00     0.166 HD
ATOM      5  C   UNL d   1       4.516  -1.634   3.743  0.00  0.00    -0.026 A 
ATOM      6  C   UNL d   1       3.422  -1.734   4.647  0.00  0.00    -0.002 A 
ATOM      7  C   UNL d   1       5.318  -1.276   1.426  0.00  0.00     0.103 C 
ATOM      8  C   UNL d   1       2.121  -1.639   4.111  0.00  0.00     0.043 A 
ATOM      9  N   UNL d   1       6.207  -1.148   0.687  0.00  0.00    -0.191 NA
ATOM     10  C   UNL d   1       5.929  -1.771   4.266  0.00  0.00     0.050 C 
ATOM     11  C   UNL d   1       3.560  -1.929   6.044  0.00  0.00     0.014 A 
ATOM     12  C   UNL d   1       1.028  -1.738   4.959  0.00  0.00     0.030 A 
ATOM     13  C   UNL d   1       2.446  -2.025   6.878  0.00  0.00     0.001 A 
ATOM     14  C   UNL d   1       1.175  -1.929   6.333  0.00  0.00     0.002 A 
ENDROOT
BRANCH   1  15
ATOM     15  S   UNL d   1       2.481  -1.396   0.190  0.00  0.00    -0.033 SA
BRANCH  15  16
ATOM     16  C   UNL d   1       0.911  -0.648   0.243  0.00  0.00     0.174 A 
ATOM     17  N   UNL d   1      -0.329  -1.284   0.175  0.00  0.00    -0.275 N 
ATOM     18  C   UNL d   1      -1.240  -0.211   0.085  0.00  0.00     0.139 A 
ATOM     19  N   UNL d   1      -0.559   0.918  -0.030  0.00  0.00    -0.282 N 
ATOM     20  N   UNL d   1       0.771   0.647   0.080  0.00  0.00    -0.277 N 
ATOM     21  HN  UNL d   1      -0.965   1.842  -0.179  1.00  0.00     0.188 HD
ATOM     22  HN  UNL d   1       1.526   1.332   0.043  1.00  0.00     0.189 HD
BRANCH  17  23
ATOM     23  C   UNL d   1      -0.635  -2.688   0.164  0.00  0.00     0.044 A 
ATOM     24  C   UNL d   1       0.130  -3.603   0.902  0.00  0.00     0.046 A 
ATOM     25  C   UNL d   1      -0.207  -4.968   0.962  0.00  0.00     0.050 A 
ATOM     26  C   UNL d   1      -1.348  -5.414   0.289  0.00  0.00     0.016 A 
ATOM     27  C   UNL d   1      -2.111  -4.522  -0.460  0.00  0.00     0.003 A 
ATOM     28  C   UNL d   1      -1.737  -3.178  -0.548  0.00  0.00     0.030 A 
BRANCH  25  29
ATOM     29  C   UNL d   1       0.642  -5.934   1.754  0.00  0.00     0.417 C 
ATOM     30  F   UNL d   1       1.717  -5.351   2.354  0.00  0.00    -0.166 F 
ATOM     31  F   UNL d   1      -0.057  -6.543   2.751  0.00  0.00    -0.166 F 
ATOM     32  F   UNL d   1       1.146  -6.935   0.981  0.00  0.00    -0.166 F 
ENDBRANCH  25  29
ENDBRANCH  17  23
BRANCH  18  33
ATOM     33  C   UNL d   1      -2.715  -0.248   0.106  0.00  0.00     0.010 C 
ATOM     34  C   UNL d   1      -3.449  -1.132   0.903  0.00  0.00     0.016 C 
ATOM     35  C   UNL d   1      -4.840  -1.251   0.755  0.00  0.00     0.009 C 
ATOM     36  C   UNL d   1      -5.558  -0.440  -0.141  0.00  0.00    -0.051 C 
ATOM     37  C   UNL d   1      -4.827   0.541  -0.830  0.00  0.00     0.009 C 
ATOM     38  C   UNL d   1      -3.432   0.630  -0.714  0.00  0.00     0.016 C 
BRANCH  36  39
ATOM     39  C   UNL d   1      -7.068  -0.658  -0.361  0.00  0.00    -0.024 C 
ATOM     40  C   UNL d   1      -7.688   0.333  -1.372  0.00  0.00     0.019 C 
ATOM     41  C   UNL d   1      -7.311  -2.082  -0.913  0.00  0.00     0.019 C 
ATOM     42  C   UNL d   1      -7.843  -0.508   0.964  0.00  0.00     0.019 C 
ENDBRANCH  36  39
ENDBRANCH  18  33
ENDBRANCH  15  16
ENDBRANCH   1  15
TORSDOF 6
