REMARK  7 active torsions:
REMARK  status: ('A' for Active; 'I' for Inactive)
REMARK    1  A    between atoms: O_10  and  C_2 
REMARK    2  A    between atoms: C_12  and  C_5 
REMARK    3  A    between atoms: C_13  and  C_6 
REMARK    4  A    between atoms: C_15  and  O_10 
REMARK    5  A    between atoms: C_11  and  C_15 
REMARK    6  A    between atoms: O_16  and  C_11 
REMARK    7  A    between atoms: C_21  and  O_16 
ROOT
ATOM      1  C   UNL d   1       0.568   0.039   0.172  0.00  0.00     0.106 A 
ATOM      2  C   UNL d   1      -0.225  -1.109   0.177  0.00  0.00     0.165 A 
ATOM      3  N   UNL d   1      -1.573  -1.111   0.070  0.00  0.00    -0.335 N 
ATOM      4  HN  UNL d   1      -2.101  -1.984   0.081  1.00  0.00     0.168 HD
ATOM      5  C   UNL d   1      -0.065   1.289   0.040  0.00  0.00     0.001 A 
ATOM      6  C   UNL d   1      -2.196   0.079  -0.051  0.00  0.00     0.045 A 
ATOM      7  C   UNL d   1      -1.473   1.272  -0.067  0.00  0.00     0.044 A 
ATOM      8  C   UNL d   1       1.986  -0.114   0.337  0.00  0.00     0.104 C 
ATOM      9  N   UNL d   1       3.134  -0.236   0.437  0.00  0.00    -0.191 NA
ENDROOT
BRANCH   2  10
ATOM     10  O   UNL d   1       0.407  -2.335   0.220  0.00  0.00    -0.325 OA
BRANCH  10  11
ATOM     11  C   UNL d   1      -0.406  -3.369   0.766  0.00  0.00     0.288 C 
BRANCH  11  12
ATOM     12  C   UNL d   1      -0.629  -3.234   2.266  0.00  0.00     0.283 C 
ATOM     13  O   UNL d   1      -0.195  -2.333   2.972  0.00  0.00    -0.263 OA
BRANCH  12  14
ATOM     14  O   UNL d   1      -1.289  -4.340   2.724  0.00  0.00    -0.320 OA
BRANCH  14  15
ATOM     15  C   UNL d   1      -1.169  -4.573   4.134  0.00  0.00     0.174 C 
ATOM     16  C   UNL d   1       0.109  -5.359   4.373  0.00  0.00     0.034 C 
ENDBRANCH  14  15
ENDBRANCH  12  14
ENDBRANCH  11  12
ENDBRANCH  10  11
ENDBRANCH   2  10
BRANCH   5  17
ATOM     17  C   UNL d   1       0.640   2.603  -0.003  0.00  0.00    -0.024 A 
ATOM     18  C   UNL d   1       1.859   2.786  -0.680  0.00  0.00     0.012 A 
ATOM     19  C   UNL d   1       2.510   4.026  -0.701  0.00  0.00     0.001 A 
ATOM     20  C   UNL d   1       1.933   5.130  -0.087  0.00  0.00     0.000 A 
ATOM     21  C   UNL d   1       0.710   4.994   0.558  0.00  0.00     0.001 A 
ATOM     22  C   UNL d   1       0.082   3.745   0.612  0.00  0.00     0.012 A 
ENDBRANCH   5  17
BRANCH   6  23
ATOM     23  C   UNL d   1      -3.667   0.033  -0.180  0.00  0.00    -0.009 A 
ATOM     24  C   UNL d   1      -4.373   0.996  -0.924  0.00  0.00     0.013 A 
ATOM     25  C   UNL d   1      -5.766   0.956  -1.036  0.00  0.00     0.001 A 
ATOM     26  C   UNL d   1      -6.485  -0.057  -0.412  0.00  0.00     0.000 A 
ATOM     27  C   UNL d   1      -5.813  -1.032   0.320  0.00  0.00     0.001 A 
ATOM     28  C   UNL d   1      -4.419  -0.986   0.433  0.00  0.00     0.013 A 
ENDBRANCH   6  23
TORSDOF 7
