REMARK  2 active torsions:
REMARK  status: ('A' for Active; 'I' for Inactive)
REMARK    1  A    between atoms: C_4  and  C_1 
REMARK       I    between atoms: N_7  and  C_4 
REMARK    2  A    between atoms: C_10  and  N_7 
ROOT
ATOM      1  C   UNL d   1       3.896   0.001   0.215  0.00  0.00     0.264 C 
ATOM      2  N   UNL d   1       4.528  -1.167  -0.195  0.00  0.00    -0.322 N 
ATOM      3  O   UNL d   1       4.513   1.008   0.547  0.00  0.00    -0.267 OA
ATOM      4  H   UNL d   1       3.918  -1.902  -0.534  0.00  0.00     0.169 HD
ENDROOT
BRANCH   1   5
ATOM      5  C   UNL d   1       2.433  -0.036   0.213  0.00  0.00     0.096 A 
ATOM      6  S   UNL d   1       1.575  -1.499  -0.030  0.00  0.00    -0.082 SA
ATOM      7  C   UNL d   1       0.043  -0.756   0.210  0.00  0.00     0.017 A 
ATOM      8  C   UNL d   1      -1.217  -1.386   0.192  0.00  0.00     0.020 A 
ATOM      9  C   UNL d   1       0.173   0.614   0.442  0.00  0.00     0.004 A 
ATOM     10  C   UNL d   1      -2.363  -0.622   0.425  0.00  0.00     0.001 A 
ATOM     11  C   UNL d   1      -2.264   0.741   0.661  0.00  0.00     0.001 A 
ATOM     12  C   UNL d   1      -1.014   1.363   0.665  0.00  0.00     0.014 A 
ATOM     13  C   UNL d   1       1.557   1.016   0.415  0.00  0.00     0.068 A 
ATOM     14 CL   UNL d   1       1.999   2.666   0.641  0.00  0.00    -0.082 Cl
ENDBRANCH   1   5
BRANCH   2  15
ATOM     15  C   UNL d   1       5.918  -1.414  -0.249  0.00  0.00     0.038 A 
ATOM     16  C   UNL d   1       6.884  -0.553   0.283  0.00  0.00     0.075 A 
ATOM     17  C   UNL d   1       8.238  -0.865   0.171  0.00  0.00     0.157 A 
ATOM     18  F   UNL d   1       9.149  -0.028   0.686  0.00  0.00    -0.203 F 
ATOM     19  C   UNL d   1       8.644  -2.029  -0.465  0.00  0.00     0.154 A 
ATOM     20  C   UNL d   1       7.700  -2.905  -0.985  0.00  0.00     0.048 A 
ATOM     21  F   UNL d   1       9.947  -2.318  -0.581  0.00  0.00    -0.203 F 
ATOM     22  C   UNL d   1       6.338  -2.601  -0.870  0.00  0.00     0.032 A 
ENDBRANCH   2  15
TORSDOF 2
