REMARK  4 active torsions:
REMARK  status: ('A' for Active; 'I' for Inactive)
REMARK    1  A    between atoms: C_2  and  S_1 
REMARK    2  A    between atoms: N_3  and  S_1 
REMARK    3  A    between atoms: C_5  and  N_3 
REMARK    4  A    between atoms: C_15  and  C_13 
ROOT
ATOM      1  S   UNL d   1       0.138   0.083   2.305  0.00  0.00     0.265 S 
ATOM      2  O   UNL d   1      -0.261   1.204   1.481  0.00  0.00    -0.200 OA
ATOM      3  O   UNL d   1      -0.812  -0.522   3.211  0.00  0.00    -0.200 OA
ENDROOT
BRANCH   1   4
ATOM      4  C   UNL d   1       1.566   0.613   3.226  0.00  0.00     0.103 A 
ATOM      5  C   UNL d   1       2.057   1.915   2.992  0.00  0.00     0.052 A 
ATOM      6  C   UNL d   1       3.125   2.422   3.741  0.00  0.00     0.057 A 
ATOM      7 CL   UNL d   1       3.620   4.052   3.449  0.00  0.00    -0.083 Cl
ATOM      8  C   UNL d   1       3.733   1.623   4.710  0.00  0.00     0.057 A 
ATOM      9  C   UNL d   1       3.245   0.336   4.948  0.00  0.00     0.051 A 
ATOM     10 CL   UNL d   1       5.066   2.166   5.666  0.00  0.00    -0.082 Cl
ATOM     11  C   UNL d   1       2.143  -0.161   4.235  0.00  0.00     0.059 A 
ATOM     12 CL   UNL d   1       1.579  -1.716   4.723  0.00  0.00    -0.083 Cl
ENDBRANCH   1   4
BRANCH   1  13
ATOM     13  N   UNL d   1       0.687  -1.053   1.211  0.00  0.00    -0.279 N 
ATOM     14  H   UNL d   1       0.544  -0.809   0.230  0.00  0.00     0.179 HD
BRANCH  13  15
ATOM     15  C   UNL d   1       0.938  -2.417   1.540  0.00  0.00     0.065 A 
ATOM     16  C   UNL d   1      -0.130  -3.312   1.723  0.00  0.00     0.047 A 
ATOM     17  C   UNL d   1       0.129  -4.683   1.872  0.00  0.00     0.011 A 
ATOM     18  C   UNL d   1       1.451  -5.150   1.829  0.00  0.00     0.017 A 
ATOM     19  C   UNL d   1       2.512  -4.262   1.662  0.00  0.00     0.027 A 
ATOM     20  C   UNL d   1       2.256  -2.900   1.508  0.00  0.00     0.061 A 
ATOM     21 CL   UNL d   1       3.601  -1.837   1.278  0.00  0.00    -0.082 Cl
BRANCH  17  22
ATOM     22  C   UNL d   1      -0.940  -5.716   2.019  0.00  0.00     0.155 C 
ATOM     23  O   UNL d   1      -0.731  -6.848   1.587  0.00  0.00    -0.293 OA
ATOM     24  C   UNL d   1      -2.224  -5.391   2.732  0.00  0.00     0.096 C 
ENDBRANCH  17  22
ENDBRANCH  13  15
ENDBRANCH   1  13
TORSDOF 4
