REMARK  3 active torsions:
REMARK  status: ('A' for Active; 'I' for Inactive)
REMARK    1  A    between atoms: C_2  and  S_1 
REMARK    2  A    between atoms: N_8  and  S_1 
REMARK    3  A    between atoms: C_13  and  N_8 
ROOT
ATOM      1  N   UNL d   1       1.903  -7.485   2.965  0.00  0.00    -0.191 NA
ATOM      2  C   UNL d   1       1.656  -6.411   2.606  0.00  0.00     0.099 C 
ATOM      3  C   UNL d   1       0.663  -2.459   1.450  0.00  0.00     0.022 A 
ATOM      4  C   UNL d   1       1.340  -5.077   2.177  0.00  0.00     0.044 A 
ATOM      5  C   UNL d   1       1.862  -2.708   2.120  0.00  0.00     0.026 A 
ATOM      6  C   UNL d   1      -0.181  -3.515   1.109  0.00  0.00     0.026 A 
ATOM      7  C   UNL d   1       2.201  -4.017   2.483  0.00  0.00     0.024 A 
ATOM      8  C   UNL d   1       0.155  -4.823   1.477  0.00  0.00     0.024 A 
ENDROOT
BRANCH   3   9
ATOM      9  N   UNL d   1       0.244  -1.126   1.165  0.00  0.00    -0.181 NA
ATOM     10  H   UNL d   1       0.261  -0.513   1.981  0.00  0.00     0.146 HD
BRANCH   9  11
ATOM     11  S   UNL d   1       0.995  -0.316  -0.118  0.00  0.00     0.250 S 
ATOM     12  O   UNL d   1       0.520   1.050  -0.066  0.00  0.00    -0.205 OA
ATOM     13  O   UNL d   1       2.410  -0.610  -0.112  0.00  0.00    -0.205 OA
BRANCH  11  14
ATOM     14  C   UNL d   1       0.391  -0.934  -1.586  0.00  0.00     0.130 A 
ATOM     15  C   UNL d   1      -0.768  -0.576  -2.235  0.00  0.00     0.097 A 
ATOM     16  O   UNL d   1      -0.883  -1.327  -3.365  0.00  0.00    -0.241 OA
ATOM     17  C   UNL d   1      -1.857   0.392  -2.005  0.00  0.00     0.081 C 
ATOM     18  N   UNL d   1       0.190  -2.192  -3.460  0.00  0.00    -0.264 N 
ATOM     19  C   UNL d   1       0.957  -1.950  -2.388  0.00  0.00     0.054 A 
ATOM     20  HN  UNL d   1       0.362  -2.877  -4.196  1.00  0.00     0.194 HD
ATOM     21  C   UNL d   1       2.205  -2.724  -2.193  0.00  0.00     0.072 C 
ENDBRANCH  11  14
ENDBRANCH   9  11
ENDBRANCH   3   9
TORSDOF 3
