REMARK  4 active torsions:
REMARK  status: ('A' for Active; 'I' for Inactive)
REMARK       I    between atoms: N_2  and  C_1 
REMARK       I    between atoms: N_3  and  C_1 
REMARK    1  A    between atoms: C_5  and  N_2 
REMARK    2  A    between atoms: C_7  and  N_3 
REMARK    3  A    between atoms: S_8  and  C_6 
REMARK    4  A    between atoms: C_13  and  C_7 
ROOT
ATOM      1  C   UNL d   1       1.112  -0.055  -0.202  0.00  0.00     0.320 C 
ATOM      2  N   UNL d   1       0.542   0.969   0.528  0.00  0.00    -0.309 N 
ATOM      3  N   UNL d   1       0.204  -1.055  -0.468  0.00  0.00    -0.339 N 
ATOM      4  O   UNL d   1       2.281  -0.128  -0.556  0.00  0.00    -0.247 OA
ATOM      5  H   UNL d   1      -0.370   0.784   0.911  0.00  0.00     0.170 HD
ATOM      6  H   UNL d   1      -0.781  -0.849  -0.419  0.00  0.00     0.164 HD
ENDROOT
BRANCH   2   7
ATOM      7  C   UNL d   1       1.190   2.143   0.976  0.00  0.00     0.036 A 
ATOM      8  C   UNL d   1       2.454   2.538   0.537  0.00  0.00     0.031 A 
ATOM      9  C   UNL d   1       3.059   3.695   1.041  0.00  0.00     0.021 A 
ATOM     10  C   UNL d   1       2.416   4.477   2.000  0.00  0.00    -0.000 A 
ATOM     11  C   UNL d   1       1.133   4.103   2.411  0.00  0.00     0.021 A 
ATOM     12  C   UNL d   1       0.522   2.947   1.904  0.00  0.00     0.031 A 
BRANCH  10  13
ATOM     13  S   UNL d   1       3.132   5.958   2.696  0.00  0.00    -0.134 SA
ATOM     14  C   UNL d   1       4.903   5.555   2.696  0.00  0.00     0.095 C 
ENDBRANCH  10  13
ENDBRANCH   2   7
BRANCH   3  15
ATOM     15  C   UNL d   1       0.601  -2.254  -1.175  0.00  0.00     0.162 C 
BRANCH  15  16
ATOM     16  C   UNL d   1      -0.076  -2.374  -2.517  0.00  0.00    -0.040 A 
ATOM     17  C   UNL d   1       0.147  -1.416  -3.518  0.00  0.00     0.009 A 
ATOM     18  C   UNL d   1      -0.444  -1.554  -4.775  0.00  0.00     0.001 A 
ATOM     19  C   UNL d   1      -1.258  -2.652  -5.048  0.00  0.00     0.000 A 
ATOM     20  C   UNL d   1      -1.483  -3.612  -4.063  0.00  0.00     0.001 A 
ATOM     21  C   UNL d   1      -0.895  -3.474  -2.805  0.00  0.00     0.009 A 
ENDBRANCH  15  16
ENDBRANCH   3  15
TORSDOF 4
