REMARK  2 active torsions:
REMARK  status: ('A' for Active; 'I' for Inactive)
REMARK    1  A    between atoms: S_15  and  C_5 
REMARK    2  A    between atoms: O_16  and  C_8 
ROOT
ATOM      1  N   UNL d   1       1.165  -1.336  -0.001  0.00  0.00    -0.322 N 
ATOM      2  HN  UNL d   1       1.134  -2.355  -0.004  1.00  0.00     0.169 HD
ATOM      3  C   UNL d   1       0.045  -0.626   0.001  0.00  0.00     0.124 A 
ATOM      4  C   UNL d   1       0.060   0.758   0.004  0.00  0.00     0.074 A 
ATOM      5  C   UNL d   1       2.335  -0.688   0.001  0.00  0.00     0.145 A 
ATOM      6  N   UNL d   1      -1.090  -1.310   0.000  0.00  0.00    -0.338 N 
ATOM      7  HN  UNL d   1      -1.090  -2.330  -0.003  1.00  0.00     0.168 HD
ATOM      8  C   UNL d   1      -1.188   1.379   0.006  0.00  0.00     0.156 A 
ATOM      9  N   UNL d   1       2.464   0.645   0.005  0.00  0.00    -0.346 N 
ATOM     10  HN  UNL d   1       3.377   1.099   0.006  1.00  0.00     0.167 HD
ATOM     11  N   UNL d   1      -2.343   0.709   0.006  0.00  0.00    -0.332 N 
ATOM     12  HN  UNL d   1      -3.247   1.181   0.009  1.00  0.00     0.168 HD
ATOM     13  C   UNL d   1       1.321   1.346   0.007  0.00  0.00     0.110 A 
ATOM     14  C   UNL d   1      -2.234  -0.619   0.003  0.00  0.00     0.184 A 
ENDROOT
BRANCH   5  15
ATOM     15  S   UNL d   1       3.838  -1.633  -0.002  0.00  0.00    -0.098 SA
ATOM     16  C   UNL d   1       3.158  -3.312  -0.007  0.00  0.00     0.099 C 
ENDBRANCH   5  15
BRANCH   8  17
ATOM     17  O   UNL d   1      -1.361   2.732   0.009  0.00  0.00    -0.345 OA
ATOM     18  H   UNL d   1      -0.513   3.192  -0.026  0.00  0.00     0.219 HD
ENDBRANCH   8  17
TORSDOF 2
