REMARK  3 active torsions:
REMARK  status: ('A' for Active; 'I' for Inactive)
REMARK    1  A    between atoms: C_2  and  S_1 
REMARK    2  A    between atoms: N_12  and  S_1 
REMARK    3  A    between atoms: C_22  and  N_12 
ROOT
ATOM      1  S   UNL d   1      -0.018   0.560   0.018  0.00  0.00     0.265 S 
ATOM      2  O   UNL d   1      -0.470  -0.787   0.295  0.00  0.00    -0.200 OA
ATOM      3  O   UNL d   1       1.051   1.151   0.794  0.00  0.00    -0.200 OA
ENDROOT
BRANCH   1   4
ATOM      4  C   UNL d   1      -1.411   1.618   0.156  0.00  0.00     0.110 A 
ATOM      5  C   UNL d   1      -2.633   1.393  -0.497  0.00  0.00     0.108 A 
ATOM      6  C   UNL d   1      -3.760   2.313  -0.339  0.00  0.00     0.086 A 
ATOM      7  N   UNL d   1      -3.015   0.426  -1.342  0.00  0.00    -0.238 N 
ATOM      8  N   UNL d   1      -4.780   1.864  -1.079  0.00  0.00    -0.239 N 
ATOM      9  C   UNL d   1      -3.698   3.465   0.469  0.00  0.00     0.034 A 
ATOM     10  O   UNL d   1      -4.330   0.700  -1.674  0.00  0.00    -0.156 OA
ATOM     11  HN  UNL d   1      -5.699   2.293  -1.183  1.00  0.00     0.197 HD
ATOM     12  C   UNL d   1      -2.467   3.658   1.121  0.00  0.00     0.004 A 
ATOM     13  C   UNL d   1      -1.368   2.773   0.977  0.00  0.00     0.028 A 
ATOM     14  HN  UNL d   1      -2.450  -0.356  -1.673  1.00  0.00     0.197 HD
ENDBRANCH   1   4
BRANCH   1  15
ATOM     15  N   UNL d   1       0.432   0.607  -1.593  0.00  0.00    -0.280 N 
ATOM     16  H   UNL d   1       0.224  -0.225  -2.145  0.00  0.00     0.179 HD
BRANCH  15  17
ATOM     17  C   UNL d   1       0.768   1.823  -2.234  0.00  0.00     0.045 A 
ATOM     18  C   UNL d   1       2.071   2.304  -2.205  0.00  0.00     0.068 A 
ATOM     19  C   UNL d   1       2.362   3.510  -2.854  0.00  0.00     0.092 A 
ATOM     20  O   UNL d   1       3.700   3.952  -2.771  0.00  0.00    -0.275 OA
ATOM     21  C   UNL d   1       1.392   4.253  -3.539  0.00  0.00     0.004 A 
ATOM     22  C   UNL d   1       4.087   5.168  -3.304  0.00  0.00     0.288 A 
ATOM     23  O   UNL d   1       5.226   5.606  -3.196  0.00  0.00    -0.260 OA
ATOM     24  C   UNL d   1       3.059   5.926  -4.032  0.00  0.00     0.090 A 
ATOM     25  C   UNL d   1       1.788   5.520  -4.173  0.00  0.00    -0.043 A 
ATOM     26  C   UNL d   1       0.833   6.372  -4.959  0.00  0.00     0.049 C 
ATOM     27  C   UNL d   1       0.094   3.732  -3.568  0.00  0.00     0.017 A 
ATOM     28  C   UNL d   1      -0.214   2.524  -2.929  0.00  0.00     0.031 A 
ENDBRANCH  15  17
ENDBRANCH   1  15
TORSDOF 3
