REMARK  4 active torsions:
REMARK  status: ('A' for Active; 'I' for Inactive)
REMARK    1  A    between atoms: O_7  and  C_1 
REMARK    2  A    between atoms: C_11  and  N_5 
REMARK    3  A    between atoms: C_10  and  O_7 
REMARK    4  A    between atoms: C_12  and  C_11 
ROOT
ATOM      1  N   UNL d   1       2.168   0.666   3.490  0.00  0.00    -0.197 NA
ATOM      2  C   UNL d   1       2.048   1.285   2.517  0.00  0.00     0.060 C 
ATOM      3  C   UNL d   1       1.925   2.079   1.285  0.00  0.00     0.145 C 
ENDROOT
BRANCH   3   4
ATOM      4  C   UNL d   1       2.033   1.208   0.036  0.00  0.00     0.163 C 
BRANCH   4   5
ATOM      5  N   UNL d   1       0.929   0.274  -0.092  0.00  0.00    -0.293 N 
ATOM      6  C   UNL d   1       0.984  -1.091  -0.207  0.00  0.00     0.060 C 
ATOM      7  C   UNL d   1      -0.318  -1.503  -0.025  0.00  0.00     0.123 C 
ATOM      8  C   UNL d   1       2.234  -1.856  -0.432  0.00  0.00     0.073 C 
ATOM      9  C   UNL d   1      -1.104  -0.326  -0.017  0.00  0.00     0.058 C 
ATOM     10  N   UNL d   1      -0.326   0.765  -0.059  0.00  0.00    -0.300 N 
ATOM     11  C   UNL d   1      -2.580  -0.184   0.002  0.00  0.00     0.072 C 
ATOM     12  HN  UNL d   1      -0.617   1.742  -0.066  1.00  0.00     0.187 HD
BRANCH   7  13
ATOM     13  O   UNL d   1      -0.681  -2.801   0.040  0.00  0.00    -0.307 OA
BRANCH  13  14
ATOM     14  C   UNL d   1      -1.583  -3.238   0.983  0.00  0.00     0.076 A 
ATOM     15  C   UNL d   1      -2.362  -4.343   0.633  0.00  0.00     0.039 A 
ATOM     16  C   UNL d   1      -3.282  -4.867   1.544  0.00  0.00     0.026 A 
ATOM     17  C   UNL d   1      -3.417  -4.287   2.805  0.00  0.00     0.034 A 
ATOM     18  C   UNL d   1      -2.634  -3.192   3.166  0.00  0.00     0.026 A 
ATOM     19 CL   UNL d   1      -4.547  -4.937   3.927  0.00  0.00    -0.084 Cl
ATOM     20  C   UNL d   1      -1.703  -2.677   2.260  0.00  0.00     0.039 A 
ENDBRANCH  13  14
ENDBRANCH   7  13
ENDBRANCH   4   5
ENDBRANCH   3   4
TORSDOF 4
