REMARK  3 active torsions:
REMARK  status: ('A' for Active; 'I' for Inactive)
REMARK    1  A    between atoms: N_7  and  C_1 
REMARK    2  A    between atoms: C_12  and  C_6 
REMARK       I    between atoms: C_8  and  N_7 
REMARK       I    between atoms: N_9  and  C_8 
REMARK    3  A    between atoms: C_10  and  N_9 
ROOT
ATOM      1  N   UNL d   1      -0.455  -2.247  -0.220  0.00  0.00    -0.293 N 
ATOM      2  C   UNL d   1      -0.333  -3.243  -1.225  0.00  0.00     0.326 C 
ATOM      3  N   UNL d   1       0.618  -3.079  -2.189  0.00  0.00    -0.306 N 
ATOM      4  O   UNL d   1      -1.114  -4.166  -1.064  0.00  0.00    -0.247 OA
ATOM      5  H   UNL d   1      -1.274  -2.437   0.345  0.00  0.00     0.172 HD
ATOM      6  H   UNL d   1       1.321  -2.382  -2.060  0.00  0.00     0.171 HD
ENDROOT
BRANCH   1   7
ATOM      7  C   UNL d   1       0.280  -1.120   0.087  0.00  0.00     0.127 C 
ATOM      8  C   UNL d   1       1.552  -0.741  -0.282  0.00  0.00     0.077 C 
ATOM      9  C   UNL d   1       1.719   0.575   0.230  0.00  0.00     0.037 C 
ATOM     10  N   UNL d   1       0.673   0.927   0.985  0.00  0.00    -0.301 N 
ATOM     11  N   UNL d   1      -0.159  -0.116   0.920  0.00  0.00    -0.281 N 
ATOM     12  HN  UNL d   1       0.540   1.799   1.497  1.00  0.00     0.187 HD
ATOM     13  C   UNL d   1      -1.412  -0.048   1.634  0.00  0.00     0.179 C 
BRANCH   9  14
ATOM     14  C   UNL d   1       2.826   1.584  -0.019  0.00  0.00    -0.007 C 
ATOM     15  C   UNL d   1       3.994   0.983  -0.825  0.00  0.00     0.021 C 
ATOM     16  C   UNL d   1       2.244   2.762  -0.832  0.00  0.00     0.021 C 
ATOM     17  C   UNL d   1       3.387   2.116   1.314  0.00  0.00     0.021 C 
ENDBRANCH   9  14
ENDBRANCH   1   7
BRANCH   3  18
ATOM     18  C   UNL d   1       0.888  -4.078  -3.157  0.00  0.00     0.075 A 
ATOM     19  C   UNL d   1      -0.109  -4.901  -3.709  0.00  0.00     0.146 A 
ATOM     20  C   UNL d   1       0.213  -5.994  -4.501  0.00  0.00     0.086 A 
ATOM     21  F   UNL d   1      -1.406  -4.609  -3.531  0.00  0.00    -0.204 F 
ATOM     22  C   UNL d   1       1.548  -6.253  -4.769  0.00  0.00     0.119 A 
ATOM     23  C   UNL d   1       2.549  -5.397  -4.319  0.00  0.00     0.044 A 
ATOM     24  F   UNL d   1       1.879  -7.341  -5.474  0.00  0.00    -0.206 F 
ATOM     25  C   UNL d   1       2.219  -4.288  -3.534  0.00  0.00     0.036 A 
ENDBRANCH   3  18
TORSDOF 3
