REMARK  5 active torsions:
REMARK  status: ('A' for Active; 'I' for Inactive)
REMARK    1  A    between atoms: C_2  and  C_1 
REMARK       I    between atoms: N_6  and  C_2 
REMARK    2  A    between atoms: C_3  and  C_14 
REMARK    3  A    between atoms: C_16  and  C_4 
REMARK       I    between atoms: C_5  and  N_7 
REMARK    4  A    between atoms: C_13  and  C_5 
REMARK    5  A    between atoms: N_7  and  N_6 
ROOT
ATOM      1  C   UNL d   1       4.210   0.927   0.355  0.00  0.00     0.050 A 
ATOM      2  N   UNL d   1       3.805  -1.295  -0.530  0.00  0.00    -0.373 N 
ATOM      3  HN  UNL d   1       4.160  -2.183  -0.884  1.00  0.00     0.164 HD
ATOM      4  C   UNL d   1       2.823   1.141   0.442  0.00  0.00     0.040 A 
ATOM      5  C   UNL d   1       1.940   0.138   0.041  0.00  0.00     0.034 A 
ATOM      6  C   UNL d   1       4.639  -0.301  -0.135  0.00  0.00     0.104 A 
ATOM      7  C   UNL d   1       2.477  -1.050  -0.433  0.00  0.00     0.108 A 
ENDROOT
BRANCH   1   8
ATOM      8  C   UNL d   1       5.139   2.002   0.799  0.00  0.00     0.271 C 
ATOM      9  N   UNL d   1       6.504   1.789   0.710  0.00  0.00    -0.263 N 
ATOM     10  H   UNL d   1       6.973   0.969   0.334  0.00  0.00     0.190 HD
ATOM     11  O   UNL d   1       4.685   3.055   1.249  0.00  0.00    -0.266 OA
BRANCH   9  12
ATOM     12  N   UNL d   1       7.348   2.808   1.175  0.00  0.00    -0.263 N 
ATOM     13  C   UNL d   1       8.635   2.894   0.677  0.00  0.00     0.270 C 
ATOM     14  O   UNL d   1       9.102   2.097  -0.130  0.00  0.00    -0.266 OA
ATOM     15  H   UNL d   1       6.878   3.614   1.588  0.00  0.00     0.190 HD
BRANCH  13  16
ATOM     16  C   UNL d   1       9.441   4.037   1.189  0.00  0.00     0.033 A 
ATOM     17  C   UNL d   1       9.293   4.483   2.511  0.00  0.00     0.017 A 
ATOM     18  C   UNL d   1      10.077   5.536   2.986  0.00  0.00     0.001 A 
ATOM     19  C   UNL d   1      11.009   6.146   2.148  0.00  0.00     0.000 A 
ATOM     20  C   UNL d   1      11.167   5.699   0.836  0.00  0.00     0.001 A 
ATOM     21  C   UNL d   1      10.391   4.640   0.357  0.00  0.00     0.017 A 
ENDBRANCH  13  16
ENDBRANCH   9  12
ENDBRANCH   1   8
BRANCH   5  22
ATOM     22  C   UNL d   1       0.516   0.291   0.108  0.00  0.00    -0.060 C 
ATOM     23  C   UNL d   1      -0.684   0.291   0.119  0.00  0.00    -0.061 C 
BRANCH  23  24
ATOM     24  C   UNL d   1      -2.111   0.171   0.090  0.00  0.00     0.018 A 
ATOM     25  C   UNL d   1      -2.707  -1.026   0.496  0.00  0.00     0.020 A 
ATOM     26  C   UNL d   1      -4.094  -1.178   0.429  0.00  0.00     0.001 A 
ATOM     27  C   UNL d   1      -4.886  -0.133  -0.044  0.00  0.00     0.000 A 
ATOM     28  C   UNL d   1      -4.293   1.064  -0.447  0.00  0.00     0.001 A 
ATOM     29  C   UNL d   1      -2.906   1.218  -0.381  0.00  0.00     0.020 A 
ENDBRANCH  23  24
ENDBRANCH   5  22
TORSDOF 5
