REMARK  1 active torsions:
REMARK  status: ('A' for Active; 'I' for Inactive)
REMARK    1  A    between atoms: C_10  and  N_2 
ROOT
ATOM      1  C   UNL d   1       0.594   1.634   0.470  0.00  0.00     0.256 C 
ATOM      2  N   UNL d   1       1.498   1.424  -0.556  0.00  0.00    -0.334 N 
ATOM      3  C   UNL d   1      -0.435   0.587   0.488  0.00  0.00     0.059 A 
ATOM      4  N   UNL d   1       1.139  -1.389   0.588  0.00  0.00    -0.320 N 
ATOM      5  C   UNL d   1       2.387  -0.841   0.310  0.00  0.00     0.242 C 
ATOM      6  C   UNL d   1      -0.161  -0.787   0.440  0.00  0.00     0.052 A 
ATOM      7  C   UNL d   1       2.606   0.603  -0.135  0.00  0.00     0.229 C 
ATOM      8  O   UNL d   1       0.476   2.669   1.109  0.00  0.00    -0.267 OA
ATOM      9  O   UNL d   1       3.417  -1.524   0.446  0.00  0.00    -0.271 OA
ATOM     10  C   UNL d   1      -1.757   1.079   0.422  0.00  0.00     0.019 A 
ATOM     11  C   UNL d   1       1.179  -2.773   1.076  0.00  0.00     0.159 C 
ATOM     12  C   UNL d   1      -1.281  -1.634   0.270  0.00  0.00     0.031 A 
ATOM     13  C   UNL d   1      -2.831   0.214   0.260  0.00  0.00     0.001 A 
ATOM     14  C   UNL d   1      -2.590  -1.146   0.169  0.00  0.00     0.002 A 
ENDROOT
BRANCH   2  15
ATOM     15  C   UNL d   1       1.734   2.577  -1.448  0.00  0.00     0.088 C 
ATOM     16  C   UNL d   1       1.563   2.165  -2.917  0.00  0.00     0.025 C 
ATOM     17  C   UNL d   1       2.824   1.592  -3.546  0.00  0.00     0.002 C 
ATOM     18  C   UNL d   1       4.003   2.542  -3.381  0.00  0.00     0.000 C 
ATOM     19  C   UNL d   1       4.260   2.910  -1.923  0.00  0.00     0.002 C 
ATOM     20  C   UNL d   1       3.007   3.403  -1.197  0.00  0.00     0.025 C 
ENDBRANCH   2  15
TORSDOF 1
