REMARK  3 active torsions:
REMARK  status: ('A' for Active; 'I' for Inactive)
REMARK    1  A    between atoms: C_10  and  C_1 
REMARK    2  A    between atoms: C_4  and  N_5 
REMARK       I    between atoms: N_5  and  C_11 
REMARK    3  A    between atoms: C_11  and  C_13 
ROOT
ATOM      1  C   UNL d   1       3.492   0.389   0.323  0.00  0.00     0.025 C 
ATOM      2  C   UNL d   1       4.293  -0.533  -0.236  0.00  0.00     0.076 C 
ENDROOT
BRANCH   1   3
ATOM      3  C   UNL d   1       2.064   0.302   0.213  0.00  0.00     0.012 A 
ATOM      4  S   UNL d   1       1.280  -1.234   0.215  0.00  0.00    -0.089 SA
ATOM      5  C   UNL d   1      -0.284  -0.565   0.093  0.00  0.00     0.016 A 
ATOM      6  C   UNL d   1      -1.499  -1.276   0.027  0.00  0.00     0.019 A 
ATOM      7  C   UNL d   1      -0.239   0.827   0.077  0.00  0.00    -0.012 A 
ATOM      8  C   UNL d   1      -2.696  -0.566  -0.049  0.00  0.00     0.001 A 
ATOM      9  C   UNL d   1      -2.688   0.821  -0.065  0.00  0.00     0.001 A 
ATOM     10  C   UNL d   1      -1.476   1.519  -0.006  0.00  0.00     0.013 A 
ATOM     11  C   UNL d   1       1.124   1.327   0.155  0.00  0.00    -0.033 A 
ATOM     12  C   UNL d   1       1.440   2.792   0.156  0.00  0.00     0.050 C 
ENDBRANCH   1   3
BRANCH   2  13
ATOM     13  C   UNL d   1       5.764  -0.522  -0.047  0.00  0.00     0.247 C 
ATOM     14  N   UNL d   1       6.509  -1.606  -0.415  0.00  0.00    -0.304 N 
ATOM     15  H   UNL d   1       7.466  -1.600  -0.092  0.00  0.00     0.171 HD
ATOM     16  O   UNL d   1       6.316   0.420   0.526  0.00  0.00    -0.268 OA
BRANCH  14  17
ATOM     17  C   UNL d   1       6.088  -2.708  -1.101  0.00  0.00     0.151 A 
ATOM     18  N   UNL d   1       4.977  -2.894  -1.766  0.00  0.00    -0.346 N 
ATOM     19  C   UNL d   1       4.913  -4.190  -2.223  0.00  0.00     0.097 A 
ATOM     20  HN  UNL d   1       4.263  -2.182  -1.923  1.00  0.00     0.167 HD
ATOM     21  C   UNL d   1       5.998  -4.977  -1.903  0.00  0.00     0.070 A 
ATOM     22  S   UNL d   1       7.166  -4.034  -1.065  0.00  0.00    -0.064 SA
ENDBRANCH  14  17
ENDBRANCH   2  13
TORSDOF 3
