REMARK  11 active torsions:
REMARK  status: ('A' for Active; 'I' for Inactive)
REMARK    1  A    between atoms: C_4  and  C_1 
REMARK    2  A    between atoms: N_6  and  C_2 
REMARK    3  A    between atoms: O_18  and  C_4 
REMARK       I    between atoms: C_7  and  N_6 
REMARK    4  A    between atoms: C_12  and  C_7 
REMARK    5  A    between atoms: O_20  and  C_8 
REMARK    6  A    between atoms: O_21  and  C_9 
REMARK    7  A    between atoms: C_10  and  C_12 
REMARK    8  A    between atoms: C_13  and  C_10 
REMARK    9  A    between atoms: C_17  and  C_10 
REMARK   10  A    between atoms: C_11  and  C_13 
REMARK   11  A    between atoms: O_19  and  C_11 
ROOT
ATOM      1  N   UNL d   1       1.641  -2.806  -1.274  0.00  0.00    -0.326 N 
ATOM      2  C   UNL d   1       3.014  -2.763  -1.108  0.00  0.00     0.222 C 
ATOM      3  O   UNL d   1       3.757  -3.738  -1.094  0.00  0.00    -0.273 OA
ATOM      4  H   UNL d   1       1.175  -1.907  -1.432  0.00  0.00     0.169 HD
ENDROOT
BRANCH   1   5
ATOM      5  C   UNL d   1       0.889  -3.951  -1.650  0.00  0.00     0.054 C 
ATOM      6  C   UNL d   1      -0.264  -3.788  -2.452  0.00  0.00     0.067 C 
ATOM      7  C   UNL d   1      -0.886  -4.931  -2.977  0.00  0.00     0.060 C 
ATOM      8  C   UNL d   1      -0.438  -6.224  -2.668  0.00  0.00     0.102 C 
ATOM      9  C   UNL d   1       0.598  -6.381  -1.742  0.00  0.00     0.103 C 
ATOM     10  C   UNL d   1       1.281  -5.246  -1.275  0.00  0.00     0.070 C 
BRANCH   6  11
ATOM     11  C   UNL d   1      -0.777  -2.413  -2.737  0.00  0.00     0.178 C 
ATOM     12  O   UNL d   1      -0.403  -1.438  -2.092  0.00  0.00    -0.646 OA
BRANCH  11  13
ATOM     13  O   UNL d   1      -1.667  -2.283  -3.739  0.00  0.00    -0.773 OA
ATOM     14  H   UNL d   1      -1.817  -3.054  -4.313  0.00  0.00     0.167 HD
ENDBRANCH  11  13
ENDBRANCH   6  11
BRANCH   8  15
ATOM     15  O   UNL d   1      -1.138  -7.182  -3.351  0.00  0.00    -0.353 OA
ATOM     16  C   UNL d   1      -0.810  -8.551  -3.163  0.00  0.00     0.210 C 
ENDBRANCH   8  15
BRANCH   9  17
ATOM     17  O   UNL d   1       0.981  -7.636  -1.349  0.00  0.00    -0.353 OA
ATOM     18  C   UNL d   1       1.081  -7.792   0.068  0.00  0.00     0.210 C 
ENDBRANCH   9  17
ENDBRANCH   1   5
BRANCH   2  19
ATOM     19  C   UNL d   1       3.538  -1.330  -1.009  0.00  0.00     0.113 C 
BRANCH  19  20
ATOM     20  C   UNL d   1       5.075  -1.274  -0.878  0.00  0.00     0.037 C 
BRANCH  20  21
ATOM     21  C   UNL d   1       5.833  -1.561  -2.190  0.00  0.00     0.119 C 
BRANCH  21  22
ATOM     22  C   UNL d   1       5.804  -0.448  -3.205  0.00  0.00     0.140 C 
ATOM     23  O   UNL d   1       4.818   0.161  -3.593  0.00  0.00    -0.650 OA
BRANCH  22  24
ATOM     24  O   UNL d   1       7.016  -0.189  -3.727  0.00  0.00    -0.776 OA
ATOM     25  H   UNL d   1       6.861   0.546  -4.358  0.00  0.00     0.167 HD
ENDBRANCH  22  24
ENDBRANCH  21  22
ENDBRANCH  20  21
BRANCH  20  26
ATOM     26  C   UNL d   1       5.593  -0.009  -0.205  0.00  0.00    -0.053 A 
ATOM     27  C   UNL d   1       6.626  -0.119   0.743  0.00  0.00     0.007 A 
ATOM     28  C   UNL d   1       7.164   1.014   1.351  0.00  0.00     0.001 A 
ATOM     29  C   UNL d   1       6.681   2.276   1.022  0.00  0.00     0.000 A 
ATOM     30  C   UNL d   1       5.658   2.406   0.087  0.00  0.00     0.001 A 
ATOM     31  C   UNL d   1       5.112   1.271  -0.520  0.00  0.00     0.007 A 
ENDBRANCH  20  26
ENDBRANCH  19  20
ENDBRANCH   2  19
TORSDOF 11
