REMARK  1 active torsions:
REMARK  status: ('A' for Active; 'I' for Inactive)
REMARK    1  A    between atoms: C_9  and  N_4 
ROOT
ATOM      1  C   UNL d   1       1.807  -3.197   1.168  0.00  0.00    -0.096 C 
ATOM      2  C   UNL d   1       1.482  -3.853   2.121  0.00  0.00     0.014 C 
ATOM      3  C   UNL d   1       2.179  -2.385  -0.001  0.00  0.00     0.239 C 
ENDROOT
BRANCH   3   4
ATOM      4  N   UNL d   1       1.588  -1.058   0.024  0.00  0.00    -0.263 N 
ATOM      5  N   UNL d   1       2.378   0.035   0.007  0.00  0.00    -0.018 NA
ATOM      6  N   UNL d   1       1.587   1.101   0.003  0.00  0.00    -0.282 N 
ATOM      7  C   UNL d   1       0.288   0.667   0.002  0.00  0.00     0.074 A 
ATOM      8  HN  UNL d   1       1.893   2.074   0.002  1.00  0.00     0.184 HD
ATOM      9  C   UNL d   1      -0.917   1.383  -0.003  0.00  0.00     0.033 A 
ATOM     10  C   UNL d   1       0.258  -0.723   0.002  0.00  0.00     0.077 A 
ATOM     11  C   UNL d   1      -2.121   0.667  -0.006  0.00  0.00     0.002 A 
ATOM     12  C   UNL d   1      -2.124  -0.730  -0.009  0.00  0.00     0.002 A 
ATOM     13  C   UNL d   1      -0.931  -1.460  -0.008  0.00  0.00     0.033 A 
ENDBRANCH   3   4
TORSDOF 1
