REMARK  4 active torsions:
REMARK  status: ('A' for Active; 'I' for Inactive)
REMARK    1  A    between atoms: C_2  and  C_1 
REMARK       I    between atoms: N_5  and  C_1 
REMARK    2  A    between atoms: C_3  and  C_10 
REMARK    3  A    between atoms: C_12  and  C_4 
REMARK    4  A    between atoms: C_13  and  N_5 
ROOT
ATOM      1  C   UNL d   1       0.319   0.003  -1.230  0.00  0.00     0.049 A 
ATOM      2  N   UNL d   1      -1.441   0.974  -2.594  0.00  0.00    -0.373 N 
ATOM      3  HN  UNL d   1      -2.209   1.635  -2.709  1.00  0.00     0.164 HD
ATOM      4  C   UNL d   1       0.693  -0.830  -2.286  0.00  0.00     0.040 A 
ATOM      5  C   UNL d   1      -0.023  -0.771  -3.478  0.00  0.00     0.034 A 
ATOM      6  C   UNL d   1      -0.717   0.912  -1.447  0.00  0.00     0.104 A 
ATOM      7  C   UNL d   1      -1.088   0.114  -3.575  0.00  0.00     0.108 A 
ENDROOT
BRANCH   1   8
ATOM      8  C   UNL d   1       0.959  -0.054   0.104  0.00  0.00     0.257 C 
ATOM      9  N   UNL d   1       1.456  -1.292   0.500  0.00  0.00    -0.323 N 
ATOM     10  H   UNL d   1       1.383  -2.072  -0.141  0.00  0.00     0.169 HD
ATOM     11  O   UNL d   1       0.969   0.981   0.761  0.00  0.00    -0.267 OA
BRANCH   9  12
ATOM     12  C   UNL d   1       2.065  -1.581   1.745  0.00  0.00     0.035 A 
ATOM     13  C   UNL d   1       2.225  -0.630   2.755  0.00  0.00     0.029 A 
ATOM     14  C   UNL d   1       2.931  -0.927   3.921  0.00  0.00     0.002 A 
ATOM     15  C   UNL d   1       3.447  -2.202   4.114  0.00  0.00     0.000 A 
ATOM     16  C   UNL d   1       3.241  -3.183   3.146  0.00  0.00     0.002 A 
ATOM     17  C   UNL d   1       2.557  -2.875   1.963  0.00  0.00     0.029 A 
ENDBRANCH   9  12
ENDBRANCH   1   8
BRANCH   5  18
ATOM     18  C   UNL d   1       0.321  -1.596  -4.593  0.00  0.00    -0.060 C 
ATOM     19  C   UNL d   1       0.566  -2.233  -5.573  0.00  0.00    -0.061 C 
BRANCH  19  20
ATOM     20  C   UNL d   1       0.807  -2.949  -6.790  0.00  0.00     0.018 A 
ATOM     21  C   UNL d   1       0.696  -2.289  -8.016  0.00  0.00     0.020 A 
ATOM     22  C   UNL d   1       0.903  -2.988  -9.206  0.00  0.00     0.001 A 
ATOM     23  C   UNL d   1       1.221  -4.345  -9.170  0.00  0.00     0.000 A 
ATOM     24  C   UNL d   1       1.339  -5.003  -7.945  0.00  0.00     0.001 A 
ATOM     25  C   UNL d   1       1.132  -4.306  -6.753  0.00  0.00     0.020 A 
ENDBRANCH  19  20
ENDBRANCH   5  18
TORSDOF 4
