REMARK  7 active torsions:
REMARK  status: ('A' for Active; 'I' for Inactive)
REMARK    1  A    between atoms: C_7  and  N_1 
REMARK    2  A    between atoms: C_2  and  C_13 
REMARK    3  A    between atoms: C_4  and  N_17 
REMARK    4  A    between atoms: N_11  and  C_4 
REMARK    5  A    between atoms: C_15  and  C_6 
REMARK    6  A    between atoms: N_17  and  N_8 
REMARK    7  A    between atoms: C_18  and  N_11 
ROOT
ATOM      1  N   UNL d   1      -3.708   1.111  -8.862  0.00  0.00    -0.307 N 
ATOM      2  HN  UNL d   1      -3.593   0.141  -9.153  1.00  0.00     0.186 HD
ATOM      3  C   UNL d   1      -3.243   1.538  -7.732  0.00  0.00     0.144 C 
ENDROOT
BRANCH   1   4
ATOM      4  N   UNL d   1      -4.354   2.017  -9.643  0.00  0.00    -0.276 N 
ATOM      5  H   UNL d   1      -4.219   3.007  -9.482  0.00  0.00     0.189 HD
BRANCH   4   6
ATOM      6  C   UNL d   1      -5.232   1.603 -10.610  0.00  0.00     0.191 C 
ATOM      7  S   UNL d   1      -5.203   0.104 -11.365  0.00  0.00    -0.039 SA
BRANCH   6   8
ATOM      8  N   UNL d   1      -6.221   2.468 -10.990  0.00  0.00    -0.332 N 
ATOM      9  H   UNL d   1      -6.714   2.135 -11.813  0.00  0.00     0.168 HD
BRANCH   8  10
ATOM     10  C   UNL d   1      -6.806   3.577 -10.340  0.00  0.00     0.037 A 
ATOM     11  C   UNL d   1      -6.517   3.985  -9.037  0.00  0.00     0.071 A 
ATOM     12  C   UNL d   1      -7.166   5.090  -8.491  0.00  0.00     0.118 A 
ATOM     13  F   UNL d   1      -6.854   5.479  -7.248  0.00  0.00    -0.206 F 
ATOM     14  C   UNL d   1      -8.138   5.780  -9.201  0.00  0.00     0.042 A 
ATOM     15  C   UNL d   1      -8.469   5.357 -10.483  0.00  0.00     0.005 A 
ATOM     16  C   UNL d   1      -7.803   4.264 -11.049  0.00  0.00     0.029 A 
ENDBRANCH   8  10
ENDBRANCH   6   8
ENDBRANCH   4   6
ENDBRANCH   1   4
BRANCH   3  17
ATOM     17  C   UNL d   1      -2.665   0.589  -6.827  0.00  0.00     0.093 A 
ATOM     18  O   UNL d   1      -2.480   0.930  -5.515  0.00  0.00    -0.309 OA
ATOM     19  C   UNL d   1      -2.021  -0.190  -4.873  0.00  0.00     0.086 A 
ATOM     20  C   UNL d   1      -1.884  -1.224  -5.776  0.00  0.00     0.041 A 
ATOM     21  C   UNL d   1      -2.303  -0.728  -7.028  0.00  0.00     0.041 A 
BRANCH  19  22
ATOM     22  C   UNL d   1      -1.787  -0.096  -3.435  0.00  0.00    -0.002 A 
ATOM     23  C   UNL d   1      -2.455   0.840  -2.631  0.00  0.00     0.017 A 
ATOM     24  C   UNL d   1      -2.258   0.863  -1.244  0.00  0.00     0.037 A 
ATOM     25  C   UNL d   1      -1.378  -0.053  -0.653  0.00  0.00     0.102 A 
ATOM     26  C   UNL d   1      -0.695  -0.986  -1.440  0.00  0.00     0.037 A 
ATOM     27  C   UNL d   1      -0.905  -1.002  -2.821  0.00  0.00     0.017 A 
BRANCH  25  28
ATOM     28  N   UNL d   1      -1.170  -0.047   0.800  0.00  0.00    -0.116 N 
ATOM     29  O   UNL d   1      -0.380  -0.873   1.273  0.00  0.00    -0.532 OA
ATOM     30  O   UNL d   1      -1.802   0.786   1.467  0.00  0.00    -0.532 OA
ENDBRANCH  25  28
ENDBRANCH  19  22
ENDBRANCH   3  17
TORSDOF 7
