REMARK  3 active torsions:
REMARK  status: ('A' for Active; 'I' for Inactive)
REMARK    1  A    between atoms: C_2  and  C_1 
REMARK    2  A    between atoms: C_9  and  C_5 
REMARK    3  A    between atoms: O_16  and  N_10 
ROOT
ATOM      1  C   UNL d   1       0.647  -0.700  -1.349  0.00  0.00     0.065 A 
ATOM      2  N   UNL d   1       0.431  -2.654  -2.751  0.00  0.00    -0.363 N 
ATOM      3  HN  UNL d   1       0.533  -3.661  -2.880  1.00  0.00     0.165 HD
ATOM      4  C   UNL d   1      -0.043  -1.858  -3.755  0.00  0.00     0.071 A 
ATOM      5  C   UNL d   1       0.145   0.092  -2.387  0.00  0.00     0.043 A 
ATOM      6  C   UNL d   1      -0.210  -0.482  -3.613  0.00  0.00     0.063 A 
ATOM      7  C   UNL d   1       0.761  -2.061  -1.581  0.00  0.00     0.104 A 
ATOM      8 CL   UNL d   1      -0.814   0.585  -4.822  0.00  0.00    -0.082 Cl
ENDROOT
BRANCH   4   9
ATOM      9  C   UNL d   1      -0.332  -2.629  -4.987  0.00  0.00     0.144 C 
ATOM     10  N   UNL d   1      -0.773  -2.113  -6.090  0.00  0.00    -0.278 N 
ATOM     11  HN  UNL d   1      -0.977  -1.124  -6.238  1.00  0.00     0.193 HD
BRANCH  10  12
ATOM     12  O   UNL d   1      -0.926  -3.122  -7.046  0.00  0.00    -0.290 OA
ATOM     13  H   UNL d   1      -1.248  -2.627  -7.823  0.00  0.00     0.244 HD
ENDBRANCH  10  12
ENDBRANCH   4   9
BRANCH   1  14
ATOM     14  C   UNL d   1       1.061  -0.130  -0.027  0.00  0.00     0.418 C 
ATOM     15  F   UNL d   1       0.927   1.223   0.042  0.00  0.00    -0.166 F 
ATOM     16  F   UNL d   1       2.363  -0.392   0.264  0.00  0.00    -0.166 F 
ATOM     17  F   UNL d   1       0.335  -0.633   1.007  0.00  0.00    -0.166 F 
ENDBRANCH   1  14
TORSDOF 3
