REMARK  4 active torsions:
REMARK  status: ('A' for Active; 'I' for Inactive)
REMARK    1  A    between atoms: C_5  and  C_1 
REMARK    2  A    between atoms: S_2  and  C_7 
REMARK    3  A    between atoms: N_12  and  S_2 
REMARK       I    between atoms: N_9  and  C_5 
REMARK    4  A    between atoms: C_10  and  N_9 
ROOT
ATOM      1  C   UNL d   1       3.995  -0.024  -0.643  0.00  0.00     0.264 C 
ATOM      2  N   UNL d   1       4.575  -1.185  -0.132  0.00  0.00    -0.322 N 
ATOM      3  O   UNL d   1       2.924  -0.034  -1.255  0.00  0.00    -0.267 OA
ATOM      4  H   UNL d   1       5.354  -1.053   0.495  0.00  0.00     0.169 HD
ENDROOT
BRANCH   2   5
ATOM      5  C   UNL d   1       4.052  -2.502  -0.252  0.00  0.00     0.042 A 
ATOM      6  C   UNL d   1       3.106  -2.807  -1.239  0.00  0.00     0.054 A 
ATOM      7  C   UNL d   1       2.459  -4.045  -1.262  0.00  0.00     0.076 A 
ATOM      8  C   UNL d   1       2.819  -5.046  -0.371  0.00  0.00     0.025 A 
ATOM      9  C   UNL d   1       3.824  -4.790   0.558  0.00  0.00     0.010 A 
ATOM     10  C   UNL d   1       4.453  -3.526   0.634  0.00  0.00    -0.035 A 
ATOM     11  C   UNL d   1       5.479  -3.376   1.726  0.00  0.00     0.050 C 
BRANCH   7  12
ATOM     12  S   UNL d   1       1.165  -4.332  -2.443  0.00  0.00     0.243 S 
ATOM     13  O   UNL d   1       1.382  -3.477  -3.590  0.00  0.00    -0.206 OA
ATOM     14  O   UNL d   1       1.040  -5.768  -2.605  0.00  0.00    -0.206 OA
BRANCH  12  15
ATOM     15  N   UNL d   1      -0.227  -3.771  -1.613  0.00  0.00    -0.215 NA
ATOM     16  C   UNL d   1      -0.284  -2.307  -1.383  0.00  0.00     0.129 C 
ATOM     17  C   UNL d   1      -1.492  -4.270  -2.196  0.00  0.00     0.129 C 
ENDBRANCH  12  15
ENDBRANCH   7  12
ENDBRANCH   2   5
BRANCH   1  18
ATOM     18  C   UNL d   1       4.681   1.233  -0.341  0.00  0.00     0.096 C 
ATOM     19  S   UNL d   1       3.917   2.677  -0.884  0.00  0.00    -0.082 SA
ATOM     20  C   UNL d   1       5.083   3.693  -0.153  0.00  0.00     0.017 A 
ATOM     21  C   UNL d   1       5.103   5.101  -0.183  0.00  0.00     0.020 A 
ATOM     22  C   UNL d   1       6.056   2.952   0.518  0.00  0.00     0.004 A 
ATOM     23  C   UNL d   1       6.094   5.778   0.527  0.00  0.00     0.001 A 
ATOM     24  C   UNL d   1       7.041   5.073   1.254  0.00  0.00     0.001 A 
ATOM     25  C   UNL d   1       7.040   3.674   1.244  0.00  0.00     0.014 A 
ATOM     26  C   UNL d   1       5.860   1.534   0.313  0.00  0.00     0.068 C 
ATOM     27 CL   UNL d   1       7.015   0.394   0.888  0.00  0.00    -0.082 Cl
ENDBRANCH   1  18
TORSDOF 4
