REMARK  7 active torsions:
REMARK  status: ('A' for Active; 'I' for Inactive)
REMARK    1  A    between atoms: O_7  and  C_1 
REMARK    2  A    between atoms: C_3  and  C_20 
REMARK       I    between atoms: C_5  and  N_6 
REMARK    3  A    between atoms: C_25  and  C_5 
REMARK    4  A    between atoms: N_6  and  C_15 
REMARK    5  A    between atoms: C_16  and  O_7 
REMARK    6  A    between atoms: S_14  and  C_25 
REMARK    7  A    between atoms: C_20  and  S_14 
ROOT
ATOM      1  C   UNL d   1       3.229   3.286   5.991  0.00  0.00     0.231 C 
ATOM      2  N   UNL d   1       2.031   3.454   5.309  0.00  0.00    -0.327 N 
ATOM      3  O   UNL d   1       4.196   2.617   5.622  0.00  0.00    -0.272 OA
ATOM      4  H   UNL d   1       1.339   4.042   5.756  0.00  0.00     0.169 HD
ENDROOT
BRANCH   1   5
ATOM      5  C   UNL d   1       3.297   4.029   7.309  0.00  0.00     0.177 C 
BRANCH   5   6
ATOM      6  S   UNL d   1       1.969   3.518   8.438  0.00  0.00    -0.155 SA
BRANCH   6   7
ATOM      7  C   UNL d   1       2.316   1.718   8.512  0.00  0.00     0.114 C 
BRANCH   7   8
ATOM      8  C   UNL d   1       1.318   1.053   9.431  0.00  0.00    -0.027 A 
ATOM      9  C   UNL d   1       0.073   0.578   8.982  0.00  0.00     0.042 A 
ATOM     10  C   UNL d   1      -0.862   0.065   9.885  0.00  0.00     0.048 A 
ATOM     11 CL   UNL d   1      -0.375   0.625   7.313  0.00  0.00    -0.084 Cl
ATOM     12  C   UNL d   1      -0.561   0.027  11.244  0.00  0.00     0.035 A 
ATOM     13  C   UNL d   1       0.670   0.479  11.709  0.00  0.00     0.024 A 
ATOM     14 CL   UNL d   1      -1.728  -0.566  12.360  0.00  0.00    -0.084 Cl
ATOM     15  C   UNL d   1       1.606   0.988  10.808  0.00  0.00     0.011 A 
ENDBRANCH   7   8
ENDBRANCH   6   7
ENDBRANCH   5   6
ENDBRANCH   1   5
BRANCH   2  16
ATOM     16  C   UNL d   1       1.648   2.829   4.103  0.00  0.00     0.034 A 
ATOM     17  C   UNL d   1       2.446   1.901   3.435  0.00  0.00     0.032 A 
ATOM     18  C   UNL d   1       2.021   1.303   2.244  0.00  0.00     0.039 A 
ATOM     19  C   UNL d   1       0.806   1.665   1.673  0.00  0.00     0.078 A 
ATOM     20  C   UNL d   1      -0.018   2.563   2.355  0.00  0.00     0.039 A 
ATOM     21  C   UNL d   1       0.399   3.144   3.565  0.00  0.00     0.032 A 
BRANCH  19  22
ATOM     22  O   UNL d   1       0.312   1.216   0.487  0.00  0.00    -0.255 OA
BRANCH  22  23
ATOM     23  C   UNL d   1       1.210   0.691  -0.483  0.00  0.00     0.530 C 
ATOM     24  F   UNL d   1       2.480   1.126  -0.345  0.00  0.00    -0.144 F 
ATOM     25  F   UNL d   1       0.782   1.075  -1.707  0.00  0.00    -0.144 F 
ATOM     26  F   UNL d   1       1.197  -0.659  -0.438  0.00  0.00    -0.144 F 
ENDBRANCH  22  23
ENDBRANCH  19  22
ENDBRANCH   2  16
TORSDOF 7
