REMARK  8 active torsions:
REMARK  status: ('A' for Active; 'I' for Inactive)
REMARK    1  A    between atoms: C_1  and  C_7 
REMARK    2  A    between atoms: C_2  and  C_8 
REMARK    3  A    between atoms: C_3  and  C_10 
REMARK    4  A    between atoms: C_4  and  O_13 
REMARK    5  A    between atoms: O_15  and  C_7 
REMARK    6  A    between atoms: O_14  and  C_8 
REMARK    7  A    between atoms: C_20  and  O_14 
REMARK    8  A    between atoms: C_19  and  O_15 
ROOT
ATOM      1  C   UNL d   1       1.024  -1.341  -0.019  0.00  0.00     0.129 C 
ATOM      2  C   UNL d   1      -1.524  -1.128  -0.282  0.00  0.00     0.164 C 
ATOM      3  C   UNL d   1      -0.370  -1.853   0.447  0.00  0.00     0.056 C 
ATOM      4  C   UNL d   1       1.157   0.202  -0.009  0.00  0.00     0.074 C 
ATOM      5  C   UNL d   1      -1.315   0.357  -0.195  0.00  0.00     0.144 C 
ATOM      6  C   UNL d   1      -0.010   0.858  -0.759  0.00  0.00     0.117 C 
ATOM      7  O   UNL d   1      -2.143   1.133   0.272  0.00  0.00    -0.297 OA
ATOM      8  C   UNL d   1       2.461   0.655  -0.685  0.00  0.00     0.047 C 
ENDROOT
BRANCH   3   9
ATOM      9  C   UNL d   1      -0.467  -3.370   0.253  0.00  0.00    -0.052 A 
ATOM     10  C   UNL d   1      -0.442  -3.963  -1.019  0.00  0.00     0.007 A 
ATOM     11  C   UNL d   1      -0.492  -5.352  -1.157  0.00  0.00     0.001 A 
ATOM     12  C   UNL d   1      -0.564  -6.165  -0.029  0.00  0.00     0.000 A 
ATOM     13  C   UNL d   1      -0.601  -5.591   1.239  0.00  0.00     0.001 A 
ATOM     14  C   UNL d   1      -0.560  -4.203   1.379  0.00  0.00     0.007 A 
ENDBRANCH   3   9
BRANCH   2  15
ATOM     15  C   UNL d   1      -2.861  -1.560   0.275  0.00  0.00     0.271 C 
ATOM     16  O   UNL d   1      -3.087  -1.852   1.439  0.00  0.00    -0.264 OA
BRANCH  15  17
ATOM     17  O   UNL d   1      -3.747  -1.676  -0.759  0.00  0.00    -0.321 OA
BRANCH  17  18
ATOM     18  C   UNL d   1      -4.858  -2.550  -0.522  0.00  0.00     0.174 C 
ATOM     19  C   UNL d   1      -4.454  -3.929  -1.012  0.00  0.00     0.034 C 
ENDBRANCH  17  18
ENDBRANCH  15  17
ENDBRANCH   2  15
BRANCH   1  20
ATOM     20  C   UNL d   1       2.164  -1.989   0.761  0.00  0.00     0.266 C 
ATOM     21  O   UNL d   1       3.236  -2.284   0.243  0.00  0.00    -0.265 OA
BRANCH  20  22
ATOM     22  O   UNL d   1       1.855  -2.174   2.072  0.00  0.00    -0.321 OA
BRANCH  22  23
ATOM     23  C   UNL d   1       2.843  -2.848   2.864  0.00  0.00     0.174 C 
ATOM     24  C   UNL d   1       3.792  -1.836   3.475  0.00  0.00     0.034 C 
ENDBRANCH  22  23
ENDBRANCH  20  22
ENDBRANCH   1  20
BRANCH   4  25
ATOM     25  O   UNL d   1       1.204   0.708   1.327  0.00  0.00    -0.389 OA
ATOM     26  H   UNL d   1       0.318   0.740   1.731  0.00  0.00     0.210 HD
ENDBRANCH   4  25
TORSDOF 8
