REMARK  4 active torsions:
REMARK  status: ('A' for Active; 'I' for Inactive)
REMARK    1  A    between atoms: C_4  and  C_1 
REMARK    2  A    between atoms: C_5  and  C_2 
REMARK    3  A    between atoms: O_16  and  C_4 
REMARK    4  A    between atoms: O_17  and  C_5 
ROOT
ATOM      1  C   UNL d   1       0.004  -1.251   0.621  0.00  0.00     0.110 C 
ATOM      2  C   UNL d   1       0.038   1.275   0.592  0.00  0.00     0.110 C 
ATOM      3  C   UNL d   1      -0.035   0.023   1.470  0.00  0.00     0.055 C 
ATOM      4  C   UNL d   1       1.286  -1.279  -0.212  0.00  0.00     0.145 C 
ATOM      5  C   UNL d   1      -1.106   1.309  -0.405  0.00  0.00     0.145 C 
ATOM      6  C   UNL d   1      -1.192  -1.294  -0.361  0.00  0.00     0.035 C 
ATOM      7  C   UNL d   1       1.366   1.278  -0.195  0.00  0.00     0.035 C 
ATOM      8  C   UNL d   1      -1.863   0.035  -0.706  0.00  0.00     0.081 C 
ATOM      9  C   UNL d   1       1.702  -0.014  -0.927  0.00  0.00     0.081 C 
ATOM     10  O   UNL d   1       1.883  -2.333  -0.446  0.00  0.00    -0.297 OA
ATOM     11  O   UNL d   1      -1.432   2.356  -0.968  0.00  0.00    -0.297 OA
ENDROOT
BRANCH   1  12
ATOM     12  C   UNL d   1      -0.037  -2.456   1.567  0.00  0.00     0.274 C 
ATOM     13  O   UNL d   1      -0.955  -3.255   1.652  0.00  0.00    -0.264 OA
BRANCH  12  14
ATOM     14  O   UNL d   1       1.080  -2.490   2.355  0.00  0.00    -0.326 OA
ATOM     15  C   UNL d   1       1.160  -3.639   3.204  0.00  0.00     0.213 C 
ENDBRANCH  12  14
ENDBRANCH   1  12
BRANCH   2  16
ATOM     16  C   UNL d   1      -0.008   2.510   1.493  0.00  0.00     0.274 C 
ATOM     17  O   UNL d   1       0.902   3.321   1.607  0.00  0.00    -0.264 OA
BRANCH  16  18
ATOM     18  O   UNL d   1      -1.174   2.561   2.198  0.00  0.00    -0.326 OA
ATOM     19  C   UNL d   1      -1.279   3.700   3.057  0.00  0.00     0.213 C 
ENDBRANCH  16  18
ENDBRANCH   2  16
TORSDOF 4
