REMARK  4 active torsions:
REMARK  status: ('A' for Active; 'I' for Inactive)
REMARK    1  A    between atoms: C_6  and  C_1 
REMARK    2  A    between atoms: C_7  and  C_8 
REMARK    3  A    between atoms: S_9  and  C_7 
REMARK    4  A    between atoms: C_11  and  S_9 
ROOT
ATOM      1  C   UNL d   1       3.518   0.538   0.577  0.00  0.00     0.024 C 
ATOM      2  C   UNL d   1       4.316   1.439  -0.016  0.00  0.00     0.064 C 
ENDROOT
BRANCH   1   3
ATOM      3  C   UNL d   1       2.092   0.560   0.447  0.00  0.00     0.012 A 
ATOM      4  S   UNL d   1       1.180   0.157   1.853  0.00  0.00    -0.089 SA
ATOM      5  C   UNL d   1      -0.328   0.318   1.058  0.00  0.00     0.016 A 
ATOM      6  C   UNL d   1      -1.608   0.114   1.616  0.00  0.00     0.019 A 
ATOM      7  C   UNL d   1      -0.159   0.683  -0.275  0.00  0.00    -0.012 A 
ATOM      8  C   UNL d   1      -2.737   0.279   0.811  0.00  0.00     0.001 A 
ATOM      9  C   UNL d   1      -2.601   0.647  -0.518  0.00  0.00     0.001 A 
ATOM     10  C   UNL d   1      -1.330   0.849  -1.064  0.00  0.00     0.013 A 
ATOM     11  C   UNL d   1       1.247   0.809  -0.633  0.00  0.00    -0.033 A 
ATOM     12  C   UNL d   1       1.666   1.129  -2.036  0.00  0.00     0.050 C 
ENDBRANCH   1   3
BRANCH   2  13
ATOM     13  C   UNL d   1       5.796   1.356   0.149  0.00  0.00     0.213 C 
ATOM     14  O   UNL d   1       6.351   0.466   0.773  0.00  0.00    -0.280 OA
BRANCH  13  15
ATOM     15  S   UNL d   1       6.619   2.701  -0.617  0.00  0.00    -0.049 SA
BRANCH  15  16
ATOM     16  C   UNL d   1       8.291   2.194  -0.978  0.00  0.00     0.008 A 
ATOM     17  C   UNL d   1       8.741   0.874  -1.058  0.00  0.00     0.019 A 
ATOM     18  C   UNL d   1      10.070   0.589  -1.407  0.00  0.00     0.008 A 
ATOM     19  C   UNL d   1      10.969   1.616  -1.710  0.00  0.00    -0.062 A 
ATOM     20  C   UNL d   1      10.527   2.938  -1.631  0.00  0.00     0.008 A 
ATOM     21  C   UNL d   1      12.395   1.303  -2.059  0.00  0.00     0.048 C 
ATOM     22  C   UNL d   1       9.204   3.218  -1.273  0.00  0.00     0.019 A 
ENDBRANCH  15  16
ENDBRANCH  13  15
ENDBRANCH   2  13
TORSDOF 4
