REMARK  5 active torsions:
REMARK  status: ('A' for Active; 'I' for Inactive)
REMARK    1  A    between atoms: N_2  and  C_1 
REMARK    2  A    between atoms: C_3  and  N_2 
REMARK    3  A    between atoms: C_7  and  N_2 
REMARK    4  A    between atoms: N_8  and  C_3 
REMARK    5  A    between atoms: C_11  and  N_8 
ROOT
ATOM      1  N   UNL d   1      -3.343  -1.329  -0.123  0.00  0.00    -0.268 N 
ENDROOT
BRANCH   1   2
ATOM      2  C   UNL d   1      -2.002  -0.887  -0.055  0.00  0.00     0.159 A 
ATOM      3  N   UNL d   1      -1.587   0.252   0.462  0.00  0.00    -0.335 N 
ATOM      4  C   UNL d   1      -0.221   0.395   0.323  0.00  0.00     0.051 A 
ATOM      5  HN  UNL d   1      -2.197   0.939   0.907  1.00  0.00     0.168 HD
ATOM      6  C   UNL d   1       0.546   1.484   0.784  0.00  0.00     0.031 A 
ATOM      7  C   UNL d   1       0.418  -0.646  -0.348  0.00  0.00     0.035 A 
ATOM      8  C   UNL d   1       1.929   1.498   0.581  0.00  0.00     0.002 A 
ATOM      9  C   UNL d   1       2.551   0.438  -0.070  0.00  0.00     0.002 A 
ATOM     10  C   UNL d   1       1.809  -0.649  -0.547  0.00  0.00     0.021 A 
ATOM     11  S   UNL d   1      -0.767  -1.795  -0.842  0.00  0.00    -0.051 SA
ENDBRANCH   1   2
BRANCH   1  12
ATOM     12  C   UNL d   1      -3.657  -2.687   0.036  0.00  0.00     0.185 C 
ATOM     13  S   UNL d   1      -2.878  -3.786   1.058  0.00  0.00    -0.040 SA
BRANCH  12  14
ATOM     14  N   UNL d   1      -4.825  -3.160  -0.521  0.00  0.00    -0.331 N 
ATOM     15  H   UNL d   1      -5.223  -3.953  -0.024  0.00  0.00     0.168 HD
BRANCH  14  16
ATOM     16  C   UNL d   1      -5.493  -2.819  -1.715  0.00  0.00     0.056 A 
ATOM     17  C   UNL d   1      -6.842  -3.204  -1.868  0.00  0.00     0.062 A 
ATOM     18  C   UNL d   1      -7.507  -3.032  -3.081  0.00  0.00     0.050 A 
ATOM     19 CL   UNL d   1      -7.728  -3.875  -0.541  0.00  0.00    -0.082 Cl
ATOM     20  C   UNL d   1      -6.818  -2.493  -4.162  0.00  0.00     0.035 A 
ATOM     21  C   UNL d   1      -5.491  -2.082  -4.020  0.00  0.00     0.026 A 
ATOM     22 CL   UNL d   1      -7.597  -2.362  -5.690  0.00  0.00    -0.084 Cl
ATOM     23  C   UNL d   1      -4.834  -2.230  -2.795  0.00  0.00     0.033 A 
ENDBRANCH  14  16
ENDBRANCH  12  14
ENDBRANCH   1  12
BRANCH   1  24
ATOM     24  C   UNL d   1      -4.345  -0.299   0.118  0.00  0.00     0.045 A 
ATOM     25  C   UNL d   1      -5.539  -0.581   0.807  0.00  0.00     0.054 A 
ATOM     26  C   UNL d   1      -6.493   0.414   1.037  0.00  0.00     0.036 A 
ATOM     27 CL   UNL d   1      -7.954   0.016   1.857  0.00  0.00    -0.084 Cl
ATOM     28  C   UNL d   1      -6.276   1.720   0.616  0.00  0.00     0.024 A 
ATOM     29  C   UNL d   1      -5.105   2.027  -0.065  0.00  0.00     0.004 A 
ATOM     30  C   UNL d   1      -4.164   1.026  -0.328  0.00  0.00     0.030 A 
ENDBRANCH   1  24
TORSDOF 5
