REMARK  3 active torsions:
REMARK  status: ('A' for Active; 'I' for Inactive)
REMARK    1  A    between atoms: C_2  and  S_1 
REMARK    2  A    between atoms: N_4  and  S_1 
REMARK    3  A    between atoms: C_7  and  N_4 
ROOT
ATOM      1  N   UNL d   1       0.305  -1.002   1.295  0.00  0.00    -0.310 N 
ATOM      2  H   UNL d   1      -0.221  -0.677   2.106  0.00  0.00     0.172 HD
ENDROOT
BRANCH   1   3
ATOM      3  S   UNL d   1      -0.416  -0.536  -0.160  0.00  0.00     0.265 S 
ATOM      4  O   UNL d   1      -0.480   0.907  -0.172  0.00  0.00    -0.200 OA
ATOM      5  O   UNL d   1       0.167  -1.298  -1.239  0.00  0.00    -0.200 OA
BRANCH   3   6
ATOM      6  C   UNL d   1      -2.113  -1.068  -0.088  0.00  0.00     0.121 A 
ATOM      7  S   UNL d   1      -3.055  -0.392   1.176  0.00  0.00    -0.064 SA
ATOM      8  C   UNL d   1      -4.421  -1.257   0.685  0.00  0.00     0.075 A 
ATOM      9 CL   UNL d   1      -5.898  -1.068   1.540  0.00  0.00    -0.076 Cl
ATOM     10  C   UNL d   1      -4.198  -2.070  -0.395  0.00  0.00     0.033 A 
ATOM     11  C   UNL d   1      -2.850  -1.958  -0.851  0.00  0.00     0.035 A 
ENDBRANCH   3   6
ENDBRANCH   1   3
BRANCH   1  12
ATOM     12  C   UNL d   1       0.878  -2.359   1.377  0.00  0.00     0.101 C 
ATOM     13  C   UNL d   1      -0.141  -3.495   1.183  0.00  0.00     0.065 C 
ATOM     14  C   UNL d   1       0.574  -4.619   1.868  0.00  0.00    -0.050 A 
ATOM     15  C   UNL d   1       0.401  -5.979   1.688  0.00  0.00     0.007 A 
ATOM     16  C   UNL d   1       1.515  -4.119   2.777  0.00  0.00    -0.050 A 
ATOM     17  C   UNL d   1       1.202  -6.848   2.431  0.00  0.00     0.001 A 
ATOM     18  C   UNL d   1       2.138  -6.348   3.352  0.00  0.00     0.001 A 
ATOM     19  C   UNL d   1       2.294  -4.973   3.538  0.00  0.00     0.007 A 
ATOM     20  C   UNL d   1       1.518  -2.620   2.759  0.00  0.00     0.065 C 
ENDBRANCH   1  12
TORSDOF 3
