REMARK  3 active torsions:
REMARK  status: ('A' for Active; 'I' for Inactive)
REMARK    1  A    between atoms: N_2  and  C_1 
REMARK    2  A    between atoms: N_3  and  C_1 
REMARK    3  A    between atoms: C_4  and  N_3 
ROOT
ATOM      1  N   UNL d   1       0.115  -0.910   0.390  0.00  0.00    -0.332 N 
ATOM      2  H   UNL d   1      -0.469  -0.541   1.123  0.00  0.00     0.168 HD
ENDROOT
BRANCH   1   3
ATOM      3  C   UNL d   1       0.919   0.035  -0.230  0.00  0.00     0.174 C 
ATOM      4  S   UNL d   1       2.576  -0.197  -0.446  0.00  0.00    -0.041 SA
BRANCH   3   5
ATOM      5  N   UNL d   1       0.237   1.210  -0.588  0.00  0.00    -0.353 N 
ATOM      6  C   UNL d   1      -1.206   1.445  -0.366  0.00  0.00     0.157 C 
ATOM      7  C   UNL d   1      -1.877   2.110  -1.586  0.00  0.00     0.136 C 
ATOM      8  C   UNL d   1      -3.310   2.519  -1.270  0.00  0.00     0.041 C 
ATOM      9  O   UNL d   1      -1.173   3.299  -1.982  0.00  0.00    -0.378 OA
ATOM     10  C   UNL d   1       0.185   2.990  -2.331  0.00  0.00     0.136 C 
ATOM     11  C   UNL d   1       0.927   2.407  -1.117  0.00  0.00     0.157 C 
ATOM     12  C   UNL d   1       0.851   4.273  -2.806  0.00  0.00     0.041 C 
ENDBRANCH   3   5
ENDBRANCH   1   3
BRANCH   1  13
ATOM     13  C   UNL d   1       0.234  -2.328   0.343  0.00  0.00     0.045 A 
ATOM     14  C   UNL d   1      -0.197  -3.125   1.443  0.00  0.00     0.001 A 
ATOM     15  C   UNL d   1      -0.206  -4.539   1.292  0.00  0.00    -0.024 A 
ATOM     16  C   UNL d   1      -0.581  -2.608   2.704  0.00  0.00     0.014 A 
ATOM     17  C   UNL d   1      -0.633  -5.359   2.348  0.00  0.00     0.012 A 
ATOM     18  C   UNL d   1       0.225  -5.119   0.091  0.00  0.00     0.012 A 
ATOM     19  C   UNL d   1      -1.022  -4.816   3.570  0.00  0.00     0.001 A 
ATOM     20  C   UNL d   1      -0.983  -3.439   3.752  0.00  0.00     0.001 A 
ATOM     21  C   UNL d   1       0.673  -4.331  -0.963  0.00  0.00     0.003 A 
ATOM     22  C   UNL d   1       0.667  -2.944  -0.841  0.00  0.00     0.030 A 
ENDBRANCH   1  13
TORSDOF 3
