REMARK  2 active torsions:
REMARK  status: ('A' for Active; 'I' for Inactive)
REMARK    1  A    between atoms: C_9  and  N_1 
REMARK    2  A    between atoms: C_7  and  C_5 
ROOT
ATOM      1  N   UNL d   1       0.945  -0.642  -0.037  0.00  0.00    -0.255 N 
ATOM      2  C   UNL d   1      -0.356  -1.116   0.107  0.00  0.00     0.076 C 
ATOM      3  N   UNL d   1       0.978   0.719   0.004  0.00  0.00    -0.289 N 
ATOM      4  HN  UNL d   1       1.802   1.315   0.070  1.00  0.00     0.187 HD
ATOM      5  C   UNL d   1      -0.308   1.109  -0.063  0.00  0.00     0.135 C 
ATOM      6  C   UNL d   1      -1.173  -0.012  -0.040  0.00  0.00     0.069 C 
ATOM      7  C   UNL d   1      -0.746  -2.453   0.472  0.00  0.00     0.033 A 
ATOM      8  S   UNL d   1      -2.138  -3.201  -0.192  0.00  0.00    -0.100 SA
ATOM      9  C   UNL d   1      -0.137  -3.272   1.405  0.00  0.00     0.021 A 
ATOM     10  C   UNL d   1      -1.908  -4.614   0.744  0.00  0.00     0.050 A 
ATOM     11  C   UNL d   1      -0.798  -4.525   1.551  0.00  0.00     0.008 A 
ENDROOT
BRANCH   1  12
ATOM     12  C   UNL d   1       2.163  -1.365  -0.203  0.00  0.00     0.057 A 
ATOM     13  C   UNL d   1       2.179  -2.649  -0.771  0.00  0.00     0.034 A 
ATOM     14  C   UNL d   1       3.383  -3.349  -0.886  0.00  0.00     0.044 A 
ATOM     15  C   UNL d   1       4.562  -2.766  -0.441  0.00  0.00     0.116 A 
ATOM     16  C   UNL d   1       4.569  -1.481   0.093  0.00  0.00     0.044 A 
ATOM     17  F   UNL d   1       5.710  -3.449  -0.531  0.00  0.00    -0.206 F 
ATOM     18  C   UNL d   1       3.371  -0.769   0.198  0.00  0.00     0.034 A 
ENDBRANCH   1  12
BRANCH   5  19
ATOM     19  C   UNL d   1      -0.738   2.552  -0.086  0.00  0.00     0.434 C 
ATOM     20  F   UNL d   1       0.289   3.433   0.029  0.00  0.00    -0.165 F 
ATOM     21  F   UNL d   1      -1.393   2.860  -1.238  0.00  0.00    -0.165 F 
ATOM     22  F   UNL d   1      -1.602   2.826   0.929  0.00  0.00    -0.165 F 
ENDBRANCH   5  19
TORSDOF 2
