REMARK  3 active torsions:
REMARK  status: ('A' for Active; 'I' for Inactive)
REMARK    1  A    between atoms: C_9  and  C_3 
REMARK    2  A    between atoms: C_8  and  C_7 
REMARK    3  A    between atoms: C_15  and  C_9 
ROOT
ATOM      1  N   UNL d   1       1.279  -1.132  -0.022  0.00  0.00    -0.297 N 
ATOM      2  HN  UNL d   1       1.823  -1.995  -0.017  1.00  0.00     0.187 HD
ATOM      3  C   UNL d   1      -0.236   1.272  -0.029  0.00  0.00     0.018 A 
ATOM      4  N   UNL d   1      -0.083  -1.148  -0.074  0.00  0.00    -0.266 N 
ATOM      5  C   UNL d   1      -0.907  -0.051  -0.101  0.00  0.00     0.266 A 
ATOM      6  C   UNL d   1       1.099   1.312   0.058  0.00  0.00     0.045 A 
ATOM      7  C   UNL d   1       1.852   0.033   0.021  0.00  0.00     0.059 A 
ATOM      8  O   UNL d   1      -2.127  -0.155  -0.167  0.00  0.00    -0.266 OA
ATOM      9  H   UNL d   1      -0.522  -2.061  -0.123  0.00  0.00     0.190 HD
ENDROOT
BRANCH   3  10
ATOM     10  C   UNL d   1      -1.094   2.505   0.008  0.00  0.00     0.083 C 
BRANCH  10  11
ATOM     11  C   UNL d   1      -1.302   3.127  -1.355  0.00  0.00    -0.051 A 
ATOM     12  C   UNL d   1      -2.031   2.459  -2.344  0.00  0.00     0.024 A 
ATOM     13  C   UNL d   1      -2.174   3.055  -3.587  0.00  0.00     0.088 A 
ATOM     14  N   UNL d   1      -1.659   4.261  -3.906  0.00  0.00    -0.375 N 
ATOM     15  C   UNL d   1      -0.977   4.901  -2.934  0.00  0.00     0.088 A 
ATOM     16  HN  UNL d   1      -1.781   4.668  -4.833  1.00  0.00     0.164 HD
ATOM     17  C   UNL d   1      -0.771   4.384  -1.663  0.00  0.00     0.024 A 
ENDBRANCH  10  11
ENDBRANCH   3  10
BRANCH   7  18
ATOM     18  C   UNL d   1       3.339   0.126   0.072  0.00  0.00    -0.008 A 
ATOM     19  C   UNL d   1       4.063  -0.916   0.662  0.00  0.00     0.014 A 
ATOM     20  C   UNL d   1       5.456  -0.848   0.744  0.00  0.00     0.007 A 
ATOM     21  C   UNL d   1       6.144   0.259   0.233  0.00  0.00    -0.062 A 
ATOM     22  C   UNL d   1       5.421   1.290  -0.374  0.00  0.00     0.007 A 
ATOM     23  C   UNL d   1       7.640   0.323   0.323  0.00  0.00     0.048 C 
ATOM     24  C   UNL d   1       4.029   1.221  -0.464  0.00  0.00     0.014 A 
ENDBRANCH   7  18
TORSDOF 3
