REMARK  4 active torsions:
REMARK  status: ('A' for Active; 'I' for Inactive)
REMARK    1  A    between atoms: C_6  and  C_1 
REMARK    2  A    between atoms: S_13  and  C_9 
REMARK    3  A    between atoms: C_18  and  S_13 
REMARK    4  A    between atoms: C_20  and  C_18 
ROOT
ATOM      1  C   UNL d   1       4.008   0.021   0.056  0.00  0.00     0.053 A 
ATOM      2  N   UNL d   1       4.652   0.459   1.161  0.00  0.00    -0.336 N 
ATOM      3  HN  UNL d   1       4.150   0.683   2.020  1.00  0.00     0.168 HD
ATOM      4  C   UNL d   1       5.985   0.584   1.070  0.00  0.00     0.144 A 
ATOM      5  N   UNL d   1       6.712   0.285  -0.019  0.00  0.00    -0.347 N 
ATOM      6  HN  UNL d   1       7.727   0.390  -0.031  1.00  0.00     0.167 HD
ATOM      7  C   UNL d   1       4.677  -0.301  -1.112  0.00  0.00     0.048 A 
ATOM      8  C   UNL d   1       6.040  -0.158  -1.089  0.00  0.00     0.092 A 
ENDROOT
BRANCH   1   9
ATOM      9  C   UNL d   1       2.539  -0.073   0.177  0.00  0.00     0.039 A 
ATOM     10  S   UNL d   1       1.728  -1.337  -0.660  0.00  0.00    -0.087 SA
ATOM     11  C   UNL d   1       0.182  -0.859  -0.115  0.00  0.00     0.016 A 
ATOM     12  C   UNL d   1      -1.047  -1.471  -0.434  0.00  0.00     0.021 A 
ATOM     13  C   UNL d   1       0.262   0.251   0.725  0.00  0.00    -0.010 A 
ATOM     14  C   UNL d   1      -2.222  -0.959   0.118  0.00  0.00     0.025 A 
ATOM     15  C   UNL d   1      -2.171   0.139   0.962  0.00  0.00     0.035 A 
ATOM     16  C   UNL d   1      -0.953   0.751   1.268  0.00  0.00     0.037 A 
ATOM     17 CL   UNL d   1      -3.627   0.756   1.644  0.00  0.00    -0.084 Cl
ATOM     18  C   UNL d   1       1.633   0.708   0.893  0.00  0.00    -0.031 A 
ATOM     19  C   UNL d   1       1.969   1.901   1.741  0.00  0.00     0.050 C 
ENDBRANCH   1   9
BRANCH   4  20
ATOM     20  S   UNL d   1       6.883   1.324   2.400  0.00  0.00    -0.089 SA
BRANCH  20  21
ATOM     21  C   UNL d   1       5.929   0.728   3.832  0.00  0.00     0.121 C 
BRANCH  21  22
ATOM     22  C   UNL d   1       6.616   1.167   5.107  0.00  0.00    -0.049 A 
ATOM     23  C   UNL d   1       6.315   2.409   5.685  0.00  0.00     0.008 A 
ATOM     24  C   UNL d   1       7.047   2.878   6.780  0.00  0.00     0.007 A 
ATOM     25  C   UNL d   1       8.093   2.118   7.316  0.00  0.00    -0.062 A 
ATOM     26  C   UNL d   1       8.372   0.864   6.762  0.00  0.00     0.007 A 
ATOM     27  C   UNL d   1       8.927   2.673   8.431  0.00  0.00     0.048 C 
ATOM     28  C   UNL d   1       7.641   0.392   5.668  0.00  0.00     0.008 A 
ENDBRANCH  21  22
ENDBRANCH  20  21
ENDBRANCH   4  20
TORSDOF 4
