REMARK  2 active torsions:
REMARK  status: ('A' for Active; 'I' for Inactive)
REMARK    1  A    between atoms: C_3  and  C_1 
REMARK    2  A    between atoms: C_4  and  C_2 
ROOT
ATOM      1  C   UNL d   1       1.391  -0.221   0.003  0.00  0.00    -0.015 A 
ATOM      2  C   UNL d   1       0.496  -1.323   0.095  0.00  0.00    -0.015 A 
ATOM      3  C   UNL d   1       0.844   1.079  -0.105  0.00  0.00     0.013 A 
ATOM      4  C   UNL d   1      -0.895  -1.056   0.118  0.00  0.00     0.013 A 
ATOM      5  C   UNL d   1      -0.532   1.309  -0.096  0.00  0.00     0.001 A 
ATOM      6  C   UNL d   1      -1.403   0.239   0.025  0.00  0.00     0.001 A 
ENDROOT
BRANCH   1   7
ATOM      7  C   UNL d   1       2.870  -0.342   0.026  0.00  0.00    -0.025 A 
ATOM      8  C   UNL d   1       3.568  -1.187  -0.850  0.00  0.00     0.012 A 
ATOM      9  C   UNL d   1       4.960  -1.310  -0.780  0.00  0.00     0.001 A 
ATOM     10  C   UNL d   1       5.683  -0.565   0.149  0.00  0.00     0.000 A 
ATOM     11  C   UNL d   1       5.017   0.300   1.010  0.00  0.00     0.001 A 
ATOM     12  C   UNL d   1       3.626   0.406   0.951  0.00  0.00     0.012 A 
ENDBRANCH   1   7
BRANCH   2  13
ATOM     13  C   UNL d   1       0.922  -2.742   0.158  0.00  0.00    -0.025 A 
ATOM     14  C   UNL d   1       1.841  -3.210   1.110  0.00  0.00     0.012 A 
ATOM     15  C   UNL d   1       2.251  -4.547   1.125  0.00  0.00     0.001 A 
ATOM     16  C   UNL d   1       1.723  -5.451   0.205  0.00  0.00     0.000 A 
ATOM     17  C   UNL d   1       0.790  -5.020  -0.731  0.00  0.00     0.001 A 
ATOM     18  C   UNL d   1       0.399  -3.680  -0.757  0.00  0.00     0.012 A 
ENDBRANCH   2  13
TORSDOF 2
