REMARK  5 active torsions:
REMARK  status: ('A' for Active; 'I' for Inactive)
REMARK    1  A    between atoms: C_11  and  C_3 
REMARK    2  A    between atoms: C_12  and  C_8 
REMARK    3  A    between atoms: O_17  and  N_13 
REMARK    4  A    between atoms: C_15  and  O_17 
REMARK    5  A    between atoms: C_16  and  C_15 
ROOT
ATOM      1  C   UNL d   1       6.702   1.020  -0.324  0.00  0.00     0.172 A 
ATOM      2  N   UNL d   1       7.095  -0.081   0.381  0.00  0.00    -0.235 N 
ATOM      3  C   UNL d   1       8.693   1.284   0.260  0.00  0.00     0.207 A 
ATOM      4  N   UNL d   1       7.648   1.905  -0.431  0.00  0.00    -0.316 N 
ATOM      5  HN  UNL d   1       7.632   2.812  -0.896  1.00  0.00     0.169 HD
ATOM      6  N   UNL d   1       8.374   0.066   0.767  0.00  0.00    -0.273 N 
ATOM      7  HN  UNL d   1       8.957  -0.575   1.306  1.00  0.00     0.189 HD
ATOM      8  C   UNL d   1       4.961  -0.678  -0.037  0.00  0.00     0.057 A 
ATOM      9  C   UNL d   1       6.120  -1.050   0.552  0.00  0.00     0.052 A 
ATOM     10  S   UNL d   1       5.051   0.900  -0.834  0.00  0.00    -0.048 SA
ATOM     11  C   UNL d   1       6.426  -2.293   1.312  0.00  0.00     0.072 C 
ENDROOT
BRANCH   8  12
ATOM     12  C   UNL d   1       3.693  -1.474  -0.029  0.00  0.00     0.048 C 
ATOM     13  N   UNL d   1       3.782  -2.774  -0.025  0.00  0.00    -0.261 N 
ATOM     14  HN  UNL d   1       4.672  -3.271  -0.062  1.00  0.00     0.194 HD
ATOM     15  C   UNL d   1       2.359  -0.757   0.001  0.00  0.00     0.072 C 
BRANCH  13  16
ATOM     16  O   UNL d   1       2.537  -3.429   0.034  0.00  0.00    -0.195 OA
BRANCH  16  17
ATOM     17  C   UNL d   1       2.754  -4.781   0.099  0.00  0.00     0.315 C 
ATOM     18  O   UNL d   1       3.835  -5.357   0.078  0.00  0.00    -0.257 OA
BRANCH  17  19
ATOM     19  C   UNL d   1       1.474  -5.536   0.208  0.00  0.00     0.044 A 
ATOM     20  C   UNL d   1       1.544  -6.939   0.170  0.00  0.00     0.041 A 
ATOM     21  C   UNL d   1       0.383  -7.703   0.280  0.00  0.00     0.036 A 
ATOM     22 CL   UNL d   1       0.483  -9.419   0.230  0.00  0.00    -0.084 Cl
ATOM     23  C   UNL d   1      -0.856  -7.088   0.432  0.00  0.00     0.047 A 
ATOM     24  C   UNL d   1      -0.923  -5.697   0.475  0.00  0.00     0.036 A 
ATOM     25  C   UNL d   1       0.230  -4.915   0.364  0.00  0.00     0.041 A 
ATOM     26 CL   UNL d   1      -2.452  -4.932   0.673  0.00  0.00    -0.084 Cl
ENDBRANCH  17  19
ENDBRANCH  16  17
ENDBRANCH  13  16
ENDBRANCH   8  12
BRANCH   3  27
ATOM     27  C   UNL d   1      10.062   1.913   0.439  0.00  0.00     0.450 C 
ATOM     28  F   UNL d   1      10.160   3.143  -0.135  0.00  0.00    -0.163 F 
ATOM     29  F   UNL d   1      10.380   2.077   1.753  0.00  0.00    -0.163 F 
ATOM     30  F   UNL d   1      11.051   1.153  -0.108  0.00  0.00    -0.163 F 
ENDBRANCH   3  27
TORSDOF 5
