REMARK  3 active torsions:
REMARK  status: ('A' for Active; 'I' for Inactive)
REMARK    1  A    between atoms: C_7  and  C_3 
REMARK    2  A    between atoms: C_11  and  C_4 
REMARK    3  A    between atoms: N_8  and  C_12 
ROOT
ATOM      1  N   UNL d   1       1.327  -0.481  -0.565  0.00  0.00    -0.349 N 
ATOM      2  HN  UNL d   1       2.143  -0.888  -1.023  1.00  0.00     0.166 HD
ATOM      3  C   UNL d   1       0.160  -1.083  -0.431  0.00  0.00     0.085 A 
ATOM      4  C   UNL d   1       1.289   0.785   0.005  0.00  0.00     0.050 A 
ATOM      5  S   UNL d   1      -1.034  -0.160   0.411  0.00  0.00    -0.081 SA
ATOM      6  C   UNL d   1       0.073   1.129   0.563  0.00  0.00     0.082 A 
ENDROOT
BRANCH   4   7
ATOM      7  C   UNL d   1       2.442   1.679  -0.014  0.00  0.00    -0.009 A 
ATOM      8  C   UNL d   1       3.365   1.623  -1.059  0.00  0.00     0.016 A 
ATOM      9  C   UNL d   1       4.454   2.509  -1.098  0.00  0.00     0.030 A 
ATOM     10  C   UNL d   1       4.673   3.462  -0.093  0.00  0.00     0.030 A 
ATOM     11  C   UNL d   1       3.747   3.490   0.957  0.00  0.00     0.030 A 
ATOM     12  C   UNL d   1       2.650   2.620   1.000  0.00  0.00     0.016 A 
BRANCH  10  13
ATOM     13  N   UNL d   1       5.742   4.330  -0.135  0.00  0.00    -0.377 N 
ATOM     14  C   UNL d   1       6.438   4.810   1.068  0.00  0.00     0.149 C 
ATOM     15  C   UNL d   1       6.446   6.345   1.091  0.00  0.00     0.187 C 
ATOM     16  O   UNL d   1       7.004   6.889  -0.117  0.00  0.00    -0.388 OA
ATOM     17  C   UNL d   1       6.242   6.454  -1.258  0.00  0.00     0.187 C 
ATOM     18  C   UNL d   1       6.230   4.919  -1.389  0.00  0.00     0.149 C 
ENDBRANCH  10  13
ENDBRANCH   4   7
BRANCH   3  19
ATOM     19  C   UNL d   1      -0.148  -2.446  -0.901  0.00  0.00     0.001 A 
ATOM     20  C   UNL d   1       0.868  -3.415  -0.939  0.00  0.00     0.054 A 
ATOM     21  C   UNL d   1       0.597  -4.715  -1.375  0.00  0.00     0.103 A 
ATOM     22  O   UNL d   1       1.647  -5.598  -1.384  0.00  0.00    -0.346 OA
ATOM     23  C   UNL d   1      -0.698  -5.070  -1.765  0.00  0.00     0.102 A 
ATOM     24  C   UNL d   1       1.345  -6.759  -2.167  0.00  0.00     0.202 C 
ATOM     25  C   UNL d   1      -0.041  -7.289  -1.836  0.00  0.00     0.202 C 
ATOM     26  O   UNL d   1      -1.046  -6.329  -2.179  0.00  0.00    -0.346 OA
ATOM     27  C   UNL d   1      -1.710  -4.117  -1.758  0.00  0.00     0.040 A 
ATOM     28  C   UNL d   1      -1.437  -2.815  -1.331  0.00  0.00     0.017 A 
ENDBRANCH   3  19
TORSDOF 3
