REMARK  3 active torsions:
REMARK  status: ('A' for Active; 'I' for Inactive)
REMARK    1  A    between atoms: N_8  and  C_1 
REMARK    2  A    between atoms: C_6  and  C_5 
REMARK    3  A    between atoms: C_10  and  C_7 
ROOT
ATOM      1  C   UNL d   1      -0.214  -1.199   0.080  0.00  0.00     0.125 A 
ATOM      2  C   UNL d   1       0.572  -0.029   0.031  0.00  0.00     0.103 A 
ATOM      3  N   UNL d   1      -1.569  -1.130   0.004  0.00  0.00    -0.340 N 
ATOM      4  HN  UNL d   1      -2.127  -1.983   0.038  1.00  0.00     0.167 HD
ATOM      5  C   UNL d   1      -0.062   1.222  -0.039  0.00  0.00     0.074 A 
ATOM      6  C   UNL d   1      -2.178   0.074  -0.116  0.00  0.00     0.051 A 
ATOM      7  C   UNL d   1      -1.460   1.258  -0.100  0.00  0.00     0.048 A 
ATOM      8  C   UNL d   1       1.999  -0.113   0.108  0.00  0.00     0.104 C 
ATOM      9  N   UNL d   1       3.160  -0.175   0.108  0.00  0.00    -0.191 NA
ENDROOT
BRANCH   1  10
ATOM     10  N   UNL d   1       0.360  -2.443   0.337  0.00  0.00    -0.366 N 
ATOM     11  C   UNL d   1      -0.500  -3.451   0.968  0.00  0.00     0.124 C 
ATOM     12  C   UNL d   1       0.399  -4.402   1.768  0.00  0.00     0.020 C 
ATOM     13  C   UNL d   1       1.528  -4.989   0.916  0.00  0.00     0.003 C 
ATOM     14  C   UNL d   1       2.271  -3.905   0.132  0.00  0.00     0.020 C 
ATOM     15  C   UNL d   1       1.288  -3.024  -0.643  0.00  0.00     0.124 C 
ENDBRANCH   1  10
BRANCH   5  16
ATOM     16  C   UNL d   1       0.657   2.544  -0.027  0.00  0.00     0.419 C 
ATOM     17  F   UNL d   1       2.009   2.484   0.031  0.00  0.00    -0.166 F 
ATOM     18  F   UNL d   1       0.368   3.280  -1.137  0.00  0.00    -0.166 F 
ATOM     19  F   UNL d   1       0.276   3.311   1.032  0.00  0.00    -0.166 F 
ENDBRANCH   5  16
BRANCH   6  20
ATOM     20  C   UNL d   1      -3.641   0.029  -0.270  0.00  0.00     0.031 A 
ATOM     21  S   UNL d   1      -4.482   1.305  -1.070  0.00  0.00    -0.100 SA
ATOM     22  C   UNL d   1      -5.993   0.538  -0.885  0.00  0.00     0.050 A 
ATOM     23  C   UNL d   1      -5.881  -0.667  -0.232  0.00  0.00     0.008 A 
ATOM     24  C   UNL d   1      -4.528  -0.962   0.117  0.00  0.00     0.021 A 
ENDBRANCH   6  20
TORSDOF 3
