REMARK  2 active torsions:
REMARK  status: ('A' for Active; 'I' for Inactive)
REMARK    1  A    between atoms: C_9  and  C_1 
REMARK    2  A    between atoms: O_12  and  C_6 
ROOT
ATOM      1  C   UNL d   1      -0.678   1.149   0.013  0.00  0.00     0.134 A 
ATOM      2  N   UNL d   1      -1.397   0.011   0.046  0.00  0.00    -0.321 N 
ATOM      3  HN  UNL d   1      -2.417   0.011   0.066  1.00  0.00     0.169 HD
ATOM      4  N   UNL d   1       0.678   1.188  -0.004  0.00  0.00    -0.344 N 
ATOM      5  HN  UNL d   1       1.181   2.074  -0.022  1.00  0.00     0.167 HD
ATOM      6  C   UNL d   1      -0.685  -1.115   0.051  0.00  0.00     0.143 A 
ATOM      7  C   UNL d   1       0.680  -1.199   0.028  0.00  0.00     0.080 A 
ATOM      8  C   UNL d   1       1.338   0.008   0.003  0.00  0.00     0.011 A 
ATOM      9  C   UNL d   1       2.834   0.076  -0.021  0.00  0.00     0.068 C 
ENDROOT
BRANCH   1  10
ATOM     10  C   UNL d   1      -1.404   2.445  -0.038  0.00  0.00     0.076 A 
ATOM     11  N   UNL d   1      -2.769   2.404  -0.045  0.00  0.00    -0.363 N 
ATOM     12  C   UNL d   1      -3.442   3.572  -0.128  0.00  0.00     0.088 A 
ATOM     13  HN  UNL d   1      -3.267   1.515   0.010  1.00  0.00     0.165 HD
ATOM     14  C   UNL d   1      -2.831   4.810  -0.205  0.00  0.00     0.017 A 
ATOM     15  C   UNL d   1      -1.445   4.856  -0.187  0.00  0.00     0.004 A 
ATOM     16  C   UNL d   1      -0.724   3.666  -0.100  0.00  0.00     0.033 A 
ENDBRANCH   1  10
BRANCH   6  17
ATOM     17  O   UNL d   1      -1.440  -2.242   0.078  0.00  0.00    -0.346 OA
ATOM     18  H   UNL d   1      -2.332  -1.845   0.086  0.00  0.00     0.219 HD
ENDBRANCH   6  17
TORSDOF 2
