REMARK  2 active torsions:
REMARK  status: ('A' for Active; 'I' for Inactive)
REMARK    1  A    between atoms: N_3  and  C_1 
REMARK    2  A    between atoms: N_7  and  C_4 
REMARK       I    between atoms: C_9  and  N_7 
ROOT
ATOM      1  C   UNL d   1       0.037   1.161   0.039  0.00  0.00     0.162 A 
ATOM      2  S   UNL d   1      -0.952  -0.223   0.090  0.00  0.00    -0.028 SA
ATOM      3  C   UNL d   1       0.450  -1.187  -0.093  0.00  0.00     0.153 A 
ATOM      4  N   UNL d   1       1.591  -0.548  -0.163  0.00  0.00    -0.344 N 
ATOM      5  HN  UNL d   1       2.506  -0.986  -0.260  1.00  0.00     0.167 HD
ATOM      6  C   UNL d   1       1.361   0.814  -0.085  0.00  0.00     0.134 A 
ENDROOT
BRANCH   3   7
ATOM      7  N   UNL d   1       0.201  -2.530  -0.143  0.00  0.00    -0.307 N 
ATOM      8  C   UNL d   1       1.197  -3.451  -0.377  0.00  0.00     0.219 C 
ATOM      9  O   UNL d   1       2.380  -3.219  -0.605  0.00  0.00    -0.274 OA
ATOM     10  C   UNL d   1       0.696  -4.874  -0.358  0.00  0.00     0.117 C 
ATOM     11  H   UNL d   1      -0.759  -2.821  -0.041  0.00  0.00     0.171 HD
ENDBRANCH   3   7
BRANCH   1  12
ATOM     12  N   UNL d   1      -0.502   2.479   0.118  0.00  0.00    -0.107 N 
ATOM     13  O   UNL d   1       0.315   3.409   0.119  0.00  0.00    -0.531 OA
ATOM     14  O   UNL d   1      -1.732   2.603   0.177  0.00  0.00    -0.531 OA
ENDBRANCH   1  12
TORSDOF 2
