REMARK  1 active torsions:
REMARK  status: ('A' for Active; 'I' for Inactive)
REMARK    1  A    between atoms: C_8  and  C_3 
ROOT
ATOM      1  N   UNL d   1       1.226  -1.418   0.015  0.00  0.00    -0.335 N 
ATOM      2  HN  UNL d   1       1.254  -2.438   0.015  1.00  0.00     0.168 HD
ATOM      3  C   UNL d   1       2.311  -0.715  -0.007  0.00  0.00     0.162 A 
ATOM      4  O   UNL d   1       2.390   0.633   0.032  0.00  0.00    -0.257 OA
ATOM      5  C   UNL d   1       1.262   1.376   0.066  0.00  0.00     0.302 A 
ATOM      6  C   UNL d   1      -0.018   0.661   0.038  0.00  0.00     0.066 A 
ATOM      7  C   UNL d   1       0.018  -0.726   0.038  0.00  0.00     0.052 A 
ATOM      8  C   UNL d   1      -1.184  -1.435   0.020  0.00  0.00     0.054 A 
ATOM      9  C   UNL d   1      -1.232   1.358   0.003  0.00  0.00     0.022 A 
ATOM     10  O   UNL d   1       1.295   2.599   0.113  0.00  0.00    -0.259 OA
ATOM     11  C   UNL d   1      -2.400  -0.750  -0.016  0.00  0.00     0.036 A 
ATOM     12  C   UNL d   1      -2.429   0.644  -0.030  0.00  0.00     0.025 A 
ATOM     13 CL   UNL d   1      -3.876  -1.633  -0.058  0.00  0.00    -0.084 Cl
ENDROOT
BRANCH   3  14
ATOM     14  C   UNL d   1       3.669  -1.311  -0.112  0.00  0.00     0.016 A 
ATOM     15  C   UNL d   1       4.827  -0.515  -0.094  0.00  0.00     0.022 A 
ATOM     16  C   UNL d   1       6.094  -1.091  -0.257  0.00  0.00    -0.061 A 
ATOM     17  C   UNL d   1       7.327  -0.234  -0.275  0.00  0.00     0.048 C 
ATOM     18  C   UNL d   1       6.197  -2.475  -0.438  0.00  0.00     0.007 A 
ATOM     19  C   UNL d   1       5.053  -3.274  -0.445  0.00  0.00     0.002 A 
ATOM     20  C   UNL d   1       3.793  -2.695  -0.282  0.00  0.00     0.016 A 
ENDBRANCH   3  14
TORSDOF 1
