REMARK  5 active torsions:
REMARK  status: ('A' for Active; 'I' for Inactive)
REMARK    1  A    between atoms: C_7  and  C_1 
REMARK    2  A    between atoms: N_6  and  C_9 
REMARK       I    between atoms: N_14  and  C_7 
REMARK    3  A    between atoms: O_19  and  C_8 
REMARK    4  A    between atoms: N_10  and  N_14 
REMARK    5  A    between atoms: C_21  and  C_18 
ROOT
ATOM      1  C   UNL d   1      -0.697  -2.671   0.488  0.00  0.00     0.288 C 
ATOM      2  N   UNL d   1       0.279  -3.618   0.169  0.00  0.00    -0.265 N 
ATOM      3  O   UNL d   1      -0.436  -1.609   1.047  0.00  0.00    -0.264 OA
ATOM      4  H   UNL d   1       0.026  -4.495  -0.260  0.00  0.00     0.190 HD
ENDROOT
BRANCH   2   5
ATOM      5  N   UNL d   1       1.599  -3.349   0.401  0.00  0.00    -0.308 N 
ATOM      6  C   UNL d   1       2.438  -4.288   0.100  0.00  0.00     0.118 C 
ATOM      7  HN  UNL d   1       1.906  -2.457   0.789  1.00  0.00     0.186 HD
BRANCH   6   8
ATOM      8  C   UNL d   1       3.895  -4.102   0.283  0.00  0.00    -0.019 A 
ATOM      9  C   UNL d   1       4.401  -2.869   0.715  0.00  0.00     0.015 A 
ATOM     10  C   UNL d   1       5.777  -2.692   0.882  0.00  0.00     0.037 A 
ATOM     11  C   UNL d   1       6.646  -3.759   0.621  0.00  0.00     0.102 A 
ATOM     12  C   UNL d   1       6.145  -4.996   0.188  0.00  0.00     0.037 A 
ATOM     13  C   UNL d   1       4.766  -5.166   0.017  0.00  0.00     0.015 A 
BRANCH  11  14
ATOM     14  N   UNL d   1       8.093  -3.578   0.802  0.00  0.00    -0.116 N 
ATOM     15  O   UNL d   1       8.495  -2.466   1.174  0.00  0.00    -0.532 OA
ATOM     16  O   UNL d   1       8.827  -4.549   0.572  0.00  0.00    -0.532 OA
ENDBRANCH  11  14
ENDBRANCH   6   8
ENDBRANCH   2   5
BRANCH   1  17
ATOM     17  C   UNL d   1      -2.050  -3.046   0.107  0.00  0.00     0.123 A 
ATOM     18  N   UNL d   1      -3.174  -2.264   0.320  0.00  0.00    -0.289 N 
ATOM     19  N   UNL d   1      -4.321  -2.849  -0.088  0.00  0.00    -0.278 N 
ATOM     20  C   UNL d   1      -3.267  -0.946   0.904  0.00  0.00     0.178 C 
ATOM     21  C   UNL d   1      -3.916  -3.991  -0.609  0.00  0.00     0.157 A 
ATOM     22  HN  UNL d   1      -5.274  -2.492  -0.013  1.00  0.00     0.189 HD
ATOM     23  C   UNL d   1      -2.535  -4.183  -0.528  0.00  0.00     0.094 A 
BRANCH  21  24
ATOM     24  O   UNL d   1      -4.854  -4.782  -1.128  0.00  0.00    -0.345 OA
ATOM     25  H   UNL d   1      -4.447  -5.574  -1.506  0.00  0.00     0.219 HD
ENDBRANCH  21  24
ENDBRANCH   1  17
TORSDOF 5
