REMARK  6 active torsions:
REMARK  status: ('A' for Active; 'I' for Inactive)
REMARK    1  A    between atoms: C_9  and  C_1 
REMARK    2  A    between atoms: S_14  and  C_5 
REMARK    3  A    between atoms: S_8  and  C_11 
REMARK    4  A    between atoms: C_10  and  S_8 
REMARK    5  A    between atoms: C_11  and  C_21 
REMARK    6  A    between atoms: C_21  and  S_14 
ROOT
ATOM      1  S   UNL d   1       2.648  -1.803  -1.703  0.00  0.00    -0.091 SA
ENDROOT
BRANCH   1   2
ATOM      2  C   UNL d   1       1.979  -0.289  -1.202  0.00  0.00     0.162 A 
ATOM      3  N   UNL d   1       2.089   0.875  -1.923  0.00  0.00    -0.312 N 
ATOM      4  C   UNL d   1       1.355   1.812  -1.225  0.00  0.00     0.209 A 
ATOM      5  C   UNL d   1       2.829   1.022  -3.152  0.00  0.00     0.160 C 
ATOM      6  N   UNL d   1       0.885   1.234  -0.129  0.00  0.00    -0.279 N 
ATOM      7  N   UNL d   1       1.274  -0.079  -0.119  0.00  0.00    -0.278 N 
ATOM      8  HN  UNL d   1       0.325   1.692   0.590  1.00  0.00     0.188 HD
ATOM      9  HN  UNL d   1       1.055  -0.767   0.600  1.00  0.00     0.189 HD
BRANCH   4  10
ATOM     10  C   UNL d   1       1.097   3.227  -1.614  0.00  0.00     0.450 C 
ATOM     11  F   UNL d   1       1.656   3.587  -2.798  0.00  0.00    -0.163 F 
ATOM     12  F   UNL d   1      -0.233   3.478  -1.742  0.00  0.00    -0.163 F 
ATOM     13  F   UNL d   1       1.575   4.103  -0.692  0.00  0.00    -0.163 F 
ENDBRANCH   4  10
ENDBRANCH   1   2
BRANCH   1  14
ATOM     14  C   UNL d   1       2.369  -2.823  -0.216  0.00  0.00     0.098 C 
BRANCH  14  15
ATOM     15  C   UNL d   1       2.943  -4.229  -0.343  0.00  0.00     0.156 C 
BRANCH  15  16
ATOM     16  S   UNL d   1       4.721  -4.260  -0.234  0.00  0.00     0.176 S 
ATOM     17  O   UNL d   1       5.295  -3.647  -1.418  0.00  0.00    -0.223 OA
ATOM     18  O   UNL d   1       5.102  -3.811   1.092  0.00  0.00    -0.223 OA
BRANCH  16  19
ATOM     19  C   UNL d   1       5.120  -5.997  -0.333  0.00  0.00     0.059 A 
ATOM     20  C   UNL d   1       5.277  -6.591  -1.592  0.00  0.00     0.026 A 
ATOM     21  C   UNL d   1       5.652  -7.933  -1.675  0.00  0.00     0.044 A 
ATOM     22  C   UNL d   1       5.875  -8.658  -0.509  0.00  0.00     0.116 A 
ATOM     23  C   UNL d   1       5.736  -8.066   0.744  0.00  0.00     0.044 A 
ATOM     24  F   UNL d   1       6.242  -9.943  -0.593  0.00  0.00    -0.206 F 
ATOM     25  C   UNL d   1       5.361  -6.725   0.838  0.00  0.00     0.026 A 
ENDBRANCH  16  19
ENDBRANCH  15  16
ENDBRANCH  14  15
ENDBRANCH   1  14
TORSDOF 6
