REMARK  4 active torsions:
REMARK  status: ('A' for Active; 'I' for Inactive)
REMARK    1  A    between atoms: C_4  and  N_8 
REMARK       I    between atoms: C_7  and  N_8 
REMARK    2  A    between atoms: C_13  and  C_7 
REMARK    3  A    between atoms: S_11  and  C_13 
REMARK    4  A    between atoms: C_14  and  S_11 
ROOT
ATOM      1  C   UNL d   1      -2.618  -3.583   2.620  0.00  0.00     0.227 C 
ATOM      2  N   UNL d   1      -1.928  -2.555   2.013  0.00  0.00    -0.356 N 
ATOM      3  O   UNL d   1      -3.213  -4.452   1.984  0.00  0.00    -0.273 OA
ATOM      4  H   UNL d   1      -1.317  -1.978   2.582  0.00  0.00     0.162 HD
ENDROOT
BRANCH   1   5
ATOM      5  C   UNL d   1      -2.499  -3.669   4.141  0.00  0.00     0.182 C 
BRANCH   5   6
ATOM      6  S   UNL d   1      -3.349  -2.281   4.929  0.00  0.00    -0.121 SA
BRANCH   6   7
ATOM      7  C   UNL d   1      -3.279  -2.652   6.682  0.00  0.00     0.001 A 
ATOM      8  C   UNL d   1      -2.663  -3.763   7.273  0.00  0.00     0.021 A 
ATOM      9  C   UNL d   1      -2.673  -3.918   8.668  0.00  0.00     0.043 A 
ATOM     10  C   UNL d   1      -3.297  -2.965   9.464  0.00  0.00     0.116 A 
ATOM     11  C   UNL d   1      -3.917  -1.869   8.901  0.00  0.00     0.043 A 
ATOM     12  F   UNL d   1      -3.298  -3.117  10.798  0.00  0.00    -0.206 F 
ATOM     13  C   UNL d   1      -3.911  -1.714   7.513  0.00  0.00     0.021 A 
ENDBRANCH   6   7
ENDBRANCH   5   6
ENDBRANCH   1   5
BRANCH   2  14
ATOM     14  C   UNL d   1      -1.516  -2.697   0.603  0.00  0.00     0.088 C 
ATOM     15  C   UNL d   1      -0.991  -1.376  -0.050  0.00  0.00     0.061 C 
ATOM     16  C   UNL d   1       0.589  -1.307  -0.359  0.00  0.00     0.225 C 
ATOM     17  N   UNL d   1       0.780  -1.704   1.047  0.00  0.00     0.093 N 
ATOM     18  C   UNL d   1       1.884  -2.149  -0.793  0.00  0.00     0.038 C 
ATOM     19  C   UNL d   1       0.923  -3.160   1.072  0.00  0.00     0.225 C 
ATOM     20  C   UNL d   1       1.690  -0.845   1.782  0.00  0.00     0.310 C 
ATOM     21  C   UNL d   1      -0.408  -3.756   0.528  0.00  0.00     0.061 C 
ATOM     22  C   UNL d   1       2.005  -3.404   0.062  0.00  0.00     0.038 C 
ENDBRANCH   2  14
TORSDOF 4
