REMARK  8 active torsions:
REMARK  status: ('A' for Active; 'I' for Inactive)
REMARK    1  A    between atoms: C_2  and  C_1 
REMARK    2  A    between atoms: C_5  and  C_1 
REMARK    3  A    between atoms: C_4  and  C_2 
REMARK    4  A    between atoms: N_9  and  C_3 
REMARK    5  A    between atoms: S_17  and  C_3 
REMARK    6  A    between atoms: N_6  and  C_5 
REMARK    7  A    between atoms: C_19  and  N_9 
REMARK    8  A    between atoms: C_18  and  C_19 
ROOT
ATOM      1  C   UNL d   1       1.049   0.087   0.007  0.00  0.00     0.111 C 
ATOM      2  C   UNL d   1       0.481   1.040   0.795  0.00  0.00     0.089 C 
ENDROOT
BRANCH   2   3
ATOM      3  N   UNL d   1       1.229   2.038   1.452  0.00  0.00    -0.379 N 
ATOM      4  H   UNL d   1       2.214   1.816   1.589  0.00  0.00     0.160 HD
BRANCH   3   5
ATOM      5  C   UNL d   1       1.093   3.447   1.094  0.00  0.00     0.160 C 
BRANCH   5   6
ATOM      6  C   UNL d   1       1.363   4.304   2.297  0.00  0.00    -0.025 A 
ATOM      7  C   UNL d   1       0.403   4.422   3.299  0.00  0.00     0.096 A 
ATOM      8  N   UNL d   1       0.540   5.199   4.394  0.00  0.00    -0.375 N 
ATOM      9  C   UNL d   1       1.693   5.895   4.510  0.00  0.00     0.087 A 
ATOM     10  HN  UNL d   1      -0.193   5.259   5.101  1.00  0.00     0.164 HD
ATOM     11  C   UNL d   1       2.720   5.837   3.575  0.00  0.00     0.018 A 
ATOM     12  C   UNL d   1       2.548   5.027   2.455  0.00  0.00     0.011 A 
ENDBRANCH   5   6
ENDBRANCH   3   5
ENDBRANCH   2   3
BRANCH   2  13
ATOM     13  S   UNL d   1      -1.253   1.011   1.124  0.00  0.00    -0.115 SA
ATOM     14  C   UNL d   1      -1.158   0.522   2.880  0.00  0.00     0.097 C 
ENDBRANCH   2  13
BRANCH   1  15
ATOM     15  C   UNL d   1       0.392  -1.100  -0.629  0.00  0.00     0.211 C 
ATOM     16  O   UNL d   1      -0.445  -1.732   0.015  0.00  0.00    -0.285 OA
BRANCH  15  17
ATOM     17  C   UNL d   1       0.849  -1.507  -1.957  0.00  0.00     0.056 A 
ATOM     18  S   UNL d   1       0.471  -3.094  -2.503  0.00  0.00    -0.098 SA
ATOM     19  C   UNL d   1       1.318  -2.877  -3.968  0.00  0.00     0.050 A 
ATOM     20  C   UNL d   1       1.859  -1.616  -4.066  0.00  0.00     0.009 A 
ATOM     21  C   UNL d   1       1.578  -0.819  -2.915  0.00  0.00     0.023 A 
ENDBRANCH  15  17
ENDBRANCH   1  15
BRANCH   1  22
ATOM     22  C   UNL d   1       2.569   0.087   0.007  0.00  0.00    -0.030 C 
BRANCH  22  23
ATOM     23  N   UNL d   1       3.830   0.087   0.007  0.00  0.00    -0.365 N 
ATOM     24  HN2 UNL d   1       2.810   0.087   0.007  1.00  0.00     0.165 HD
ATOM     25  HN1 UNL d   1       4.850   0.087   0.007  1.00  0.00     0.165 HD
ENDBRANCH  22  23
ENDBRANCH   1  22
TORSDOF 8
