REMARK  4 active torsions:
REMARK  status: ('A' for Active; 'I' for Inactive)
REMARK    1  A    between atoms: C_2  and  C_1 
REMARK    2  A    between atoms: C_4  and  C_1 
REMARK    3  A    between atoms: N_5  and  C_3 
REMARK    4  A    between atoms: C_11  and  C_4 
ROOT
ATOM      1  C   UNL d   1       0.353  -0.645   1.208  0.00  0.00     0.010 A 
ATOM      2  C   UNL d   1      -1.135  -1.371   3.547  0.00  0.00     0.029 A 
ATOM      3  C   UNL d   1       0.673  -0.106   2.453  0.00  0.00     0.017 A 
ATOM      4  C   UNL d   1      -0.661  -1.594   1.133  0.00  0.00     0.017 A 
ATOM      5  C   UNL d   1      -1.389  -1.938   2.285  0.00  0.00     0.030 A 
ATOM      6  C   UNL d   1      -0.050  -0.478   3.599  0.00  0.00     0.030 A 
ENDROOT
BRANCH   1   7
ATOM      7  C   UNL d   1       1.064  -0.147  -0.002  0.00  0.00     0.163 C 
ATOM      8  O   UNL d   1       1.495   1.012  -0.003  0.00  0.00    -0.292 OA
BRANCH   7   9
ATOM      9  C   UNL d   1       1.296  -1.080  -1.167  0.00  0.00     0.122 C 
BRANCH   9  10
ATOM     10  C   UNL d   1       0.267  -1.041  -2.273  0.00  0.00    -0.051 A 
ATOM     11  C   UNL d   1      -0.027   0.148  -2.954  0.00  0.00     0.007 A 
ATOM     12  C   UNL d   1      -0.859   0.136  -4.079  0.00  0.00     0.001 A 
ATOM     13  C   UNL d   1      -1.409  -1.064  -4.532  0.00  0.00     0.000 A 
ATOM     14  C   UNL d   1      -1.152  -2.246  -3.843  0.00  0.00     0.001 A 
ATOM     15  C   UNL d   1      -0.319  -2.236  -2.724  0.00  0.00     0.007 A 
ENDBRANCH   9  10
ENDBRANCH   7   9
ENDBRANCH   1   7
BRANCH   2  16
ATOM     16  N   UNL d   1      -1.955  -1.616   4.641  0.00  0.00    -0.390 N 
ATOM     17  C   UNL d   1      -2.729  -2.849   4.777  0.00  0.00     0.149 C 
ATOM     18  C   UNL d   1      -1.851  -0.842   5.878  0.00  0.00     0.149 C 
ENDBRANCH   2  16
TORSDOF 4
