REMARK  3 active torsions:
REMARK  status: ('A' for Active; 'I' for Inactive)
REMARK       I    between atoms: N_2  and  C_1 
REMARK    1  A    between atoms: C_8  and  C_1 
REMARK    2  A    between atoms: N_4  and  N_2 
REMARK    3  A    between atoms: C_9  and  N_4 
ROOT
ATOM      1  N   UNL d   1       0.794   2.073   1.525  0.00  0.00    -0.203 NA
ATOM      2  H   UNL d   1       1.436   2.550   0.877  0.00  0.00     0.153 HD
ENDROOT
BRANCH   1   3
ATOM      3  N   UNL d   1      -0.034   1.193   0.798  0.00  0.00    -0.287 N 
ATOM      4  C   UNL d   1       0.497   0.700  -0.386  0.00  0.00     0.236 C 
ATOM      5  O   UNL d   1       1.517   1.211  -0.878  0.00  0.00    -0.272 OA
ATOM      6  H   UNL d   1      -0.785   0.734   1.296  0.00  0.00     0.184 HD
BRANCH   4   7
ATOM      7  C   UNL d   1      -0.235  -0.495  -1.040  0.00  0.00     0.079 C 
ATOM      8  C   UNL d   1      -0.952  -0.192  -2.383  0.00  0.00     0.014 C 
ATOM      9  C   UNL d   1      -2.007  -1.241  -1.998  0.00  0.00     0.002 C 
ATOM     10  C   UNL d   1      -1.601  -1.020  -0.528  0.00  0.00     0.014 C 
ENDBRANCH   4   7
ENDBRANCH   1   3
BRANCH   1  11
ATOM     11  C   UNL d   1       0.133   2.985   2.381  0.00  0.00     0.028 A 
ATOM     12  C   UNL d   1      -0.954   2.621   3.189  0.00  0.00     0.032 A 
ATOM     13  C   UNL d   1      -1.518   3.514   4.120  0.00  0.00    -0.054 A 
ATOM     14  C   UNL d   1      -2.685   3.064   4.957  0.00  0.00     0.049 C 
ATOM     15  C   UNL d   1      -0.967   4.801   4.268  0.00  0.00    -0.056 A 
ATOM     16  C   UNL d   1       0.139   5.159   3.488  0.00  0.00     0.009 A 
ATOM     17  C   UNL d   1      -1.520   5.785   5.262  0.00  0.00     0.049 C 
ATOM     18  C   UNL d   1       0.685   4.258   2.570  0.00  0.00     0.026 A 
ENDBRANCH   1  11
TORSDOF 3
