REMARK  2 active torsions:
REMARK  status: ('A' for Active; 'I' for Inactive)
REMARK       I    between atoms: N_3  and  C_1 
REMARK       I    between atoms: N_5  and  C_1 
REMARK    1  A    between atoms: C_2  and  N_4 
REMARK    2  A    between atoms: C_6  and  N_5 
ROOT
ATOM      1  C   UNL d   1       0.774   0.015  -0.118  0.00  0.00     0.322 C 
ATOM      2  N   UNL d   1       0.369   1.312  -0.453  0.00  0.00    -0.332 N 
ATOM      3  N   UNL d   1      -1.373   3.554  -1.403  0.00  0.00    -0.376 N 
ATOM      4  N   UNL d   1       1.677  -0.535  -1.004  0.00  0.00    -0.309 N 
ATOM      5  O   UNL d   1       0.352  -0.544   0.884  0.00  0.00    -0.247 OA
ATOM      6  C   UNL d   1      -0.580   1.985   0.432  0.00  0.00     0.147 C 
ATOM      7  C   UNL d   1      -1.760   2.704  -0.249  0.00  0.00     0.143 C 
ATOM      8  C   UNL d   1       0.286   2.229  -2.741  0.00  0.00     0.040 C 
ATOM      9  C   UNL d   1       1.039   2.179  -1.419  0.00  0.00     0.129 C 
ATOM     10  C   UNL d   1      -1.133   2.810  -2.656  0.00  0.00     0.125 C 
ATOM     11  H   UNL d   1       1.766  -0.077  -1.893  0.00  0.00     0.170 HD
ENDROOT
BRANCH   4  12
ATOM     12  C   UNL d   1       2.463  -1.692  -0.837  0.00  0.00     0.037 A 
ATOM     13  C   UNL d   1       2.413  -2.517   0.287  0.00  0.00     0.036 A 
ATOM     14  C   UNL d   1       3.278  -3.613   0.413  0.00  0.00    -0.059 A 
ATOM     15  C   UNL d   1       3.249  -4.465   1.647  0.00  0.00     0.048 C 
ATOM     16  C   UNL d   1       4.209  -3.873  -0.600  0.00  0.00     0.013 A 
ATOM     17  C   UNL d   1       4.268  -3.063  -1.738  0.00  0.00    -0.059 A 
ATOM     18  C   UNL d   1       3.386  -1.980  -1.851  0.00  0.00     0.036 A 
ATOM     19  C   UNL d   1       5.295  -3.334  -2.798  0.00  0.00     0.048 C 
ENDBRANCH   4  12
BRANCH   3  20
ATOM     20  C   UNL d   1      -1.805   4.893  -1.497  0.00  0.00     0.077 A 
ATOM     21  C   UNL d   1      -0.993   5.881  -2.119  0.00  0.00     0.077 A 
ATOM     22 CL   UNL d   1       0.529   5.556  -2.878  0.00  0.00    -0.080 Cl
ATOM     23  C   UNL d   1      -1.371   7.226  -2.100  0.00  0.00     0.113 A 
ATOM     24  N   UNL d   1      -2.482   7.698  -1.505  0.00  0.00    -0.372 N 
ATOM     25  C   UNL d   1      -3.278   6.763  -0.948  0.00  0.00     0.113 A 
ATOM     26  HN  UNL d   1      -2.707   8.692  -1.478  1.00  0.00     0.164 HD
ATOM     27  C   UNL d   1      -3.016   5.389  -0.948  0.00  0.00     0.077 A 
ATOM     28 CL   UNL d   1      -4.319   4.400  -0.367  0.00  0.00    -0.080 Cl
ENDBRANCH   3  20
TORSDOF 2
