REMARK  4 active torsions:
REMARK  status: ('A' for Active; 'I' for Inactive)
REMARK    1  A    between atoms: C_3  and  C_1 
REMARK       I    between atoms: N_4  and  C_1 
REMARK    2  A    between atoms: C_2  and  C_3 
REMARK       I    between atoms: N_5  and  C_2 
REMARK    3  A    between atoms: C_6  and  N_4 
REMARK    4  A    between atoms: C_7  and  N_5 
ROOT
ATOM      1  C   UNL d   1       0.324  -0.278   1.397  0.00  0.00     0.206 C 
ENDROOT
BRANCH   1   2
ATOM      2  C   UNL d   1       1.496  -0.725   2.237  0.00  0.00     0.231 C 
ATOM      3  N   UNL d   1       1.399  -0.286   3.549  0.00  0.00    -0.327 N 
ATOM      4  H   UNL d   1       0.563   0.227   3.803  0.00  0.00     0.169 HD
ATOM      5  O   UNL d   1       2.388  -1.429   1.777  0.00  0.00    -0.273 OA
BRANCH   3   6
ATOM      6  C   UNL d   1       2.315  -0.525   4.597  0.00  0.00     0.036 A 
ATOM      7  C   UNL d   1       3.541  -1.173   4.431  0.00  0.00     0.053 A 
ATOM      8  C   UNL d   1       4.377  -1.381   5.528  0.00  0.00     0.036 A 
ATOM      9 CL   UNL d   1       5.885  -2.186   5.312  0.00  0.00    -0.084 Cl
ATOM     10  C   UNL d   1       4.007  -0.946   6.798  0.00  0.00     0.024 A 
ATOM     11  C   UNL d   1       2.793  -0.288   6.971  0.00  0.00     0.004 A 
ATOM     12  C   UNL d   1       1.953  -0.075   5.874  0.00  0.00     0.029 A 
ENDBRANCH   3   6
ENDBRANCH   1   2
BRANCH   1  13
ATOM     13  C   UNL d   1       0.462  -0.299  -0.111  0.00  0.00     0.231 C 
ATOM     14  N   UNL d   1       1.628  -0.826  -0.622  0.00  0.00    -0.327 N 
ATOM     15  H   UNL d   1       2.243  -1.300   0.044  0.00  0.00     0.169 HD
ATOM     16  O   UNL d   1      -0.476   0.125  -0.784  0.00  0.00    -0.273 OA
BRANCH  14  17
ATOM     17  C   UNL d   1       1.997  -0.923  -1.978  0.00  0.00     0.036 A 
ATOM     18  C   UNL d   1       1.361  -0.222  -3.005  0.00  0.00     0.053 A 
ATOM     19  C   UNL d   1       1.768  -0.402  -4.327  0.00  0.00     0.036 A 
ATOM     20 CL   UNL d   1       0.983   0.471  -5.588  0.00  0.00    -0.084 Cl
ATOM     21  C   UNL d   1       2.803  -1.279  -4.641  0.00  0.00     0.024 A 
ATOM     22  C   UNL d   1       3.458  -1.962  -3.619  0.00  0.00     0.004 A 
ATOM     23  C   UNL d   1       3.066  -1.773  -2.292  0.00  0.00     0.029 A 
ENDBRANCH  14  17
ENDBRANCH   1  13
TORSDOF 4
