REMARK  5 active torsions:
REMARK  status: ('A' for Active; 'I' for Inactive)
REMARK    1  A    between atoms: C_13  and  C_1 
REMARK    2  A    between atoms: C_2  and  C_7 
REMARK    3  A    between atoms: C_16  and  C_3 
REMARK    4  A    between atoms: C_8  and  N_4 
REMARK    5  A    between atoms: N_12  and  C_13 
ROOT
ATOM      1  N   UNL d   1       3.413  -1.951  -0.292  0.00  0.00    -0.364 N 
ATOM      2  N   UNL d   1       3.360   0.998  -0.253  0.00  0.00     0.096 N 
ATOM      3  C   UNL d   1       3.597  -1.246   0.976  0.00  0.00     0.154 C 
ATOM      4  C   UNL d   1       2.774  -1.222  -1.391  0.00  0.00     0.154 C 
ATOM      5  C   UNL d   1       4.105   0.202   0.749  0.00  0.00     0.292 C 
ATOM      6  C   UNL d   1       3.322   0.216  -1.512  0.00  0.00     0.292 C 
ENDROOT
BRANCH   2   7
ATOM      7  C   UNL d   1       2.034   1.367   0.257  0.00  0.00     0.315 C 
BRANCH   7   8
ATOM      8  C   UNL d   1       1.299   2.269  -0.684  0.00  0.00     0.016 A 
ATOM      9  C   UNL d   1       1.695   3.512  -1.285  0.00  0.00     0.067 A 
ATOM     10  N   UNL d   1       0.731   3.969  -2.105  0.00  0.00    -0.300 N 
ATOM     11  N   UNL d   1      -0.257   3.076  -2.008  0.00  0.00    -0.311 N 
ATOM     12  HN  UNL d   1       0.751   4.814  -2.677  1.00  0.00     0.187 HD
ATOM     13  C   UNL d   1       0.023   2.046  -1.169  0.00  0.00     0.118 A 
ATOM     14  H   UNL d   1      -1.100   3.236  -2.548  0.00  0.00     0.186 HD
BRANCH   9  15
ATOM     15  C   UNL d   1       2.935   4.279  -1.132  0.00  0.00    -0.007 A 
ATOM     16  C   UNL d   1       3.512   4.900  -2.255  0.00  0.00     0.017 A 
ATOM     17  C   UNL d   1       4.673   5.666  -2.128  0.00  0.00     0.043 A 
ATOM     18  C   UNL d   1       5.259   5.817  -0.878  0.00  0.00     0.116 A 
ATOM     19  C   UNL d   1       4.704   5.217   0.247  0.00  0.00     0.043 A 
ATOM     20  F   UNL d   1       6.367   6.558  -0.751  0.00  0.00    -0.206 F 
ATOM     21  C   UNL d   1       3.541   4.450   0.120  0.00  0.00     0.017 A 
ENDBRANCH   9  15
ENDBRANCH   7   8
ENDBRANCH   2   7
BRANCH   1  22
ATOM     22  C   UNL d   1       3.878  -3.230  -0.500  0.00  0.00     0.103 A 
ATOM     23  N   UNL d   1       4.292  -3.574  -1.738  0.00  0.00    -0.352 N 
ATOM     24  C   UNL d   1       4.819  -4.807  -1.940  0.00  0.00     0.106 A 
ATOM     25  HN  UNL d   1       4.210  -2.914  -2.512  1.00  0.00     0.166 HD
ATOM     26  C   UNL d   1       4.936  -5.770  -0.957  0.00  0.00     0.063 A 
ATOM     27  C   UNL d   1       4.460  -5.438   0.308  0.00  0.00     0.021 A 
ATOM     28  C   UNL d   1       3.939  -4.162   0.535  0.00  0.00     0.049 A 
BRANCH  26  29
ATOM     29  C   UNL d   1       5.546  -7.106  -1.244  0.00  0.00     0.418 C 
ATOM     30  F   UNL d   1       6.019  -7.232  -2.514  0.00  0.00    -0.166 F 
ATOM     31  F   UNL d   1       6.600  -7.382  -0.427  0.00  0.00    -0.166 F 
ATOM     32  F   UNL d   1       4.666  -8.130  -1.070  0.00  0.00    -0.166 F 
ENDBRANCH  26  29
ENDBRANCH   1  22
TORSDOF 5
