REMARK  3 active torsions:
REMARK  status: ('A' for Active; 'I' for Inactive)
REMARK    1  A    between atoms: C_5  and  C_1 
REMARK    2  A    between atoms: S_16  and  C_6 
REMARK    3  A    between atoms: C_11  and  C_12 
ROOT
ATOM      1  C   UNL d   1      -0.353  -2.756   0.084  0.00  0.00     0.100 A 
ATOM      2  N   UNL d   1      -0.965  -3.313  -1.002  0.00  0.00    -0.361 N 
ATOM      3  HN  UNL d   1      -1.276  -2.735  -1.783  1.00  0.00     0.165 HD
ATOM      4  C   UNL d   1      -0.738  -5.498   0.010  0.00  0.00     0.065 A 
ATOM      5  C   UNL d   1       0.078  -3.529   1.165  0.00  0.00     0.065 A 
ATOM      6  C   UNL d   1      -0.120  -4.913   1.118  0.00  0.00     0.043 A 
ATOM      7  C   UNL d   1      -1.145  -4.655  -1.010  0.00  0.00     0.104 A 
ATOM      8 CL   UNL d   1       0.807  -2.888   2.591  0.00  0.00    -0.082 Cl
ENDROOT
BRANCH   1   9
ATOM      9  C   UNL d   1      -0.147  -1.306  -0.021  0.00  0.00     0.152 A 
ATOM     10  N   UNL d   1      -0.939  -0.398  -0.704  0.00  0.00    -0.314 N 
ATOM     11  C   UNL d   1      -0.304   0.813  -0.585  0.00  0.00     0.159 A 
ATOM     12  C   UNL d   1      -2.190  -0.639  -1.373  0.00  0.00     0.160 C 
ATOM     13  N   UNL d   1       0.768   0.683   0.150  0.00  0.00    -0.278 N 
ATOM     14  N   UNL d   1       0.870  -0.639   0.503  0.00  0.00    -0.281 N 
ATOM     15  HN  UNL d   1       1.412   1.428   0.413  1.00  0.00     0.189 HD
ATOM     16  HN  UNL d   1       1.610  -1.043   1.077  1.00  0.00     0.188 HD
BRANCH  11  17
ATOM     17  S   UNL d   1      -0.830   2.301  -1.293  0.00  0.00    -0.105 SA
ATOM     18  H   UNL d   1      -1.853   1.870  -2.041  0.00  0.00     0.110 HD
ENDBRANCH  11  17
ENDBRANCH   1   9
BRANCH   4  19
ATOM     19  C   UNL d   1      -0.974  -6.972  -0.106  0.00  0.00     0.418 C 
ATOM     20  F   UNL d   1      -0.489  -7.685   0.946  0.00  0.00    -0.166 F 
ATOM     21  F   UNL d   1      -2.298  -7.278  -0.189  0.00  0.00    -0.166 F 
ATOM     22  F   UNL d   1      -0.397  -7.503  -1.218  0.00  0.00    -0.166 F 
ENDBRANCH   4  19
TORSDOF 3
