REMARK  4 active torsions:
REMARK  status: ('A' for Active; 'I' for Inactive)
REMARK    1  A    between atoms: C_10  and  N_1 
REMARK    2  A    between atoms: S_2  and  C_9 
REMARK    3  A    between atoms: N_8  and  S_2 
REMARK    4  A    between atoms: C_14  and  C_3 
ROOT
ATOM      1  N   UNL d   1       0.967  -0.715  -0.066  0.00  0.00    -0.271 N 
ATOM      2  C   UNL d   1       0.863   0.594   0.365  0.00  0.00     0.139 A 
ATOM      3  N   UNL d   1      -0.348   1.080   0.310  0.00  0.00    -0.282 N 
ATOM      4  HN  UNL d   1      -0.660   2.008   0.594  1.00  0.00     0.188 HD
ATOM      5  C   UNL d   1      -0.325  -1.057  -0.446  0.00  0.00     0.199 A 
ATOM      6  N   UNL d   1      -1.102   0.073  -0.213  0.00  0.00    -0.274 N 
ATOM      7  S   UNL d   1      -1.000  -2.476  -0.985  0.00  0.00    -0.039 SA
ATOM      8  H   UNL d   1      -2.100   0.158  -0.342  0.00  0.00     0.189 HD
ENDROOT
BRANCH   1   9
ATOM      9  C   UNL d   1       2.095  -1.569  -0.025  0.00  0.00     0.043 A 
ATOM     10  C   UNL d   1       2.986  -1.536   1.061  0.00  0.00     0.031 A 
ATOM     11  C   UNL d   1       4.178  -2.263   1.039  0.00  0.00     0.027 A 
ATOM     12  C   UNL d   1       4.459  -3.088  -0.049  0.00  0.00     0.074 A 
ATOM     13  C   UNL d   1       3.572  -3.167  -1.124  0.00  0.00     0.027 A 
ATOM     14  C   UNL d   1       2.395  -2.413  -1.106  0.00  0.00     0.031 A 
BRANCH  12  15
ATOM     15  S   UNL d   1       5.985  -4.009  -0.089  0.00  0.00     0.243 S 
ATOM     16  O   UNL d   1       6.281  -4.287  -1.478  0.00  0.00    -0.206 OA
ATOM     17  O   UNL d   1       6.932  -3.304   0.750  0.00  0.00    -0.206 OA
BRANCH  15  18
ATOM     18  N   UNL d   1       5.557  -5.473   0.680  0.00  0.00    -0.206 NA
ATOM     19  C   UNL d   1       5.263  -5.372   2.133  0.00  0.00     0.107 C 
ATOM     20  C   UNL d   1       5.215  -6.762   2.759  0.00  0.00     0.015 C 
ATOM     21  C   UNL d   1       4.214  -7.657   2.036  0.00  0.00     0.002 C 
ATOM     22  C   UNL d   1       4.542  -7.718   0.549  0.00  0.00     0.015 C 
ATOM     23  C   UNL d   1       4.585  -6.320  -0.058  0.00  0.00     0.107 C 
ENDBRANCH  15  18
ENDBRANCH  12  15
ENDBRANCH   1   9
BRANCH   2  24
ATOM     24  C   UNL d   1       1.996   1.426   0.819  0.00  0.00     0.013 A 
ATOM     25  C   UNL d   1       3.255   1.364   0.222  0.00  0.00     0.032 A 
ATOM     26  C   UNL d   1       4.282   2.093   0.791  0.00  0.00     0.088 A 
ATOM     27  N   UNL d   1       4.116   2.917   1.847  0.00  0.00    -0.375 N 
ATOM     28  C   UNL d   1       2.868   3.030   2.349  0.00  0.00     0.088 A 
ATOM     29  HN  UNL d   1       4.900   3.431   2.249  1.00  0.00     0.164 HD
ATOM     30  C   UNL d   1       1.784   2.313   1.877  0.00  0.00     0.032 A 
ENDBRANCH   2  24
TORSDOF 4
