REMARK  4 active torsions:
REMARK  status: ('A' for Active; 'I' for Inactive)
REMARK    1  A    between atoms: N_2  and  C_1 
REMARK       I    between atoms: C_3  and  N_2 
REMARK    2  A    between atoms: C_13  and  C_3 
REMARK    3  A    between atoms: C_5  and  S_9 
REMARK    4  A    between atoms: S_9  and  C_13 
ROOT
ATOM      1  N   UNL d   1       1.750  -2.416   0.198  0.00  0.00    -0.326 N 
ATOM      2  C   UNL d   1       3.100  -2.605   0.462  0.00  0.00     0.231 C 
ATOM      3  O   UNL d   1       3.862  -1.779   0.960  0.00  0.00    -0.272 OA
ATOM      4  H   UNL d   1       1.242  -3.261  -0.033  0.00  0.00     0.169 HD
ENDROOT
BRANCH   2   5
ATOM      5  C   UNL d   1       3.605  -3.984   0.054  0.00  0.00     0.184 C 
BRANCH   5   6
ATOM      6  S   UNL d   1       4.151  -4.932   1.505  0.00  0.00    -0.103 SA
BRANCH   6   7
ATOM      7  C   UNL d   1       2.600  -5.132   2.355  0.00  0.00     0.069 A 
ATOM      8  N   UNL d   1       1.467  -5.201   1.614  0.00  0.00    -0.361 N 
ATOM      9  C   UNL d   1       0.316  -5.424   2.287  0.00  0.00     0.089 A 
ATOM     10  HN  UNL d   1       1.482  -5.090   0.601  1.00  0.00     0.165 HD
ATOM     11  C   UNL d   1       0.232  -5.568   3.666  0.00  0.00     0.017 A 
ATOM     12  C   UNL d   1       1.406  -5.485   4.402  0.00  0.00     0.004 A 
ATOM     13  C   UNL d   1       2.608  -5.272   3.740  0.00  0.00     0.037 A 
ENDBRANCH   6   7
ENDBRANCH   5   6
ENDBRANCH   2   5
BRANCH   1  14
ATOM     14  C   UNL d   1       0.986  -1.240   0.393  0.00  0.00     0.043 A 
ATOM     15  C   UNL d   1       1.583  -0.025   0.756  0.00  0.00     0.072 A 
ATOM     16  C   UNL d   1       0.812   1.116   0.952  0.00  0.00     0.118 A 
ATOM     17  F   UNL d   1       1.408   2.263   1.304  0.00  0.00    -0.206 F 
ATOM     18  C   UNL d   1      -0.564   1.090   0.786  0.00  0.00     0.043 A 
ATOM     19  C   UNL d   1      -1.173  -0.100   0.402  0.00  0.00     0.012 A 
ATOM     20  C   UNL d   1      -0.417  -1.277   0.210  0.00  0.00    -0.035 A 
ATOM     21  C   UNL d   1      -1.175  -2.493  -0.254  0.00  0.00     0.050 C 
ENDBRANCH   1  14
TORSDOF 4
