REMARK  5 active torsions:
REMARK  status: ('A' for Active; 'I' for Inactive)
REMARK    1  A    between atoms: N_6  and  C_1 
REMARK    2  A    between atoms: C_9  and  N_2 
REMARK       I    between atoms: C_5  and  N_7 
REMARK    3  A    between atoms: C_8  and  C_5 
REMARK    4  A    between atoms: N_7  and  N_6 
REMARK    5  A    between atoms: C_15  and  C_9 
ROOT
ATOM      1  C   UNL d   1      -0.265  -1.246   0.024  0.00  0.00     0.170 A 
ATOM      2  N   UNL d   1       0.989  -0.710   0.060  0.00  0.00    -0.351 N 
ATOM      3  N   UNL d   1      -1.255  -0.411  -0.158  0.00  0.00    -0.364 N 
ATOM      4  HN  UNL d   1      -2.248  -0.629  -0.233  1.00  0.00     0.162 HD
ATOM      5  C   UNL d   1      -0.611   0.931  -0.231  0.00  0.00     0.142 A 
ATOM      6  C   UNL d   1       0.894   0.729  -0.014  0.00  0.00     0.145 A 
ENDROOT
BRANCH   1   7
ATOM      7  N   UNL d   1      -0.367  -2.608   0.136  0.00  0.00    -0.173 NA
ATOM      8  H   UNL d   1      -0.053  -2.950   1.049  0.00  0.00     0.156 HD
BRANCH   7   9
ATOM      9  N   UNL d   1      -1.625  -3.130  -0.195  0.00  0.00    -0.280 N 
ATOM     10  C   UNL d   1      -2.152  -4.130   0.593  0.00  0.00     0.266 C 
ATOM     11  O   UNL d   1      -1.620  -4.534   1.622  0.00  0.00    -0.266 OA
ATOM     12  H   UNL d   1      -1.967  -2.876  -1.115  0.00  0.00     0.184 HD
BRANCH  10  13
ATOM     13  C   UNL d   1      -3.405  -4.750   0.084  0.00  0.00     0.035 A 
ATOM     14  C   UNL d   1      -3.638  -6.104   0.355  0.00  0.00     0.041 A 
ATOM     15  C   UNL d   1      -4.792  -6.715  -0.133  0.00  0.00     0.035 A 
ATOM     16 CL   UNL d   1      -5.074  -8.384   0.179  0.00  0.00    -0.084 Cl
ATOM     17  C   UNL d   1      -5.721  -5.988  -0.876  0.00  0.00     0.024 A 
ATOM     18  C   UNL d   1      -5.500  -4.635  -1.132  0.00  0.00     0.003 A 
ATOM     19  C   UNL d   1      -4.345  -4.013  -0.652  0.00  0.00     0.017 A 
ENDBRANCH  10  13
ENDBRANCH   7   9
ENDBRANCH   1   7
BRANCH   2  20
ATOM     20  C   UNL d   1       2.237  -1.374  -0.258  0.00  0.00     0.164 C 
BRANCH  20  21
ATOM     21  C   UNL d   1       2.579  -1.463  -1.737  0.00  0.00    -0.040 A 
ATOM     22  C   UNL d   1       3.933  -1.461  -2.124  0.00  0.00     0.009 A 
ATOM     23  C   UNL d   1       4.306  -1.637  -3.459  0.00  0.00     0.001 A 
ATOM     24  C   UNL d   1       3.331  -1.830  -4.435  0.00  0.00     0.000 A 
ATOM     25  C   UNL d   1       1.989  -1.841  -4.076  0.00  0.00     0.001 A 
ATOM     26  C   UNL d   1       1.612  -1.664  -2.740  0.00  0.00     0.009 A 
ENDBRANCH  20  21
ENDBRANCH   2  20
TORSDOF 5
