REMARK  4 active torsions:
REMARK  status: ('A' for Active; 'I' for Inactive)
REMARK    1  A    between atoms: C_7  and  N_2 
REMARK    2  A    between atoms: C_11  and  N_3 
REMARK    3  A    between atoms: N_10  and  C_4 
REMARK    4  A    between atoms: C_18  and  C_11 
ROOT
ATOM      1  C   UNL d   1      -0.794   1.175  -0.077  0.00  0.00     0.337 A 
ATOM      2  N   UNL d   1      -1.425  -0.086  -0.003  0.00  0.00    -0.254 N 
ATOM      3  N   UNL d   1       0.597   1.176  -0.039  0.00  0.00    -0.266 N 
ATOM      4  C   UNL d   1      -0.705  -1.275   0.113  0.00  0.00     0.094 A 
ATOM      5  C   UNL d   1       0.635  -1.231   0.101  0.00  0.00     0.117 A 
ATOM      6  C   UNL d   1       1.363   0.035  -0.009  0.00  0.00     0.254 A 
ATOM      7  O   UNL d   1      -1.424   2.235  -0.140  0.00  0.00    -0.246 OA
ATOM      8  O   UNL d   1       2.589   0.006  -0.059  0.00  0.00    -0.268 OA
ENDROOT
BRANCH   2   9
ATOM      9  C   UNL d   1      -2.861  -0.077   0.013  0.00  0.00     0.045 A 
ATOM     10  C   UNL d   1      -3.574   0.505  -1.046  0.00  0.00     0.032 A 
ATOM     11  C   UNL d   1      -4.971   0.510  -1.039  0.00  0.00     0.026 A 
ATOM     12  C   UNL d   1      -5.659  -0.043   0.038  0.00  0.00     0.034 A 
ATOM     13  C   UNL d   1      -4.963  -0.616   1.102  0.00  0.00     0.026 A 
ATOM     14 CL   UNL d   1      -7.379  -0.017   0.057  0.00  0.00    -0.084 Cl
ATOM     15  C   UNL d   1      -3.566  -0.644   1.083  0.00  0.00     0.032 A 
ENDBRANCH   2   9
BRANCH   4  16
ATOM     16  N   UNL d   1      -1.322  -2.516   0.188  0.00  0.00    -0.288 NA
ATOM     17  H   UNL d   1      -2.223  -2.530  -0.289  0.00  0.00     0.125 HD
ATOM     18  H   UNL d   1      -0.737  -3.297  -0.095  0.00  0.00     0.125 HD
ENDBRANCH   4  16
BRANCH   3  19
ATOM     19  C   UNL d   1       1.291   2.462  -0.002  0.00  0.00     0.137 C 
BRANCH  19  20
ATOM     20  C   UNL d   1       1.733   2.979  -1.374  0.00  0.00     0.016 C 
ATOM     21  C   UNL d   1       0.578   3.359  -2.289  0.00  0.00     0.006 C 
ENDBRANCH  19  20
ENDBRANCH   3  19
TORSDOF 4
