REMARK  9 active torsions:
REMARK  status: ('A' for Active; 'I' for Inactive)
REMARK    1  A    between atoms: C_12  and  C_1 
REMARK    2  A    between atoms: N_15  and  C_3 
REMARK    3  A    between atoms: C_13  and  C_8 
REMARK    4  A    between atoms: S_14  and  C_9 
REMARK    5  A    between atoms: O_19  and  C_12 
REMARK    6  A    between atoms: C_20  and  S_14 
REMARK    7  A    between atoms: C_26  and  O_19 
REMARK    8  A    between atoms: C_24  and  C_20 
REMARK    9  A    between atoms: O_25  and  C_21 
ROOT
ATOM      1  C   UNL d   1      -2.472  -0.652   0.079  0.00  0.00     0.109 C 
ATOM      2  C   UNL d   1      -0.112  -0.871   0.073  0.00  0.00     0.053 A 
ATOM      3  C   UNL d   1      -1.399  -1.522   0.198  0.00  0.00     0.064 C 
ATOM      4  C   UNL d   1      -0.293   0.505   0.075  0.00  0.00     0.091 A 
ATOM      5  S   UNL d   1      -1.931   0.966   0.022  0.00  0.00    -0.063 SA
ATOM      6  N   UNL d   1       0.661   1.453   0.080  0.00  0.00    -0.330 N 
ATOM      7  HN  UNL d   1       0.456   2.452   0.093  1.00  0.00     0.168 HD
ATOM      8  C   UNL d   1       1.234  -1.286  -0.043  0.00  0.00     0.059 A 
ATOM      9  C   UNL d   1       1.899   0.960   0.064  0.00  0.00     0.145 A 
ATOM     10  N   UNL d   1       2.217  -0.343  -0.010  0.00  0.00    -0.335 N 
ATOM     11  HN  UNL d   1       3.197  -0.627  -0.041  1.00  0.00     0.168 HD
ENDROOT
BRANCH   8  12
ATOM     12  C   UNL d   1       1.669  -2.678  -0.278  0.00  0.00    -0.008 A 
ATOM     13  C   UNL d   1       0.912  -3.587  -1.039  0.00  0.00     0.016 A 
ATOM     14  C   UNL d   1       1.297  -4.923  -1.214  0.00  0.00     0.037 A 
ATOM     15  C   UNL d   1       2.509  -5.368  -0.704  0.00  0.00     0.068 A 
ATOM     16  C   UNL d   1       3.329  -4.463  -0.032  0.00  0.00     0.037 A 
ATOM     17  C   UNL d   1       2.909  -3.143   0.193  0.00  0.00     0.016 A 
BRANCH  15  18
ATOM     18  O   UNL d   1       3.014  -6.629  -0.856  0.00  0.00    -0.356 OA
ATOM     19  C   UNL d   1       2.055  -7.670  -1.011  0.00  0.00     0.210 C 
ENDBRANCH  15  18
ENDBRANCH   8  12
BRANCH   3  20
ATOM     20  N   UNL d   1      -1.582  -2.850   0.395  0.00  0.00    -0.397 N 
ATOM     21  H   UNL d   1      -0.859  -3.462   0.765  0.00  0.00     0.156 HD
ATOM     22  H   UNL d   1      -2.522  -3.250   0.479  0.00  0.00     0.156 HD
ENDBRANCH   3  20
BRANCH   9  23
ATOM     23  S   UNL d   1       3.275   2.094   0.037  0.00  0.00    -0.089 SA
BRANCH  23  24
ATOM     24  C   UNL d   1       2.557   3.520   0.909  0.00  0.00     0.121 C 
BRANCH  24  25
ATOM     25  C   UNL d   1       3.537   4.672   1.029  0.00  0.00    -0.049 A 
ATOM     26  C   UNL d   1       3.595   5.667   0.040  0.00  0.00     0.008 A 
ATOM     27  C   UNL d   1       4.477   6.745   0.159  0.00  0.00     0.001 A 
ATOM     28  C   UNL d   1       5.321   6.839   1.264  0.00  0.00     0.000 A 
ATOM     29  C   UNL d   1       5.285   5.851   2.247  0.00  0.00     0.001 A 
ATOM     30  C   UNL d   1       4.402   4.772   2.129  0.00  0.00     0.008 A 
ENDBRANCH  24  25
ENDBRANCH  23  24
ENDBRANCH   9  23
BRANCH   1  31
ATOM     31  C   UNL d   1      -3.882  -1.014   0.039  0.00  0.00     0.302 C 
ATOM     32  O   UNL d   1      -4.308  -2.163   0.084  0.00  0.00    -0.259 OA
BRANCH  31  33
ATOM     33  O   UNL d   1      -4.686   0.086  -0.045  0.00  0.00    -0.317 OA
BRANCH  33  34
ATOM     34  C   UNL d   1      -6.098  -0.175  -0.069  0.00  0.00     0.174 C 
ATOM     35  C   UNL d   1      -6.613  -0.384   1.345  0.00  0.00     0.034 C 
ENDBRANCH  33  34
ENDBRANCH  31  33
ENDBRANCH   1  31
TORSDOF 9
