REMARK  3 active torsions:
REMARK  status: ('A' for Active; 'I' for Inactive)
REMARK    1  A    between atoms: C_7  and  C_1 
REMARK    2  A    between atoms: C_8  and  C_4 
REMARK    3  A    between atoms: N_9  and  C_5 
ROOT
ATOM      1  C   UNL d   1      -0.019  -1.246   0.003  0.00  0.00     0.048 A 
ATOM      2  N   UNL d   1      -1.410   0.580   0.094  0.00  0.00    -0.297 N 
ATOM      3  HN  UNL d   1      -2.231   1.185   0.122  1.00  0.00     0.187 HD
ATOM      4  C   UNL d   1      -1.376  -0.766   0.096  0.00  0.00     0.073 A 
ATOM      5  C   UNL d   1       0.753  -0.097  -0.043  0.00  0.00     0.127 A 
ATOM      6  N   UNL d   1      -0.124   0.944   0.046  0.00  0.00    -0.285 N 
ATOM      7  H   UNL d   1       0.093   1.932   0.060  0.00  0.00     0.188 HD
ENDROOT
BRANCH   1   8
ATOM      8  C   UNL d   1       0.520  -2.602  -0.073  0.00  0.00    -0.020 A 
ATOM      9  C   UNL d   1      -0.109  -3.578  -0.859  0.00  0.00     0.012 A 
ATOM     10  C   UNL d   1       0.378  -4.888  -0.895  0.00  0.00     0.001 A 
ATOM     11  C   UNL d   1       1.516  -5.232  -0.170  0.00  0.00     0.000 A 
ATOM     12  C   UNL d   1       2.165  -4.268   0.598  0.00  0.00     0.001 A 
ATOM     13  C   UNL d   1       1.662  -2.966   0.657  0.00  0.00     0.012 A 
ENDBRANCH   1   8
BRANCH   4  14
ATOM     14  C   UNL d   1      -2.633  -1.518   0.176  0.00  0.00    -0.007 A 
ATOM     15  C   UNL d   1      -3.764  -1.063  -0.519  0.00  0.00     0.014 A 
ATOM     16  C   UNL d   1      -4.966  -1.774  -0.474  0.00  0.00     0.001 A 
ATOM     17  C   UNL d   1      -5.050  -2.949   0.269  0.00  0.00     0.000 A 
ATOM     18  C   UNL d   1      -3.940  -3.404   0.979  0.00  0.00     0.001 A 
ATOM     19  C   UNL d   1      -2.740  -2.686   0.941  0.00  0.00     0.014 A 
ENDBRANCH   4  14
BRANCH   5  20
ATOM     20  N   UNL d   1       2.082   0.125  -0.160  0.00  0.00    -0.384 N 
ATOM     21  H   UNL d   1       2.684  -0.635  -0.473  0.00  0.00     0.157 HD
ATOM     22  H   UNL d   1       2.464   1.040  -0.379  0.00  0.00     0.157 HD
ENDBRANCH   5  20
TORSDOF 3
