REMARK  10 active torsions:
REMARK  status: ('A' for Active; 'I' for Inactive)
REMARK    1  A    between atoms: C_4  and  C_1 
REMARK       I    between atoms: N_6  and  C_1 
REMARK    2  A    between atoms: C_2  and  C_4 
REMARK    3  A    between atoms: C_5  and  C_2 
REMARK    4  A    between atoms: C_9  and  C_2 
REMARK    5  A    between atoms: C_3  and  C_5 
REMARK    6  A    between atoms: O_13  and  C_3 
REMARK    7  A    between atoms: C_10  and  N_6 
REMARK    8  A    between atoms: C_11  and  C_10 
REMARK    9  A    between atoms: C_12  and  C_11 
REMARK   10  A    between atoms: O_14  and  C_11 
ROOT
ATOM      1  C   UNL d   1       0.982   0.309  -0.258  0.00  0.00     0.218 C 
ATOM      2  N   UNL d   1       0.116   0.834   0.676  0.00  0.00    -0.358 N 
ATOM      3  O   UNL d   1       2.146   0.668  -0.384  0.00  0.00    -0.274 OA
ATOM      4  H   UNL d   1      -0.776   0.374   0.815  0.00  0.00     0.162 HD
ENDROOT
BRANCH   1   5
ATOM      5  C   UNL d   1       0.320  -0.722  -1.147  0.00  0.00     0.112 C 
BRANCH   5   6
ATOM      6  C   UNL d   1       1.286  -1.450  -2.107  0.00  0.00     0.037 C 
BRANCH   6   7
ATOM      7  C   UNL d   1       2.408  -2.229  -1.381  0.00  0.00     0.119 C 
BRANCH   7   8
ATOM      8  C   UNL d   1       1.950  -3.406  -0.550  0.00  0.00     0.140 C 
ATOM      9  O   UNL d   1       0.828  -3.551  -0.082  0.00  0.00    -0.650 OA
BRANCH   8  10
ATOM     10  O   UNL d   1       2.950  -4.278  -0.294  0.00  0.00    -0.776 OA
ATOM     11  H   UNL d   1       3.809  -4.026  -0.684  0.00  0.00     0.167 HD
ENDBRANCH   8  10
ENDBRANCH   7   8
ENDBRANCH   6   7
BRANCH   6  12
ATOM     12  C   UNL d   1       0.583  -2.309  -3.166  0.00  0.00    -0.053 A 
ATOM     13  C   UNL d   1      -0.804  -2.534  -3.166  0.00  0.00     0.007 A 
ATOM     14  C   UNL d   1      -1.414  -3.295  -4.167  0.00  0.00     0.001 A 
ATOM     15  C   UNL d   1      -0.647  -3.862  -5.179  0.00  0.00     0.000 A 
ATOM     16  C   UNL d   1       0.728  -3.658  -5.197  0.00  0.00     0.001 A 
ATOM     17  C   UNL d   1       1.335  -2.879  -4.209  0.00  0.00     0.007 A 
ENDBRANCH   6  12
ENDBRANCH   5   6
ENDBRANCH   1   5
BRANCH   2  18
ATOM     18  C   UNL d   1       0.540   1.802   1.670  0.00  0.00     0.159 C 
BRANCH  18  19
ATOM     19  C   UNL d   1       1.144   3.116   1.126  0.00  0.00     0.169 C 
BRANCH  19  20
ATOM     20  C   UNL d   1       0.220   3.873   0.187  0.00  0.00    -0.028 A 
ATOM     21  C   UNL d   1      -1.011   4.404   0.609  0.00  0.00     0.010 A 
ATOM     22  C   UNL d   1      -1.823   5.114  -0.279  0.00  0.00     0.001 A 
ATOM     23  C   UNL d   1      -1.427   5.293  -1.603  0.00  0.00     0.000 A 
ATOM     24  C   UNL d   1      -0.219   4.758  -2.043  0.00  0.00     0.001 A 
ATOM     25  C   UNL d   1       0.598   4.053  -1.154  0.00  0.00     0.010 A 
ENDBRANCH  19  20
BRANCH  19  26
ATOM     26  O   UNL d   1       1.505   3.935   2.248  0.00  0.00    -0.389 OA
ATOM     27  H   UNL d   1       0.748   4.501   2.466  0.00  0.00     0.210 HD
ENDBRANCH  19  26
ENDBRANCH  18  19
ENDBRANCH   2  18
TORSDOF 10
