REMARK  5 active torsions:
REMARK  status: ('A' for Active; 'I' for Inactive)
REMARK    1  A    between atoms: C_7  and  N_1 
REMARK    2  A    between atoms: C_4  and  S_13 
REMARK    3  A    between atoms: C_5  and  C_6 
REMARK    4  A    between atoms: S_13  and  C_21 
REMARK    5  A    between atoms: C_21  and  C_22 
ROOT
ATOM      1  N   UNL d   1      -3.547   4.119   6.207  0.00  0.00    -0.335 N 
ATOM      2  HN  UNL d   1      -3.925   3.376   5.621  1.00  0.00     0.168 HD
ATOM      3  C   UNL d   1      -2.326   4.640   5.999  0.00  0.00     0.144 A 
ATOM      4  C   UNL d   1      -4.245   4.643   7.246  0.00  0.00     0.069 A 
ATOM      5  N   UNL d   1      -1.776   5.624   6.734  0.00  0.00    -0.347 N 
ATOM      6  HN  UNL d   1      -0.845   5.985   6.527  1.00  0.00     0.167 HD
ATOM      7  C   UNL d   1      -3.754   5.646   8.058  0.00  0.00     0.049 A 
ATOM      8  C   UNL d   1      -2.503   6.107   7.751  0.00  0.00     0.092 A 
ENDROOT
BRANCH   3   9
ATOM      9  S   UNL d   1      -1.311   4.075   4.657  0.00  0.00    -0.089 SA
BRANCH   9  10
ATOM     10  C   UNL d   1      -2.171   2.557   4.155  0.00  0.00     0.121 C 
BRANCH  10  11
ATOM     11  C   UNL d   1      -1.349   1.808   3.122  0.00  0.00    -0.048 A 
ATOM     12  C   UNL d   1      -0.437   0.816   3.522  0.00  0.00     0.010 A 
ATOM     13  C   UNL d   1       0.355   0.151   2.580  0.00  0.00     0.036 A 
ATOM     14  C   UNL d   1       0.243   0.484   1.225  0.00  0.00     0.102 A 
ATOM     15  C   UNL d   1      -0.654   1.475   0.809  0.00  0.00     0.036 A 
ATOM     16  C   UNL d   1      -1.444   2.133   1.758  0.00  0.00     0.010 A 
BRANCH  14  17
ATOM     17  N   UNL d   1       1.076  -0.209   0.233  0.00  0.00    -0.116 N 
ATOM     18  O   UNL d   1       0.944   0.112  -0.957  0.00  0.00    -0.532 OA
ATOM     19  O   UNL d   1       1.859  -1.078   0.642  0.00  0.00    -0.532 OA
ENDBRANCH  14  17
ENDBRANCH  10  11
ENDBRANCH   9  10
ENDBRANCH   3   9
BRANCH   4  20
ATOM     20  C   UNL d   1      -5.584   4.099   7.451  0.00  0.00     0.101 A 
ATOM     21  O   UNL d   1      -6.270   4.569   8.542  0.00  0.00    -0.321 OA
ATOM     22  C   UNL d   1      -7.488   3.971   8.548  0.00  0.00     0.142 A 
ATOM     23  C   UNL d   1      -7.606   3.118   7.478  0.00  0.00     0.027 A 
ATOM     24  C   UNL d   1      -6.377   3.193   6.775  0.00  0.00     0.041 A 
ENDBRANCH   4  20
TORSDOF 5
