REMARK  4 active torsions:
REMARK  status: ('A' for Active; 'I' for Inactive)
REMARK    1  A    between atoms: C_7  and  C_1 
REMARK    2  A    between atoms: C_9  and  C_6 
REMARK    3  A    between atoms: C_10  and  C_9 
REMARK       I    between atoms: N_16  and  C_10 
REMARK    4  A    between atoms: N_18  and  N_16 
ROOT
ATOM      1  C   UNL d   1       0.254   1.139  -0.028  0.00  0.00     0.156 A 
ATOM      2  N   UNL d   1       1.300   0.235  -0.154  0.00  0.00    -0.321 N 
ATOM      3  HN  UNL d   1       2.289   0.423  -0.316  1.00  0.00     0.169 HD
ATOM      4  N   UNL d   1      -0.938   0.548   0.177  0.00  0.00    -0.241 N 
ATOM      5  HN  UNL d   1      -1.846   0.995   0.299  1.00  0.00     0.196 HD
ATOM      6  C   UNL d   1       0.694  -0.923  -0.013  0.00  0.00     0.157 A 
ATOM      7  O   UNL d   1      -0.646  -0.812   0.187  0.00  0.00    -0.222 OA
ENDROOT
BRANCH   1   8
ATOM      8  C   UNL d   1       0.456   2.581  -0.111  0.00  0.00     0.094 A 
ATOM      9  N   UNL d   1      -0.613   3.402   0.080  0.00  0.00    -0.360 N 
ATOM     10  C   UNL d   1      -0.364   4.729  -0.010  0.00  0.00     0.105 A 
ATOM     11  HN  UNL d   1      -1.545   3.039   0.277  1.00  0.00     0.165 HD
ATOM     12  C   UNL d   1       0.897   5.234  -0.278  0.00  0.00     0.104 A 
ATOM     13  N   UNL d   1       1.970   4.434  -0.466  0.00  0.00    -0.372 N 
ATOM     14  C   UNL d   1       1.719   3.101  -0.376  0.00  0.00     0.121 A 
ATOM     15  HN  UNL d   1       2.900   4.803  -0.662  1.00  0.00     0.164 HD
ENDBRANCH   1   8
BRANCH   6  16
ATOM     16  C   UNL d   1       1.266  -2.280  -0.021  0.00  0.00     0.190 C 
BRANCH  16  17
ATOM     17  C   UNL d   1       1.657  -2.642   1.391  0.00  0.00     0.239 C 
ATOM     18  O   UNL d   1       1.119  -3.559   2.013  0.00  0.00    -0.272 OA
ATOM     19  N   UNL d   1       2.693  -1.882   1.922  0.00  0.00    -0.294 N 
ATOM     20  H   UNL d   1       3.179  -1.182   1.360  0.00  0.00     0.183 HD
BRANCH  19  21
ATOM     21  N   UNL d   1       3.155  -2.153   3.226  0.00  0.00    -0.247 NA
ATOM     22  H   UNL d   1       2.752  -3.059   3.506  0.00  0.00     0.143 HD
ATOM     23  H   UNL d   1       2.714  -1.485   3.866  0.00  0.00     0.143 HD
ENDBRANCH  19  21
ENDBRANCH  16  17
ENDBRANCH   6  16
TORSDOF 4
