REMARK  7 active torsions:
REMARK  status: ('A' for Active; 'I' for Inactive)
REMARK    1  A    between atoms: C_2  and  C_1 
REMARK       I    between atoms: N_6  and  C_1 
REMARK       I    between atoms: C_3  and  N_4 
REMARK    2  A    between atoms: C_11  and  C_3 
REMARK    3  A    between atoms: N_4  and  C_5 
REMARK    4  A    between atoms: C_13  and  N_6 
REMARK    5  A    between atoms: C_7  and  C_8 
REMARK    6  A    between atoms: O_16  and  C_7 
REMARK    7  A    between atoms: C_23  and  O_16 
ROOT
ATOM      1  C   UNL d   1       0.289   0.893  -0.809  0.00  0.00     0.059 A 
ATOM      2  C   UNL d   1       0.781   1.021  -2.125  0.00  0.00     0.050 A 
ATOM      3  C   UNL d   1      -0.822   1.659  -0.407  0.00  0.00     0.019 A 
ATOM      4  C   UNL d   1       0.077   1.822  -3.035  0.00  0.00     0.030 A 
ATOM      5  C   UNL d   1      -1.489   2.477  -1.320  0.00  0.00     0.001 A 
ATOM      6  C   UNL d   1      -1.052   2.540  -2.638  0.00  0.00     0.002 A 
ENDROOT
BRANCH   1   7
ATOM      7  C   UNL d   1       1.012   0.057   0.199  0.00  0.00     0.258 C 
ATOM      8  N   UNL d   1       0.251  -0.414   1.256  0.00  0.00    -0.323 N 
ATOM      9  H   UNL d   1      -0.756  -0.415   1.148  0.00  0.00     0.169 HD
ATOM     10  O   UNL d   1       2.198  -0.202   0.015  0.00  0.00    -0.267 OA
BRANCH   8  11
ATOM     11  C   UNL d   1       0.753  -0.939   2.462  0.00  0.00     0.035 A 
ATOM     12  C   UNL d   1       2.091  -0.816   2.838  0.00  0.00     0.030 A 
ATOM     13  C   UNL d   1       2.526  -1.266   4.086  0.00  0.00     0.020 A 
ATOM     14  C   UNL d   1       1.617  -1.844   4.982  0.00  0.00     0.039 A 
ATOM     15  C   UNL d   1       0.279  -1.993   4.601  0.00  0.00     0.020 A 
ATOM     16  C   UNL d   1      -0.151  -1.535   3.350  0.00  0.00     0.030 A 
BRANCH  14  17
ATOM     17  C   UNL d   1       2.018  -2.205   6.369  0.00  0.00     0.293 C 
ATOM     18  O   UNL d   1       1.237  -2.606   7.218  0.00  0.00    -0.259 OA
BRANCH  17  19
ATOM     19  O   UNL d   1       3.324  -1.902   6.554  0.00  0.00    -0.318 OA
BRANCH  19  20
ATOM     20  C   UNL d   1       3.758  -1.769   7.911  0.00  0.00     0.174 C 
ATOM     21  C   UNL d   1       3.511  -0.336   8.347  0.00  0.00     0.034 C 
ENDBRANCH  19  20
ENDBRANCH  17  19
ENDBRANCH  14  17
ENDBRANCH   8  11
ENDBRANCH   1   7
BRANCH   2  22
ATOM     22  N   UNL d   1       1.969   0.356  -2.525  0.00  0.00    -0.322 N 
ATOM     23  C   UNL d   1       2.875   0.885  -3.429  0.00  0.00     0.256 C 
ATOM     24  O   UNL d   1       2.800   1.983  -3.969  0.00  0.00    -0.267 OA
ATOM     25  H   UNL d   1       2.363  -0.294  -1.842  0.00  0.00     0.169 HD
BRANCH  23  26
ATOM     26  C   UNL d   1       4.074   0.053  -3.692  0.00  0.00     0.032 A 
ATOM     27  C   UNL d   1       3.955  -1.313  -3.972  0.00  0.00     0.017 A 
ATOM     28  C   UNL d   1       5.090  -2.043  -4.333  0.00  0.00     0.001 A 
ATOM     29  C   UNL d   1       6.336  -1.414  -4.404  0.00  0.00     0.000 A 
ATOM     30  C   UNL d   1       6.455  -0.057  -4.109  0.00  0.00     0.001 A 
ATOM     31  C   UNL d   1       5.323   0.680  -3.762  0.00  0.00     0.017 A 
ENDBRANCH  23  26
ENDBRANCH   2  22
TORSDOF 7
