REMARK  2 active torsions:
REMARK  status: ('A' for Active; 'I' for Inactive)
REMARK    1  A    between atoms: N_8  and  C_1 
REMARK    2  A    between atoms: C_9  and  N_8 
ROOT
ATOM      1  C   UNL d   1       2.430   0.076  -0.157  0.00  0.00     0.150 A 
ATOM      2  C   UNL d   1       0.166  -0.878  -0.171  0.00  0.00     0.042 A 
ATOM      3  N   UNL d   1       1.532   1.034  -0.152  0.00  0.00    -0.335 N 
ATOM      4  HN  UNL d   1       1.751   2.030  -0.157  1.00  0.00     0.168 HD
ATOM      5  C   UNL d   1       0.248   0.515  -0.141  0.00  0.00     0.058 A 
ATOM      6  S   UNL d   1       1.774  -1.504  -0.308  0.00  0.00    -0.051 SA
ATOM      7  C   UNL d   1      -1.065  -1.583  -0.099  0.00  0.00    -0.036 A 
ATOM      8  C   UNL d   1      -0.936   1.283  -0.067  0.00  0.00    -0.033 A 
ATOM      9  C   UNL d   1      -2.243  -0.799  -0.035  0.00  0.00    -0.054 A 
ATOM     10  C   UNL d   1      -2.163   0.601  -0.027  0.00  0.00     0.016 A 
ATOM     11  C   UNL d   1      -1.136  -3.086  -0.072  0.00  0.00     0.050 C 
ATOM     12  C   UNL d   1      -0.935   2.785  -0.026  0.00  0.00     0.050 C 
ATOM     13  C   UNL d   1      -3.624  -1.404   0.021  0.00  0.00     0.049 C 
ENDROOT
BRANCH   1  14
ATOM     14  N   UNL d   1       3.770   0.221  -0.051  0.00  0.00    -0.336 N 
ATOM     15  H   UNL d   1       4.321  -0.625  -0.137  0.00  0.00     0.168 HD
BRANCH  14  16
ATOM     16  C   UNL d   1       4.480   1.237   0.635  0.00  0.00     0.046 A 
ATOM     17  C   UNL d   1       4.013   1.866   1.818  0.00  0.00    -0.035 A 
ATOM     18  C   UNL d   1       4.766   2.904   2.400  0.00  0.00     0.009 A 
ATOM     19  C   UNL d   1       2.742   1.498   2.540  0.00  0.00     0.050 C 
ATOM     20  C   UNL d   1       5.994   3.286   1.878  0.00  0.00     0.001 A 
ATOM     21  C   UNL d   1       6.491   2.635   0.758  0.00  0.00     0.009 A 
ATOM     22  C   UNL d   1       5.754   1.613   0.132  0.00  0.00    -0.035 A 
ATOM     23  C   UNL d   1       6.382   0.986  -1.086  0.00  0.00     0.050 C 
ENDBRANCH  14  16
ENDBRANCH   1  14
TORSDOF 2
