REMARK  7 active torsions:
REMARK  status: ('A' for Active; 'I' for Inactive)
REMARK    1  A    between atoms: C_6  and  C_1 
REMARK    2  A    between atoms: C_7  and  C_2 
REMARK    3  A    between atoms: C_8  and  C_6 
REMARK    4  A    between atoms: O_11  and  C_7 
REMARK    5  A    between atoms: O_14  and  C_8 
REMARK    6  A    between atoms: C_15  and  O_11 
REMARK    7  A    between atoms: C_16  and  O_14 
ROOT
ATOM      1  C   UNL d   1       0.217  -0.980  -0.070  0.00  0.00     0.037 A 
ATOM      2  C   UNL d   1       1.296  -0.096  -0.209  0.00  0.00     0.070 A 
ATOM      3  N   UNL d   1      -0.934  -0.224  -0.005  0.00  0.00    -0.363 N 
ATOM      4  C   UNL d   1       0.754   1.236  -0.079  0.00  0.00    -0.028 A 
ATOM      5  C   UNL d   1      -0.614   1.104   0.025  0.00  0.00     0.098 A 
ATOM      6  C   UNL d   1      -2.309  -0.684   0.025  0.00  0.00     0.155 C 
ATOM      7  C   UNL d   1       1.470   2.543  -0.040  0.00  0.00     0.050 C 
ENDROOT
BRANCH   1   8
ATOM      8  C   UNL d   1       0.200  -2.488   0.004  0.00  0.00     0.169 C 
BRANCH   8   9
ATOM      9  C   UNL d   1      -0.188  -3.135  -1.315  0.00  0.00     0.264 C 
ATOM     10  O   UNL d   1      -0.358  -2.565  -2.380  0.00  0.00    -0.265 OA
BRANCH   9  11
ATOM     11  O   UNL d   1      -0.386  -4.474  -1.107  0.00  0.00    -0.322 OA
BRANCH  11  12
ATOM     12  C   UNL d   1      -0.959  -5.214  -2.195  0.00  0.00     0.174 C 
ATOM     13  C   UNL d   1       0.093  -6.081  -2.857  0.00  0.00     0.034 C 
ENDBRANCH  11  12
ENDBRANCH   9  11
ENDBRANCH   8   9
ENDBRANCH   1   8
BRANCH   2  14
ATOM     14  C   UNL d   1       2.702  -0.487  -0.393  0.00  0.00     0.295 C 
ATOM     15  O   UNL d   1       3.132  -1.613  -0.165  0.00  0.00    -0.259 OA
BRANCH  14  16
ATOM     16  O   UNL d   1       3.478   0.548  -0.825  0.00  0.00    -0.318 OA
BRANCH  16  17
ATOM     17  C   UNL d   1       4.898   0.362  -0.782  0.00  0.00     0.174 C 
ATOM     18  C   UNL d   1       5.439   0.034  -2.158  0.00  0.00     0.034 C 
ENDBRANCH  16  17
ENDBRANCH  14  16
ENDBRANCH   2  14
TORSDOF 7
