REMARK  6 active torsions:
REMARK  status: ('A' for Active; 'I' for Inactive)
REMARK    1  A    between atoms: N_2  and  S_1 
REMARK    2  A    between atoms: C_3  and  S_1 
REMARK    3  A    between atoms: C_4  and  N_2 
REMARK    4  A    between atoms: C_21  and  N_2 
REMARK    5  A    between atoms: C_6  and  C_4 
REMARK    6  A    between atoms: C_20  and  C_21 
ROOT
ATOM      1  N   UNL d   1       3.183  -4.284   2.902  0.00  0.00    -0.197 NA
ATOM      2  C   UNL d   1       2.895  -3.236   2.494  0.00  0.00     0.060 C 
ATOM      3  C   UNL d   1       2.512  -1.922   1.958  0.00  0.00     0.139 C 
ENDROOT
BRANCH   3   4
ATOM      4  C   UNL d   1       0.991  -1.836   1.839  0.00  0.00     0.122 C 
BRANCH   4   5
ATOM      5  N   UNL d   1       0.454  -0.488   1.365  0.00  0.00    -0.201 NA
BRANCH   5   6
ATOM      6  S   UNL d   1       1.088  -0.060  -0.184  0.00  0.00     0.244 S 
ATOM      7  O   UNL d   1       0.704  -1.125  -1.087  0.00  0.00    -0.206 OA
ATOM      8  O   UNL d   1       2.482   0.294  -0.006  0.00  0.00    -0.206 OA
BRANCH   6   9
ATOM      9  C   UNL d   1       0.248   1.418  -0.691  0.00  0.00     0.075 A 
ATOM     10  C   UNL d   1      -0.534   1.389  -1.855  0.00  0.00     0.034 A 
ATOM     11  C   UNL d   1      -1.113   2.573  -2.273  0.00  0.00    -0.021 A 
ATOM     12  C   UNL d   1      -1.998   2.832  -3.429  0.00  0.00     0.068 C 
ATOM     13  C   UNL d   1      -0.935   3.744  -1.554  0.00  0.00     0.075 A 
ATOM     14  C   UNL d   1      -2.005   4.361  -3.401  0.00  0.00     0.180 C 
ATOM     15  O   UNL d   1      -1.585   4.822  -2.093  0.00  0.00    -0.350 OA
ATOM     16  C   UNL d   1      -0.175   3.789  -0.400  0.00  0.00     0.039 A 
ATOM     17  C   UNL d   1       0.437   2.609   0.034  0.00  0.00     0.027 A 
ENDBRANCH   6   9
ENDBRANCH   5   6
BRANCH   5  18
ATOM     18  C   UNL d   1      -1.050  -0.491   1.389  0.00  0.00     0.153 C 
BRANCH  18  19
ATOM     19  C   UNL d   1      -1.569  -0.737   2.782  0.00  0.00    -0.004 A 
ATOM     20  S   UNL d   1      -2.545  -2.115   3.098  0.00  0.00    -0.105 SA
ATOM     21  C   UNL d   1      -2.654  -1.740   4.761  0.00  0.00     0.050 A 
ATOM     22  C   UNL d   1      -1.996  -0.570   5.070  0.00  0.00     0.008 A 
ATOM     23  C   UNL d   1      -1.378   0.015   3.926  0.00  0.00     0.016 A 
ENDBRANCH  18  19
ENDBRANCH   5  18
ENDBRANCH   4   5
ENDBRANCH   3   4
TORSDOF 6
