REMARK  5 active torsions:
REMARK  status: ('A' for Active; 'I' for Inactive)
REMARK    1  A    between atoms: C_2  and  C_1 
REMARK    2  A    between atoms: C_8  and  C_2 
REMARK    3  A    between atoms: C_4  and  C_3 
REMARK    4  A    between atoms: C_5  and  C_10 
REMARK    5  A    between atoms: C_19  and  C_6 
ROOT
ATOM      1  C   UNL d   1       0.904  -0.153  -0.145  0.00  0.00     0.098 C 
ATOM      2  C   UNL d   1       0.220  -0.989   0.664  0.00  0.00     0.045 C 
ATOM      3  C   UNL d   1       0.269   0.769  -1.023  0.00  0.00     0.103 C 
ATOM      4  N   UNL d   1      -0.275   1.510  -1.733  0.00  0.00    -0.191 NA
ENDROOT
BRANCH   1   5
ATOM      5  C   UNL d   1       2.410  -0.123  -0.055  0.00  0.00     0.226 C 
ATOM      6  O   UNL d   1       2.962  -0.475   0.988  0.00  0.00    -0.284 OA
BRANCH   5   7
ATOM      7  C   UNL d   1       3.151   0.360  -1.205  0.00  0.00     0.126 A 
ATOM      8  O   UNL d   1       2.610   0.212  -2.454  0.00  0.00    -0.319 OA
ATOM      9  C   UNL d   1       3.468   0.769  -3.342  0.00  0.00     0.142 A 
ATOM     10  C   UNL d   1       4.576   1.257  -2.694  0.00  0.00     0.027 A 
ATOM     11  C   UNL d   1       4.390   0.966  -1.318  0.00  0.00     0.043 A 
ENDBRANCH   5   7
ENDBRANCH   1   5
BRANCH   2  12
ATOM     12  C   UNL d   1      -1.211  -1.082   0.689  0.00  0.00     0.007 A 
ATOM     13  S   UNL d   1      -2.010  -1.413   2.183  0.00  0.00    -0.101 SA
ATOM     14  C   UNL d   1      -3.564  -1.257   1.484  0.00  0.00     0.071 A 
ATOM     15  C   UNL d   1      -3.500  -1.005   0.135  0.00  0.00     0.025 A 
ATOM     16  C   UNL d   1      -2.152  -0.961  -0.326  0.00  0.00     0.040 A 
BRANCH  15  17
ATOM     17  C   UNL d   1      -4.657  -0.806  -0.684  0.00  0.00    -0.061 C 
ATOM     18  C   UNL d   1      -5.629  -0.625  -1.371  0.00  0.00    -0.061 C 
BRANCH  18  19
ATOM     19  C   UNL d   1      -6.788  -0.427  -2.191  0.00  0.00     0.018 A 
ATOM     20  C   UNL d   1      -7.500  -1.532  -2.666  0.00  0.00     0.020 A 
ATOM     21  C   UNL d   1      -8.627  -1.351  -3.472  0.00  0.00     0.001 A 
ATOM     22  C   UNL d   1      -9.047  -0.064  -3.807  0.00  0.00     0.000 A 
ATOM     23  C   UNL d   1      -8.342   1.042  -3.332  0.00  0.00     0.001 A 
ATOM     24  C   UNL d   1      -7.214   0.862  -2.524  0.00  0.00     0.020 A 
ENDBRANCH  18  19
ENDBRANCH  15  17
ENDBRANCH   2  12
TORSDOF 5
