REMARK  6 active torsions:
REMARK  status: ('A' for Active; 'I' for Inactive)
REMARK    1  A    between atoms: C_8  and  N_1 
REMARK    2  A    between atoms: S_10  and  C_2 
REMARK    3  A    between atoms: C_9  and  C_7 
REMARK    4  A    between atoms: C_16  and  C_9 
REMARK    5  A    between atoms: C_14  and  C_16 
REMARK    6  A    between atoms: O_24  and  C_15 
ROOT
ATOM      1  N   UNL d   1      -0.245   0.733  -0.270  0.00  0.00    -0.279 N 
ATOM      2  C   UNL d   1       0.973   0.061  -0.371  0.00  0.00     0.164 A 
ATOM      3  N   UNL d   1       0.790  -1.235  -0.295  0.00  0.00    -0.278 N 
ATOM      4  HN  UNL d   1       1.517  -1.947  -0.365  1.00  0.00     0.189 HD
ATOM      5  N   UNL d   1      -0.536  -1.462  -0.105  0.00  0.00    -0.286 N 
ATOM      6  HN  UNL d   1      -0.971  -2.378   0.006  1.00  0.00     0.188 HD
ATOM      7  C   UNL d   1      -1.168  -0.305  -0.087  0.00  0.00     0.105 A 
ENDROOT
BRANCH   7   8
ATOM      8  C   UNL d   1      -2.660  -0.183  -0.012  0.00  0.00     0.083 C 
BRANCH   8   9
ATOM      9  C   UNL d   1      -3.358  -1.555  -0.056  0.00  0.00     0.046 C 
BRANCH   9  10
ATOM     10  C   UNL d   1      -4.874  -1.559  -0.004  0.00  0.00    -0.058 A 
ATOM     11  C   UNL d   1      -5.659  -0.400   0.029  0.00  0.00     0.010 A 
ATOM     12  C   UNL d   1      -7.056  -0.485   0.056  0.00  0.00     0.037 A 
ATOM     13  C   UNL d   1      -7.676  -1.728   0.046  0.00  0.00     0.065 A 
ATOM     14  C   UNL d   1      -6.923  -2.893   0.020  0.00  0.00     0.037 A 
ATOM     15  C   UNL d   1      -5.527  -2.807  -0.005  0.00  0.00     0.010 A 
BRANCH  13  16
ATOM     16  O   UNL d   1      -9.038  -1.759   0.062  0.00  0.00    -0.361 OA
ATOM     17  H   UNL d   1      -9.326  -2.687   0.026  0.00  0.00     0.217 HD
ENDBRANCH  13  16
ENDBRANCH   9  10
ENDBRANCH   8   9
ENDBRANCH   7   8
BRANCH   1  18
ATOM     18  C   UNL d   1      -0.497   2.142  -0.340  0.00  0.00     0.043 A 
ATOM     19  C   UNL d   1       0.289   2.973  -1.159  0.00  0.00     0.033 A 
ATOM     20  C   UNL d   1       0.087   4.358  -1.174  0.00  0.00     0.044 A 
ATOM     21  C   UNL d   1      -0.923   4.916  -0.405  0.00  0.00     0.116 A 
ATOM     22  C   UNL d   1      -1.735   4.110   0.381  0.00  0.00     0.044 A 
ATOM     23  F   UNL d   1      -1.115   6.240  -0.417  0.00  0.00    -0.206 F 
ATOM     24  C   UNL d   1      -1.518   2.728   0.422  0.00  0.00     0.033 A 
ENDBRANCH   1  18
BRANCH   2  25
ATOM     25  S   UNL d   1       2.567   0.749  -0.389  0.00  0.00    -0.105 SA
ATOM     26  H   UNL d   1       2.301   1.960   0.116  0.00  0.00     0.110 HD
ENDBRANCH   2  25
TORSDOF 6
