REMARK  9 active torsions:
REMARK  status: ('A' for Active; 'I' for Inactive)
REMARK    1  A    between atoms: N_3  and  C_1 
REMARK    2  A    between atoms: N_6  and  C_1 
REMARK    3  A    between atoms: C_5  and  C_2 
REMARK    4  A    between atoms: C_4  and  N_3 
REMARK    5  A    between atoms: O_11  and  C_5 
REMARK    6  A    between atoms: N_9  and  N_6 
REMARK    7  A    between atoms: C_10  and  N_6 
REMARK    8  A    between atoms: C_15  and  C_10 
REMARK    9  A    between atoms: O_14  and  C_15 
ROOT
ATOM      1  N   UNL d   1       0.376  -0.185   1.222  0.00  0.00    -0.331 N 
ATOM      2  H   UNL d   1       0.912   0.077   0.389  0.00  0.00     0.168 HD
ENDROOT
BRANCH   1   3
ATOM      3  C   UNL d   1      -0.965  -0.441   0.964  0.00  0.00     0.189 C 
ATOM      4  S   UNL d   1      -2.245   0.186   1.871  0.00  0.00    -0.039 SA
BRANCH   3   5
ATOM      5  N   UNL d   1      -1.169  -1.236  -0.186  0.00  0.00    -0.289 N 
BRANCH   5   6
ATOM      6  N   UNL d   1      -2.463  -1.313  -0.788  0.00  0.00    -0.245 NA
ATOM      7  H   UNL d   1      -2.996  -0.501  -0.449  0.00  0.00     0.143 HD
ATOM      8  H   UNL d   1      -2.948  -2.112  -0.370  0.00  0.00     0.143 HD
ENDBRANCH   5   6
BRANCH   5   9
ATOM      9  C   UNL d   1      -0.184  -2.217  -0.668  0.00  0.00     0.171 C 
BRANCH   9  10
ATOM     10  C   UNL d   1       0.728  -1.667  -1.759  0.00  0.00     0.185 C 
BRANCH  10  11
ATOM     11  O   UNL d   1       1.620  -0.689  -1.230  0.00  0.00    -0.399 OA
ATOM     12  H   UNL d   1       2.166  -0.381  -1.977  0.00  0.00     0.209 HD
ENDBRANCH  10  11
ENDBRANCH   9  10
ENDBRANCH   5   9
ENDBRANCH   3   5
ENDBRANCH   1   3
BRANCH   1  13
ATOM     13  C   UNL d   1       0.996   0.050   2.472  0.00  0.00     0.050 A 
ATOM     14  C   UNL d   1       2.100   0.913   2.637  0.00  0.00     0.066 A 
ATOM     15  C   UNL d   1       2.721   0.991   3.902  0.00  0.00     0.020 A 
ATOM     16  C   UNL d   1       2.281   0.224   4.980  0.00  0.00     0.001 A 
ATOM     17  C   UNL d   1       1.204  -0.634   4.812  0.00  0.00     0.002 A 
ATOM     18  C   UNL d   1       0.571  -0.719   3.572  0.00  0.00     0.030 A 
BRANCH  14  19
ATOM     19  C   UNL d   1       2.674   1.837   1.610  0.00  0.00     0.295 C 
ATOM     20  O   UNL d   1       3.617   2.578   1.846  0.00  0.00    -0.259 OA
BRANCH  19  21
ATOM     21  O   UNL d   1       2.027   1.771   0.422  0.00  0.00    -0.322 OA
ATOM     22  C   UNL d   1       2.531   2.676  -0.570  0.00  0.00     0.213 C 
ENDBRANCH  19  21
ENDBRANCH  14  19
ENDBRANCH   1  13
TORSDOF 9
