REMARK  8 active torsions:
REMARK  status: ('A' for Active; 'I' for Inactive)
REMARK    1  A    between atoms: C_9  and  C_1 
REMARK    2  A    between atoms: N_11  and  C_2 
REMARK    3  A    between atoms: C_8  and  C_6 
REMARK       I    between atoms: N_7  and  C_8 
REMARK       I    between atoms: C_10  and  N_7 
REMARK    4  A    between atoms: O_19  and  C_9 
REMARK    5  A    between atoms: O_18  and  C_10 
REMARK    6  A    between atoms: C_12  and  N_11 
REMARK    7  A    between atoms: C_22  and  O_18 
REMARK    8  A    between atoms: C_23  and  O_19 
ROOT
ATOM      1  C   UNL d   1       3.351  -2.791  -1.221  0.00  0.00     0.128 C 
ATOM      2  C   UNL d   1       3.550  -2.044  -0.121  0.00  0.00     0.117 C 
ATOM      3  C   UNL d   1       3.442  -2.192  -2.521  0.00  0.00     0.106 C 
ATOM      4  N   UNL d   1       3.553  -1.687  -3.556  0.00  0.00    -0.191 NA
ENDROOT
BRANCH   1   5
ATOM      5  C   UNL d   1       3.162  -4.299  -1.196  0.00  0.00     0.271 C 
ATOM      6  N   UNL d   1       2.525  -4.830  -0.086  0.00  0.00    -0.268 N 
ATOM      7  C   UNL d   1       2.433  -6.162   0.283  0.00  0.00     0.367 C 
ATOM      8  H   UNL d   1       2.238  -4.226   0.665  0.00  0.00     0.174 HD
ATOM      9  O   UNL d   1       2.062  -6.463   1.413  0.00  0.00    -0.238 OA
ATOM     10  O   UNL d   1       3.519  -4.955  -2.163  0.00  0.00    -0.266 OA
BRANCH   7  11
ATOM     11  O   UNL d   1       2.879  -7.055  -0.637  0.00  0.00    -0.304 OA
BRANCH  11  12
ATOM     12  C   UNL d   1       3.544  -8.213  -0.109  0.00  0.00     0.176 C 
ATOM     13  C   UNL d   1       2.706  -9.479  -0.121  0.00  0.00     0.034 C 
ENDBRANCH  11  12
ENDBRANCH   7  11
ENDBRANCH   1   5
BRANCH   2  14
ATOM     14  N   UNL d   1       3.819  -0.682  -0.041  0.00  0.00    -0.358 N 
ATOM     15  H   UNL d   1       4.818  -0.454  -0.040  0.00  0.00     0.166 HD
BRANCH  14  16
ATOM     16  C   UNL d   1       2.941   0.373   0.007  0.00  0.00     0.091 A 
ATOM     17  C   UNL d   1       3.243   1.739   0.015  0.00  0.00     0.080 A 
ATOM     18  C   UNL d   1       2.034   2.564   0.093  0.00  0.00    -0.030 A 
ATOM     19  C   UNL d   1       0.893   1.780   0.111  0.00  0.00    -0.012 A 
ATOM     20  C   UNL d   1       1.969   4.067   0.127  0.00  0.00     0.050 C 
ATOM     21  C   UNL d   1      -0.538   2.215   0.157  0.00  0.00     0.057 C 
ATOM     22  S   UNL d   1       1.243   0.120   0.068  0.00  0.00    -0.076 SA
BRANCH  17  23
ATOM     23  C   UNL d   1       4.609   2.291  -0.104  0.00  0.00     0.296 C 
ATOM     24  O   UNL d   1       4.854   3.493  -0.134  0.00  0.00    -0.259 OA
BRANCH  23  25
ATOM     25  O   UNL d   1       5.578   1.336  -0.263  0.00  0.00    -0.318 OA
BRANCH  25  26
ATOM     26  C   UNL d   1       6.794   1.828  -0.851  0.00  0.00     0.174 C 
ATOM     27  C   UNL d   1       6.641   1.769  -2.361  0.00  0.00     0.034 C 
ENDBRANCH  25  26
ENDBRANCH  23  25
ENDBRANCH  17  23
ENDBRANCH  14  16
ENDBRANCH   2  14
TORSDOF 8
