REMARK  2 active torsions:
REMARK  status: ('A' for Active; 'I' for Inactive)
REMARK    1  A    between atoms: S_15  and  C_13 
REMARK    2  A    between atoms: C_14  and  S_15 
ROOT
ATOM      1  S   UNL d   1       2.595  -3.200   0.096  0.00  0.00    -0.089 SA
ENDROOT
BRANCH   1   2
ATOM      2  C   UNL d   1       0.992  -3.923  -0.273  0.00  0.00     0.021 A 
ATOM      3  C   UNL d   1       0.319  -4.860   0.549  0.00  0.00     0.046 A 
ATOM      4  C   UNL d   1       0.718  -5.153   1.956  0.00  0.00     0.195 C 
ATOM      5  C   UNL d   1      -0.804  -5.530   0.038  0.00  0.00     0.030 A 
ATOM      6  C   UNL d   1       0.136  -6.320   2.656  0.00  0.00     0.029 A 
ATOM      7  O   UNL d   1       1.473  -4.420   2.582  0.00  0.00    -0.287 OA
ATOM      8  C   UNL d   1       0.625  -6.700   3.915  0.00  0.00     0.016 A 
ATOM      9  C   UNL d   1      -0.912  -7.034   2.088  0.00  0.00     0.029 A 
ATOM     10  C   UNL d   1       0.081  -7.804   4.580  0.00  0.00     0.001 A 
ATOM     11  C   UNL d   1      -0.954  -8.531   3.994  0.00  0.00     0.001 A 
ATOM     12  C   UNL d   1      -1.456  -8.145   2.751  0.00  0.00     0.016 A 
ATOM     13  C   UNL d   1      -1.471  -6.610   0.797  0.00  0.00     0.194 C 
ATOM     14  O   UNL d   1      -2.469  -7.164   0.348  0.00  0.00    -0.287 OA
ATOM     15  C   UNL d   1      -1.303  -5.230  -1.237  0.00  0.00     0.016 A 
ATOM     16  C   UNL d   1      -0.672  -4.278  -2.025  0.00  0.00     0.002 A 
ATOM     17  C   UNL d   1       0.477  -3.646  -1.554  0.00  0.00     0.020 A 
ENDBRANCH   1   2
BRANCH   1  18
ATOM     18  C   UNL d   1       2.260  -1.435   0.163  0.00  0.00     0.021 A 
ATOM     19  C   UNL d   1       2.897  -0.474  -0.654  0.00  0.00     0.046 A 
ATOM     20  C   UNL d   1       3.682  -0.828  -1.866  0.00  0.00     0.195 C 
ATOM     21  C   UNL d   1       2.771   0.889  -0.343  0.00  0.00     0.030 A 
ATOM     22  C   UNL d   1       4.654   0.145  -2.405  0.00  0.00     0.029 A 
ATOM     23  O   UNL d   1       3.497  -1.875  -2.475  0.00  0.00    -0.287 OA
ATOM     24  C   UNL d   1       5.624  -0.269  -3.326  0.00  0.00     0.016 A 
ATOM     25  C   UNL d   1       4.592   1.480  -2.018  0.00  0.00     0.029 A 
ATOM     26  C   UNL d   1       6.543   0.651  -3.835  0.00  0.00     0.001 A 
ATOM     27  C   UNL d   1       6.489   1.987  -3.436  0.00  0.00     0.001 A 
ATOM     28  C   UNL d   1       5.510   2.405  -2.532  0.00  0.00     0.016 A 
ATOM     29  C   UNL d   1       3.550   1.915  -1.072  0.00  0.00     0.194 C 
ATOM     30  O   UNL d   1       3.364   3.110  -0.865  0.00  0.00    -0.287 OA
ATOM     31  C   UNL d   1       1.950   1.308   0.711  0.00  0.00     0.016 A 
ATOM     32  C   UNL d   1       1.279   0.367   1.484  0.00  0.00     0.002 A 
ATOM     33  C   UNL d   1       1.453  -0.993   1.226  0.00  0.00     0.020 A 
ENDBRANCH   1  18
TORSDOF 2
