REMARK  2 active torsions:
REMARK  status: ('A' for Active; 'I' for Inactive)
REMARK       I    between atoms: N_2  and  C_1 
REMARK    1  A    between atoms: C_3  and  C_1 
REMARK    2  A    between atoms: C_4  and  N_2 
ROOT
ATOM      1  C   UNL d   1       2.458   0.001   0.361  0.00  0.00     0.256 C 
ATOM      2  N   UNL d   1       3.041  -1.193  -0.037  0.00  0.00    -0.320 N 
ATOM      3  O   UNL d   1       3.036   1.007   0.752  0.00  0.00    -0.267 OA
ATOM      4  H   UNL d   1       2.432  -1.861  -0.495  0.00  0.00     0.169 HD
ENDROOT
BRANCH   1   5
ATOM      5  C   UNL d   1       0.967   0.056   0.230  0.00  0.00     0.038 A 
ATOM      6  C   UNL d   1       0.302   1.206  -0.245  0.00  0.00    -0.046 A 
ATOM      7  C   UNL d   1       0.996   2.481  -0.649  0.00  0.00     0.049 C 
ATOM      8  C   UNL d   1      -1.105   1.200  -0.297  0.00  0.00     0.007 A 
ATOM      9  C   UNL d   1      -1.835   0.081   0.100  0.00  0.00     0.001 A 
ATOM     10  C   UNL d   1      -1.175  -1.047   0.574  0.00  0.00     0.001 A 
ATOM     11  C   UNL d   1       0.218  -1.061   0.642  0.00  0.00     0.017 A 
ENDBRANCH   1   5
BRANCH   2  12
ATOM     12  C   UNL d   1       4.429  -1.486  -0.092  0.00  0.00     0.073 A 
ATOM     13  C   UNL d   1       5.446  -0.754   0.535  0.00  0.00     0.143 A 
ATOM     14  F   UNL d   1       5.187   0.218   1.418  0.00  0.00    -0.204 F 
ATOM     15  C   UNL d   1       6.793  -1.056   0.325  0.00  0.00     0.044 A 
ATOM     16  C   UNL d   1       7.153  -2.125  -0.489  0.00  0.00     0.003 A 
ATOM     17  C   UNL d   1       6.158  -2.911  -1.064  0.00  0.00     0.002 A 
ATOM     18  C   UNL d   1       4.807  -2.599  -0.862  0.00  0.00     0.033 A 
ENDBRANCH   2  12
TORSDOF 2
