REMARK  3 active torsions:
REMARK  status: ('A' for Active; 'I' for Inactive)
REMARK    1  A    between atoms: N_2  and  C_1 
REMARK    2  A    between atoms: C_8  and  N_4 
REMARK    3  A    between atoms: O_21  and  C_13 
ROOT
ATOM      1  N   UNL d   1       0.104   2.947   0.072  0.00  0.00    -0.297 N 
ATOM      2  HN  UNL d   1      -0.696   3.434  -0.333  1.00  0.00     0.187 HD
ATOM      3  N   UNL d   1       1.169   3.511   0.419  0.00  0.00    -0.297 N 
ATOM      4  HN  UNL d   1       1.999   3.016   0.744  1.00  0.00     0.187 HD
ENDROOT
BRANCH   3   5
ATOM      5  C   UNL d   1       1.076   4.929   0.304  0.00  0.00     0.092 A 
ATOM      6  C   UNL d   1       1.920   5.667  -0.578  0.00  0.00     0.005 A 
ATOM      7  C   UNL d   1       1.877   7.091  -0.550  0.00  0.00    -0.024 A 
ATOM      8  C   UNL d   1       2.814   5.070  -1.492  0.00  0.00     0.014 A 
ATOM      9  C   UNL d   1       2.712   7.843  -1.393  0.00  0.00     0.012 A 
ATOM     10  C   UNL d   1       1.009   7.751   0.327  0.00  0.00     0.015 A 
ATOM     11  C   UNL d   1       3.584   7.219  -2.279  0.00  0.00     0.001 A 
ATOM     12  C   UNL d   1       3.632   5.833  -2.336  0.00  0.00     0.001 A 
ATOM     13  C   UNL d   1       0.178   7.032   1.178  0.00  0.00     0.040 A 
ATOM     14  C   UNL d   1       0.220   5.645   1.162  0.00  0.00     0.094 A 
BRANCH  14  15
ATOM     15  O   UNL d   1      -0.612   5.009   2.046  0.00  0.00    -0.358 OA
ATOM     16  H   UNL d   1      -0.571   4.058   1.831  0.00  0.00     0.217 HD
ENDBRANCH  14  15
ENDBRANCH   3   5
BRANCH   1  17
ATOM     17  C   UNL d   1       0.147   1.543   0.311  0.00  0.00     0.095 A 
ATOM     18  C   UNL d   1      -0.744   0.972   1.253  0.00  0.00     0.085 A 
ATOM     19  C   UNL d   1      -0.783  -0.417   1.459  0.00  0.00     0.059 A 
ATOM     20 CL   UNL d   1      -1.810   2.009   2.152  0.00  0.00    -0.080 Cl
ATOM     21 CL   UNL d   1      -1.873  -1.170   2.572  0.00  0.00    -0.082 Cl
ATOM     22  C   UNL d   1       0.066  -1.255   0.743  0.00  0.00     0.051 A 
ATOM     23  C   UNL d   1       0.950  -0.716  -0.190  0.00  0.00     0.059 A 
ATOM     24  C   UNL d   1       0.986   0.671  -0.421  0.00  0.00     0.085 A 
ATOM     25 CL   UNL d   1       1.962  -1.832  -1.041  0.00  0.00    -0.082 Cl
ATOM     26 CL   UNL d   1       2.035   1.298  -1.655  0.00  0.00    -0.080 Cl
ENDBRANCH   1  17
TORSDOF 3
