REMARK  3 active torsions:
REMARK  status: ('A' for Active; 'I' for Inactive)
REMARK    1  A    between atoms: C_12  and  C_2 
REMARK    2  A    between atoms: C_13  and  C_9 
REMARK    3  A    between atoms: C_14  and  C_11 
ROOT
ATOM      1  N   UNL d   1       0.301   0.631   0.055  0.00  0.00    -0.235 N 
ATOM      2  C   UNL d   1      -0.822   1.450   0.058  0.00  0.00     0.144 A 
ATOM      3  C   UNL d   1       0.156  -0.761   0.021  0.00  0.00     0.130 A 
ATOM      4  N   UNL d   1       1.609   0.978   0.085  0.00  0.00    -0.291 N 
ATOM      5  HN  UNL d   1       1.996   1.918   0.161  1.00  0.00     0.187 HD
ATOM      6  N   UNL d   1      -1.062  -1.375   0.046  0.00  0.00    -0.340 N 
ATOM      7  HN  UNL d   1      -1.146  -2.392   0.056  1.00  0.00     0.167 HD
ATOM      8  C   UNL d   1       1.426  -1.281  -0.057  0.00  0.00     0.082 A 
ATOM      9  C   UNL d   1       2.287  -0.171  -0.007  0.00  0.00     0.069 A 
ATOM     10  C   UNL d   1      -2.050   0.891   0.055  0.00  0.00     0.067 A 
ATOM     11  C   UNL d   1      -2.113  -0.605   0.058  0.00  0.00     0.046 A 
ENDROOT
BRANCH  11  12
ATOM     12  C   UNL d   1      -3.469  -1.227   0.105  0.00  0.00    -0.009 A 
ATOM     13  C   UNL d   1      -3.624  -2.443   0.788  0.00  0.00     0.026 A 
ATOM     14  C   UNL d   1      -4.876  -3.077   0.863  0.00  0.00    -0.025 A 
ATOM     15  C   UNL d   1      -5.044  -4.291   1.549  0.00  0.00     0.012 A 
ATOM     16  C   UNL d   1      -5.991  -2.480   0.232  0.00  0.00    -0.026 A 
ATOM     17  C   UNL d   1      -6.294  -4.910   1.608  0.00  0.00     0.001 A 
ATOM     18  C   UNL d   1      -7.391  -4.324   0.983  0.00  0.00     0.001 A 
ATOM     19  C   UNL d   1      -7.242  -3.116   0.299  0.00  0.00     0.012 A 
ATOM     20  C   UNL d   1      -5.824  -1.270  -0.457  0.00  0.00     0.013 A 
ATOM     21  C   UNL d   1      -4.573  -0.649  -0.526  0.00  0.00     0.014 A 
ENDBRANCH  11  12
BRANCH   2  22
ATOM     22  C   UNL d   1      -0.646   2.923   0.052  0.00  0.00     0.434 C 
ATOM     23  F   UNL d   1       0.621   3.391   0.025  0.00  0.00    -0.165 F 
ATOM     24  F   UNL d   1      -1.277   3.470  -1.026  0.00  0.00    -0.165 F 
ATOM     25  F   UNL d   1      -1.240   3.480   1.143  0.00  0.00    -0.165 F 
ENDBRANCH   2  22
BRANCH   9  26
ATOM     26  C   UNL d   1       3.786  -0.195  -0.052  0.00  0.00     0.033 A 
ATOM     27  S   UNL d   1       4.725  -1.603  -0.289  0.00  0.00    -0.100 SA
ATOM     28  C   UNL d   1       6.186  -0.716  -0.236  0.00  0.00     0.050 A 
ATOM     29  C   UNL d   1       5.968   0.625  -0.015  0.00  0.00     0.008 A 
ATOM     30  C   UNL d   1       4.578   0.927   0.089  0.00  0.00     0.021 A 
ENDBRANCH   9  26
TORSDOF 3
