REMARK  4 active torsions:
REMARK  status: ('A' for Active; 'I' for Inactive)
REMARK    1  A    between atoms: C_9  and  C_5 
REMARK    2  A    between atoms: C_15  and  C_8 
REMARK    3  A    between atoms: O_17  and  C_12 
REMARK    4  A    between atoms: O_19  and  C_16 
ROOT
ATOM      1  N   UNL d   1       0.180   0.578  -0.002  0.00  0.00    -0.231 N 
ATOM      2  C   UNL d   1      -0.170  -0.740  -0.011  0.00  0.00     0.172 A 
ATOM      3  N   UNL d   1      -1.454  -0.913  -0.011  0.00  0.00    -0.319 N 
ATOM      4  HN  UNL d   1      -1.985  -1.784   0.005  1.00  0.00     0.169 HD
ATOM      5  C   UNL d   1       1.555   0.806   0.024  0.00  0.00     0.078 A 
ATOM      6  N   UNL d   1      -0.944   1.340  -0.050  0.00  0.00    -0.276 N 
ATOM      7  HN  UNL d   1      -1.034   2.355  -0.083  1.00  0.00     0.189 HD
ATOM      8  C   UNL d   1      -1.917   0.393  -0.040  0.00  0.00     0.132 A 
ATOM      9  S   UNL d   1       1.195  -1.794  -0.028  0.00  0.00    -0.061 SA
ATOM     10  C   UNL d   1       2.230  -0.367  -0.014  0.00  0.00     0.086 A 
ENDROOT
BRANCH   5  11
ATOM     11  C   UNL d   1       2.228   2.117   0.093  0.00  0.00     0.026 A 
ATOM     12  C   UNL d   1       1.813   3.267  -0.596  0.00  0.00     0.081 A 
ATOM     13  C   UNL d   1       2.546   4.457  -0.520  0.00  0.00     0.074 A 
ATOM     14  C   UNL d   1       3.689   4.522   0.269  0.00  0.00     0.068 A 
ATOM     15  C   UNL d   1       4.116   3.414   0.982  0.00  0.00     0.037 A 
ATOM     16  C   UNL d   1       3.387   2.224   0.895  0.00  0.00     0.019 A 
BRANCH  12  17
ATOM     17  O   UNL d   1       0.709   3.305  -1.403  0.00  0.00    -0.360 OA
ATOM     18  H   UNL d   1       0.005   2.742  -1.022  0.00  0.00     0.217 HD
ENDBRANCH  12  17
BRANCH  14  19
ATOM     19  O   UNL d   1       4.372   5.701   0.321  0.00  0.00    -0.361 OA
ATOM     20  H   UNL d   1       5.136   5.601   0.916  0.00  0.00     0.217 HD
ENDBRANCH  14  19
ENDBRANCH   5  11
BRANCH   8  21
ATOM     21  C   UNL d   1      -3.358   0.650  -0.104  0.00  0.00     0.009 A 
ATOM     22  C   UNL d   1      -3.886   1.945  -0.169  0.00  0.00     0.015 A 
ATOM     23  C   UNL d   1      -5.270   2.142  -0.275  0.00  0.00     0.001 A 
ATOM     24  C   UNL d   1      -6.138   1.050  -0.313  0.00  0.00     0.000 A 
ATOM     25  C   UNL d   1      -5.629  -0.242  -0.232  0.00  0.00     0.001 A 
ATOM     26  C   UNL d   1      -4.250  -0.439  -0.126  0.00  0.00     0.015 A 
ENDBRANCH   8  21
TORSDOF 4
