REMARK  5 active torsions:
REMARK  status: ('A' for Active; 'I' for Inactive)
REMARK    1  A    between atoms: C_11  and  C_1 
REMARK    2  A    between atoms: C_2  and  C_14 
REMARK    3  A    between atoms: C_17  and  C_7 
REMARK    4  A    between atoms: C_16  and  C_8 
REMARK       I    between atoms: N_15  and  C_11 
REMARK    5  A    between atoms: C_14  and  N_15 
ROOT
ATOM      1  C   UNL d   1       0.207  -2.592  -0.241  0.00  0.00     0.256 C 
ATOM      2  N   UNL d   1      -0.621  -3.627  -0.640  0.00  0.00    -0.352 N 
ATOM      3  O   UNL d   1      -0.242  -1.579   0.276  0.00  0.00    -0.267 OA
ATOM      4  H   UNL d   1      -0.199  -4.514  -0.856  0.00  0.00     0.163 HD
ENDROOT
BRANCH   2   5
ATOM      5  C   UNL d   1      -2.035  -3.663  -0.308  0.00  0.00     0.166 C 
BRANCH   5   6
ATOM      6  C   UNL d   1      -2.947  -3.264  -1.423  0.00  0.00     0.020 A 
ATOM      7  C   UNL d   1      -4.394  -3.370  -1.440  0.00  0.00     0.075 A 
ATOM      8  N   UNL d   1      -4.879  -2.893  -2.598  0.00  0.00    -0.260 N 
ATOM      9  O   UNL d   1      -3.812  -2.455  -3.326  0.00  0.00    -0.242 OA
ATOM     10  HN  UNL d   1      -5.859  -2.865  -2.880  1.00  0.00     0.195 HD
ATOM     11  C   UNL d   1      -2.664  -2.660  -2.638  0.00  0.00     0.082 A 
ATOM     12  C   UNL d   1      -1.457  -2.176  -3.332  0.00  0.00     0.079 C 
BRANCH   7  13
ATOM     13  C   UNL d   1      -5.349  -3.873  -0.439  0.00  0.00    -0.007 A 
ATOM     14  C   UNL d   1      -5.054  -4.941   0.416  0.00  0.00     0.014 A 
ATOM     15  C   UNL d   1      -6.003  -5.414   1.330  0.00  0.00     0.001 A 
ATOM     16  C   UNL d   1      -7.270  -4.838   1.391  0.00  0.00     0.000 A 
ATOM     17  C   UNL d   1      -7.590  -3.786   0.540  0.00  0.00     0.001 A 
ATOM     18  C   UNL d   1      -6.637  -3.306  -0.363  0.00  0.00     0.014 A 
ENDBRANCH   7  13
ENDBRANCH   5   6
ENDBRANCH   2   5
BRANCH   1  19
ATOM     19  C   UNL d   1       1.638  -2.793  -0.458  0.00  0.00     0.092 A 
ATOM     20  C   UNL d   1       2.758  -2.151   0.199  0.00  0.00     0.083 A 
ATOM     21  N   UNL d   1       3.910  -2.555  -0.365  0.00  0.00    -0.259 N 
ATOM     22  O   UNL d   1       3.591  -3.468  -1.323  0.00  0.00    -0.241 OA
ATOM     23  HN  UNL d   1       4.848  -2.236  -0.120  1.00  0.00     0.195 HD
ATOM     24  C   UNL d   1       2.249  -3.635  -1.375  0.00  0.00     0.090 A 
ATOM     25  C   UNL d   1       1.817  -4.632  -2.376  0.00  0.00     0.080 C 
BRANCH  20  26
ATOM     26  C   UNL d   1       2.841  -1.240   1.351  0.00  0.00    -0.006 A 
ATOM     27  C   UNL d   1       3.925  -0.347   1.458  0.00  0.00     0.014 A 
ATOM     28  C   UNL d   1       4.100   0.447   2.595  0.00  0.00     0.001 A 
ATOM     29  C   UNL d   1       3.192   0.364   3.644  0.00  0.00     0.000 A 
ATOM     30  C   UNL d   1       2.111  -0.510   3.555  0.00  0.00     0.001 A 
ATOM     31  C   UNL d   1       1.940  -1.312   2.419  0.00  0.00     0.014 A 
ENDBRANCH  20  26
ENDBRANCH   1  19
TORSDOF 5
