REMARK  2 active torsions:
REMARK  status: ('A' for Active; 'I' for Inactive)
REMARK    1  A    between atoms: C_4  and  C_3 
REMARK    2  A    between atoms: C_10  and  C_5 
ROOT
ATOM      1  N   UNL d   1       1.431  -0.638  -0.132  0.00  0.00    -0.347 N 
ATOM      2  HN  UNL d   1       2.305  -1.144  -0.271  1.00  0.00     0.167 HD
ATOM      3  C   UNL d   1       1.322   0.733   0.004  0.00  0.00     0.074 A 
ATOM      4  C   UNL d   1       0.238  -1.198  -0.056  0.00  0.00     0.085 A 
ATOM      5  S   UNL d   1      -1.066  -0.087   0.170  0.00  0.00    -0.081 SA
ATOM      6  C   UNL d   1       0.044   1.213   0.178  0.00  0.00     0.084 A 
ENDROOT
BRANCH   4   7
ATOM      7  C   UNL d   1       0.001  -2.651  -0.088  0.00  0.00     0.001 A 
ATOM      8  C   UNL d   1       0.997  -3.516   0.395  0.00  0.00     0.054 A 
ATOM      9  C   UNL d   1       0.805  -4.899   0.390  0.00  0.00     0.103 A 
ATOM     10  O   UNL d   1       1.831  -5.666   0.880  0.00  0.00    -0.346 OA
ATOM     11  C   UNL d   1      -0.391  -5.438  -0.086  0.00  0.00     0.102 A 
ATOM     12  C   UNL d   1       1.679  -7.040   0.505  0.00  0.00     0.202 C 
ATOM     13  C   UNL d   1       0.250  -7.507   0.732  0.00  0.00     0.202 C 
ATOM     14  O   UNL d   1      -0.662  -6.782  -0.099  0.00  0.00    -0.346 OA
ATOM     15  C   UNL d   1      -1.378  -4.598  -0.594  0.00  0.00     0.040 A 
ATOM     16  C   UNL d   1      -1.184  -3.214  -0.594  0.00  0.00     0.017 A 
ENDBRANCH   4   7
BRANCH   3  17
ATOM     17  C   UNL d   1       2.511   1.627  -0.025  0.00  0.00     0.104 A 
ATOM     18  O   UNL d   1       2.474   2.975   0.204  0.00  0.00    -0.308 OA
ATOM     19  C   UNL d   1       3.749   3.436   0.101  0.00  0.00     0.086 A 
ATOM     20  C   UNL d   1       4.147   4.757   0.287  0.00  0.00     0.038 A 
ATOM     21  C   UNL d   1       4.615   2.398  -0.220  0.00  0.00     0.001 A 
ATOM     22  C   UNL d   1       5.508   5.028   0.117  0.00  0.00     0.003 A 
ATOM     23  C   UNL d   1       6.409   4.015  -0.226  0.00  0.00     0.001 A 
ATOM     24  C   UNL d   1       5.979   2.691  -0.396  0.00  0.00     0.014 A 
ATOM     25  C   UNL d   1       3.809   1.232  -0.282  0.00  0.00     0.054 A 
ENDBRANCH   3  17
TORSDOF 2
