REMARK  5 active torsions:
REMARK  status: ('A' for Active; 'I' for Inactive)
REMARK    1  A    between atoms: C_4  and  C_1 
REMARK       I    between atoms: N_7  and  C_4 
REMARK    2  A    between atoms: C_9  and  N_7 
REMARK    3  A    between atoms: S_14  and  C_12 
REMARK    4  A    between atoms: C_19  and  S_14 
REMARK    5  A    between atoms: C_15  and  C_19 
ROOT
ATOM      1  N   UNL d   1       9.880  -6.564   1.534  0.00  0.00    -0.197 NA
ATOM      2  C   UNL d   1       9.146  -5.703   1.817  0.00  0.00     0.059 C 
ATOM      3  C   UNL d   1       8.218  -4.629   2.188  0.00  0.00     0.134 C 
ENDROOT
BRANCH   3   4
ATOM      4  C   UNL d   1       7.017  -4.605   1.245  0.00  0.00     0.093 C 
BRANCH   4   5
ATOM      5  S   UNL d   1       5.903  -3.211   1.669  0.00  0.00    -0.127 SA
BRANCH   5   6
ATOM      6  C   UNL d   1       4.531  -3.509   0.542  0.00  0.00     0.027 A 
ATOM      7  C   UNL d   1       3.980  -2.506  -0.288  0.00  0.00     0.051 A 
ATOM      8  C   UNL d   1       2.807  -2.758  -1.015  0.00  0.00     0.031 A 
ATOM      9  C   UNL d   1       2.188  -4.003  -0.956  0.00  0.00     0.002 A 
ATOM     10  C   UNL d   1       2.708  -4.991  -0.128  0.00  0.00     0.002 A 
ATOM     11  C   UNL d   1       3.859  -4.741   0.625  0.00  0.00     0.021 A 
BRANCH   7  12
ATOM     12  N   UNL d   1       4.510  -1.201  -0.407  0.00  0.00    -0.321 N 
ATOM     13  C   UNL d   1       5.757  -0.964  -0.973  0.00  0.00     0.264 C 
ATOM     14  O   UNL d   1       6.515  -1.881  -1.288  0.00  0.00    -0.267 OA
ATOM     15  H   UNL d   1       3.831  -0.466  -0.567  0.00  0.00     0.169 HD
BRANCH  13  16
ATOM     16  C   UNL d   1       6.065   0.445  -1.242  0.00  0.00     0.096 A 
ATOM     17  S   UNL d   1       7.683   0.822  -1.673  0.00  0.00    -0.082 SA
ATOM     18  C   UNL d   1       7.343   2.483  -1.918  0.00  0.00     0.017 A 
ATOM     19  C   UNL d   1       8.258   3.476  -2.322  0.00  0.00     0.020 A 
ATOM     20  C   UNL d   1       6.000   2.773  -1.675  0.00  0.00     0.004 A 
ATOM     21  C   UNL d   1       7.802   4.779  -2.527  0.00  0.00     0.001 A 
ATOM     22  C   UNL d   1       6.467   5.093  -2.326  0.00  0.00     0.001 A 
ATOM     23  C   UNL d   1       5.569   4.111  -1.893  0.00  0.00     0.014 A 
ATOM     24  C   UNL d   1       5.290   1.593  -1.234  0.00  0.00     0.068 A 
ATOM     25 CL   UNL d   1       3.620   1.686  -0.809  0.00  0.00    -0.082 Cl
ENDBRANCH  13  16
ENDBRANCH   7  12
ENDBRANCH   5   6
ENDBRANCH   4   5
ENDBRANCH   3   4
TORSDOF 5
