REMARK  5 active torsions:
REMARK  status: ('A' for Active; 'I' for Inactive)
REMARK    1  A    between atoms: C_6  and  C_2 
REMARK    2  A    between atoms: C_7  and  C_6 
REMARK    3  A    between atoms: O_10  and  C_7 
REMARK    4  A    between atoms: C_11  and  O_10 
REMARK    5  A    between atoms: C_12  and  C_11 
ROOT
ATOM      1  C   UNL d   1       2.262  -2.354   0.055  0.00  0.00     0.152 C 
ENDROOT
BRANCH   1   2
ATOM      2  C   UNL d   1       1.492  -2.459   1.336  0.00  0.00    -0.009 A 
ATOM      3  C   UNL d   1       0.871  -3.600   1.792  0.00  0.00     0.083 A 
ATOM      4  S   UNL d   1      -0.006  -3.395   3.216  0.00  0.00    -0.077 SA
ATOM      5 CL   UNL d   1       0.878  -5.157   1.056  0.00  0.00    -0.076 Cl
ATOM      6  C   UNL d   1       0.420  -1.732   3.314  0.00  0.00     0.017 A 
ATOM      7  C   UNL d   1       0.026  -0.819   4.314  0.00  0.00     0.020 A 
ATOM      8  C   UNL d   1       1.240  -1.352   2.244  0.00  0.00    -0.010 A 
ATOM      9  C   UNL d   1       0.474   0.500   4.241  0.00  0.00     0.001 A 
ATOM     10  C   UNL d   1       1.290   0.907   3.196  0.00  0.00     0.001 A 
ATOM     11  C   UNL d   1       1.671   0.000   2.201  0.00  0.00     0.013 A 
ENDBRANCH   1   2
BRANCH   1  12
ATOM     12  C   UNL d   1       3.759  -2.467   0.218  0.00  0.00     0.263 C 
ATOM     13  O   UNL d   1       4.477  -1.535   0.550  0.00  0.00    -0.265 OA
BRANCH  12  14
ATOM     14  O   UNL d   1       4.204  -3.699  -0.163  0.00  0.00    -0.317 OA
BRANCH  14  15
ATOM     15  C   UNL d   1       5.569  -3.749  -0.613  0.00  0.00     0.217 C 
BRANCH  15  16
ATOM     16  C   UNL d   1       6.511  -4.534   0.269  0.00  0.00    -0.034 A 
ATOM     17  C   UNL d   1       7.622  -5.165  -0.321  0.00  0.00     0.009 A 
ATOM     18  C   UNL d   1       8.560  -5.849   0.455  0.00  0.00     0.001 A 
ATOM     19  C   UNL d   1       8.406  -5.902   1.836  0.00  0.00     0.000 A 
ATOM     20  C   UNL d   1       7.323  -5.264   2.439  0.00  0.00     0.001 A 
ATOM     21  C   UNL d   1       6.383  -4.578   1.662  0.00  0.00     0.009 A 
ENDBRANCH  15  16
ENDBRANCH  14  15
ENDBRANCH  12  14
ENDBRANCH   1  12
TORSDOF 5
