REMARK  6 active torsions:
REMARK  status: ('A' for Active; 'I' for Inactive)
REMARK    1  A    between atoms: C_2  and  C_1 
REMARK       I    between atoms: N_4  and  C_1 
REMARK    2  A    between atoms: C_7  and  C_2 
REMARK    3  A    between atoms: N_5  and  N_4 
REMARK    4  A    between atoms: C_6  and  O_13 
REMARK    5  A    between atoms: O_13  and  C_7 
REMARK    6  A    between atoms: O_14  and  C_8 
ROOT
ATOM      1  C   UNL d   1       0.862  -2.719   0.554  0.00  0.00     0.185 C 
ENDROOT
BRANCH   1   2
ATOM      2  C   UNL d   1      -0.046  -1.498   0.589  0.00  0.00     0.131 C 
BRANCH   2   3
ATOM      3  C   UNL d   1       0.407  -0.559   1.688  0.00  0.00     0.233 C 
ATOM      4  O   UNL d   1       1.363  -0.801   2.420  0.00  0.00    -0.272 OA
ATOM      5  N   UNL d   1      -0.299   0.613   1.861  0.00  0.00    -0.294 N 
ATOM      6  H   UNL d   1       0.033   1.213   2.616  0.00  0.00     0.183 HD
BRANCH   5   7
ATOM      7  N   UNL d   1      -1.375   1.040   1.075  0.00  0.00    -0.247 NA
ATOM      8  H   UNL d   1      -2.057   0.287   0.969  0.00  0.00     0.143 HD
ATOM      9  H   UNL d   1      -1.040   1.283   0.140  0.00  0.00     0.143 HD
ENDBRANCH   5   7
ENDBRANCH   2   3
ENDBRANCH   1   2
BRANCH   1  10
ATOM     10  O   UNL d   1       0.416  -3.626  -0.459  0.00  0.00    -0.351 OA
BRANCH  10  11
ATOM     11  C   UNL d   1       1.155  -4.775  -0.589  0.00  0.00     0.068 A 
ATOM     12  C   UNL d   1       2.296  -5.097   0.150  0.00  0.00     0.039 A 
ATOM     13  C   UNL d   1       2.979  -6.297  -0.078  0.00  0.00     0.039 A 
ATOM     14  C   UNL d   1       2.530  -7.188  -1.050  0.00  0.00     0.068 A 
ATOM     15  C   UNL d   1       1.377  -6.880  -1.774  0.00  0.00     0.039 A 
ATOM     16  C   UNL d   1       0.698  -5.676  -1.551  0.00  0.00     0.039 A 
BRANCH  14  17
ATOM     17  O   UNL d   1       3.114  -8.386  -1.356  0.00  0.00    -0.356 OA
ATOM     18  C   UNL d   1       4.475  -8.535  -0.965  0.00  0.00     0.210 C 
ENDBRANCH  14  17
ENDBRANCH  10  11
ENDBRANCH   1  10
TORSDOF 6
