REMARK  3 active torsions:
REMARK  status: ('A' for Active; 'I' for Inactive)
REMARK    1  A    between atoms: C_4  and  N_1 
REMARK    2  A    between atoms: C_9  and  C_6 
REMARK    3  A    between atoms: O_19  and  C_9 
ROOT
ATOM      1  N   UNL d   1      -0.693   1.126  -0.076  0.00  0.00    -0.272 N 
ATOM      2  N   UNL d   1      -0.675  -1.227  -0.052  0.00  0.00    -0.269 N 
ATOM      3  C   UNL d   1      -1.440  -0.058  -0.064  0.00  0.00     0.335 A 
ATOM      4  C   UNL d   1       1.413   0.040  -0.104  0.00  0.00     0.128 A 
ATOM      5  C   UNL d   1       0.714  -1.265  -0.059  0.00  0.00     0.273 A 
ATOM      6  C   UNL d   1       0.681   1.159  -0.118  0.00  0.00     0.130 A 
ATOM      7  C   UNL d   1       2.833   0.086  -0.093  0.00  0.00     0.106 C 
ATOM      8  N   UNL d   1       3.987   0.195  -0.081  0.00  0.00    -0.191 NA
ATOM      9  O   UNL d   1      -2.672  -0.073  -0.083  0.00  0.00    -0.246 OA
ATOM     10  O   UNL d   1       1.357  -2.311  -0.027  0.00  0.00    -0.266 OA
ATOM     11  C   UNL d   1      -1.366  -2.503  -0.019  0.00  0.00     0.164 C 
ENDROOT
BRANCH   1  12
ATOM     12  C   UNL d   1      -1.341   2.368   0.021  0.00  0.00     0.067 A 
ATOM     13  C   UNL d   1      -2.168   2.763   1.071  0.00  0.00     0.107 A 
ATOM     14  S   UNL d   1      -2.847   4.319   0.768  0.00  0.00    -0.094 SA
ATOM     15  C   UNL d   1      -2.014   4.487  -0.707  0.00  0.00     0.053 A 
ATOM     16  C   UNL d   1      -1.223   3.395  -0.977  0.00  0.00     0.039 A 
BRANCH  13  17
ATOM     17  C   UNL d   1      -2.490   2.133   2.345  0.00  0.00     0.302 C 
ATOM     18  O   UNL d   1      -3.282   2.554   3.181  0.00  0.00    -0.259 OA
BRANCH  17  19
ATOM     19  O   UNL d   1      -1.721   1.019   2.540  0.00  0.00    -0.322 OA
ATOM     20  C   UNL d   1      -1.984   0.309   3.751  0.00  0.00     0.213 C 
ENDBRANCH  17  19
ENDBRANCH  13  17
ENDBRANCH   1  12
TORSDOF 3
