REMARK  7 active torsions:
REMARK  status: ('A' for Active; 'I' for Inactive)
REMARK    1  A    between atoms: C_8  and  C_3 
REMARK    2  A    between atoms: C_6  and  C_4 
REMARK    3  A    between atoms: C_9  and  C_19 
REMARK    4  A    between atoms: N_16  and  N_10 
REMARK    5  A    between atoms: O_18  and  C_14 
REMARK    6  A    between atoms: C_24  and  N_16 
REMARK    7  A    between atoms: C_19  and  O_18 
ROOT
ATOM      1  N   UNL d   1       4.046  -0.290  -0.104  0.00  0.00    -0.348 N 
ATOM      2  HN  UNL d   1       3.305  -0.986  -0.192  1.00  0.00     0.166 HD
ATOM      3  C   UNL d   1       3.833   1.088  -0.049  0.00  0.00     0.063 A 
ATOM      4  C   UNL d   1       5.335  -0.575  -0.025  0.00  0.00     0.086 A 
ATOM      5  S   UNL d   1       6.360   0.812   0.016  0.00  0.00    -0.081 SA
ATOM      6  C   UNL d   1       4.994   1.835   0.002  0.00  0.00     0.083 A 
ENDROOT
BRANCH   4   7
ATOM      7  C   UNL d   1       5.878  -1.946   0.022  0.00  0.00     0.013 A 
ATOM      8  C   UNL d   1       7.233  -2.244   0.121  0.00  0.00     0.104 A 
ATOM      9  N   UNL d   1       7.753  -3.502   0.154  0.00  0.00    -0.346 N 
ATOM     10  C   UNL d   1       6.893  -4.537   0.096  0.00  0.00     0.142 A 
ATOM     11  HN  UNL d   1       8.759  -3.656   0.220  1.00  0.00     0.167 HD
ATOM     12  C   UNL d   1       5.523  -4.354   0.005  0.00  0.00     0.057 A 
ATOM     13  C   UNL d   1       5.018  -3.049  -0.030  0.00  0.00     0.020 A 
BRANCH  10  14
ATOM     14  O   UNL d   1       7.521  -5.747   0.053  0.00  0.00    -0.327 OA
BRANCH  14  15
ATOM     15  C   UNL d   1       6.838  -6.830   0.687  0.00  0.00     0.294 C 
BRANCH  15  16
ATOM     16  C   UNL d   1       7.682  -8.103   0.672  0.00  0.00     0.408 C 
ATOM     17  F   UNL d   1       8.909  -7.927   0.139  0.00  0.00    -0.169 F 
ATOM     18  F   UNL d   1       7.847  -8.589   1.925  0.00  0.00    -0.169 F 
ATOM     19  F   UNL d   1       7.064  -9.071  -0.050  0.00  0.00    -0.169 F 
ENDBRANCH  15  16
ENDBRANCH  14  15
ENDBRANCH  10  14
ENDBRANCH   4   7
BRANCH   3  20
ATOM     20  C   UNL d   1       2.483   1.653  -0.024  0.00  0.00     0.049 C 
ATOM     21  N   UNL d   1       2.345   2.815   0.554  0.00  0.00    -0.303 N 
ATOM     22  HN  UNL d   1       3.156   3.320   0.911  1.00  0.00     0.186 HD
ATOM     23  C   UNL d   1       1.351   0.867  -0.640  0.00  0.00     0.072 C 
BRANCH  21  24
ATOM     24  N   UNL d   1       1.097   3.333   0.667  0.00  0.00    -0.301 N 
ATOM     25  H   UNL d   1       0.284   2.929   0.215  0.00  0.00     0.187 HD
BRANCH  24  26
ATOM     26  C   UNL d   1       0.894   4.572   1.300  0.00  0.00     0.048 A 
ATOM     27  C   UNL d   1       1.948   5.357   1.783  0.00  0.00     0.031 A 
ATOM     28  C   UNL d   1       1.703   6.577   2.424  0.00  0.00     0.002 A 
ATOM     29  C   UNL d   1       0.396   7.018   2.611  0.00  0.00     0.000 A 
ATOM     30  C   UNL d   1      -0.667   6.236   2.166  0.00  0.00     0.002 A 
ATOM     31  C   UNL d   1      -0.418   5.021   1.521  0.00  0.00     0.031 A 
ENDBRANCH  24  26
ENDBRANCH  21  24
ENDBRANCH   3  20
TORSDOF 7
