REMARK  2 active torsions:
REMARK  status: ('A' for Active; 'I' for Inactive)
REMARK    1  A    between atoms: C_9  and  C_4 
REMARK    2  A    between atoms: C_10  and  C_5 
ROOT
ATOM      1  C   UNL d   1       1.947   0.254   0.067  0.00  0.00     0.023 C 
ATOM      2  C   UNL d   1      -0.409   1.255   0.096  0.00  0.00     0.023 C 
ATOM      3  C   UNL d   1       1.069   1.454   0.234  0.00  0.00     0.188 C 
ATOM      4  C   UNL d   1       3.279   0.447   0.124  0.00  0.00     0.050 C 
ATOM      5  C   UNL d   1      -1.187   2.354   0.143  0.00  0.00     0.050 C 
ATOM      6  N   UNL d   1      -0.013  -1.130   0.568  0.00  0.00     0.092 N 
ATOM      7  C   UNL d   1       1.276  -1.077  -0.122  0.00  0.00     0.315 C 
ATOM      8  C   UNL d   1      -0.916  -0.152  -0.039  0.00  0.00     0.315 C 
ATOM      9  O   UNL d   1       1.546   2.570   0.447  0.00  0.00    -0.287 OA
ATOM     10  C   UNL d   1      -0.586  -2.474   0.476  0.00  0.00     0.310 C 
ENDROOT
BRANCH   4  11
ATOM     11  C   UNL d   1       4.211  -0.602  -0.120  0.00  0.00     0.075 A 
ATOM     12  O   UNL d   1       3.973  -1.649  -0.989  0.00  0.00    -0.323 OA
ATOM     13  C   UNL d   1       5.054  -2.462  -0.996  0.00  0.00     0.142 A 
ATOM     14  C   UNL d   1       6.022  -1.973  -0.157  0.00  0.00     0.027 A 
ATOM     15  C   UNL d   1       5.491  -0.781   0.394  0.00  0.00     0.039 A 
ENDBRANCH   4  11
BRANCH   5  16
ATOM     16  C   UNL d   1      -2.606   2.300   0.019  0.00  0.00     0.075 A 
ATOM     17  O   UNL d   1      -3.287   1.319  -0.673  0.00  0.00    -0.323 OA
ATOM     18  C   UNL d   1      -4.615   1.536  -0.540  0.00  0.00     0.142 A 
ATOM     19  C   UNL d   1      -4.840   2.666   0.203  0.00  0.00     0.027 A 
ATOM     20  C   UNL d   1      -3.560   3.168   0.537  0.00  0.00     0.039 A 
ENDBRANCH   5  16
TORSDOF 2
