REMARK  2 active torsions:
REMARK  status: ('A' for Active; 'I' for Inactive)
REMARK    1  A    between atoms: C_10  and  N_1 
REMARK    2  A    between atoms: C_15  and  C_10 
ROOT
ATOM      1  N   UNL d   1       2.272   0.465   0.103  0.00  0.00    -0.301 N 
ATOM      2  C   UNL d   1       1.188   1.346   0.117  0.00  0.00     0.261 A 
ATOM      3  C   UNL d   1      -0.157   0.747   0.103  0.00  0.00     0.059 A 
ATOM      4  N   UNL d   1       0.898  -1.449   0.212  0.00  0.00    -0.345 N 
ATOM      5  HN  UNL d   1       0.806  -2.462   0.286  1.00  0.00     0.167 HD
ATOM      6  C   UNL d   1       2.070  -0.898   0.181  0.00  0.00     0.082 A 
ATOM      7  C   UNL d   1      -0.238  -0.641   0.143  0.00  0.00     0.050 A 
ATOM      8  C   UNL d   1      -1.313   1.531   0.004  0.00  0.00     0.021 A 
ATOM      9  C   UNL d   1      -1.491  -1.256   0.088  0.00  0.00     0.054 A 
ATOM     10  O   UNL d   1       1.304   2.569   0.129  0.00  0.00    -0.267 OA
ATOM     11  C   UNL d   1      -2.648  -0.480  -0.013  0.00  0.00     0.036 A 
ATOM     12  C   UNL d   1      -2.565   0.910  -0.055  0.00  0.00     0.025 A 
ATOM     13  C   UNL d   1       3.253  -1.834   0.208  0.00  0.00     0.089 C 
ATOM     14 CL   UNL d   1      -4.184  -1.250  -0.095  0.00  0.00    -0.084 Cl
ENDROOT
BRANCH   1  15
ATOM     15  C   UNL d   1       3.599   1.076  -0.073  0.00  0.00     0.165 C 
BRANCH  15  16
ATOM     16  C   UNL d   1       4.279   1.537   1.230  0.00  0.00     0.140 C 
ATOM     17  O   UNL d   1       4.723   0.402   1.986  0.00  0.00    -0.384 OA
ATOM     18  C   UNL d   1       6.031   0.642   2.509  0.00  0.00     0.168 C 
ATOM     19  C   UNL d   1       6.502   1.992   2.017  0.00  0.00     0.029 C 
ATOM     20  C   UNL d   1       5.522   2.365   0.932  0.00  0.00     0.035 C 
ENDBRANCH  15  16
ENDBRANCH   1  15
TORSDOF 2
