REMARK  3 active torsions:
REMARK  status: ('A' for Active; 'I' for Inactive)
REMARK    1  A    between atoms: N_11  and  C_5 
REMARK    2  A    between atoms: N_9  and  C_6 
REMARK    3  A    between atoms: O_12  and  C_7 
ROOT
ATOM      1  N   UNL d   1      -0.622   1.206   0.026  0.00  0.00    -0.322 N 
ATOM      2  HN  UNL d   1      -1.131   2.090   0.008  1.00  0.00     0.169 HD
ATOM      3  N   UNL d   1      -0.676  -1.159   0.126  0.00  0.00    -0.312 N 
ATOM      4  HN  UNL d   1      -1.212  -2.024   0.188  1.00  0.00     0.170 HD
ATOM      5  C   UNL d   1      -1.263   0.037   0.136  0.00  0.00     0.158 A 
ATOM      6  C   UNL d   1       0.717   1.170  -0.059  0.00  0.00     0.102 A 
ATOM      7  C   UNL d   1       0.660  -1.158   0.030  0.00  0.00     0.163 A 
ATOM      8  C   UNL d   1       1.426  -0.017  -0.064  0.00  0.00     0.099 A 
ATOM      9 BR   UNL d   1       3.311  -0.091  -0.174  0.00  0.00    -0.043 Br
ENDROOT
BRANCH   5  10
ATOM     10  N   UNL d   1      -2.638   0.068   0.225  0.00  0.00    -0.274 NA
ATOM     11  H   UNL d   1      -3.018  -0.811  -0.100  0.00  0.00     0.127 HD
ATOM     12  H   UNL d   1      -2.996   0.912  -0.198  0.00  0.00     0.127 HD
ENDBRANCH   5  10
BRANCH   7  13
ATOM     13  O   UNL d   1       1.219  -2.407   0.030  0.00  0.00    -0.345 OA
ATOM     14  H   UNL d   1       2.180  -2.295  -0.053  0.00  0.00     0.219 HD
ENDBRANCH   7  13
BRANCH   6  15
ATOM     15  N   UNL d   1       1.340   2.412  -0.213  0.00  0.00    -0.287 NA
ATOM     16  H   UNL d   1       0.635   3.137  -0.100  0.00  0.00     0.125 HD
ATOM     17  H   UNL d   1       2.129   2.532   0.413  0.00  0.00     0.125 HD
ENDBRANCH   6  15
TORSDOF 3
