REMARK  4 active torsions:
REMARK  status: ('A' for Active; 'I' for Inactive)
REMARK    1  A    between atoms: C_2  and  C_1 
REMARK       I    between atoms: C_3  and  N_4 
REMARK    2  A    between atoms: C_9  and  C_3 
REMARK    3  A    between atoms: N_4  and  C_5 
REMARK    4  A    between atoms: N_8  and  C_9 
ROOT
ATOM      1  C   UNL d   1      -1.029  -1.717   9.638  0.00  0.00     0.049 A 
ATOM      2  C   UNL d   1      -1.166   0.109   7.462  0.00  0.00     0.056 A 
ATOM      3  C   UNL d   1      -2.233  -0.760   7.746  0.00  0.00     0.061 A 
ATOM      4  C   UNL d   1      -2.168  -1.664   8.820  0.00  0.00     0.042 A 
ATOM      5  C   UNL d   1       0.055  -0.893   9.318  0.00  0.00     0.018 A 
ATOM      6  C   UNL d   1      -0.014   0.007   8.249  0.00  0.00     0.032 A 
ATOM      7 CL   UNL d   1      -3.685  -0.732   6.804  0.00  0.00    -0.082 Cl
ENDROOT
BRANCH   2   8
ATOM      8  N   UNL d   1      -1.306   1.094   6.454  0.00  0.00    -0.324 N 
ATOM      9  C   UNL d   1      -0.350   2.027   6.059  0.00  0.00     0.250 C 
ATOM     10  O   UNL d   1       0.838   2.012   6.369  0.00  0.00    -0.271 OA
ATOM     11  H   UNL d   1      -2.198   1.128   5.961  0.00  0.00     0.169 HD
BRANCH   9  12
ATOM     12  C   UNL d   1      -0.891   3.171   5.190  0.00  0.00     0.374 C 
BRANCH  12  13
ATOM     13  N   UNL d   1      -1.184   2.743   3.810  0.00  0.00     0.097 N 
ATOM     14  C   UNL d   1       0.006   2.204   3.126  0.00  0.00     0.273 C 
ATOM     15  C   UNL d   1      -0.423   1.601   1.791  0.00  0.00     0.030 C 
ATOM     16  C   UNL d   1      -1.147   2.609   0.900  0.00  0.00     0.003 C 
ATOM     17  C   UNL d   1      -2.188   3.420   1.669  0.00  0.00     0.030 C 
ATOM     18  C   UNL d   1      -1.679   3.893   3.029  0.00  0.00     0.273 C 
ENDBRANCH  12  13
ENDBRANCH   9  12
ENDBRANCH   2   8
BRANCH   1  19
ATOM     19  C   UNL d   1      -0.953  -2.602  10.857  0.00  0.00     0.417 C 
ATOM     20  F   UNL d   1      -2.099  -3.292  11.104  0.00  0.00    -0.166 F 
ATOM     21  F   UNL d   1      -0.696  -1.891  11.991  0.00  0.00    -0.166 F 
ATOM     22  F   UNL d   1       0.036  -3.533  10.769  0.00  0.00    -0.166 F 
ENDBRANCH   1  19
TORSDOF 4
