REMARK  6 active torsions:
REMARK  status: ('A' for Active; 'I' for Inactive)
REMARK    1  A    between atoms: N_5  and  C_1 
REMARK    2  A    between atoms: C_4  and  C_6 
REMARK       I    between atoms: C_7  and  N_10 
REMARK    3  A    between atoms: C_17  and  C_7 
REMARK    4  A    between atoms: N_10  and  C_21 
REMARK    5  A    between atoms: C_20  and  C_17 
REMARK    6  A    between atoms: O_26  and  C_25 
ROOT
ATOM      1  N   UNL d   1       0.237   2.674   0.084  0.00  0.00    -0.217 N 
ATOM      2  C   UNL d   1       0.075   3.433  -1.157  0.00  0.00     0.143 C 
ATOM      3  C   UNL d   1      -0.353   3.267   1.282  0.00  0.00     0.143 C 
ATOM      4  C   UNL d   1       0.611   4.855  -0.977  0.00  0.00     0.045 C 
ATOM      5  C   UNL d   1       0.248   4.653   1.476  0.00  0.00     0.045 C 
ATOM      6  C   UNL d   1      -0.008   5.540   0.249  0.00  0.00     0.087 C 
ENDROOT
BRANCH   6   7
ATOM      7  N   UNL d   1      -1.420   5.845  -0.012  0.00  0.00    -0.356 N 
ATOM      8  C   UNL d   1      -2.298   6.266   0.966  0.00  0.00     0.222 C 
ATOM      9  O   UNL d   1      -2.027   6.324   2.159  0.00  0.00    -0.273 OA
ATOM     10  H   UNL d   1      -1.645   6.146  -0.953  0.00  0.00     0.162 HD
BRANCH   8  11
ATOM     11  C   UNL d   1      -3.670   6.661   0.448  0.00  0.00     0.141 C 
BRANCH  11  12
ATOM     12  C   UNL d   1      -3.836   8.158   0.356  0.00  0.00    -0.047 A 
ATOM     13  C   UNL d   1      -3.638   8.966   1.492  0.00  0.00     0.044 A 
ATOM     14  C   UNL d   1      -3.784  10.351   1.417  0.00  0.00     0.068 A 
ATOM     15  C   UNL d   1      -4.152  10.929   0.202  0.00  0.00     0.037 A 
ATOM     16  C   UNL d   1      -4.365  10.139  -0.928  0.00  0.00     0.003 A 
ATOM     17  C   UNL d   1      -4.207   8.757  -0.853  0.00  0.00     0.007 A 
BRANCH  14  18
ATOM     18  O   UNL d   1      -3.599  11.236   2.444  0.00  0.00    -0.356 OA
ATOM     19  C   UNL d   1      -3.194  10.693   3.696  0.00  0.00     0.210 C 
ENDBRANCH  14  18
ENDBRANCH  11  12
ENDBRANCH   8  11
ENDBRANCH   6   7
BRANCH   1  20
ATOM     20  C   UNL d   1       0.071   1.301  -0.047  0.00  0.00     0.680 A 
ATOM     21  N   UNL d   1       0.360   0.746  -1.230  0.00  0.00    -0.186 N 
ATOM     22  C   UNL d   1       0.296  -0.602  -1.363  0.00  0.00     0.133 A 
ATOM     23  HN  UNL d   1       0.626   1.330  -2.023  1.00  0.00     0.184 HD
ATOM     24  C   UNL d   1      -0.079  -1.414  -0.314  0.00  0.00     0.052 A 
ATOM     25  C   UNL d   1      -0.374  -0.769   0.859  0.00  0.00     0.108 A 
ATOM     26  N   UNL d   1      -0.303   0.564   1.010  0.00  0.00    -0.202 N 
ATOM     27  HN  UNL d   1      -0.528   1.004   1.902  1.00  0.00     0.183 HD
BRANCH  22  28
ATOM     28  C   UNL d   1       0.657  -1.216  -2.700  0.00  0.00     0.433 C 
ATOM     29  F   UNL d   1       1.036  -0.311  -3.648  0.00  0.00    -0.165 F 
ATOM     30  F   UNL d   1       1.687  -2.106  -2.605  0.00  0.00    -0.165 F 
ATOM     31  F   UNL d   1      -0.379  -1.913  -3.249  0.00  0.00    -0.165 F 
ENDBRANCH  22  28
ENDBRANCH   1  20
TORSDOF 6
