REMARK  3 active torsions:
REMARK  status: ('A' for Active; 'I' for Inactive)
REMARK    1  A    between atoms: C_11  and  C_3 
REMARK    2  A    between atoms: N_4  and  C_10 
REMARK    3  A    between atoms: O_15  and  C_5 
ROOT
ATOM      1  N   UNL d   1       2.422  -0.712  -0.021  0.00  0.00    -0.322 N 
ATOM      2  HN  UNL d   1       3.315  -1.204  -0.025  1.00  0.00     0.169 HD
ATOM      3  C   UNL d   1       2.336   0.629  -0.051  0.00  0.00     0.118 A 
ATOM      4  C   UNL d   1       1.249  -1.353   0.012  0.00  0.00     0.154 A 
ATOM      5  N   UNL d   1       1.181   1.324  -0.035  0.00  0.00    -0.341 N 
ATOM      6  HN  UNL d   1       1.182   2.344  -0.041  1.00  0.00     0.167 HD
ATOM      7  C   UNL d   1      -0.004  -0.756   0.013  0.00  0.00     0.042 A 
ATOM      8  C   UNL d   1       0.033   0.637  -0.010  0.00  0.00     0.048 A 
ATOM      9  C   UNL d   1      -1.238  -1.447   0.022  0.00  0.00     0.018 A 
ATOM     10  C   UNL d   1      -1.176   1.323  -0.024  0.00  0.00     0.030 A 
ATOM     11  C   UNL d   1      -2.435  -0.737  -0.001  0.00  0.00     0.001 A 
ATOM     12  C   UNL d   1      -2.404   0.653  -0.024  0.00  0.00     0.002 A 
ENDROOT
BRANCH   3  13
ATOM     13  C   UNL d   1       3.589   1.403  -0.175  0.00  0.00     0.010 A 
ATOM     14  C   UNL d   1       4.841   0.769  -0.297  0.00  0.00     0.051 A 
ATOM     15  C   UNL d   1       6.013   1.522  -0.472  0.00  0.00     0.103 A 
ATOM     16  C   UNL d   1       5.968   2.920  -0.515  0.00  0.00     0.036 A 
ATOM     17  C   UNL d   1       4.742   3.564  -0.379  0.00  0.00     0.003 A 
ATOM     18  C   UNL d   1       3.574   2.814  -0.212  0.00  0.00     0.015 A 
BRANCH  15  19
ATOM     19  N   UNL d   1       7.302   0.836  -0.633  0.00  0.00    -0.116 N 
ATOM     20  O   UNL d   1       7.304  -0.403  -0.598  0.00  0.00    -0.532 OA
ATOM     21  O   UNL d   1       8.311   1.535  -0.799  0.00  0.00    -0.532 OA
ENDBRANCH  15  19
ENDBRANCH   3  13
BRANCH   4  22
ATOM     22  O   UNL d   1       1.380  -2.708   0.024  0.00  0.00    -0.345 OA
ATOM     23  H   UNL d   1       2.349  -2.798  -0.005  0.00  0.00     0.219 HD
ENDBRANCH   4  22
TORSDOF 3
