REMARK  3 active torsions:
REMARK  status: ('A' for Active; 'I' for Inactive)
REMARK    1  A    between atoms: N_4  and  S_1 
REMARK    2  A    between atoms: N_2  and  C_3 
REMARK    3  A    between atoms: C_10  and  N_4 
ROOT
ATOM      1  C   UNL d   1       0.095  -0.280  -4.968  0.00  0.00     0.110 A 
ATOM      2  C   UNL d   1      -0.153  -0.652  -3.630  0.00  0.00     0.060 A 
ATOM      3  C   UNL d   1       0.896  -0.716  -2.717  0.00  0.00     0.025 A 
ATOM      4  C   UNL d   1       1.406   0.049  -5.386  0.00  0.00    -0.029 A 
ATOM      5  C   UNL d   1       2.439  -0.008  -4.430  0.00  0.00     0.011 A 
ATOM      6  C   UNL d   1       2.186  -0.380  -3.108  0.00  0.00     0.025 A 
ATOM      7  C   UNL d   1       1.782   0.455  -6.787  0.00  0.00     0.050 C 
ENDROOT
BRANCH   3   8
ATOM      8  N   UNL d   1       0.652  -1.087  -1.363  0.00  0.00    -0.186 NA
ATOM      9  H   UNL d   1      -0.004  -1.861  -1.234  0.00  0.00     0.145 HD
BRANCH   8  10
ATOM     10  S   UNL d   1       0.243   0.144  -0.275  0.00  0.00     0.210 S 
ATOM     11  O   UNL d   1      -0.598  -0.492   0.715  0.00  0.00    -0.211 OA
ATOM     12  O   UNL d   1      -0.195   1.317  -0.997  0.00  0.00    -0.211 OA
ATOM     13  C   UNL d   1       1.816   0.479   0.490  0.00  0.00     0.180 C 
ENDBRANCH   8  10
ENDBRANCH   3   8
BRANCH   1  14
ATOM     14  N   UNL d   1      -1.063  -0.276  -5.889  0.00  0.00    -0.115 N 
ATOM     15  O   UNL d   1      -2.160  -0.626  -5.428  0.00  0.00    -0.532 OA
ATOM     16  O   UNL d   1      -0.891   0.055  -7.068  0.00  0.00    -0.532 OA
ENDBRANCH   1  14
TORSDOF 3
