REMARK  3 active torsions:
REMARK  status: ('A' for Active; 'I' for Inactive)
REMARK    1  A    between atoms: N_2  and  C_1 
REMARK    2  A    between atoms: N_3  and  C_1 
REMARK    3  A    between atoms: C_4  and  N_3 
ROOT
ATOM      1  C   UNL d   1       1.049  -0.082  -0.023  0.00  0.00     0.175 C 
ATOM      2  S   UNL d   1       2.666  -0.213   0.457  0.00  0.00    -0.041 SA
ENDROOT
BRANCH   1   3
ATOM      3  N   UNL d   1       0.355  -1.081  -0.743  0.00  0.00    -0.349 N 
ATOM      4  C   UNL d   1       0.767  -2.514  -0.611  0.00  0.00     0.083 C 
ATOM      5  C   UNL d   1       0.963  -3.171  -1.979  0.00  0.00     0.025 C 
ATOM      6  C   UNL d   1      -0.202  -3.309   0.275  0.00  0.00     0.032 C 
ATOM      7  C   UNL d   1      -0.295  -3.077  -2.819  0.00  0.00     0.004 C 
ATOM      8  C   UNL d   1      -0.683  -1.618  -2.978  0.00  0.00     0.025 C 
ATOM      9  C   UNL d   1      -0.831  -0.845  -1.641  0.00  0.00     0.083 C 
ATOM     10  C   UNL d   1      -1.127   0.605  -2.054  0.00  0.00     0.032 C 
ENDBRANCH   1   3
BRANCH   1  11
ATOM     11  N   UNL d   1       0.275   1.002   0.359  0.00  0.00    -0.333 N 
ATOM     12  H   UNL d   1      -0.614   0.754   0.768  0.00  0.00     0.168 HD
BRANCH  11  13
ATOM     13  C   UNL d   1       0.676   2.365   0.423  0.00  0.00     0.042 A 
ATOM     14  C   UNL d   1       0.072   3.264   1.333  0.00  0.00    -0.013 A 
ATOM     15  C   UNL d   1       0.350   4.642   1.198  0.00  0.00     0.042 A 
ATOM     16  C   UNL d   1      -0.761   2.797   2.499  0.00  0.00     0.052 C 
ATOM     17 CL   UNL d   1      -0.402   5.828   2.212  0.00  0.00    -0.084 Cl
ATOM     18  C   UNL d   1       1.242   5.115   0.230  0.00  0.00     0.024 A 
ATOM     19  C   UNL d   1       1.881   4.217  -0.616  0.00  0.00     0.004 A 
ATOM     20  C   UNL d   1       1.586   2.857  -0.526  0.00  0.00     0.030 A 
ENDBRANCH  11  13
ENDBRANCH   1  11
TORSDOF 3
