REMARK  6 active torsions:
REMARK  status: ('A' for Active; 'I' for Inactive)
REMARK    1  A    between atoms: S_3  and  C_1 
REMARK    2  A    between atoms: C_9  and  S_3 
REMARK    3  A    between atoms: C_4  and  C_9 
REMARK       I    between atoms: N_8  and  C_4 
REMARK    4  A    between atoms: C_5  and  C_12 
REMARK    5  A    between atoms: C_10  and  N_8 
REMARK    6  A    between atoms: C_21  and  C_9 
ROOT
ATOM      1  C   UNL d   1      -0.076   1.397   0.316  0.00  0.00     0.092 A 
ATOM      2  C   UNL d   1       0.588   0.385   1.035  0.00  0.00     0.084 A 
ATOM      3  N   UNL d   1      -1.336   1.251  -0.174  0.00  0.00    -0.353 N 
ATOM      4  HN  UNL d   1      -1.790   2.001  -0.696  1.00  0.00     0.166 HD
ATOM      5  C   UNL d   1      -0.071  -0.844   1.233  0.00  0.00    -0.037 A 
ATOM      6  C   UNL d   1       1.916   0.592   1.551  0.00  0.00     0.103 C 
ATOM      7  N   UNL d   1       2.987   0.716   1.975  0.00  0.00    -0.191 NA
ATOM      8  C   UNL d   1      -1.966   0.072   0.055  0.00  0.00     0.006 A 
ATOM      9  C   UNL d   1      -1.369  -0.988   0.732  0.00  0.00     0.033 A 
ATOM     10  C   UNL d   1       0.538  -2.016   1.960  0.00  0.00     0.050 C 
ATOM     11  C   UNL d   1      -3.375  -0.075  -0.438  0.00  0.00     0.068 C 
ENDROOT
BRANCH   1  12
ATOM     12  S   UNL d   1       0.778   2.899  -0.150  0.00  0.00    -0.091 SA
BRANCH  12  13
ATOM     13  C   UNL d   1      -0.551   4.219  -0.100  0.00  0.00     0.179 C 
BRANCH  13  14
ATOM     14  C   UNL d   1      -1.282   4.220   1.264  0.00  0.00     0.240 C 
ATOM     15  N   UNL d   1      -2.385   5.083   1.357  0.00  0.00    -0.324 N 
ATOM     16  H   UNL d   1      -2.456   5.837   0.677  0.00  0.00     0.169 HD
ATOM     17  O   UNL d   1      -0.892   3.535   2.209  0.00  0.00    -0.272 OA
BRANCH  15  18
ATOM     18  C   UNL d   1      -3.180   5.238   2.536  0.00  0.00     0.057 C 
ATOM     19  C   UNL d   1      -3.229   4.242   3.519  0.00  0.00     0.047 C 
ATOM     20  C   UNL d   1      -3.860   4.444   4.758  0.00  0.00     0.050 C 
ATOM     21  C   UNL d   1      -4.488   5.670   5.002  0.00  0.00     0.018 C 
ATOM     22  C   UNL d   1      -4.547   6.637   3.995  0.00  0.00     0.027 C 
ATOM     23  C   UNL d   1      -3.918   6.413   2.761  0.00  0.00     0.060 C 
ATOM     24 CL   UNL d   1      -4.064   7.628   1.541  0.00  0.00    -0.082 Cl
BRANCH  20  25
ATOM     25  C   UNL d   1      -3.844   3.359   5.808  0.00  0.00     0.417 C 
ATOM     26  F   UNL d   1      -3.245   2.206   5.400  0.00  0.00    -0.166 F 
ATOM     27  F   UNL d   1      -3.194   3.739   6.942  0.00  0.00    -0.166 F 
ATOM     28  F   UNL d   1      -5.100   3.003   6.199  0.00  0.00    -0.166 F 
ENDBRANCH  20  25
ENDBRANCH  15  18
ENDBRANCH  13  14
BRANCH  13  29
ATOM     29  C   UNL d   1       0.176   5.534  -0.418  0.00  0.00    -0.035 A 
ATOM     30  C   UNL d   1       0.676   6.375   0.593  0.00  0.00     0.009 A 
ATOM     31  C   UNL d   1       1.504   7.458   0.280  0.00  0.00     0.001 A 
ATOM     32  C   UNL d   1       1.856   7.715  -1.042  0.00  0.00     0.000 A 
ATOM     33  C   UNL d   1       1.360   6.904  -2.059  0.00  0.00     0.001 A 
ATOM     34  C   UNL d   1       0.521   5.828  -1.752  0.00  0.00     0.009 A 
ENDBRANCH  13  29
ENDBRANCH  12  13
ENDBRANCH   1  12
TORSDOF 6
