REMARK  7 active torsions:
REMARK  status: ('A' for Active; 'I' for Inactive)
REMARK    1  A    between atoms: C_2  and  S_1 
REMARK    2  A    between atoms: N_7  and  S_1 
REMARK    3  A    between atoms: C_15  and  C_4 
REMARK    4  A    between atoms: C_5  and  C_10 
REMARK    5  A    between atoms: C_6  and  C_11 
REMARK    6  A    between atoms: C_16  and  N_7 
REMARK    7  A    between atoms: S_30  and  C_13 
ROOT
ATOM      1  S   UNL d   1       0.993  -0.037  -0.143  0.00  0.00     0.269 S 
ATOM      2  O   UNL d   1       0.188   0.832  -0.973  0.00  0.00    -0.200 OA
ATOM      3  O   UNL d   1       2.441   0.015  -0.163  0.00  0.00    -0.200 OA
ENDROOT
BRANCH   1   4
ATOM      4  C   UNL d   1       0.598  -1.705  -0.659  0.00  0.00     0.121 A 
ATOM      5  S   UNL d   1      -1.007  -1.999  -1.171  0.00  0.00    -0.074 SA
ATOM      6  C   UNL d   1      -0.688  -3.651  -1.537  0.00  0.00     0.033 A 
ATOM      7  C   UNL d   1       0.624  -3.968  -1.223  0.00  0.00     0.023 A 
ATOM      8  C   UNL d   1       1.362  -2.853  -0.726  0.00  0.00     0.034 A 
BRANCH   6   9
ATOM      9  C   UNL d   1      -1.744  -4.541  -2.054  0.00  0.00     0.052 A 
ATOM     10  N   UNL d   1      -1.580  -5.839  -1.723  0.00  0.00    -0.336 N 
ATOM     11  C   UNL d   1      -2.536  -6.695  -2.120  0.00  0.00     0.144 A 
ATOM     12  HN  UNL d   1      -0.767  -6.155  -1.195  1.00  0.00     0.168 HD
ATOM     13  N   UNL d   1      -3.624  -6.350  -2.826  0.00  0.00    -0.347 N 
ATOM     14  C   UNL d   1      -3.737  -5.053  -3.155  0.00  0.00     0.092 A 
ATOM     15  HN  UNL d   1      -4.328  -7.037  -3.098  1.00  0.00     0.167 HD
ATOM     16  C   UNL d   1      -2.818  -4.097  -2.799  0.00  0.00     0.048 A 
BRANCH  11  17
ATOM     17  S   UNL d   1      -2.322  -8.395  -1.647  0.00  0.00    -0.098 SA
ATOM     18  C   UNL d   1      -3.882  -9.098  -2.241  0.00  0.00     0.099 C 
ENDBRANCH  11  17
ENDBRANCH   6   9
ENDBRANCH   1   4
BRANCH   1  19
ATOM     19  N   UNL d   1       0.452   0.171   1.442  0.00  0.00    -0.280 N 
ATOM     20  H   UNL d   1      -0.558   0.302   1.473  0.00  0.00     0.179 HD
BRANCH  19  21
ATOM     21  C   UNL d   1       1.030  -0.601   2.485  0.00  0.00     0.044 A 
ATOM     22  C   UNL d   1       2.224  -0.188   3.081  0.00  0.00     0.046 A 
ATOM     23  C   UNL d   1       2.734  -0.873   4.198  0.00  0.00     0.050 A 
ATOM     24  C   UNL d   1       2.048  -2.003   4.674  0.00  0.00     0.032 A 
ATOM     25  C   UNL d   1       0.862  -2.441   4.061  0.00  0.00     0.050 A 
ATOM     26  C   UNL d   1       0.366  -1.733   2.953  0.00  0.00     0.046 A 
BRANCH  23  27
ATOM     27  C   UNL d   1       3.965  -0.356   4.910  0.00  0.00     0.417 C 
ATOM     28  F   UNL d   1       4.289  -1.082   6.017  0.00  0.00    -0.166 F 
ATOM     29  F   UNL d   1       5.072  -0.362   4.122  0.00  0.00    -0.166 F 
ATOM     30  F   UNL d   1       3.811   0.925   5.342  0.00  0.00    -0.166 F 
ENDBRANCH  23  27
BRANCH  25  31
ATOM     31  C   UNL d   1       0.087  -3.617   4.606  0.00  0.00     0.417 C 
ATOM     32  F   UNL d   1       0.632  -4.153   5.731  0.00  0.00    -0.166 F 
ATOM     33  F   UNL d   1      -1.190  -3.276   4.934  0.00  0.00    -0.166 F 
ATOM     34  F   UNL d   1      -0.012  -4.634   3.710  0.00  0.00    -0.166 F 
ENDBRANCH  25  31
ENDBRANCH  19  21
ENDBRANCH   1  19
TORSDOF 7
