REMARK  6 active torsions:
REMARK  status: ('A' for Active; 'I' for Inactive)
REMARK    1  A    between atoms: C_2  and  S_1 
REMARK    2  A    between atoms: N_3  and  S_1 
REMARK    3  A    between atoms: C_5  and  N_3 
REMARK       I    between atoms: C_7  and  N_13 
REMARK    4  A    between atoms: C_17  and  C_7 
REMARK    5  A    between atoms: C_18  and  C_8 
REMARK    6  A    between atoms: N_13  and  C_18 
ROOT
ATOM      1  C   UNL d   1       0.337   1.646   0.377  0.00  0.00     0.116 A 
ATOM      2  S   UNL d   1       1.224   3.059  -0.008  0.00  0.00    -0.080 SA
ATOM      3  C   UNL d   1      -0.857   1.956   1.000  0.00  0.00     0.033 A 
ATOM      4  C   UNL d   1       0.001   4.088   0.613  0.00  0.00     0.002 A 
ATOM      5  C   UNL d   1      -1.045   3.360   1.145  0.00  0.00     0.018 A 
ENDROOT
BRANCH   1   6
ATOM      6  S   UNL d   1       1.070   0.073  -0.045  0.00  0.00     0.252 S 
ATOM      7  O   UNL d   1       1.905   0.313  -1.203  0.00  0.00    -0.205 OA
ATOM      8  O   UNL d   1      -0.045  -0.850  -0.095  0.00  0.00    -0.205 OA
BRANCH   6   9
ATOM      9  N   UNL d   1       2.111  -0.387   1.213  0.00  0.00    -0.178 NA
ATOM     10  H   UNL d   1       2.912   0.247   1.228  0.00  0.00     0.146 HD
BRANCH   9  11
ATOM     11  C   UNL d   1       1.518  -0.596   2.500  0.00  0.00     0.061 A 
ATOM     12  C   UNL d   1       1.478   0.442   3.435  0.00  0.00     0.139 A 
ATOM     13  C   UNL d   1       0.926   0.254   4.697  0.00  0.00     0.062 A 
ATOM     14  F   UNL d   1       2.001   1.636   3.121  0.00  0.00    -0.204 F 
ATOM     15  C   UNL d   1       0.409  -0.998   5.028  0.00  0.00     0.009 A 
ATOM     16  C   UNL d   1       0.416  -2.038   4.095  0.00  0.00     0.020 A 
ATOM     17  I   UNL d   1      -0.355  -1.322   6.934  0.00  0.00    -0.044 I 
ATOM     18  C   UNL d   1       0.958  -1.831   2.820  0.00  0.00     0.029 A 
ENDBRANCH   9  11
ENDBRANCH   6   9
ENDBRANCH   1   6
BRANCH   4  19
ATOM     19  C   UNL d   1       0.131   5.578   0.533  0.00  0.00     0.169 C 
BRANCH  19  20
ATOM     20  N   UNL d   1       0.852   6.061   1.688  0.00  0.00    -0.352 N 
ATOM     21  C   UNL d   1       0.199   6.443   2.838  0.00  0.00     0.251 C 
ATOM     22  O   UNL d   1      -1.020   6.398   2.973  0.00  0.00    -0.268 OA
ATOM     23  H   UNL d   1       1.849   5.909   1.709  0.00  0.00     0.163 HD
BRANCH  21  24
ATOM     24  C   UNL d   1       1.056   6.910   3.964  0.00  0.00     0.032 A 
ATOM     25  C   UNL d   1       2.290   7.537   3.741  0.00  0.00     0.017 A 
ATOM     26  C   UNL d   1       3.051   7.987   4.824  0.00  0.00     0.001 A 
ATOM     27  C   UNL d   1       2.579   7.819   6.127  0.00  0.00     0.000 A 
ATOM     28  C   UNL d   1       1.349   7.207   6.351  0.00  0.00     0.001 A 
ATOM     29  C   UNL d   1       0.584   6.759   5.272  0.00  0.00     0.017 A 
ENDBRANCH  21  24
ENDBRANCH  19  20
ENDBRANCH   4  19
TORSDOF 6
