REMARK  4 active torsions:
REMARK  status: ('A' for Active; 'I' for Inactive)
REMARK    1  A    between atoms: C_3  and  S_1 
REMARK    2  A    between atoms: C_13  and  S_1 
REMARK    3  A    between atoms: N_2  and  C_4 
REMARK    4  A    between atoms: C_14  and  C_13 
ROOT
ATOM      1  C   UNL d   1       0.441  -1.578   0.378  0.00  0.00     0.059 A 
ATOM      2  C   UNL d   1      -0.305  -4.193   0.976  0.00  0.00     0.102 A 
ATOM      3  C   UNL d   1       1.054  -2.642  -0.293  0.00  0.00     0.026 A 
ATOM      4  C   UNL d   1      -0.534  -1.813   1.355  0.00  0.00     0.026 A 
ATOM      5  C   UNL d   1       0.677  -3.956   0.002  0.00  0.00     0.037 A 
ATOM      6  C   UNL d   1      -0.913  -3.125   1.653  0.00  0.00     0.037 A 
ENDROOT
BRANCH   1   7
ATOM      7  S   UNL d   1       0.995   0.090   0.069  0.00  0.00     0.175 S 
ATOM      8  O   UNL d   1       2.361  -0.003  -0.406  0.00  0.00    -0.223 OA
ATOM      9  O   UNL d   1       0.666   0.868   1.248  0.00  0.00    -0.223 OA
BRANCH   7  10
ATOM     10  C   UNL d   1      -0.039   0.640  -1.278  0.00  0.00     0.145 C 
BRANCH  10  11
ATOM     11  C   UNL d   1       0.305   2.069  -1.683  0.00  0.00     0.011 C 
ATOM     12  C   UNL d   1      -0.558   2.551  -2.837  0.00  0.00     0.006 C 
ENDBRANCH  10  11
ENDBRANCH   7  10
ENDBRANCH   1   7
BRANCH   2  13
ATOM     13  N   UNL d   1      -0.692  -5.574   1.298  0.00  0.00    -0.116 N 
ATOM     14  O   UNL d   1      -0.155  -6.487   0.655  0.00  0.00    -0.532 OA
ATOM     15  O   UNL d   1      -1.536  -5.742   2.190  0.00  0.00    -0.532 OA
ENDBRANCH   2  13
TORSDOF 4
