REMARK  2 active torsions:
REMARK  status: ('A' for Active; 'I' for Inactive)
REMARK    1  A    between atoms: C_8  and  C_1 
REMARK    2  A    between atoms: O_9  and  N_6 
ROOT
ATOM      1  C   UNL d   1      -3.445  -3.068  -0.065  0.00  0.00     0.009 A 
ATOM      2  N   UNL d   1      -5.655  -2.789  -0.274  0.00  0.00    -0.364 N 
ATOM      3  C   UNL d   1      -4.460  -2.133  -0.187  0.00  0.00     0.102 A 
ATOM      4  C   UNL d   1      -4.084  -4.357  -0.033  0.00  0.00     0.004 A 
ATOM      5  C   UNL d   1      -5.460  -4.144  -0.166  0.00  0.00     0.043 A 
ATOM      6  C   UNL d   1      -3.647  -5.691   0.136  0.00  0.00     0.014 A 
ATOM      7  C   UNL d   1      -6.402  -5.182  -0.165  0.00  0.00     0.030 A 
ATOM      8  C   UNL d   1      -4.572  -6.741   0.128  0.00  0.00     0.001 A 
ATOM      9  C   UNL d   1      -5.931  -6.488  -0.021  0.00  0.00     0.002 A 
ATOM     10  H   UNL d   1      -6.560  -2.348  -0.372  0.00  0.00     0.165 HD
ENDROOT
BRANCH   1  11
ATOM     11  C   UNL d   1      -2.056  -2.663   0.087  0.00  0.00     0.127 C 
ATOM     12  N   UNL d   1      -0.976  -3.267  -0.308  0.00  0.00    -0.280 N 
ATOM     13  HN  UNL d   1      -0.038  -2.931  -0.091  1.00  0.00     0.193 HD
BRANCH  12  14
ATOM     14  O   UNL d   1      -1.219  -4.418  -1.057  0.00  0.00    -0.290 OA
ATOM     15  H   UNL d   1      -0.318  -4.737  -1.249  0.00  0.00     0.244 HD
ENDBRANCH  12  14
ENDBRANCH   1  11
TORSDOF 2
