REMARK  5 active torsions:
REMARK  status: ('A' for Active; 'I' for Inactive)
REMARK    1  A    between atoms: C_5  and  C_1 
REMARK    2  A    between atoms: C_9  and  C_4 
REMARK       I    between atoms: N_10  and  C_5 
REMARK    3  A    between atoms: C_8  and  N_11 
REMARK    4  A    between atoms: N_16  and  C_8 
REMARK    5  A    between atoms: N_11  and  N_10 
ROOT
ATOM      1  C   UNL d   1       1.240   0.808   0.063  0.00  0.00     0.110 A 
ATOM      2  N   UNL d   1       1.428  -0.584   0.022  0.00  0.00    -0.345 N 
ATOM      3  HN  UNL d   1       2.337  -1.046   0.019  1.00  0.00     0.167 HD
ATOM      4  C   UNL d   1       0.265  -1.212  -0.011  0.00  0.00     0.086 A 
ATOM      5  S   UNL d   1      -1.111  -0.172   0.087  0.00  0.00    -0.081 SA
ATOM      6  C   UNL d   1      -0.088   1.192   0.117  0.00  0.00     0.087 A 
ENDROOT
BRANCH   1   7
ATOM      7  C   UNL d   1       2.355   1.761   0.052  0.00  0.00     0.287 C 
ATOM      8  N   UNL d   1       3.598   1.160  -0.021  0.00  0.00    -0.262 N 
ATOM      9  H   UNL d   1       3.690   0.148  -0.093  0.00  0.00     0.190 HD
ATOM     10  O   UNL d   1       2.205   2.980   0.103  0.00  0.00    -0.264 OA
BRANCH   8  11
ATOM     11  N   UNL d   1       4.763   1.950  -0.042  0.00  0.00    -0.274 N 
ATOM     12  H   UNL d   1       4.587   2.954  -0.008  0.00  0.00     0.189 HD
BRANCH  11  13
ATOM     13  C   UNL d   1       5.922   1.500  -0.665  0.00  0.00     0.186 C 
ATOM     14  S   UNL d   1       6.060   0.005  -1.405  0.00  0.00    -0.040 SA
BRANCH  13  15
ATOM     15  N   UNL d   1       6.936   2.434  -0.551  0.00  0.00    -0.370 N 
ATOM     16  C   UNL d   1       8.299   2.325  -1.044  0.00  0.00     0.148 C 
ATOM     17  H   UNL d   1       6.773   3.188   0.103  0.00  0.00     0.161 HD
ENDBRANCH  13  15
ENDBRANCH  11  13
ENDBRANCH   8  11
ENDBRANCH   1   7
BRANCH   4  18
ATOM     18  C   UNL d   1       0.093  -2.669  -0.090  0.00  0.00     0.013 A 
ATOM     19  C   UNL d   1       1.022  -3.518   0.505  0.00  0.00     0.101 A 
ATOM     20  N   UNL d   1       0.958  -4.877   0.476  0.00  0.00    -0.374 N 
ATOM     21  C   UNL d   1      -0.076  -5.424  -0.194  0.00  0.00     0.087 A 
ATOM     22  HN  UNL d   1       1.660  -5.454   0.940  1.00  0.00     0.164 HD
ATOM     23  C   UNL d   1      -1.055  -4.678  -0.827  0.00  0.00     0.018 A 
ATOM     24  C   UNL d   1      -0.967  -3.285  -0.771  0.00  0.00     0.017 A 
ENDBRANCH   4  18
TORSDOF 5
