REMARK  4 active torsions:
REMARK  status: ('A' for Active; 'I' for Inactive)
REMARK    1  A    between atoms: C_2  and  C_1 
REMARK    2  A    between atoms: C_3  and  C_1 
REMARK    3  A    between atoms: C_8  and  C_3 
REMARK    4  A    between atoms: O_11  and  C_7 
ROOT
ATOM      1  C   UNL d   1       1.122   0.104   0.113  0.00  0.00     0.163 C 
ATOM      2  O   UNL d   1       2.314  -0.108   0.349  0.00  0.00    -0.292 OA
ENDROOT
BRANCH   1   3
ATOM      3  C   UNL d   1       0.695   1.494  -0.194  0.00  0.00     0.010 A 
ATOM      4  C   UNL d   1       1.402   2.548   0.401  0.00  0.00     0.018 A 
ATOM      5  C   UNL d   1       1.092   3.876   0.092  0.00  0.00     0.037 A 
ATOM      6  C   UNL d   1       0.083   4.161  -0.828  0.00  0.00     0.068 A 
ATOM      7  C   UNL d   1      -0.645   3.109  -1.394  0.00  0.00     0.037 A 
ATOM      8  C   UNL d   1      -0.345   1.777  -1.082  0.00  0.00     0.018 A 
BRANCH   6   9
ATOM      9  O   UNL d   1      -0.282   5.410  -1.248  0.00  0.00    -0.356 OA
ATOM     10  C   UNL d   1       0.609   6.474  -0.927  0.00  0.00     0.210 C 
ENDBRANCH   6   9
ENDBRANCH   1   3
BRANCH   1  11
ATOM     11  C   UNL d   1       0.089  -0.999   0.173  0.00  0.00     0.122 C 
BRANCH  11  12
ATOM     12  C   UNL d   1      -0.103  -1.831  -1.073  0.00  0.00    -0.051 A 
ATOM     13  C   UNL d   1       0.857  -1.931  -2.089  0.00  0.00     0.007 A 
ATOM     14  C   UNL d   1       0.658  -2.792  -3.173  0.00  0.00     0.001 A 
ATOM     15  C   UNL d   1      -0.493  -3.572  -3.249  0.00  0.00     0.000 A 
ATOM     16  C   UNL d   1      -1.456  -3.485  -2.248  0.00  0.00     0.001 A 
ATOM     17  C   UNL d   1      -1.262  -2.621  -1.169  0.00  0.00     0.007 A 
ENDBRANCH  11  12
ENDBRANCH   1  11
TORSDOF 4
