REMARK  4 active torsions:
REMARK  status: ('A' for Active; 'I' for Inactive)
REMARK    1  A    between atoms: N_5  and  C_1 
REMARK    2  A    between atoms: N_6  and  C_1 
REMARK    3  A    between atoms: C_10  and  N_5 
REMARK    4  A    between atoms: C_14  and  N_6 
ROOT
ATOM      1  N   UNL d   1       0.527  -0.908  -0.887  0.00  0.00    -0.333 N 
ATOM      2  H   UNL d   1      -0.475  -0.804  -1.001  0.00  0.00     0.168 HD
ENDROOT
BRANCH   1   3
ATOM      3  C   UNL d   1       1.038  -0.104   0.108  0.00  0.00     0.176 C 
ATOM      4  S   UNL d   1       2.446   0.795   0.045  0.00  0.00    -0.041 SA
BRANCH   3   5
ATOM      5  N   UNL d   1       0.196   0.083   1.178  0.00  0.00    -0.333 N 
ATOM      6  H   UNL d   1       0.374   0.924   1.719  0.00  0.00     0.168 HD
BRANCH   5   7
ATOM      7  C   UNL d   1      -0.689  -0.853   1.753  0.00  0.00     0.034 A 
ATOM      8  C   UNL d   1      -0.557  -2.233   1.548  0.00  0.00     0.032 A 
ATOM      9  C   UNL d   1      -1.419  -3.124   2.187  0.00  0.00     0.044 A 
ATOM     10  C   UNL d   1      -2.416  -2.634   3.020  0.00  0.00     0.116 A 
ATOM     11  C   UNL d   1      -2.553  -1.268   3.241  0.00  0.00     0.044 A 
ATOM     12  F   UNL d   1      -3.248  -3.488   3.628  0.00  0.00    -0.206 F 
ATOM     13  C   UNL d   1      -1.674  -0.376   2.621  0.00  0.00     0.032 A 
ENDBRANCH   5   7
ENDBRANCH   3   5
ENDBRANCH   1   3
BRANCH   1  14
ATOM     14  C   UNL d   1       1.210  -1.571  -1.920  0.00  0.00     0.035 A 
ATOM     15  C   UNL d   1       2.467  -2.142  -1.719  0.00  0.00     0.047 A 
ATOM     16  C   UNL d   1       3.035  -2.825  -2.780  0.00  0.00     0.050 A 
ATOM     17  C   UNL d   1       4.296  -3.550  -2.813  0.00  0.00     0.294 A 
ATOM     18  C   UNL d   1       2.420  -2.945  -4.008  0.00  0.00    -0.018 A 
ATOM     19  O   UNL d   1       4.426  -4.049  -4.080  0.00  0.00    -0.313 OA
ATOM     20  O   UNL d   1       5.069  -3.706  -1.889  0.00  0.00    -0.259 OA
ATOM     21  C   UNL d   1       3.307  -3.693  -4.920  0.00  0.00     0.218 A 
ATOM     22  C   UNL d   1       1.165  -2.405  -4.219  0.00  0.00     0.012 A 
ATOM     23  C   UNL d   1       0.549  -1.735  -3.154  0.00  0.00     0.030 A 
ENDBRANCH   1  14
TORSDOF 4
