REMARK  4 active torsions:
REMARK  status: ('A' for Active; 'I' for Inactive)
REMARK    1  A    between atoms: C_3  and  C_1 
REMARK    2  A    between atoms: C_12  and  C_2 
REMARK    3  A    between atoms: C_14  and  N_4 
REMARK    4  A    between atoms: C_15  and  N_5 
ROOT
ATOM      1  C   UNL d   1      -0.270   1.255  -0.064  0.00  0.00     0.061 A 
ATOM      2  C   UNL d   1       1.060   0.878  -0.127  0.00  0.00     0.155 A 
ATOM      3  N   UNL d   1       1.070  -0.511  -0.075  0.00  0.00    -0.251 N 
ATOM      4  N   UNL d   1      -0.199  -1.001   0.024  0.00  0.00    -0.304 N 
ATOM      5  HN  UNL d   1      -0.478  -1.979   0.106  1.00  0.00     0.186 HD
ATOM      6  C   UNL d   1      -0.997   0.061  -0.010  0.00  0.00     0.125 A 
ENDROOT
BRANCH   1   7
ATOM      7  C   UNL d   1      -0.807   2.640  -0.006  0.00  0.00     0.152 C 
ATOM      8  N   UNL d   1      -1.966   3.067   0.621  0.00  0.00    -0.224 N 
ATOM      9  N   UNL d   1      -2.247   4.314   0.176  0.00  0.00     0.001 NA
ATOM     10  N   UNL d   1      -1.185   4.692  -0.520  0.00  0.00    -0.007 NA
ATOM     11  N   UNL d   1      -0.281   3.668  -0.638  0.00  0.00    -0.269 N 
ATOM     12  HN  UNL d   1       0.618   3.696  -1.118  1.00  0.00     0.185 HD
BRANCH   8  13
ATOM     13  C   UNL d   1      -2.718   2.458   1.649  0.00  0.00     0.056 A 
ATOM     14  C   UNL d   1      -2.103   1.594   2.567  0.00  0.00     0.032 A 
ATOM     15  C   UNL d   1      -2.859   0.981   3.565  0.00  0.00     0.009 A 
ATOM     16  C   UNL d   1      -4.233   1.222   3.659  0.00  0.00    -0.062 A 
ATOM     17  C   UNL d   1      -4.836   2.108   2.759  0.00  0.00     0.009 A 
ATOM     18  C   UNL d   1      -5.029   0.553   4.741  0.00  0.00     0.048 C 
ATOM     19  C   UNL d   1      -4.083   2.741   1.767  0.00  0.00     0.032 A 
ENDBRANCH   8  13
ENDBRANCH   1   7
BRANCH   2  20
ATOM     20  C   UNL d   1       2.277   1.704  -0.060  0.00  0.00     0.435 C 
ATOM     21  F   UNL d   1       2.034   2.985   0.309  0.00  0.00    -0.165 F 
ATOM     22  F   UNL d   1       3.155   1.236   0.861  0.00  0.00    -0.165 F 
ATOM     23  F   UNL d   1       2.921   1.757  -1.250  0.00  0.00    -0.165 F 
ENDBRANCH   2  20
BRANCH   3  24
ATOM     24  C   UNL d   1       2.150  -1.451  -0.007  0.00  0.00     0.057 A 
ATOM     25  C   UNL d   1       1.908  -2.713   0.574  0.00  0.00     0.034 A 
ATOM     26  C   UNL d   1       2.955  -3.613   0.784  0.00  0.00     0.044 A 
ATOM     27  C   UNL d   1       4.240  -3.268   0.392  0.00  0.00     0.116 A 
ATOM     28  C   UNL d   1       4.488  -2.057  -0.241  0.00  0.00     0.044 A 
ATOM     29  F   UNL d   1       5.254  -4.110   0.625  0.00  0.00    -0.206 F 
ATOM     30  C   UNL d   1       3.441  -1.157  -0.459  0.00  0.00     0.034 A 
ENDBRANCH   3  24
TORSDOF 4
