REMARK  5 active torsions:
REMARK  status: ('A' for Active; 'I' for Inactive)
REMARK    1  A    between atoms: C_7  and  C_1 
REMARK    2  A    between atoms: S_13  and  C_6 
REMARK    3  A    between atoms: C_14  and  C_12 
REMARK    4  A    between atoms: C_16  and  S_13 
REMARK    5  A    between atoms: C_15  and  C_16 
ROOT
ATOM      1  C   UNL d   1       7.616   2.982   0.235  0.00  0.00     0.144 A 
ATOM      2  N   UNL d   1       6.306   2.722   0.413  0.00  0.00    -0.337 N 
ATOM      3  HN  UNL d   1       5.727   3.299   1.024  1.00  0.00     0.168 HD
ATOM      4  N   UNL d   1       8.433   2.264  -0.556  0.00  0.00    -0.347 N 
ATOM      5  HN  UNL d   1       9.419   2.500  -0.665  1.00  0.00     0.167 HD
ATOM      6  C   UNL d   1       5.791   1.662  -0.253  0.00  0.00     0.035 A 
ATOM      7  C   UNL d   1       7.880   1.217  -1.194  0.00  0.00     0.092 A 
ATOM      8  C   UNL d   1       6.560   0.867  -1.077  0.00  0.00     0.046 A 
ENDROOT
BRANCH   6   9
ATOM      9  C   UNL d   1       4.364   1.330  -0.059  0.00  0.00     0.031 C 
ATOM     10  C   UNL d   1       3.507   2.038   0.692  0.00  0.00     0.021 C 
BRANCH  10  11
ATOM     11  C   UNL d   1       2.135   1.669   0.892  0.00  0.00     0.012 A 
ATOM     12  S   UNL d   1       1.001   2.969   0.985  0.00  0.00    -0.089 SA
ATOM     13  C   UNL d   1      -0.327   1.941   1.311  0.00  0.00     0.016 A 
ATOM     14  C   UNL d   1      -1.666   2.325   1.542  0.00  0.00     0.019 A 
ATOM     15  C   UNL d   1       0.066   0.606   1.341  0.00  0.00    -0.012 A 
ATOM     16  C   UNL d   1      -2.619   1.343   1.825  0.00  0.00     0.001 A 
ATOM     17  C   UNL d   1      -2.255   0.007   1.873  0.00  0.00     0.001 A 
ATOM     18  C   UNL d   1      -0.930  -0.367   1.631  0.00  0.00     0.013 A 
ATOM     19  C   UNL d   1       1.490   0.448   1.078  0.00  0.00    -0.033 A 
ATOM     20  C   UNL d   1       2.119  -0.914   1.089  0.00  0.00     0.050 C 
ENDBRANCH  10  11
ENDBRANCH   6   9
BRANCH   1  21
ATOM     21  S   UNL d   1       8.320   4.329   1.173  0.00  0.00    -0.089 SA
BRANCH  21  22
ATOM     22  C   UNL d   1       9.644   4.840   0.036  0.00  0.00     0.121 C 
BRANCH  22  23
ATOM     23  C   UNL d   1      10.421   6.067   0.486  0.00  0.00    -0.043 A 
ATOM     24  C   UNL d   1      11.680   6.001   1.122  0.00  0.00    -0.055 A 
ATOM     25  C   UNL d   1      12.318   4.722   1.586  0.00  0.00     0.049 C 
ATOM     26  C   UNL d   1      12.421   7.188   1.313  0.00  0.00     0.007 A 
ATOM     27  C   UNL d   1      11.900   8.428   0.952  0.00  0.00     0.001 A 
ATOM     28  C   UNL d   1      10.623   8.506   0.416  0.00  0.00     0.001 A 
ATOM     29  C   UNL d   1       9.892   7.338   0.184  0.00  0.00     0.008 A 
ENDBRANCH  22  23
ENDBRANCH  21  22
ENDBRANCH   1  21
TORSDOF 5
