REMARK  5 active torsions:
REMARK  status: ('A' for Active; 'I' for Inactive)
REMARK    1  A    between atoms: C_2  and  S_1 
REMARK    2  A    between atoms: N_5  and  S_1 
REMARK    3  A    between atoms: C_9  and  N_5 
REMARK    4  A    between atoms: C_11  and  C_9 
REMARK    5  A    between atoms: C_12  and  C_11 
ROOT
ATOM      1  S   UNL d   1       1.013  -0.134   0.171  0.00  0.00     0.260 S 
ATOM      2  O   UNL d   1       0.662   1.040   0.938  0.00  0.00    -0.200 OA
ATOM      3  O   UNL d   1       0.499  -0.336  -1.166  0.00  0.00    -0.200 OA
ENDROOT
BRANCH   1   4
ATOM      4  C   UNL d   1       0.615  -1.579   1.135  0.00  0.00     0.096 A 
ATOM      5  C   UNL d   1       1.088  -1.792   2.437  0.00  0.00     0.029 A 
ATOM      6  I   UNL d   1       2.280  -0.463   3.546  0.00  0.00    -0.043 I 
ATOM      7  C   UNL d   1       0.783  -3.000   3.085  0.00  0.00     0.020 A 
ATOM      8  C   UNL d   1       0.006  -3.974   2.455  0.00  0.00     0.001 A 
ATOM      9  C   UNL d   1      -0.472  -3.756   1.167  0.00  0.00     0.002 A 
ATOM     10  C   UNL d   1      -0.167  -2.567   0.507  0.00  0.00     0.027 A 
ENDBRANCH   1   4
BRANCH   1  11
ATOM     11  N   UNL d   1       2.697  -0.194   0.056  0.00  0.00    -0.315 N 
ATOM     12  H   UNL d   1       3.152   0.294   0.827  0.00  0.00     0.172 HD
BRANCH  11  13
ATOM     13  C   UNL d   1       3.291  -1.438  -0.439  0.00  0.00     0.132 C 
BRANCH  13  14
ATOM     14  C   UNL d   1       4.807  -1.316  -0.527  0.00  0.00     0.020 C 
BRANCH  14  15
ATOM     15  C   UNL d   1       5.399  -2.659  -0.958  0.00  0.00    -0.003 C 
ATOM     16  C   UNL d   1       6.912  -2.617  -1.063  0.00  0.00     0.005 C 
ENDBRANCH  14  15
ENDBRANCH  13  14
ENDBRANCH  11  13
ENDBRANCH   1  11
TORSDOF 5
