REMARK  5 active torsions:
REMARK  status: ('A' for Active; 'I' for Inactive)
REMARK    1  A    between atoms: C_12  and  C_3 
REMARK    2  A    between atoms: C_8  and  CA_4 
REMARK    3  A    between atoms: N_9  and  CA_4 
REMARK    4  A    between atoms: C_5  and  C_6 
REMARK    5  A    between atoms: OXT_15  and  C_8 
REMARK       I    between atoms: C_11  and  N_9 
ROOT
ATOM      1  N   UNL d   1      -0.439  -5.047  -0.094  0.00  0.00    -0.341 N 
ATOM      2  HN  UNL d   1      -1.375  -5.445  -0.173  1.00  0.00     0.167 HD
ATOM      3  C   UNL d   1       0.703  -5.708  -0.010  0.00  0.00     0.116 A 
ATOM      4  C   UNL d   1      -0.111  -3.728  -0.053  0.00  0.00     0.051 A 
ATOM      5  N   UNL d   1       1.752  -4.819   0.087  0.00  0.00    -0.349 N 
ATOM      6  C   UNL d   1       1.242  -3.547   0.070  0.00  0.00     0.119 A 
ATOM      7  H   UNL d   1       2.729  -5.072   0.125  0.00  0.00     0.167 HD
ENDROOT
BRANCH   4   8
ATOM      8  C   UNL d   1      -1.121  -2.736  -0.090  0.00  0.00     0.067 C 
ATOM      9  CA  UNL d   1      -1.650  -2.134   0.993  0.00  0.00     0.111 C 
BRANCH   9  10
ATOM     10  C   UNL d   1      -2.729  -1.130   0.738  0.00  0.00     0.193 C 
ATOM     11  O   UNL d   1      -3.849  -1.203   1.219  0.00  0.00    -0.645 OA
BRANCH  10  12
ATOM     12  OXT UNL d   1      -2.378  -0.192  -0.172  0.00  0.00    -0.772 OA
ATOM     13  HXT UNL d   1      -1.427  -0.181  -0.380  0.00  0.00     0.167 HD
ENDBRANCH  10  12
ENDBRANCH   9  10
BRANCH   9  14
ATOM     14  N   UNL d   1      -1.312  -2.533   2.273  0.00  0.00    -0.322 N 
ATOM     15  C   UNL d   1      -1.612  -1.881   3.448  0.00  0.00     0.218 C 
ATOM     16  O   UNL d   1      -2.073  -0.748   3.531  0.00  0.00    -0.274 OA
ATOM     17  C   UNL d   1      -1.257  -2.683   4.678  0.00  0.00     0.117 C 
ATOM     18  H   UNL d   1      -0.783  -3.397   2.338  0.00  0.00     0.169 HD
ENDBRANCH   9  14
ENDBRANCH   4   8
BRANCH   3  19
ATOM     19  C   UNL d   1       0.861  -7.162  -0.065  0.00  0.00     0.008 A 
ATOM     20  C   UNL d   1      -0.095  -7.925  -0.750  0.00  0.00     0.015 A 
ATOM     21  C   UNL d   1       0.032  -9.312  -0.846  0.00  0.00     0.001 A 
ATOM     22  C   UNL d   1       1.112  -9.953  -0.245  0.00  0.00     0.000 A 
ATOM     23  C   UNL d   1       2.061  -9.210   0.455  0.00  0.00     0.001 A 
ATOM     24  C   UNL d   1       1.938  -7.820   0.546  0.00  0.00     0.015 A 
ENDBRANCH   3  19
TORSDOF 5
