REMARK  4 active torsions:
REMARK  status: ('A' for Active; 'I' for Inactive)
REMARK    1  A    between atoms: N_2  and  C_1 
REMARK    2  A    between atoms: N_4  and  C_1 
REMARK    3  A    between atoms: C_3  and  N_2 
REMARK    4  A    between atoms: C_8  and  N_4 
ROOT
ATOM      1  C   UNL d   1       1.056  -0.032  -0.059  0.00  0.00     0.177 C 
ATOM      2  S   UNL d   1       0.843  -0.054   1.600  0.00  0.00    -0.040 SA
ENDROOT
BRANCH   1   3
ATOM      3  N   UNL d   1       2.229  -0.576  -0.559  0.00  0.00    -0.323 N 
ATOM      4  H   UNL d   1       2.873  -0.844   0.177  0.00  0.00     0.169 HD
BRANCH   3   5
ATOM      5  C   UNL d   1       2.594  -0.927  -1.842  0.00  0.00     0.072 C 
ATOM      6  N   UNL d   1       1.779  -0.930  -2.835  0.00  0.00    -0.389 N 
ATOM      7  H   UNL d   1       0.828  -0.720  -2.508  0.00  0.00     0.157 HD
ATOM      8  HN  UNL d   1       2.037  -1.114  -3.804  1.00  0.00     0.157 HD
ATOM      9  C   UNL d   1       4.023  -1.349  -2.027  0.00  0.00     0.088 C 
ENDBRANCH   3   5
ENDBRANCH   1   3
BRANCH   1  10
ATOM     10  N   UNL d   1       0.233   0.541  -1.000  0.00  0.00    -0.333 N 
ATOM     11  H   UNL d   1       0.731   1.081  -1.703  0.00  0.00     0.168 HD
BRANCH  10  12
ATOM     12  C   UNL d   1      -1.165   0.728  -0.954  0.00  0.00     0.034 A 
ATOM     13  C   UNL d   1      -1.717   1.758  -1.722  0.00  0.00     0.031 A 
ATOM     14  C   UNL d   1      -3.102   1.952  -1.752  0.00  0.00     0.026 A 
ATOM     15  C   UNL d   1      -3.938   1.096  -1.037  0.00  0.00     0.034 A 
ATOM     16  C   UNL d   1      -3.399   0.051  -0.294  0.00  0.00     0.026 A 
ATOM     17 CL   UNL d   1      -5.642   1.321  -1.089  0.00  0.00    -0.084 Cl
ATOM     18  C   UNL d   1      -2.014  -0.134  -0.254  0.00  0.00     0.031 A 
ENDBRANCH  10  12
ENDBRANCH   1  10
TORSDOF 4
