REMARK  1 active torsions:
REMARK  status: ('A' for Active; 'I' for Inactive)
REMARK    1  A    between atoms: C_7  and  C_1 
ROOT
ATOM      1  C   UNL d   1      -0.293  -1.304   0.074  0.00  0.00     0.060 A 
ATOM      2  C   UNL d   1       1.018  -0.764   0.130  0.00  0.00     0.111 A 
ATOM      3  C   UNL d   1      -1.168  -0.231  -0.055  0.00  0.00     0.126 A 
ATOM      4  C   UNL d   1       0.883   0.597  -0.028  0.00  0.00     0.164 A 
ATOM      5  O   UNL d   1      -0.426   0.924  -0.153  0.00  0.00    -0.289 OA
ATOM      6  C   UNL d   1      -2.602  -0.200  -0.030  0.00  0.00     0.109 A 
ATOM      7  C   UNL d   1       2.263  -1.448   0.247  0.00  0.00     0.105 C 
ATOM      8  N   UNL d   1       3.296  -1.970   0.325  0.00  0.00    -0.191 NA
ATOM      9  O   UNL d   1      -3.352  -1.067   0.724  0.00  0.00    -0.320 OA
ATOM     10  C   UNL d   1      -3.464   0.658  -0.693  0.00  0.00     0.042 A 
ATOM     11  N   UNL d   1       1.745   1.617  -0.094  0.00  0.00    -0.378 N 
ATOM     12  C   UNL d   1      -4.660  -0.788   0.510  0.00  0.00     0.142 A 
ATOM     13  C   UNL d   1      -4.785   0.264  -0.363  0.00  0.00     0.027 A 
ATOM     14  H   UNL d   1       2.744   1.511   0.053  0.00  0.00     0.158 HD
ATOM     15  H   UNL d   1       1.407   2.573  -0.122  0.00  0.00     0.158 HD
ENDROOT
BRANCH   1  16
ATOM     16  C   UNL d   1      -0.647  -2.749   0.154  0.00  0.00     0.089 A 
ATOM     17  O   UNL d   1       0.163  -3.693   0.723  0.00  0.00    -0.322 OA
ATOM     18  C   UNL d   1      -0.497  -4.878   0.683  0.00  0.00     0.142 A 
ATOM     19  C   UNL d   1      -1.697  -4.737   0.033  0.00  0.00     0.027 A 
ATOM     20  C   UNL d   1      -1.785  -3.372  -0.326  0.00  0.00     0.040 A 
ENDBRANCH   1  16
TORSDOF 1
