REMARK  8 active torsions:
REMARK  status: ('A' for Active; 'I' for Inactive)
REMARK    1  A    between atoms: C_5  and  C_1 
REMARK       I    between atoms: N_8  and  C_5 
REMARK    2  A    between atoms: C_11  and  N_8 
REMARK    3  A    between atoms: O_10  and  C_14 
REMARK    4  A    between atoms: C_13  and  O_10 
REMARK    5  A    between atoms: C_12  and  C_11 
REMARK    6  A    between atoms: C_14  and  C_12 
REMARK    7  A    between atoms: O_20  and  C_12 
REMARK    8  A    between atoms: O_21  and  C_15 
ROOT
ATOM      1  C   UNL d   1      -5.503   1.018   0.004  0.00  0.00     0.160 C 
ENDROOT
BRANCH   1   2
ATOM      2  C   UNL d   1      -4.018   0.623  -0.034  0.00  0.00     0.156 C 
BRANCH   2   3
ATOM      3  N   UNL d   1      -3.331   1.131  -1.204  0.00  0.00    -0.353 N 
ATOM      4  C   UNL d   1      -3.232   0.408  -2.376  0.00  0.00     0.270 C 
ATOM      5  O   UNL d   1      -3.680  -0.729  -2.495  0.00  0.00    -0.266 OA
ATOM      6  H   UNL d   1      -3.071   2.111  -1.251  0.00  0.00     0.162 HD
BRANCH   4   7
ATOM      7  C   UNL d   1      -2.527   1.094  -3.464  0.00  0.00     0.124 A 
ATOM      8  N   UNL d   1      -1.998   2.323  -3.324  0.00  0.00    -0.256 N 
ATOM      9  O   UNL d   1      -1.391   2.613  -4.535  0.00  0.00    -0.242 OA
ATOM     10  HN  UNL d   1      -2.036   2.918  -2.497  1.00  0.00     0.195 HD
ATOM     11  C   UNL d   1      -1.557   1.570  -5.391  0.00  0.00     0.075 A 
ATOM     12  C   UNL d   1      -2.277   0.585  -4.764  0.00  0.00     0.071 A 
ATOM     13  C   UNL d   1      -0.959   1.709  -6.730  0.00  0.00     0.079 C 
ENDBRANCH   4   7
ENDBRANCH   2   3
ENDBRANCH   1   2
BRANCH   1  14
ATOM     14  C   UNL d   1      -6.172   0.444   1.268  0.00  0.00     0.209 C 
BRANCH  14  15
ATOM     15  O   UNL d   1      -7.565   0.771   1.265  0.00  0.00    -0.349 OA
BRANCH  15  16
ATOM     16  C   UNL d   1      -8.292   0.417   2.372  0.00  0.00     0.069 A 
ATOM     17  C   UNL d   1      -7.835  -0.339   3.450  0.00  0.00     0.039 A 
ATOM     18  C   UNL d   1      -8.685  -0.631   4.528  0.00  0.00     0.039 A 
ATOM     19  C   UNL d   1     -10.001  -0.171   4.534  0.00  0.00     0.068 A 
ATOM     20  C   UNL d   1     -10.460   0.581   3.451  0.00  0.00     0.039 A 
ATOM     21  C   UNL d   1      -9.612   0.872   2.379  0.00  0.00     0.039 A 
BRANCH  19  22
ATOM     22  O   UNL d   1     -10.926  -0.387   5.517  0.00  0.00    -0.356 OA
ATOM     23  C   UNL d   1     -10.497  -1.126   6.655  0.00  0.00     0.210 C 
ENDBRANCH  19  22
ENDBRANCH  15  16
ENDBRANCH  14  15
ENDBRANCH   1  14
BRANCH   1  24
ATOM     24  O   UNL d   1      -5.593   2.453  -0.018  0.00  0.00    -0.392 OA
ATOM     25  H   UNL d   1      -5.329   2.792   0.854  0.00  0.00     0.210 HD
ENDBRANCH   1  24
TORSDOF 8
