REMARK  5 active torsions:
REMARK  status: ('A' for Active; 'I' for Inactive)
REMARK    1  A    between atoms: C_2  and  CA_1 
REMARK    2  A    between atoms: N_3  and  CA_1 
REMARK    3  A    between atoms: OXT_13  and  C_2 
REMARK       I    between atoms: C_5  and  N_3 
REMARK    4  A    between atoms: C_11  and  C_4 
REMARK       I    between atoms: C_6  and  N_7 
REMARK    5  A    between atoms: N_7  and  C_12 
ROOT
ATOM      1  C   UNL d   1       2.898  -0.466  -1.187  0.00  0.00    -0.034 A 
ATOM      2  C   UNL d   1       4.410  -1.300  -3.411  0.00  0.00     0.034 A 
ATOM      3  C   UNL d   1       2.603   0.022  -2.461  0.00  0.00     0.013 A 
ATOM      4  C   UNL d   1       3.950  -1.371  -1.026  0.00  0.00     0.013 A 
ATOM      5  C   UNL d   1       4.702  -1.782  -2.134  0.00  0.00     0.030 A 
ATOM      6  C   UNL d   1       3.356  -0.391  -3.564  0.00  0.00     0.030 A 
ENDROOT
BRANCH   1   7
ATOM      7  C   UNL d   1       2.072  -0.053  -0.050  0.00  0.00     0.048 C 
ATOM      8  CA  UNL d   1       1.022  -0.756   0.421  0.00  0.00     0.110 C 
BRANCH   8   9
ATOM      9  C   UNL d   1       0.237  -0.109   1.527  0.00  0.00     0.193 C 
ATOM     10  O   UNL d   1      -0.964   0.111   1.464  0.00  0.00    -0.645 OA
BRANCH   9  11
ATOM     11  OXT UNL d   1       1.013   0.334   2.541  0.00  0.00    -0.772 OA
ATOM     12  HXT UNL d   1       1.934   0.017   2.503  0.00  0.00     0.167 HD
ENDBRANCH   9  11
ENDBRANCH   8   9
BRANCH   8  13
ATOM     13  N   UNL d   1       0.614  -1.929  -0.186  0.00  0.00    -0.322 N 
ATOM     14  C   UNL d   1      -0.357  -2.804   0.253  0.00  0.00     0.218 C 
ATOM     15  O   UNL d   1      -0.923  -2.759   1.337  0.00  0.00    -0.274 OA
ATOM     16  C   UNL d   1      -0.652  -3.905  -0.742  0.00  0.00     0.117 C 
ATOM     17  H   UNL d   1       1.118  -2.197  -1.022  0.00  0.00     0.169 HD
ENDBRANCH   8  13
ENDBRANCH   1   7
BRANCH   2  18
ATOM     18  N   UNL d   1       5.108  -1.673  -4.578  0.00  0.00    -0.328 N 
ATOM     19  C   UNL d   1       6.157  -2.567  -4.681  0.00  0.00     0.218 C 
ATOM     20  O   UNL d   1       6.671  -3.199  -3.763  0.00  0.00    -0.274 OA
ATOM     21  C   UNL d   1       6.656  -2.737  -6.095  0.00  0.00     0.117 C 
ATOM     22  H   UNL d   1       4.800  -1.233  -5.435  0.00  0.00     0.169 HD
ENDBRANCH   2  18
TORSDOF 5
