REMARK  2 active torsions:
REMARK  status: ('A' for Active; 'I' for Inactive)
REMARK       I    between atoms: C_2  and  N_1 
REMARK    1  A    between atoms: C_3  and  N_1 
REMARK    2  A    between atoms: C_5  and  C_3 
ROOT
ATOM      1  C   UNL d   1       2.524  -0.106   0.114  0.00  0.00     0.113 C 
ATOM      2  C   UNL d   1       3.095  -1.464   0.537  0.00  0.00     0.037 C 
ENDROOT
BRANCH   1   3
ATOM      3  N   UNL d   1       1.073  -0.147   0.054  0.00  0.00    -0.353 N 
ATOM      4  C   UNL d   1       0.402  -0.716  -0.999  0.00  0.00     0.214 C 
ATOM      5  O   UNL d   1       0.957  -1.202  -1.980  0.00  0.00    -0.274 OA
ATOM      6  C   UNL d   1      -1.097  -0.716  -0.854  0.00  0.00     0.117 C 
ATOM      7  H   UNL d   1       0.559   0.199   0.854  0.00  0.00     0.163 HD
ENDBRANCH   1   3
BRANCH   1   8
ATOM      8  C   UNL d   1       2.962   1.038   1.014  0.00  0.00    -0.036 A 
ATOM      9  C   UNL d   1       3.104   0.890   2.403  0.00  0.00     0.009 A 
ATOM     10  C   UNL d   1       3.526   1.960   3.196  0.00  0.00     0.001 A 
ATOM     11  C   UNL d   1       3.792   3.197   2.616  0.00  0.00     0.000 A 
ATOM     12  C   UNL d   1       3.623   3.371   1.245  0.00  0.00     0.001 A 
ATOM     13  C   UNL d   1       3.206   2.301   0.450  0.00  0.00     0.009 A 
ENDBRANCH   1   8
TORSDOF 2
