REMARK  8 active torsions:
REMARK  status: ('A' for Active; 'I' for Inactive)
REMARK    1  A    between atoms: N_13  and  C_1 
REMARK    2  A    between atoms: C_7  and  C_2 
REMARK    3  A    between atoms: C_11  and  N_3 
REMARK       I    between atoms: N_9  and  C_7 
REMARK    4  A    between atoms: C_8  and  N_10 
REMARK    5  A    between atoms: N_15  and  C_8 
REMARK    6  A    between atoms: N_10  and  N_9 
REMARK    7  A    between atoms: C_18  and  N_15 
REMARK    8  A    between atoms: C_16  and  C_18 
ROOT
ATOM      1  C   UNL d   1       1.152  -0.845  -0.039  0.00  0.00     0.138 A 
ATOM      2  C   UNL d   1      -0.152  -1.309   0.055  0.00  0.00     0.095 A 
ATOM      3  N   UNL d   1       1.074   0.556   0.053  0.00  0.00    -0.240 N 
ATOM      4  N   UNL d   1      -0.208   0.967   0.255  0.00  0.00    -0.302 N 
ATOM      5  HN  UNL d   1      -0.538   1.917   0.428  1.00  0.00     0.186 HD
ATOM      6  C   UNL d   1      -0.934  -0.145   0.178  0.00  0.00     0.128 A 
ENDROOT
BRANCH   2   7
ATOM      7  C   UNL d   1      -0.645  -2.671   0.126  0.00  0.00     0.275 C 
ATOM      8  N   UNL d   1       0.317  -3.611   0.438  0.00  0.00    -0.263 N 
ATOM      9  H   UNL d   1       1.243  -3.311   0.738  0.00  0.00     0.190 HD
ATOM     10  O   UNL d   1      -1.833  -2.958  -0.005  0.00  0.00    -0.266 OA
BRANCH   8  11
ATOM     11  N   UNL d   1      -0.086  -4.909   0.790  0.00  0.00    -0.274 N 
ATOM     12  H   UNL d   1      -1.097  -5.040   0.787  0.00  0.00     0.189 HD
BRANCH  11  13
ATOM     13  C   UNL d   1       0.715  -6.003   0.486  0.00  0.00     0.186 C 
ATOM     14  S   UNL d   1       2.253  -5.886  -0.167  0.00  0.00    -0.040 SA
BRANCH  13  15
ATOM     15  N   UNL d   1       0.073  -7.179   0.822  0.00  0.00    -0.363 N 
ATOM     16  H   UNL d   1      -0.716  -7.096   1.448  0.00  0.00     0.162 HD
BRANCH  15  17
ATOM     17  C   UNL d   1       0.529  -8.536   0.581  0.00  0.00     0.148 C 
BRANCH  17  18
ATOM     18  C   UNL d   1       1.142  -9.062   1.839  0.00  0.00    -0.018 C 
ATOM     19  C   UNL d   1       0.694 -10.130   2.513  0.00  0.00     0.008 C 
ENDBRANCH  17  18
ENDBRANCH  15  17
ENDBRANCH  13  15
ENDBRANCH  11  13
ENDBRANCH   8  11
ENDBRANCH   2   7
BRANCH   1  20
ATOM     20  N   UNL d   1       2.313  -1.563  -0.102  0.00  0.00    -0.383 N 
ATOM     21  H   UNL d   1       2.367  -2.377  -0.718  0.00  0.00     0.157 HD
ATOM     22  H   UNL d   1       3.218  -1.100  -0.035  0.00  0.00     0.157 HD
ENDBRANCH   1  20
BRANCH   3  23
ATOM     23  C   UNL d   1       2.110   1.529  -0.037  0.00  0.00     0.058 A 
ATOM     24  C   UNL d   1       3.256   1.312  -0.813  0.00  0.00     0.031 A 
ATOM     25  C   UNL d   1       4.268   2.274  -0.850  0.00  0.00     0.002 A 
ATOM     26  C   UNL d   1       4.140   3.455  -0.120  0.00  0.00     0.000 A 
ATOM     27  C   UNL d   1       2.987   3.693   0.625  0.00  0.00     0.002 A 
ATOM     28  C   UNL d   1       1.965   2.742   0.654  0.00  0.00     0.031 A 
ENDBRANCH   3  23
TORSDOF 8
