REMARK  9 active torsions:
REMARK  status: ('A' for Active; 'I' for Inactive)
REMARK    1  A    between atoms: C_2  and  C_1 
REMARK       I    between atoms: N_4  and  C_1 
REMARK    2  A    between atoms: C_3  and  N_5 
REMARK    3  A    between atoms: N_9  and  C_3 
REMARK    4  A    between atoms: C_10  and  N_4 
REMARK    5  A    between atoms: N_5  and  C_11 
REMARK    6  A    between atoms: O_12  and  C_7 
REMARK    7  A    between atoms: C_18  and  N_9 
REMARK    8  A    between atoms: C_21  and  C_18 
REMARK    9  A    between atoms: C_19  and  C_21 
ROOT
ATOM      1  C   UNL d   1      -1.221  -1.207   0.673  0.00  0.00     0.035 A 
ATOM      2  C   UNL d   1      -4.033  -1.463   0.534  0.00  0.00     0.034 A 
ATOM      3  C   UNL d   1      -1.887  -1.147  -0.553  0.00  0.00     0.032 A 
ATOM      4  C   UNL d   1      -1.974  -1.469   1.823  0.00  0.00     0.032 A 
ATOM      5  C   UNL d   1      -3.368  -1.597   1.754  0.00  0.00     0.032 A 
ATOM      6  C   UNL d   1      -3.280  -1.289  -0.626  0.00  0.00     0.032 A 
ENDROOT
BRANCH   2   7
ATOM      7  N   UNL d   1      -5.443  -1.532   0.427  0.00  0.00    -0.333 N 
ATOM      8  H   UNL d   1      -5.795  -1.645  -0.515  0.00  0.00     0.168 HD
BRANCH   7   9
ATOM      9  C   UNL d   1      -6.367  -0.910   1.263  0.00  0.00     0.172 C 
ATOM     10  S   UNL d   1      -6.040   0.306   2.371  0.00  0.00    -0.041 SA
BRANCH   9  11
ATOM     11  N   UNL d   1      -7.651  -1.368   0.977  0.00  0.00    -0.367 N 
ATOM     12  H   UNL d   1      -7.726  -2.268   0.520  0.00  0.00     0.161 HD
BRANCH  11  13
ATOM     13  C   UNL d   1      -8.875  -0.742   1.477  0.00  0.00     0.126 C 
BRANCH  13  14
ATOM     14  C   UNL d   1     -10.155  -1.539   1.218  0.00  0.00     0.058 C 
BRANCH  14  15
ATOM     15  C   UNL d   1     -11.356  -0.722   1.637  0.00  0.00    -0.057 A 
ATOM     16  C   UNL d   1     -11.999   0.115   0.714  0.00  0.00     0.007 A 
ATOM     17  C   UNL d   1     -13.043   0.948   1.120  0.00  0.00     0.001 A 
ATOM     18  C   UNL d   1     -13.455   0.954   2.451  0.00  0.00     0.000 A 
ATOM     19  C   UNL d   1     -12.826   0.124   3.377  0.00  0.00     0.001 A 
ATOM     20  C   UNL d   1     -11.782  -0.710   2.973  0.00  0.00     0.007 A 
ENDBRANCH  14  15
ENDBRANCH  13  14
ENDBRANCH  11  13
ENDBRANCH   9  11
ENDBRANCH   7   9
ENDBRANCH   2   7
BRANCH   1  21
ATOM     21  N   UNL d   1       0.171  -0.992   0.834  0.00  0.00    -0.323 N 
ATOM     22  C   UNL d   1       1.054  -0.570  -0.147  0.00  0.00     0.259 C 
ATOM     23  O   UNL d   1       0.780  -0.352  -1.326  0.00  0.00    -0.267 OA
ATOM     24  H   UNL d   1       0.504  -1.019   1.789  0.00  0.00     0.169 HD
BRANCH  22  25
ATOM     25  C   UNL d   1       2.457  -0.281   0.277  0.00  0.00     0.065 A 
ATOM     26  C   UNL d   1       3.211   0.652  -0.459  0.00  0.00     0.081 A 
ATOM     27  C   UNL d   1       4.521   0.960  -0.097  0.00  0.00     0.037 A 
ATOM     28  C   UNL d   1       5.106   0.325   0.996  0.00  0.00     0.003 A 
ATOM     29  C   UNL d   1       4.380  -0.620   1.721  0.00  0.00     0.001 A 
ATOM     30  C   UNL d   1       3.061  -0.927   1.365  0.00  0.00     0.020 A 
BRANCH  26  31
ATOM     31  O   UNL d   1       2.728   1.308  -1.562  0.00  0.00    -0.360 OA
ATOM     32  H   UNL d   1       1.878   0.878  -1.813  0.00  0.00     0.217 HD
ENDBRANCH  26  31
ENDBRANCH  22  25
ENDBRANCH   1  21
TORSDOF 9
