REMARK  5 active torsions:
REMARK  status: ('A' for Active; 'I' for Inactive)
REMARK    1  A    between atoms: N_5  and  C_1 
REMARK    2  A    between atoms: C_4  and  C_2 
REMARK    3  A    between atoms: O_11  and  C_4 
REMARK    4  A    between atoms: C_10  and  N_5 
REMARK    5  A    between atoms: C_18  and  O_11 
ROOT
ATOM      1  C   UNL d   1       1.250  -0.713   0.065  0.00  0.00     0.163 A 
ATOM      2  C   UNL d   1      -0.006  -1.170  -0.022  0.00  0.00     0.138 A 
ATOM      3  O   UNL d   1       1.390   0.669   0.192  0.00  0.00    -0.327 OA
ATOM      4  C   UNL d   1      -0.812   0.039   0.060  0.00  0.00     0.193 A 
ATOM      5  C   UNL d   1       0.077   1.232   0.136  0.00  0.00     0.261 A 
ATOM      6  O   UNL d   1      -2.032   0.088   0.049  0.00  0.00    -0.290 OA
ENDROOT
BRANCH   1   7
ATOM      7  N   UNL d   1       2.394  -1.477  -0.016  0.00  0.00    -0.336 N 
ATOM      8  H   UNL d   1       2.234  -2.466  -0.222  0.00  0.00     0.168 HD
BRANCH   7   9
ATOM      9  C   UNL d   1       3.743  -1.118   0.148  0.00  0.00     0.034 A 
ATOM     10  C   UNL d   1       4.165   0.040   0.812  0.00  0.00     0.031 A 
ATOM     11  C   UNL d   1       5.518   0.391   0.877  0.00  0.00     0.026 A 
ATOM     12  C   UNL d   1       6.471  -0.414   0.265  0.00  0.00     0.034 A 
ATOM     13  C   UNL d   1       6.082  -1.571  -0.403  0.00  0.00     0.026 A 
ATOM     14 CL   UNL d   1       8.132   0.026   0.326  0.00  0.00    -0.084 Cl
ATOM     15  C   UNL d   1       4.727  -1.917  -0.459  0.00  0.00     0.031 A 
ENDBRANCH   7   9
ENDBRANCH   1   7
BRANCH   2  16
ATOM     16  C   UNL d   1      -0.418  -2.551  -0.239  0.00  0.00     0.301 C 
ATOM     17  O   UNL d   1       0.374  -3.469  -0.404  0.00  0.00    -0.259 OA
BRANCH  16  18
ATOM     18  O   UNL d   1      -1.764  -2.641  -0.297  0.00  0.00    -0.318 OA
BRANCH  18  19
ATOM     19  C   UNL d   1      -2.311  -3.882  -0.762  0.00  0.00     0.174 C 
ATOM     20  C   UNL d   1      -2.431  -3.824  -2.274  0.00  0.00     0.034 C 
ENDBRANCH  18  19
ENDBRANCH  16  18
ENDBRANCH   2  16
TORSDOF 5
