REMARK  5 active torsions:
REMARK  status: ('A' for Active; 'I' for Inactive)
REMARK    1  A    between atoms: N_2  and  C_1 
REMARK    2  A    between atoms: N_7  and  C_1 
REMARK    3  A    between atoms: C_3  and  N_2 
REMARK    4  A    between atoms: C_4  and  C_12 
REMARK    5  A    between atoms: C_12  and  N_7 
ROOT
ATOM      1  N   UNL d   1       0.452   0.991   0.791  0.00  0.00    -0.333 N 
ATOM      2  H   UNL d   1       0.163   0.142   1.267  0.00  0.00     0.168 HD
ENDROOT
BRANCH   1   3
ATOM      3  C   UNL d   1       0.007   1.061  -0.504  0.00  0.00     0.172 C 
ATOM      4  S   UNL d   1      -0.563   2.405  -1.315  0.00  0.00    -0.041 SA
BRANCH   3   5
ATOM      5  N   UNL d   1      -0.016  -0.141  -1.165  0.00  0.00    -0.361 N 
ATOM      6  H   UNL d   1      -0.425  -0.071  -2.089  0.00  0.00     0.162 HD
BRANCH   5   7
ATOM      7  C   UNL d   1       1.023  -1.146  -1.022  0.00  0.00     0.187 C 
BRANCH   7   8
ATOM      8  C   UNL d   1       0.546  -2.315  -0.245  0.00  0.00     0.070 A 
ATOM      9  O   UNL d   1       0.234  -2.107   1.069  0.00  0.00    -0.325 OA
ATOM     10  C   UNL d   1      -0.093  -3.317   1.592  0.00  0.00     0.142 A 
ATOM     11  C   UNL d   1       0.006  -4.301   0.637  0.00  0.00     0.027 A 
ATOM     12  C   UNL d   1       0.413  -3.654  -0.555  0.00  0.00     0.036 A 
ENDBRANCH   7   8
ENDBRANCH   5   7
ENDBRANCH   3   5
ENDBRANCH   1   3
BRANCH   1  13
ATOM     13  C   UNL d   1       0.932   2.043   1.610  0.00  0.00     0.045 A 
ATOM     14  C   UNL d   1       0.572   2.109   2.985  0.00  0.00     0.001 A 
ATOM     15  C   UNL d   1       1.230   3.054   3.814  0.00  0.00    -0.024 A 
ATOM     16  C   UNL d   1      -0.451   1.326   3.571  0.00  0.00     0.014 A 
ATOM     17  C   UNL d   1       0.899   3.147   5.176  0.00  0.00     0.012 A 
ATOM     18  C   UNL d   1       2.200   3.908   3.268  0.00  0.00     0.012 A 
ATOM     19  C   UNL d   1      -0.108   2.355   5.725  0.00  0.00     0.001 A 
ATOM     20  C   UNL d   1      -0.793   1.455   4.919  0.00  0.00     0.001 A 
ATOM     21  C   UNL d   1       2.507   3.864   1.912  0.00  0.00     0.003 A 
ATOM     22  C   UNL d   1       1.875   2.937   1.086  0.00  0.00     0.030 A 
ENDBRANCH   1  13
TORSDOF 5
