REMARK  7 active torsions:
REMARK  status: ('A' for Active; 'I' for Inactive)
REMARK    1  A    between atoms: C_6  and  N_1 
REMARK    2  A    between atoms: C_2  and  C_8 
REMARK    3  A    between atoms: C_4  and  N_18 
REMARK    4  A    between atoms: N_13  and  C_4 
REMARK    5  A    between atoms: C_16  and  C_7 
REMARK    6  A    between atoms: N_18  and  N_9 
REMARK    7  A    between atoms: C_19  and  N_13 
ROOT
ATOM      1  N   UNL d   1       2.409  -4.638  -7.522  0.00  0.00    -0.307 N 
ATOM      2  HN  UNL d   1       2.422  -5.406  -6.850  1.00  0.00     0.186 HD
ATOM      3  C   UNL d   1       1.941  -3.475  -7.199  0.00  0.00     0.144 C 
ENDROOT
BRANCH   1   4
ATOM      4  N   UNL d   1       2.884  -4.805  -8.789  0.00  0.00    -0.276 N 
ATOM      5  H   UNL d   1       2.368  -4.397  -9.562  0.00  0.00     0.189 HD
BRANCH   4   6
ATOM      6  C   UNL d   1       3.840  -5.759  -9.034  0.00  0.00     0.191 C 
ATOM      7  S   UNL d   1       5.127  -6.089  -8.008  0.00  0.00    -0.039 SA
BRANCH   6   8
ATOM      8  N   UNL d   1       3.796  -6.432 -10.222  0.00  0.00    -0.332 N 
ATOM      9  H   UNL d   1       4.674  -6.902 -10.421  0.00  0.00     0.168 HD
BRANCH   8  10
ATOM     10  C   UNL d   1       2.683  -6.961 -10.915  0.00  0.00     0.037 A 
ATOM     11  C   UNL d   1       1.356  -6.809 -10.514  0.00  0.00     0.071 A 
ATOM     12  C   UNL d   1       0.342  -7.464 -11.213  0.00  0.00     0.118 A 
ATOM     13  F   UNL d   1      -0.928  -7.319 -10.812  0.00  0.00    -0.206 F 
ATOM     14  C   UNL d   1       0.621  -8.287 -12.297  0.00  0.00     0.042 A 
ATOM     15  C   UNL d   1       1.941  -8.451 -12.702  0.00  0.00     0.005 A 
ATOM     16  C   UNL d   1       2.964  -7.788 -12.016  0.00  0.00     0.029 A 
ENDBRANCH   8  10
ENDBRANCH   6   8
ENDBRANCH   4   6
ENDBRANCH   1   4
BRANCH   3  17
ATOM     17  C   UNL d   1       1.349  -3.322  -5.899  0.00  0.00     0.093 A 
ATOM     18  O   UNL d   1       1.391  -2.116  -5.258  0.00  0.00    -0.309 OA
ATOM     19  C   UNL d   1       0.871  -2.308  -4.002  0.00  0.00     0.086 A 
ATOM     20  C   UNL d   1       0.394  -3.598  -3.891  0.00  0.00     0.041 A 
ATOM     21  C   UNL d   1       0.739  -4.260  -5.088  0.00  0.00     0.041 A 
BRANCH  19  22
ATOM     22  C   UNL d   1       0.997  -1.207  -3.050  0.00  0.00     0.000 A 
ATOM     23  C   UNL d   1       1.153   0.120  -3.470  0.00  0.00     0.050 A 
ATOM     24  C   UNL d   1       1.343   1.137  -2.517  0.00  0.00     0.103 A 
ATOM     25  C   UNL d   1       1.376   0.846  -1.149  0.00  0.00     0.036 A 
ATOM     26  C   UNL d   1       1.207  -0.470  -0.727  0.00  0.00     0.003 A 
ATOM     27  C   UNL d   1       1.017  -1.483  -1.670  0.00  0.00     0.014 A 
BRANCH  24  28
ATOM     28  N   UNL d   1       1.522   2.523  -2.963  0.00  0.00    -0.116 N 
ATOM     29  O   UNL d   1       1.474   2.749  -4.179  0.00  0.00    -0.532 OA
ATOM     30  O   UNL d   1       1.711   3.389  -2.095  0.00  0.00    -0.532 OA
ENDBRANCH  24  28
ENDBRANCH  19  22
ENDBRANCH   3  17
TORSDOF 7
