REMARK  5 active torsions:
REMARK  status: ('A' for Active; 'I' for Inactive)
REMARK    1  A    between atoms: S_8  and  C_2 
REMARK    2  A    between atoms: C_9  and  C_3 
REMARK    3  A    between atoms: C_12  and  S_8 
REMARK    4  A    between atoms: C_10  and  C_12 
REMARK    5  A    between atoms: C_11  and  C_10 
ROOT
ATOM      1  N   UNL d   1       0.850  -0.032   0.172  0.00  0.00    -0.315 N 
ATOM      2  C   UNL d   1       0.011   1.052   0.127  0.00  0.00     0.163 A 
ATOM      3  C   UNL d   1       0.033  -1.152   0.129  0.00  0.00     0.134 A 
ATOM      4  N   UNL d   1      -1.221  -0.728   0.081  0.00  0.00    -0.283 N 
ATOM      5  HN  UNL d   1      -2.046  -1.326   0.030  1.00  0.00     0.188 HD
ATOM      6  N   UNL d   1      -1.233   0.645   0.113  0.00  0.00    -0.278 N 
ATOM      7  HN  UNL d   1      -2.062   1.240   0.123  1.00  0.00     0.189 HD
ATOM      8  C   UNL d   1       2.291  -0.016   0.213  0.00  0.00     0.160 C 
ENDROOT
BRANCH   2   9
ATOM      9  S   UNL d   1       0.563   2.691   0.079  0.00  0.00    -0.080 SA
BRANCH   9  10
ATOM     10  C   UNL d   1      -0.967   3.651  -0.221  0.00  0.00     0.126 C 
ATOM     11  C   UNL d   1      -1.607   3.336  -1.575  0.00  0.00     0.030 C 
BRANCH  10  12
ATOM     12  C   UNL d   1      -0.563   5.133  -0.203  0.00  0.00     0.173 C 
ATOM     13  O   UNL d   1      -0.139   5.697  -1.215  0.00  0.00    -0.291 OA
BRANCH  12  14
ATOM     14  C   UNL d   1      -0.652   5.944   1.055  0.00  0.00     0.013 A 
ATOM     15  C   UNL d   1      -0.339   7.310   0.972  0.00  0.00     0.039 A 
ATOM     16  C   UNL d   1      -0.433   8.137   2.094  0.00  0.00     0.040 A 
ATOM     17 CL   UNL d   1      -0.025   9.806   1.908  0.00  0.00    -0.084 Cl
ATOM     18  C   UNL d   1      -0.849   7.618   3.327  0.00  0.00    -0.040 A 
ATOM     19  C   UNL d   1      -1.131   6.246   3.413  0.00  0.00     0.009 A 
ATOM     20  C   UNL d   1      -0.997   8.487   4.545  0.00  0.00     0.050 C 
ATOM     21  C   UNL d   1      -1.030   5.414   2.290  0.00  0.00     0.016 A 
ENDBRANCH  12  14
ENDBRANCH  10  12
ENDBRANCH   9  10
ENDBRANCH   2   9
BRANCH   3  22
ATOM     22  C   UNL d   1       0.445  -2.564   0.084  0.00  0.00     0.010 A 
ATOM     23  C   UNL d   1      -0.310  -3.482  -0.667  0.00  0.00     0.027 A 
ATOM     24  C   UNL d   1       0.052  -4.844  -0.761  0.00  0.00    -0.025 A 
ATOM     25  C   UNL d   1      -0.705  -5.771  -1.498  0.00  0.00     0.012 A 
ATOM     26  C   UNL d   1       1.210  -5.294  -0.086  0.00  0.00    -0.026 A 
ATOM     27  C   UNL d   1      -0.317  -7.112  -1.578  0.00  0.00     0.001 A 
ATOM     28  C   UNL d   1       0.833  -7.545  -0.931  0.00  0.00     0.001 A 
ATOM     29  C   UNL d   1       1.594  -6.642  -0.190  0.00  0.00     0.012 A 
ATOM     30  C   UNL d   1       1.944  -4.390   0.683  0.00  0.00     0.013 A 
ATOM     31  C   UNL d   1       1.555  -3.049   0.786  0.00  0.00     0.016 A 
ENDBRANCH   3  22
TORSDOF 5
