REMARK  9 active torsions:
REMARK  status: ('A' for Active; 'I' for Inactive)
REMARK    1  A    between atoms: S_8  and  C_2 
REMARK    2  A    between atoms: C_23  and  C_7 
REMARK    3  A    between atoms: C_16  and  S_8 
REMARK    4  A    between atoms: C_9  and  C_12 
REMARK    5  A    between atoms: C_12  and  C_16 
REMARK    6  A    between atoms: C_13  and  C_27 
REMARK       I    between atoms: N_14  and  C_13 
REMARK    7  A    between atoms: C_26  and  N_14 
REMARK    8  A    between atoms: S_21  and  C_23 
REMARK    9  A    between atoms: C_27  and  S_21 
ROOT
ATOM      1  N   UNL d   1       0.499   0.015  -0.312  0.00  0.00    -0.319 N 
ATOM      2  C   UNL d   1      -0.354   1.082  -0.238  0.00  0.00     0.162 A 
ATOM      3  N   UNL d   1      -1.562   0.664   0.058  0.00  0.00    -0.278 N 
ATOM      4  HN  UNL d   1      -2.387   1.249   0.187  1.00  0.00     0.189 HD
ATOM      5  N   UNL d   1      -1.515  -0.707   0.161  0.00  0.00    -0.286 N 
ATOM      6  HN  UNL d   1      -2.303  -1.316   0.379  1.00  0.00     0.188 HD
ATOM      7  C   UNL d   1      -0.276  -1.098  -0.070  0.00  0.00     0.109 A 
ATOM      8  C   UNL d   1       1.909   0.027  -0.606  0.00  0.00     0.159 C 
ENDROOT
BRANCH   7   9
ATOM      9  C   UNL d   1       0.202  -2.509  -0.115  0.00  0.00     0.152 C 
BRANCH   9  10
ATOM     10  S   UNL d   1       1.036  -3.021   1.429  0.00  0.00    -0.152 SA
BRANCH  10  11
ATOM     11  C   UNL d   1      -0.428  -3.088   2.512  0.00  0.00     0.177 C 
BRANCH  11  12
ATOM     12  C   UNL d   1      -0.149  -3.483   3.958  0.00  0.00     0.231 C 
ATOM     13  N   UNL d   1       1.099  -4.019   4.217  0.00  0.00    -0.327 N 
ATOM     14  H   UNL d   1       1.734  -4.049   3.425  0.00  0.00     0.169 HD
ATOM     15  O   UNL d   1      -1.048  -3.345   4.787  0.00  0.00    -0.272 OA
BRANCH  13  16
ATOM     16  C   UNL d   1       1.597  -4.485   5.455  0.00  0.00     0.034 A 
ATOM     17  C   UNL d   1       0.853  -4.494   6.638  0.00  0.00     0.029 A 
ATOM     18  C   UNL d   1       1.410  -4.966   7.832  0.00  0.00     0.002 A 
ATOM     19  C   UNL d   1       2.719  -5.436   7.856  0.00  0.00     0.000 A 
ATOM     20  C   UNL d   1       3.471  -5.437   6.684  0.00  0.00     0.002 A 
ATOM     21  C   UNL d   1       2.913  -4.965   5.490  0.00  0.00     0.029 A 
ENDBRANCH  13  16
ENDBRANCH  11  12
ENDBRANCH  10  11
ENDBRANCH   9  10
ENDBRANCH   7   9
BRANCH   2  22
ATOM     22  S   UNL d   1       0.124   2.714  -0.535  0.00  0.00    -0.085 SA
BRANCH  22  23
ATOM     23  C   UNL d   1      -1.372   3.623  -0.042  0.00  0.00     0.166 C 
BRANCH  23  24
ATOM     24  C   UNL d   1      -1.185   5.128  -0.203  0.00  0.00     0.169 C 
ATOM     25  O   UNL d   1      -0.120   5.657  -0.516  0.00  0.00    -0.291 OA
BRANCH  24  26
ATOM     26  C   UNL d   1      -2.361   6.024   0.041  0.00  0.00     0.014 A 
ATOM     27  C   UNL d   1      -3.597   5.542   0.490  0.00  0.00     0.060 A 
ATOM     28  C   UNL d   1      -4.648   6.434   0.695  0.00  0.00     0.155 A 
ATOM     29  F   UNL d   1      -5.827   5.962   1.122  0.00  0.00    -0.203 F 
ATOM     30  C   UNL d   1      -4.488   7.795   0.463  0.00  0.00     0.154 A 
ATOM     31  C   UNL d   1      -3.267   8.290   0.023  0.00  0.00     0.046 A 
ATOM     32  F   UNL d   1      -5.508   8.640   0.662  0.00  0.00    -0.203 F 
ATOM     33  C   UNL d   1      -2.206   7.405  -0.187  0.00  0.00     0.018 A 
ENDBRANCH  24  26
ENDBRANCH  23  24
ENDBRANCH  22  23
ENDBRANCH   2  22
TORSDOF 9
