REMARK  9 active torsions:
REMARK  status: ('A' for Active; 'I' for Inactive)
REMARK    1  A    between atoms: O_11  and  C_1 
REMARK    2  A    between atoms: O_12  and  C_2 
REMARK    3  A    between atoms: C_6  and  C_3 
REMARK    4  A    between atoms: N_4  and  C_6 
REMARK    5  A    between atoms: CA_9  and  N_4 
REMARK    6  A    between atoms: O_13  and  C_5 
REMARK    7  A    between atoms: C_15  and  CA_9 
REMARK    8  A    between atoms: CA_9  and  C_10 
REMARK    9  A    between atoms: O_14  and  C_15 
ROOT
ATOM      1  C   UNL d   1      -3.153  -5.830  -1.438  0.00  0.00     0.312 C 
ENDROOT
BRANCH   1   2
ATOM      2  N   UNL d   1      -2.522  -4.592  -0.967  0.00  0.00     0.098 N 
ATOM      3  H   UNL d   1      -3.266  -3.949  -0.696  0.00  0.00     0.317 HD
BRANCH   2   4
ATOM      4  CA  UNL d   1      -1.646  -4.793   0.211  0.00  0.00     0.277 C 
BRANCH   4   5
ATOM      5  C   UNL d   1      -0.445  -5.750  -0.025  0.00  0.00     0.204 C 
BRANCH   5   6
ATOM      6  O   UNL d   1      -0.848  -7.120  -0.096  0.00  0.00    -0.398 OA
ATOM      7  H   UNL d   1      -0.099  -7.601  -0.491  0.00  0.00     0.209 HD
ENDBRANCH   5   6
ENDBRANCH   4   5
BRANCH   4   8
ATOM      8  C   UNL d   1      -1.083  -3.451   0.672  0.00  0.00    -0.023 A 
ATOM      9  C   UNL d   1      -0.693  -2.462  -0.248  0.00  0.00     0.009 A 
ATOM     10  C   UNL d   1      -0.118  -1.267   0.185  0.00  0.00     0.001 A 
ATOM     11  C   UNL d   1       0.094  -1.049   1.545  0.00  0.00     0.000 A 
ATOM     12  C   UNL d   1      -0.279  -2.021   2.467  0.00  0.00     0.001 A 
ATOM     13  C   UNL d   1      -0.867  -3.212   2.041  0.00  0.00     0.009 A 
ENDBRANCH   4   8
ENDBRANCH   2   4
ENDBRANCH   1   2
BRANCH   1  14
ATOM     14  C   UNL d   1      -4.023  -5.638  -2.670  0.00  0.00     0.006 A 
ATOM     15  C   UNL d   1      -5.130  -6.477  -2.969  0.00  0.00     0.112 A 
ATOM     16  C   UNL d   1      -5.919  -6.237  -4.124  0.00  0.00     0.135 A 
ATOM     17  C   UNL d   1      -5.561  -5.186  -4.994  0.00  0.00     0.104 A 
ATOM     18  C   UNL d   1      -4.424  -4.422  -4.739  0.00  0.00     0.040 A 
ATOM     19  C   UNL d   1      -3.668  -4.643  -3.595  0.00  0.00     0.014 A 
BRANCH  15  20
ATOM     20  O   UNL d   1      -5.532  -7.454  -2.085  0.00  0.00    -0.352 OA
ATOM     21  C   UNL d   1      -4.559  -8.465  -1.807  0.00  0.00     0.210 C 
ENDBRANCH  15  20
BRANCH  16  22
ATOM     22  O   UNL d   1      -7.043  -6.928  -4.500  0.00  0.00    -0.351 OA
ATOM     23  C   UNL d   1      -7.276  -8.240  -4.026  0.00  0.00     0.210 C 
ENDBRANCH  16  22
BRANCH  17  24
ATOM     24  O   UNL d   1      -6.176  -4.844  -6.176  0.00  0.00    -0.353 OA
ATOM     25  C   UNL d   1      -7.597  -4.901  -6.193  0.00  0.00     0.210 C 
ENDBRANCH  17  24
ENDBRANCH   1  14
TORSDOF 9
