REMARK  4 active torsions:
REMARK  status: ('A' for Active; 'I' for Inactive)
REMARK    1  A    between atoms: C_7  and  C_1 
REMARK    2  A    between atoms: C_16  and  C_4 
REMARK    3  A    between atoms: C_5  and  C_14 
REMARK       I    between atoms: N_13  and  C_7 
REMARK    4  A    between atoms: C_14  and  N_13 
ROOT
ATOM      1  C   UNL d   1       0.351  -2.572  -0.075  0.00  0.00     0.256 C 
ATOM      2  N   UNL d   1      -0.467  -3.671  -0.272  0.00  0.00    -0.352 N 
ATOM      3  O   UNL d   1       1.564  -2.682   0.052  0.00  0.00    -0.267 OA
ATOM      4  H   UNL d   1      -1.465  -3.556  -0.360  0.00  0.00     0.163 HD
ENDROOT
BRANCH   1   5
ATOM      5  C   UNL d   1      -0.319  -1.284  -0.029  0.00  0.00     0.092 A 
ATOM      6  C   UNL d   1       0.030  -0.093   0.702  0.00  0.00     0.083 A 
ATOM      7  N   UNL d   1      -0.835   0.894   0.403  0.00  0.00    -0.259 N 
ATOM      8  O   UNL d   1      -1.708   0.397  -0.523  0.00  0.00    -0.241 OA
ATOM      9  HN  UNL d   1      -0.837   1.837   0.793  1.00  0.00     0.195 HD
ATOM     10  C   UNL d   1      -1.400  -0.892  -0.799  0.00  0.00     0.090 A 
ATOM     11  C   UNL d   1      -2.219  -1.510  -1.861  0.00  0.00     0.080 C 
BRANCH   6  12
ATOM     12  C   UNL d   1       1.101   0.182   1.670  0.00  0.00    -0.006 A 
ATOM     13  C   UNL d   1       1.584  -0.793   2.551  0.00  0.00     0.014 A 
ATOM     14  C   UNL d   1       2.564  -0.474   3.501  0.00  0.00     0.001 A 
ATOM     15  C   UNL d   1       3.070   0.822   3.589  0.00  0.00     0.000 A 
ATOM     16  C   UNL d   1       2.603   1.802   2.721  0.00  0.00     0.001 A 
ATOM     17  C   UNL d   1       1.629   1.484   1.770  0.00  0.00     0.014 A 
ENDBRANCH   6  12
ENDBRANCH   1   5
BRANCH   2  18
ATOM     18  C   UNL d   1       0.101  -4.969  -0.564  0.00  0.00     0.162 C 
BRANCH  18  19
ATOM     19  C   UNL d   1      -0.810  -6.061  -0.082  0.00  0.00    -0.022 A 
ATOM     20  C   UNL d   1      -1.328  -7.150  -0.897  0.00  0.00    -0.009 A 
ATOM     21  C   UNL d   1      -2.039  -8.079  -0.127  0.00  0.00     0.015 A 
ATOM     22  C   UNL d   1      -1.199  -7.419  -2.287  0.00  0.00     0.037 A 
ATOM     23  C   UNL d   1      -2.585  -9.254  -0.687  0.00  0.00     0.021 A 
ATOM     24  S   UNL d   1      -2.131  -7.595   1.519  0.00  0.00    -0.101 SA
ATOM     25  C   UNL d   1      -2.430  -9.493  -2.053  0.00  0.00     0.025 A 
ATOM     26  C   UNL d   1      -1.753  -8.578  -2.843  0.00  0.00     0.035 A 
ATOM     27 CL   UNL d   1      -1.585  -8.872  -4.531  0.00  0.00    -0.084 Cl
ATOM     28  C   UNL d   1      -1.198  -6.202   1.238  0.00  0.00     0.060 A 
ENDBRANCH  18  19
ENDBRANCH   2  18
TORSDOF 4
