REMARK  7 active torsions:
REMARK  status: ('A' for Active; 'I' for Inactive)
REMARK    1  A    between atoms: N_6  and  C_1 
REMARK       I    between atoms: C_8  and  N_6 
REMARK    2  A    between atoms: C_11  and  C_8 
REMARK    3  A    between atoms: C_9  and  C_11 
REMARK    4  A    between atoms: C_12  and  C_9 
REMARK    5  A    between atoms: C_15  and  C_9 
REMARK    6  A    between atoms: C_10  and  C_12 
REMARK    7  A    between atoms: O_16  and  C_10 
ROOT
ATOM      1  C   UNL d   1      -0.191  -3.981   0.001  0.00  0.00     0.113 C 
ENDROOT
BRANCH   1   2
ATOM      2  C   UNL d   1      -1.187  -2.911  -0.509  0.00  0.00     0.037 C 
BRANCH   2   3
ATOM      3  C   UNL d   1      -0.711  -2.119  -1.746  0.00  0.00     0.119 C 
BRANCH   3   4
ATOM      4  C   UNL d   1      -0.348  -2.921  -2.978  0.00  0.00     0.140 C 
ATOM      5  O   UNL d   1      -0.196  -4.128  -3.035  0.00  0.00    -0.650 OA
BRANCH   4   6
ATOM      6  O   UNL d   1      -0.134  -2.126  -4.055  0.00  0.00    -0.776 OA
ATOM      7  H   UNL d   1      -0.249  -1.174  -3.870  0.00  0.00     0.167 HD
ENDBRANCH   4   6
ENDBRANCH   3   4
ENDBRANCH   2   3
BRANCH   2   8
ATOM      8  C   UNL d   1      -2.629  -3.377  -0.672  0.00  0.00    -0.053 A 
ATOM      9  C   UNL d   1      -3.649  -2.633  -0.048  0.00  0.00     0.007 A 
ATOM     10  C   UNL d   1      -4.995  -2.946  -0.242  0.00  0.00     0.001 A 
ATOM     11  C   UNL d   1      -5.346  -4.008  -1.067  0.00  0.00     0.000 A 
ATOM     12  C   UNL d   1      -4.349  -4.767  -1.678  0.00  0.00     0.001 A 
ATOM     13  C   UNL d   1      -2.997  -4.461  -1.477  0.00  0.00     0.007 A 
ENDBRANCH   2   8
ENDBRANCH   1   2
BRANCH   1  14
ATOM     14  C   UNL d   1       1.039  -3.329   0.629  0.00  0.00     0.223 C 
ATOM     15  N   UNL d   1       2.037  -4.232   0.940  0.00  0.00    -0.312 N 
ATOM     16  H   UNL d   1       2.091  -5.075   0.380  0.00  0.00     0.170 HD
ATOM     17  O   UNL d   1       1.102  -2.118   0.836  0.00  0.00    -0.273 OA
BRANCH  15  18
ATOM     18  C   UNL d   1       3.161  -3.906   1.690  0.00  0.00     0.126 A 
ATOM     19  N   UNL d   1       3.276  -2.987   2.716  0.00  0.00    -0.281 N 
ATOM     20  N   UNL d   1       4.513  -2.963   3.267  0.00  0.00    -0.302 N 
ATOM     21  C   UNL d   1       2.261  -2.211   3.389  0.00  0.00     0.179 C 
ATOM     22  C   UNL d   1       5.197  -3.893   2.598  0.00  0.00     0.025 A 
ATOM     23  HN  UNL d   1       4.847  -2.368   4.024  1.00  0.00     0.186 HD
ATOM     24  C   UNL d   1       4.402  -4.507   1.607  0.00  0.00     0.076 A 
ATOM     25  C   UNL d   1       6.607  -4.176   2.960  0.00  0.00     0.070 C 
ENDBRANCH  15  18
ENDBRANCH   1  14
TORSDOF 7
