REMARK  2 active torsions:
REMARK  status: ('A' for Active; 'I' for Inactive)
REMARK    1  A    between atoms: C_6  and  C_7 
REMARK       I    between atoms: N_8  and  C_6 
REMARK    2  A    between atoms: C_11  and  N_8 
ROOT
ATOM      1  C   UNL d   1      -0.654   0.401  -0.047  0.00  0.00     0.005 A 
ATOM      2  C   UNL d   1      -1.144  -0.924   0.150  0.00  0.00     0.027 A 
ATOM      3  C   UNL d   1      -0.008  -1.853   0.246  0.00  0.00     0.194 A 
ATOM      4  C   UNL d   1       0.809   0.296  -0.134  0.00  0.00    -0.010 A 
ATOM      5  C   UNL d   1       1.197  -1.044   0.071  0.00  0.00     0.026 A 
ATOM      6  C   UNL d   1      -1.610   1.414  -0.127  0.00  0.00     0.044 A 
ATOM      7  O   UNL d   1      -0.065  -3.051   0.426  0.00  0.00    -0.287 OA
ATOM      8  C   UNL d   1      -2.475  -1.298   0.230  0.00  0.00     0.016 A 
ATOM      9  C   UNL d   1       1.819   1.206  -0.404  0.00  0.00     0.013 A 
ATOM     10  C   UNL d   1       2.503  -1.510   0.069  0.00  0.00     0.016 A 
ATOM     11  C   UNL d   1      -2.983   1.036  -0.030  0.00  0.00     0.018 A 
ATOM     12  C   UNL d   1      -3.411  -0.290   0.134  0.00  0.00     0.002 A 
ATOM     13  C   UNL d   1       3.163   0.767  -0.395  0.00  0.00     0.001 A 
ATOM     14  C   UNL d   1       3.499  -0.578  -0.154  0.00  0.00     0.001 A 
ENDROOT
BRANCH   6  15
ATOM     15  C   UNL d   1      -1.434   2.886  -0.334  0.00  0.00     0.253 C 
ATOM     16  N   UNL d   1      -0.346   3.531   0.215  0.00  0.00    -0.349 N 
ATOM     17  H   UNL d   1       0.226   2.977   0.838  0.00  0.00     0.163 HD
ATOM     18  O   UNL d   1      -2.331   3.479  -0.927  0.00  0.00    -0.268 OA
BRANCH  16  19
ATOM     19  C   UNL d   1      -0.287   4.998   0.461  0.00  0.00     0.022 C 
ATOM     20  C   UNL d   1      -0.881   5.272   1.851  0.00  0.00     0.037 C 
ATOM     21  C   UNL d   1       1.189   5.435   0.447  0.00  0.00     0.037 C 
ATOM     22  C   UNL d   1      -1.025   5.876  -0.573  0.00  0.00     0.037 C 
ENDBRANCH  16  19
ENDBRANCH   6  15
TORSDOF 2
