REMARK  7 active torsions:
REMARK  status: ('A' for Active; 'I' for Inactive)
REMARK    1  A    between atoms: C_2  and  S_1 
REMARK    2  A    between atoms: N_8  and  S_1 
REMARK       I    between atoms: C_5  and  N_7 
REMARK    3  A    between atoms: C_14  and  C_5 
REMARK    4  A    between atoms: C_6  and  C_15 
REMARK    5  A    between atoms: O_16  and  C_6 
REMARK    6  A    between atoms: N_7  and  C_13 
REMARK    7  A    between atoms: C_15  and  C_14 
ROOT
ATOM      1  C   UNL d   1       0.484  -1.524  -0.912  0.00  0.00     0.074 A 
ATOM      2  C   UNL d   1       1.095  -2.742  -0.611  0.00  0.00     0.027 A 
ATOM      3  C   UNL d   1      -0.519  -1.456  -1.877  0.00  0.00     0.027 A 
ATOM      4  C   UNL d   1      -0.281  -3.842  -2.287  0.00  0.00     0.034 A 
ATOM      5  C   UNL d   1      -0.895  -2.616  -2.563  0.00  0.00     0.031 A 
ATOM      6  C   UNL d   1       0.712  -3.897  -1.300  0.00  0.00     0.031 A 
ENDROOT
BRANCH   4   7
ATOM      7  N   UNL d   1      -0.604  -5.047  -2.949  0.00  0.00    -0.327 N 
ATOM      8  C   UNL d   1      -1.403  -5.184  -4.062  0.00  0.00     0.222 C 
ATOM      9  O   UNL d   1      -1.955  -4.277  -4.687  0.00  0.00    -0.273 OA
ATOM     10  H   UNL d   1      -0.099  -5.868  -2.636  0.00  0.00     0.169 HD
BRANCH   8  11
ATOM     11  C   UNL d   1      -1.481  -6.601  -4.592  0.00  0.00     0.113 C 
BRANCH  11  12
ATOM     12  C   UNL d   1      -1.253  -6.570  -6.099  0.00  0.00     0.119 C 
BRANCH  12  13
ATOM     13  C   UNL d   1       0.135  -6.059  -6.392  0.00  0.00     0.139 C 
ATOM     14  O   UNL d   1       1.119  -6.780  -6.442  0.00  0.00    -0.650 OA
BRANCH  13  15
ATOM     15  O   UNL d   1       0.208  -4.715  -6.510  0.00  0.00    -0.776 OA
ATOM     16  H   UNL d   1      -0.635  -4.244  -6.318  0.00  0.00     0.167 HD
ENDBRANCH  13  15
ENDBRANCH  12  13
ENDBRANCH  11  12
ENDBRANCH   8  11
ENDBRANCH   4   7
BRANCH   1  17
ATOM     17  S   UNL d   1       0.953  -0.073  -0.014  0.00  0.00     0.239 S 
ATOM     18  O   UNL d   1       1.525  -0.465   1.249  0.00  0.00    -0.206 OA
ATOM     19  O   UNL d   1      -0.099   0.914  -0.118  0.00  0.00    -0.206 OA
BRANCH  17  20
ATOM     20  N   UNL d   1       2.227   0.506  -0.940  0.00  0.00    -0.225 NA
ATOM     21  H   UNL d   1       3.111   0.372  -0.445  0.00  0.00     0.136 HD
ATOM     22  H   UNL d   1       2.047   1.473  -1.207  0.00  0.00     0.136 HD
ENDBRANCH  17  20
ENDBRANCH   1  17
TORSDOF 7
