REMARK  7 active torsions:
REMARK  status: ('A' for Active; 'I' for Inactive)
REMARK    1  A    between atoms: C_3  and  S_1 
REMARK    2  A    between atoms: N_6  and  S_1 
REMARK    3  A    between atoms: S_4  and  C_2 
REMARK    4  A    between atoms: C_16  and  S_4 
REMARK    5  A    between atoms: C_11  and  C_9 
REMARK    6  A    between atoms: O_19  and  C_11 
REMARK    7  A    between atoms: C_24  and  O_19 
ROOT
ATOM      1  C   UNL d   1      -0.078  -0.874   3.888  0.00  0.00     0.072 A 
ATOM      2  C   UNL d   1       0.299  -0.288   1.654  0.00  0.00     0.116 A 
ATOM      3  C   UNL d   1       0.885  -0.622   2.863  0.00  0.00     0.056 A 
ATOM      4  S   UNL d   1      -1.408  -0.306   1.761  0.00  0.00    -0.087 SA
ATOM      5  C   UNL d   1      -1.369  -0.755   3.416  0.00  0.00     0.074 A 
ENDROOT
BRANCH   2   6
ATOM      6  S   UNL d   1       1.000   0.082   0.059  0.00  0.00     0.250 S 
ATOM      7  O   UNL d   1       0.459  -0.925  -0.829  0.00  0.00    -0.205 OA
ATOM      8  O   UNL d   1       2.426   0.166   0.303  0.00  0.00    -0.205 OA
BRANCH   6   9
ATOM      9  N   UNL d   1       0.493   1.629  -0.502  0.00  0.00    -0.205 NA
ATOM     10  C   UNL d   1       0.982   2.773   0.334  0.00  0.00     0.122 C 
ATOM     11  C   UNL d   1       0.370   4.100  -0.133  0.00  0.00     0.100 C 
ATOM     12  C   UNL d   1       0.660   4.319  -1.625  0.00  0.00     0.017 C 
ATOM     13  C   UNL d   1       0.220   3.122  -2.462  0.00  0.00     0.016 C 
ATOM     14  C   UNL d   1       0.827   1.823  -1.945  0.00  0.00     0.107 C 
BRANCH  11  15
ATOM     15  C   UNL d   1      -1.103   4.152   0.244  0.00  0.00     0.264 C 
ATOM     16  O   UNL d   1      -1.565   3.637   1.256  0.00  0.00    -0.265 OA
BRANCH  15  17
ATOM     17  O   UNL d   1      -1.823   4.903  -0.634  0.00  0.00    -0.322 OA
BRANCH  17  18
ATOM     18  C   UNL d   1      -3.232   4.989  -0.376  0.00  0.00     0.174 C 
ATOM     19  C   UNL d   1      -3.939   3.776  -0.954  0.00  0.00     0.034 C 
ENDBRANCH  17  18
ENDBRANCH  15  17
ENDBRANCH  11  15
ENDBRANCH   6   9
ENDBRANCH   2   6
BRANCH   1  20
ATOM     20  S   UNL d   1       0.330  -1.233   5.538  0.00  0.00     0.207 S 
ATOM     21  O   UNL d   1       1.601  -0.570   5.747  0.00  0.00    -0.217 OA
ATOM     22  O   UNL d   1      -0.855  -0.884   6.296  0.00  0.00    -0.217 OA
BRANCH  20  23
ATOM     23  C   UNL d   1       0.575  -2.985   5.634  0.00  0.00     0.064 A 
ATOM     24  C   UNL d   1       1.857  -3.515   5.449  0.00  0.00     0.024 A 
ATOM     25  C   UNL d   1       2.062  -4.888   5.598  0.00  0.00     0.002 A 
ATOM     26  C   UNL d   1       0.997  -5.721   5.944  0.00  0.00     0.000 A 
ATOM     27  C   UNL d   1      -0.276  -5.186   6.148  0.00  0.00     0.002 A 
ATOM     28  C   UNL d   1      -0.490  -3.812   5.999  0.00  0.00     0.024 A 
ENDBRANCH  20  23
ENDBRANCH   1  20
TORSDOF 7
