REMARK  5 active torsions:
REMARK  status: ('A' for Active; 'I' for Inactive)
REMARK    1  A    between atoms: C_6  and  C_1 
REMARK    2  A    between atoms: C_9  and  N_4 
REMARK       I    between atoms: N_8  and  C_6 
REMARK    3  A    between atoms: C_10  and  C_14 
REMARK    4  A    between atoms: O_18  and  C_10 
REMARK    5  A    between atoms: C_23  and  O_18 
ROOT
ATOM      1  C   UNL d   1      -0.635  -2.567  -0.171  0.00  0.00     0.271 C 
ATOM      2  N   UNL d   1       0.359  -3.525   0.102  0.00  0.00    -0.347 N 
ATOM      3  O   UNL d   1      -1.783  -2.913  -0.447  0.00  0.00    -0.266 OA
ATOM      4  C   UNL d   1       0.078  -4.926  -0.198  0.00  0.00     0.127 C 
ATOM      5  C   UNL d   1       1.718  -3.233   0.558  0.00  0.00     0.127 C 
ATOM      6  C   UNL d   1       1.915  -5.606   1.428  0.00  0.00     0.088 C 
ATOM      7  C   UNL d   1       0.468  -5.840   0.965  0.00  0.00     0.034 C 
ATOM      8  C   UNL d   1       2.096  -4.117   1.746  0.00  0.00     0.034 C 
ENDROOT
BRANCH   1   9
ATOM      9  C   UNL d   1      -0.312  -1.125  -0.087  0.00  0.00     0.118 A 
ATOM     10  N   UNL d   1       0.883  -0.591  -0.378  0.00  0.00    -0.292 N 
ATOM     11  N   UNL d   1       0.763   0.740  -0.161  0.00  0.00    -0.287 N 
ATOM     12  HN  UNL d   1       1.714  -1.087  -0.698  1.00  0.00     0.187 HD
ATOM     13  C   UNL d   1      -0.532   1.089   0.171  0.00  0.00     0.028 A 
ATOM     14  C   UNL d   1      -1.233  -0.099   0.224  0.00  0.00     0.063 A 
ATOM     15  C   UNL d   1      -1.059   2.457   0.399  0.00  0.00     0.070 C 
BRANCH  11  16
ATOM     16  C   UNL d   1       1.963   1.585  -0.358  0.00  0.00     0.043 C 
ATOM     17  C   UNL d   1       3.216   0.725  -0.690  0.00  0.00     0.039 C 
ATOM     18  C   UNL d   1       1.753   2.544  -1.541  0.00  0.00     0.039 C 
ATOM     19  C   UNL d   1       2.317   2.377   0.915  0.00  0.00     0.039 C 
ENDBRANCH  11  16
ENDBRANCH   1   9
BRANCH   6  20
ATOM     20  C   UNL d   1       2.970  -6.040   0.416  0.00  0.00     0.263 C 
ATOM     21  O   UNL d   1       4.097  -5.556   0.357  0.00  0.00    -0.265 OA
BRANCH  20  22
ATOM     22  O   UNL d   1       2.503  -7.009  -0.414  0.00  0.00    -0.322 OA
BRANCH  22  23
ATOM     23  C   UNL d   1       3.242  -7.206  -1.627  0.00  0.00     0.174 C 
ATOM     24  C   UNL d   1       3.987  -8.523  -1.602  0.00  0.00     0.034 C 
ENDBRANCH  22  23
ENDBRANCH  20  22
ENDBRANCH   6  20
TORSDOF 5
