REMARK  6 active torsions:
REMARK  status: ('A' for Active; 'I' for Inactive)
REMARK    1  A    between atoms: N_3  and  N_1 
REMARK    2  A    between atoms: C_4  and  N_1 
REMARK       I    between atoms: C_2  and  N_3 
REMARK    3  A    between atoms: C_7  and  C_2 
REMARK    4  A    between atoms: C_10  and  C_6 
REMARK    5  A    between atoms: C_8  and  C_7 
REMARK    6  A    between atoms: C_9  and  C_8 
ROOT
ATOM      1  C   UNL d   1      -1.222   0.891   0.134  0.00  0.00     0.232 C 
ATOM      2  N   UNL d   1       0.080   0.767   0.605  0.00  0.00    -0.287 N 
ATOM      3  O   UNL d   1      -1.685   0.198  -0.768  0.00  0.00    -0.272 OA
ATOM      4  H   UNL d   1       0.502   1.571   1.052  0.00  0.00     0.184 HD
ENDROOT
BRANCH   2   5
ATOM      5  N   UNL d   1       0.977   0.011  -0.190  0.00  0.00    -0.203 NA
ATOM      6  H   UNL d   1       0.762  -0.988  -0.125  0.00  0.00     0.153 HD
BRANCH   5   7
ATOM      7  C   UNL d   1       2.358   0.239   0.051  0.00  0.00     0.034 A 
ATOM      8  C   UNL d   1       3.321  -0.039  -0.944  0.00  0.00    -0.036 A 
ATOM      9  C   UNL d   1       4.678   0.263  -0.672  0.00  0.00     0.009 A 
ATOM     10  C   UNL d   1       5.093   0.757   0.561  0.00  0.00     0.001 A 
ATOM     11  C   UNL d   1       4.160   0.936   1.568  0.00  0.00     0.002 A 
ATOM     12  C   UNL d   1       2.814   0.666   1.318  0.00  0.00     0.026 A 
BRANCH   8  13
ATOM     13  C   UNL d   1       3.086  -0.631  -2.324  0.00  0.00     0.036 C 
ATOM     14  C   UNL d   1       1.715  -1.119  -2.760  0.00  0.00     0.010 C 
ENDBRANCH   8  13
ENDBRANCH   5   7
ENDBRANCH   2   5
BRANCH   1  15
ATOM     15  C   UNL d   1      -2.112   1.861   0.911  0.00  0.00     0.108 C 
BRANCH  15  16
ATOM     16  C   UNL d   1      -1.406   3.080   1.500  0.00  0.00     0.048 C 
BRANCH  16  17
ATOM     17  C   UNL d   1      -2.327   4.019   2.240  0.00  0.00    -0.058 A 
ATOM     18  C   UNL d   1      -2.593   3.821   3.603  0.00  0.00     0.007 A 
ATOM     19  C   UNL d   1      -3.390   4.723   4.310  0.00  0.00     0.001 A 
ATOM     20  C   UNL d   1      -3.938   5.829   3.659  0.00  0.00     0.000 A 
ATOM     21  C   UNL d   1      -3.699   6.021   2.301  0.00  0.00     0.001 A 
ATOM     22  C   UNL d   1      -2.900   5.121   1.592  0.00  0.00     0.007 A 
ENDBRANCH  16  17
ENDBRANCH  15  16
ENDBRANCH   1  15
TORSDOF 6
