REMARK  7 active torsions:
REMARK  status: ('A' for Active; 'I' for Inactive)
REMARK    1  A    between atoms: C_8  and  C_1 
REMARK    2  A    between atoms: C_12  and  N_2 
REMARK    3  A    between atoms: C_7  and  C_10 
REMARK       I    between atoms: N_11  and  C_8 
REMARK    4  A    between atoms: O_13  and  C_9 
REMARK    5  A    between atoms: C_10  and  N_11 
REMARK    6  A    between atoms: C_19  and  O_13 
REMARK    7  A    between atoms: O_25  and  C_21 
ROOT
ATOM      1  C   UNL d   1      -0.079   2.191  -1.094  0.00  0.00     0.255 C 
ATOM      2  N   UNL d   1       0.671   3.325  -0.952  0.00  0.00    -0.352 N 
ATOM      3  O   UNL d   1      -1.119   2.311  -1.744  0.00  0.00    -0.268 OA
ATOM      4  H   UNL d   1       0.170   4.115  -1.341  0.00  0.00     0.163 HD
ENDROOT
BRANCH   1   5
ATOM      5  C   UNL d   1       0.316   0.883  -0.597  0.00  0.00     0.073 C 
ATOM      6  C   UNL d   1       1.043   0.438   0.499  0.00  0.00     0.048 C 
ATOM      7  N   UNL d   1       1.178  -0.933   0.332  0.00  0.00    -0.260 N 
ATOM      8  C   UNL d   1       1.506   1.087   1.748  0.00  0.00     0.071 C 
ATOM      9  N   UNL d   1       0.239  -1.423  -0.502  0.00  0.00    -0.304 N 
ATOM     10  C   UNL d   1      -0.208  -0.332  -1.124  0.00  0.00     0.126 C 
ATOM     11  HN  UNL d   1      -0.057  -2.391  -0.626  1.00  0.00     0.186 HD
BRANCH   7  12
ATOM     12  C   UNL d   1       2.168  -1.779   0.886  0.00  0.00     0.056 A 
ATOM     13  C   UNL d   1       1.862  -3.101   1.218  0.00  0.00     0.034 A 
ATOM     14  C   UNL d   1       2.858  -3.933   1.742  0.00  0.00     0.039 A 
ATOM     15  C   UNL d   1       4.167  -3.466   1.883  0.00  0.00     0.068 A 
ATOM     16  C   UNL d   1       4.469  -2.145   1.534  0.00  0.00     0.039 A 
ATOM     17  C   UNL d   1       3.474  -1.298   1.047  0.00  0.00     0.034 A 
BRANCH  15  18
ATOM     18  O   UNL d   1       5.237  -4.184   2.338  0.00  0.00    -0.356 OA
ATOM     19  C   UNL d   1       5.036  -5.578   2.519  0.00  0.00     0.210 C 
ENDBRANCH  15  18
ENDBRANCH   7  12
ENDBRANCH   1   5
BRANCH   2  20
ATOM     20  C   UNL d   1       1.931   3.653  -0.320  0.00  0.00     0.166 C 
BRANCH  20  21
ATOM     21  C   UNL d   1       1.840   4.190   1.098  0.00  0.00     0.015 C 
ATOM     22  C   UNL d   1       3.014   4.162   1.891  0.00  0.00     0.085 C 
ATOM     23  C   UNL d   1       2.955   4.351   3.279  0.00  0.00     0.038 C 
ATOM     24  C   UNL d   1       1.760   4.704   3.887  0.00  0.00     0.004 C 
ATOM     25  C   UNL d   1       0.630   4.901   3.103  0.00  0.00     0.024 C 
ATOM     26  C   UNL d   1       0.669   4.665   1.720  0.00  0.00     0.044 C 
ATOM     27 CL   UNL d   1      -0.796   5.030   0.874  0.00  0.00    -0.084 Cl
BRANCH  22  28
ATOM     28  O   UNL d   1       4.218   3.867   1.266  0.00  0.00    -0.310 OA
BRANCH  28  29
ATOM     29  C   UNL d   1       5.347   4.518   1.728  0.00  0.00     0.076 A 
ATOM     30  C   UNL d   1       6.498   3.750   1.896  0.00  0.00     0.037 A 
ATOM     31  C   UNL d   1       7.655   4.335   2.420  0.00  0.00     0.003 A 
ATOM     32  C   UNL d   1       7.663   5.688   2.759  0.00  0.00     0.000 A 
ATOM     33  C   UNL d   1       6.525   6.467   2.552  0.00  0.00     0.003 A 
ATOM     34  C   UNL d   1       5.373   5.888   2.015  0.00  0.00     0.037 A 
ENDBRANCH  28  29
ENDBRANCH  22  28
ENDBRANCH  20  21
ENDBRANCH   2  20
TORSDOF 7
