REMARK  4 active torsions:
REMARK  status: ('A' for Active; 'I' for Inactive)
REMARK    1  A    between atoms: C_6  and  C_1 
REMARK       I    between atoms: N_8  and  C_6 
REMARK    2  A    between atoms: C_11  and  C_7 
REMARK    3  A    between atoms: C_9  and  N_8 
REMARK    4  A    between atoms: C_13  and  C_10 
ROOT
ATOM      1  C   UNL d   1      -0.188  -2.539  -0.602  0.00  0.00     0.274 C 
ATOM      2  N   UNL d   1       0.709  -3.426  -0.029  0.00  0.00    -0.321 N 
ATOM      3  O   UNL d   1      -1.240  -2.877  -1.142  0.00  0.00    -0.266 OA
ATOM      4  H   UNL d   1       1.391  -3.031   0.603  0.00  0.00     0.169 HD
ENDROOT
BRANCH   2   5
ATOM      5  C   UNL d   1       0.589  -4.837  -0.011  0.00  0.00     0.046 A 
ATOM      6  C   UNL d   1       1.121  -5.587   1.074  0.00  0.00     0.001 A 
ATOM      7  C   UNL d   1       1.044  -6.995   0.984  0.00  0.00     0.014 A 
ATOM      8  C   UNL d   1       0.487  -7.637  -0.126  0.00  0.00     0.001 A 
ATOM      9  C   UNL d   1      -0.031  -6.887  -1.170  0.00  0.00     0.002 A 
ATOM     10  C   UNL d   1       0.012  -5.496  -1.109  0.00  0.00     0.030 A 
BRANCH   6  11
ATOM     11  C   UNL d   1       1.703  -4.972   2.304  0.00  0.00    -0.024 A 
ATOM     12  C   UNL d   1       1.124  -3.844   2.918  0.00  0.00     0.012 A 
ATOM     13  C   UNL d   1       1.709  -3.232   4.032  0.00  0.00     0.001 A 
ATOM     14  C   UNL d   1       2.854  -3.774   4.602  0.00  0.00     0.000 A 
ATOM     15  C   UNL d   1       3.413  -4.926   4.058  0.00  0.00     0.001 A 
ATOM     16  C   UNL d   1       2.851  -5.509   2.916  0.00  0.00     0.012 A 
ENDBRANCH   6  11
ENDBRANCH   2   5
BRANCH   1  17
ATOM     17  C   UNL d   1       0.189  -1.153  -0.443  0.00  0.00     0.120 A 
ATOM     18  N   UNL d   1      -0.658  -0.069  -0.524  0.00  0.00    -0.291 N 
ATOM     19  N   UNL d   1      -0.038   1.119  -0.338  0.00  0.00    -0.302 N 
ATOM     20  C   UNL d   1      -2.083  -0.040  -0.759  0.00  0.00     0.178 C 
ATOM     21  C   UNL d   1       1.249   0.806  -0.158  0.00  0.00     0.036 A 
ATOM     22  HN  UNL d   1      -0.459   2.048  -0.336  1.00  0.00     0.186 HD
ATOM     23  C   UNL d   1       1.436  -0.595  -0.217  0.00  0.00     0.064 A 
BRANCH  21  24
ATOM     24  C   UNL d   1       2.308   1.875   0.050  0.00  0.00    -0.007 C 
ATOM     25  C   UNL d   1       3.258   1.909  -1.164  0.00  0.00     0.021 C 
ATOM     26  C   UNL d   1       1.697   3.282   0.219  0.00  0.00     0.021 C 
ATOM     27  C   UNL d   1       3.129   1.563   1.319  0.00  0.00     0.021 C 
ENDBRANCH  21  24
ENDBRANCH   1  17
TORSDOF 4
