REMARK  2 active torsions:
REMARK  status: ('A' for Active; 'I' for Inactive)
REMARK    1  A    between atoms: C_8  and  C_3 
REMARK    2  A    between atoms: C_9  and  C_3 
ROOT
ATOM      1  C   UNL d   1      -1.134   0.143  -0.086  0.00  0.00     0.263 A 
ATOM      2  N   UNL d   1      -0.018   0.921  -0.072  0.00  0.00    -0.277 N 
ATOM      3  C   UNL d   1      -0.725  -1.367   0.001  0.00  0.00     0.171 A 
ATOM      4  C   UNL d   1       1.087   0.158   0.012  0.00  0.00     0.324 A 
ATOM      5  N   UNL d   1       0.718  -1.155   0.053  0.00  0.00    -0.317 N 
ATOM      6  O   UNL d   1      -2.266   0.613  -0.151  0.00  0.00    -0.269 OA
ATOM      7  O   UNL d   1       2.238   0.556   0.045  0.00  0.00    -0.247 OA
ATOM      8  H   UNL d   1      -0.011   1.925  -0.108  0.00  0.00     0.173 HD
ATOM      9  H   UNL d   1       1.416  -1.882   0.092  0.00  0.00     0.166 HD
ENDROOT
BRANCH   3  10
ATOM     10  C   UNL d   1      -1.098  -2.197  -1.239  0.00  0.00    -0.016 A 
ATOM     11  C   UNL d   1      -0.321  -3.315  -1.607  0.00  0.00     0.010 A 
ATOM     12  C   UNL d   1      -0.709  -4.157  -2.653  0.00  0.00     0.001 A 
ATOM     13  C   UNL d   1      -1.887  -3.909  -3.346  0.00  0.00     0.000 A 
ATOM     14  C   UNL d   1      -2.667  -2.807  -3.010  0.00  0.00     0.001 A 
ATOM     15  C   UNL d   1      -2.277  -1.959  -1.969  0.00  0.00     0.010 A 
ENDBRANCH   3  10
BRANCH   3  16
ATOM     16  C   UNL d   1      -1.267  -2.017   1.285  0.00  0.00    -0.016 A 
ATOM     17  C   UNL d   1      -2.655  -2.041   1.533  0.00  0.00     0.010 A 
ATOM     18  C   UNL d   1      -3.180  -2.671   2.663  0.00  0.00     0.001 A 
ATOM     19  C   UNL d   1      -2.332  -3.293   3.571  0.00  0.00     0.000 A 
ATOM     20  C   UNL d   1      -0.958  -3.282   3.351  0.00  0.00     0.001 A 
ATOM     21  C   UNL d   1      -0.430  -2.654   2.219  0.00  0.00     0.010 A 
ENDBRANCH   3  16
TORSDOF 2
