REMARK  5 active torsions:
REMARK  status: ('A' for Active; 'I' for Inactive)
REMARK       I    between atoms: N_2  and  C_1 
REMARK    1  A    between atoms: C_5  and  C_1 
REMARK    2  A    between atoms: C_7  and  N_2 
REMARK    3  A    between atoms: C_3  and  C_7 
REMARK    4  A    between atoms: O_8  and  C_3 
REMARK    5  A    between atoms: C_11  and  O_8 
ROOT
ATOM      1  C   UNL d   1       1.207  -0.131  -0.095  0.00  0.00     0.252 C 
ATOM      2  N   UNL d   1       0.372  -1.222  -0.154  0.00  0.00    -0.348 N 
ATOM      3  O   UNL d   1       2.427  -0.234  -0.042  0.00  0.00    -0.268 OA
ATOM      4  H   UNL d   1      -0.629  -1.131  -0.021  0.00  0.00     0.163 HD
ENDROOT
BRANCH   1   5
ATOM      5  C   UNL d   1       0.574   1.215  -0.063  0.00  0.00     0.032 A 
ATOM      6  C   UNL d   1       1.287   2.263   0.538  0.00  0.00     0.017 A 
ATOM      7  C   UNL d   1       0.758   3.554   0.558  0.00  0.00     0.001 A 
ATOM      8  C   UNL d   1      -0.479   3.807  -0.030  0.00  0.00     0.000 A 
ATOM      9  C   UNL d   1      -1.191   2.770  -0.635  0.00  0.00     0.001 A 
ATOM     10  C   UNL d   1      -0.668   1.474  -0.654  0.00  0.00     0.017 A 
ENDBRANCH   1   5
BRANCH   2  11
ATOM     11  C   UNL d   1       0.943  -2.557  -0.120  0.00  0.00     0.233 C 
BRANCH  11  12
ATOM     12  C   UNL d   1      -0.103  -3.628   0.129  0.00  0.00     0.276 C 
ATOM     13  O   UNL d   1      -1.296  -3.411   0.305  0.00  0.00    -0.263 OA
BRANCH  12  14
ATOM     14  O   UNL d   1       0.505  -4.847   0.184  0.00  0.00    -0.321 OA
BRANCH  14  15
ATOM     15  C   UNL d   1      -0.293  -5.932   0.675  0.00  0.00     0.174 C 
ATOM     16  C   UNL d   1      -0.159  -5.987   2.186  0.00  0.00     0.034 C 
ENDBRANCH  14  15
ENDBRANCH  12  14
ENDBRANCH  11  12
ENDBRANCH   2  11
TORSDOF 5
