REMARK  8 active torsions:
REMARK  status: ('A' for Active; 'I' for Inactive)
REMARK    1  A    between atoms: C_4  and  C_1 
REMARK    2  A    between atoms: S_5  and  C_2 
REMARK       I    between atoms: C_3  and  N_6 
REMARK       I    between atoms: N_7  and  C_3 
REMARK    3  A    between atoms: N_6  and  C_4 
REMARK    4  A    between atoms: C_10  and  S_5 
REMARK    5  A    between atoms: C_11  and  N_7 
REMARK    6  A    between atoms: O_12  and  C_13 
REMARK    7  A    between atoms: C_16  and  O_12 
REMARK    8  A    between atoms: C_26  and  C_16 
ROOT
ATOM      1  C   UNL d   1      -3.433   3.070   0.042  0.00  0.00     0.320 C 
ATOM      2  N   UNL d   1      -2.258   2.342   0.155  0.00  0.00    -0.339 N 
ATOM      3  N   UNL d   1      -3.467   4.169   0.876  0.00  0.00    -0.309 N 
ATOM      4  O   UNL d   1      -4.350   2.682  -0.668  0.00  0.00    -0.247 OA
ATOM      5  H   UNL d   1      -1.589   2.617   0.855  0.00  0.00     0.164 HD
ATOM      6  H   UNL d   1      -2.731   4.231   1.562  0.00  0.00     0.170 HD
ENDROOT
BRANCH   2   7
ATOM      7  C   UNL d   1      -2.297   0.939  -0.239  0.00  0.00     0.166 C 
BRANCH   7   8
ATOM      8  C   UNL d   1      -1.017   0.122  -0.166  0.00  0.00    -0.002 A 
ATOM      9  C   UNL d   1      -0.899  -1.046  -0.975  0.00  0.00     0.015 A 
ATOM     10  C   UNL d   1       0.266  -1.834  -0.941  0.00  0.00     0.019 A 
ATOM     11  C   UNL d   1       1.313  -1.520  -0.087  0.00  0.00     0.003 A 
ATOM     12  C   UNL d   1       1.188  -0.427   0.763  0.00  0.00     0.024 A 
ATOM     13  C   UNL d   1       0.035   0.373   0.739  0.00  0.00     0.043 A 
ATOM     14 CL   UNL d   1      -0.013   1.634   1.926  0.00  0.00    -0.084 Cl
BRANCH   9  15
ATOM     15  S   UNL d   1      -2.148  -1.616  -2.131  0.00  0.00    -0.090 SA
BRANCH  15  16
ATOM     16  C   UNL d   1      -3.301  -2.591  -1.172  0.00  0.00     0.005 A 
ATOM     17  C   UNL d   1      -3.336  -2.646   0.226  0.00  0.00     0.020 A 
ATOM     18  C   UNL d   1      -4.374  -3.317   0.887  0.00  0.00     0.025 A 
ATOM     19  C   UNL d   1      -5.373  -3.953   0.154  0.00  0.00     0.034 A 
ATOM     20  C   UNL d   1      -5.321  -3.962  -1.235  0.00  0.00     0.025 A 
ATOM     21 CL   UNL d   1      -6.688  -4.707   0.968  0.00  0.00    -0.084 Cl
ATOM     22  C   UNL d   1      -4.287  -3.285  -1.892  0.00  0.00     0.020 A 
ENDBRANCH  15  16
ENDBRANCH   9  15
ENDBRANCH   7   8
ENDBRANCH   2   7
BRANCH   3  23
ATOM     23  C   UNL d   1      -4.650   4.909   1.155  0.00  0.00     0.036 A 
ATOM     24  C   UNL d   1      -4.788   5.497   2.419  0.00  0.00     0.032 A 
ATOM     25  C   UNL d   1      -6.012   6.066   2.816  0.00  0.00     0.039 A 
ATOM     26  C   UNL d   1      -7.096   6.088   1.938  0.00  0.00     0.069 A 
ATOM     27  C   UNL d   1      -6.918   5.625   0.636  0.00  0.00     0.039 A 
ATOM     28  C   UNL d   1      -5.708   5.030   0.250  0.00  0.00     0.032 A 
BRANCH  26  29
ATOM     29  O   UNL d   1      -8.337   6.586   2.247  0.00  0.00    -0.347 OA
BRANCH  29  30
ATOM     30  C   UNL d   1      -8.850   6.141   3.514  0.00  0.00     0.214 C 
BRANCH  30  31
ATOM     31  C   UNL d   1     -10.335   6.432   3.693  0.00  0.00    -0.034 A 
ATOM     32  C   UNL d   1     -11.146   6.925   2.663  0.00  0.00     0.009 A 
ATOM     33  C   UNL d   1     -12.511   7.162   2.878  0.00  0.00     0.001 A 
ATOM     34  C   UNL d   1     -13.082   6.906   4.121  0.00  0.00     0.000 A 
ATOM     35  C   UNL d   1     -12.293   6.407   5.155  0.00  0.00     0.001 A 
ATOM     36  C   UNL d   1     -10.931   6.171   4.940  0.00  0.00     0.009 A 
ENDBRANCH  30  31
ENDBRANCH  29  30
ENDBRANCH  26  29
ENDBRANCH   3  23
TORSDOF 8
