REMARK  7 active torsions:
REMARK  status: ('A' for Active; 'I' for Inactive)
REMARK    1  A    between atoms: C_4  and  C_1 
REMARK    2  A    between atoms: C_2  and  C_3 
REMARK    3  A    between atoms: C_5  and  N_8 
REMARK    4  A    between atoms: N_12  and  C_5 
REMARK    5  A    between atoms: N_8  and  C_7 
REMARK    6  A    between atoms: C_19  and  N_12 
REMARK    7  A    between atoms: C_20  and  C_19 
ROOT
ATOM      1  C   UNL d   1       0.266  -0.434   3.481  0.00  0.00     0.050 A 
ATOM      2  C   UNL d   1       0.422  -0.486   1.046  0.00  0.00     0.050 A 
ATOM      3  C   UNL d   1       0.238   0.226   2.239  0.00  0.00     0.032 A 
ATOM      4  C   UNL d   1       0.722  -2.533   2.335  0.00  0.00     0.035 A 
ATOM      5  C   UNL d   1       0.494  -1.821   3.513  0.00  0.00     0.045 A 
ATOM      6  C   UNL d   1       0.635  -1.869   1.109  0.00  0.00     0.045 A 
ENDROOT
BRANCH   4   7
ATOM      7  N   UNL d   1       0.984  -3.915   2.406  0.00  0.00    -0.333 N 
ATOM      8  H   UNL d   1       0.802  -4.370   3.292  0.00  0.00     0.168 HD
BRANCH   7   9
ATOM      9  C   UNL d   1       1.746  -4.663   1.543  0.00  0.00     0.172 C 
ATOM     10  S   UNL d   1       3.045  -4.149   0.623  0.00  0.00    -0.041 SA
BRANCH   9  11
ATOM     11  N   UNL d   1       1.416  -5.987   1.464  0.00  0.00    -0.367 N 
ATOM     12  H   UNL d   1       1.981  -6.495   0.788  0.00  0.00     0.161 HD
BRANCH  11  13
ATOM     13  C   UNL d   1       0.153  -6.596   1.843  0.00  0.00     0.126 C 
BRANCH  13  14
ATOM     14  C   UNL d   1      -1.028  -6.123   0.977  0.00  0.00    -0.005 C 
ATOM     15  C   UNL d   1      -0.832  -6.466  -0.502  0.00  0.00     0.011 C 
ATOM     16  C   UNL d   1      -2.327  -6.740   1.494  0.00  0.00     0.011 C 
ENDBRANCH  13  14
ENDBRANCH  11  13
ENDBRANCH   9  11
ENDBRANCH   7   9
ENDBRANCH   4   7
BRANCH   2  17
ATOM     17  C   UNL d   1       0.405   0.193  -0.302  0.00  0.00     0.417 C 
ATOM     18  F   UNL d   1       0.389   1.552  -0.222  0.00  0.00    -0.166 F 
ATOM     19  F   UNL d   1      -0.683  -0.151  -1.044  0.00  0.00    -0.166 F 
ATOM     20  F   UNL d   1       1.491  -0.122  -1.060  0.00  0.00    -0.166 F 
ENDBRANCH   2  17
BRANCH   1  21
ATOM     21  C   UNL d   1       0.082   0.329   4.771  0.00  0.00     0.417 C 
ATOM     22  F   UNL d   1      -0.082   1.668   4.594  0.00  0.00    -0.166 F 
ATOM     23  F   UNL d   1      -1.007  -0.092   5.471  0.00  0.00    -0.166 F 
ATOM     24  F   UNL d   1       1.144   0.190   5.612  0.00  0.00    -0.166 F 
ENDBRANCH   1  21
TORSDOF 7
