REMARK  4 active torsions:
REMARK  status: ('A' for Active; 'I' for Inactive)
REMARK    1  A    between atoms: C_2  and  N_1 
REMARK    2  A    between atoms: N_4  and  C_3 
REMARK    3  A    between atoms: C_9  and  N_4 
REMARK    4  A    between atoms: C_11  and  C_9 
ROOT
ATOM      1  C   UNL d   1      -0.965   1.417  -2.509  0.00  0.00     0.141 A 
ATOM      2  C   UNL d   1      -0.664   1.167  -1.169  0.00  0.00     0.114 A 
ATOM      3  N   UNL d   1       0.037   0.050  -0.846  0.00  0.00    -0.355 N 
ATOM      4  HN  UNL d   1       0.284  -0.140   0.125  1.00  0.00     0.166 HD
ATOM      5  C   UNL d   1      -0.579   0.524  -3.519  0.00  0.00     0.041 A 
ATOM      6  C   UNL d   1       0.406  -0.810  -1.825  0.00  0.00     0.089 A 
ATOM      7  C   UNL d   1       0.119  -0.621  -3.163  0.00  0.00     0.020 A 
ENDROOT
BRANCH   2   8
ATOM      8  N   UNL d   1      -1.000   2.063  -0.137  0.00  0.00    -0.273 NA
ATOM      9  H   UNL d   1      -1.995   2.291  -0.179  0.00  0.00     0.129 HD
BRANCH   8  10
ATOM     10  C   UNL d   1      -0.608   1.597   1.193  0.00  0.00     0.132 C 
BRANCH  10  11
ATOM     11  C   UNL d   1      -1.058   2.527   2.301  0.00  0.00    -0.045 A 
ATOM     12  C   UNL d   1      -1.291   1.985   3.578  0.00  0.00     0.008 A 
ATOM     13  C   UNL d   1      -1.607   2.806   4.661  0.00  0.00     0.001 A 
ATOM     14  C   UNL d   1      -1.691   4.184   4.485  0.00  0.00     0.000 A 
ATOM     15  C   UNL d   1      -1.462   4.738   3.226  0.00  0.00     0.001 A 
ATOM     16  C   UNL d   1      -1.140   3.917   2.142  0.00  0.00     0.008 A 
ENDBRANCH  10  11
ENDBRANCH   8  10
ENDBRANCH   2   8
BRANCH   1  17
ATOM     17  N   UNL d   1      -1.680   2.612  -2.889  0.00  0.00    -0.112 N 
ATOM     18  O   UNL d   1      -2.746   2.851  -2.300  0.00  0.00    -0.532 OA
ATOM     19  O   UNL d   1      -1.211   3.282  -3.820  0.00  0.00    -0.532 OA
ENDBRANCH   1  17
TORSDOF 4
