REMARK  2 active torsions:
REMARK  status: ('A' for Active; 'I' for Inactive)
REMARK    1  A    between atoms: C_7  and  C_2 
REMARK    2  A    between atoms: S_10  and  C_3 
ROOT
ATOM      1  S   UNL d   1      -0.885   1.814   0.245  0.00  0.00    -0.076 SA
ATOM      2  C   UNL d   1      -1.284   0.079  -0.184  0.00  0.00     0.194 C 
ATOM      3  C   UNL d   1       0.795   1.359   0.240  0.00  0.00     0.117 C 
ATOM      4  N   UNL d   1       1.093   0.099   0.150  0.00  0.00    -0.309 N 
ATOM      5  HN  UNL d   1       2.039  -0.278   0.093  1.00  0.00     0.182 HD
ATOM      6  N   UNL d   1      -0.052  -0.648   0.144  0.00  0.00    -0.219 NA
ATOM      7  H   UNL d   1       0.031  -1.539  -0.343  0.00  0.00     0.148 HD
ENDROOT
BRANCH   2   8
ATOM      8  C   UNL d   1      -1.732  -0.028  -1.637  0.00  0.00     0.038 A 
ATOM      9  N   UNL d   1      -3.075  -0.000  -1.859  0.00  0.00    -0.367 N 
ATOM     10  C   UNL d   1      -3.505  -0.031  -3.140  0.00  0.00     0.088 A 
ATOM     11  HN  UNL d   1      -3.735   0.042  -1.083  1.00  0.00     0.165 HD
ATOM     12  C   UNL d   1      -2.660  -0.100  -4.233  0.00  0.00     0.017 A 
ATOM     13  C   UNL d   1      -1.293  -0.139  -4.002  0.00  0.00     0.003 A 
ATOM     14  C   UNL d   1      -0.819  -0.099  -2.694  0.00  0.00     0.027 A 
ENDBRANCH   2   8
BRANCH   3  15
ATOM     15  S   UNL d   1       1.980   2.615   0.287  0.00  0.00    -0.117 SA
ATOM     16  H   UNL d   1       1.098   3.622   0.289  0.00  0.00     0.109 HD
ENDBRANCH   3  15
TORSDOF 2
