REMARK  4 active torsions:
REMARK  status: ('A' for Active; 'I' for Inactive)
REMARK    1  A    between atoms: C_9  and  N_3 
REMARK    2  A    between atoms: C_10  and  C_9 
REMARK    3  A    between atoms: O_14  and  C_10 
REMARK    4  A    between atoms: C_15  and  O_14 
ROOT
ATOM      1  N   UNL d   1       0.777   0.528  -0.722  0.00  0.00    -0.274 N 
ATOM      2  C   UNL d   1       0.133  -0.660  -0.954  0.00  0.00     0.329 A 
ATOM      3  N   UNL d   1      -0.704  -1.089   0.068  0.00  0.00    -0.299 N 
ATOM      4  C   UNL d   1      -0.264   0.819   1.435  0.00  0.00     0.128 A 
ATOM      5  C   UNL d   1       0.713   1.273   0.423  0.00  0.00     0.271 A 
ATOM      6  C   UNL d   1      -0.908  -0.333   1.211  0.00  0.00     0.124 A 
ATOM      7  C   UNL d   1      -0.476   1.581   2.611  0.00  0.00     0.106 C 
ATOM      8  N   UNL d   1      -0.700   2.156   3.593  0.00  0.00    -0.191 NA
ATOM      9  O   UNL d   1       0.330  -1.282  -1.993  0.00  0.00    -0.246 OA
ATOM     10  O   UNL d   1       1.435   2.249   0.596  0.00  0.00    -0.266 OA
ATOM     11  H   UNL d   1       1.443   0.821  -1.422  0.00  0.00     0.173 HD
ENDROOT
BRANCH   3  12
ATOM     12  C   UNL d   1      -1.378  -2.388  -0.070  0.00  0.00     0.244 C 
BRANCH  12  13
ATOM     13  C   UNL d   1      -2.848  -2.373  -0.470  0.00  0.00     0.277 C 
ATOM     14  O   UNL d   1      -3.500  -3.402  -0.614  0.00  0.00    -0.263 OA
BRANCH  13  15
ATOM     15  O   UNL d   1      -3.341  -1.115  -0.629  0.00  0.00    -0.321 OA
BRANCH  15  16
ATOM     16  C   UNL d   1      -4.685  -1.036  -1.134  0.00  0.00     0.174 C 
ATOM     17  C   UNL d   1      -4.637  -0.971  -2.649  0.00  0.00     0.034 C 
ENDBRANCH  15  16
ENDBRANCH  13  15
ENDBRANCH  12  13
ENDBRANCH   3  12
TORSDOF 4
