REMARK  8 active torsions:
REMARK  status: ('A' for Active; 'I' for Inactive)
REMARK    1  A    between atoms: C_2  and  C_1 
REMARK    2  A    between atoms: O_11  and  C_2 
REMARK    3  A    between atoms: C_3  and  C_9 
REMARK    4  A    between atoms: C_13  and  C_4 
REMARK    5  A    between atoms: C_14  and  C_13 
REMARK    6  A    between atoms: C_17  and  C_14 
REMARK    7  A    between atoms: C_15  and  C_16 
REMARK    8  A    between atoms: C_16  and  C_17 
ROOT
ATOM      1  C   UNL d   1       2.081   1.256   0.036  0.00  0.00     0.054 A 
ATOM      2  N   UNL d   1       2.007  -1.169   0.026  0.00  0.00    -0.373 N 
ATOM      3  HN  UNL d   1       2.488  -2.069   0.036  1.00  0.00     0.164 HD
ATOM      4  C   UNL d   1       0.685   1.312   0.000  0.00  0.00     0.041 A 
ATOM      5  C   UNL d   1      -0.038   0.119  -0.008  0.00  0.00     0.034 A 
ATOM      6  C   UNL d   1       2.688   0.003   0.033  0.00  0.00     0.105 A 
ATOM      7  C   UNL d   1       0.658  -1.085   0.005  0.00  0.00     0.108 A 
ENDROOT
BRANCH   5   8
ATOM      8  C   UNL d   1      -1.463   0.121  -0.022  0.00  0.00    -0.066 C 
ATOM      9  C   UNL d   1      -2.663   0.074  -0.014  0.00  0.00    -0.101 C 
BRANCH   9  10
ATOM     10  C   UNL d   1      -4.123  -0.025   0.009  0.00  0.00     0.094 C 
BRANCH  10  11
ATOM     11  C   UNL d   1      -4.561  -1.473   0.207  0.00  0.00     0.012 C 
BRANCH  11  12
ATOM     12  C   UNL d   1      -6.083  -1.569   0.229  0.00  0.00     0.001 C 
BRANCH  12  13
ATOM     13  C   UNL d   1      -6.539  -3.010   0.427  0.00  0.00    -0.000 C 
BRANCH  13  14
ATOM     14  C   UNL d   1      -8.062  -3.097   0.447  0.00  0.00    -0.005 C 
ATOM     15  C   UNL d   1      -8.517  -4.532   0.643  0.00  0.00     0.005 C 
ENDBRANCH  13  14
ENDBRANCH  12  13
ENDBRANCH  11  12
ENDBRANCH  10  11
ENDBRANCH   9  10
ENDBRANCH   5   8
BRANCH   1  16
ATOM     16  C   UNL d   1       2.960   2.443   0.020  0.00  0.00     0.177 C 
ATOM     17  O   UNL d   1       4.085   2.409  -0.447  0.00  0.00    -0.646 OA
BRANCH  16  18
ATOM     18  O   UNL d   1       2.441   3.548   0.594  0.00  0.00    -0.773 OA
ATOM     19  H   UNL d   1       1.587   3.452   1.050  0.00  0.00     0.167 HD
ENDBRANCH  16  18
ENDBRANCH   1  16
TORSDOF 8
