REMARK  5 active torsions:
REMARK  status: ('A' for Active; 'I' for Inactive)
REMARK    1  A    between atoms: N_2  and  S_1 
REMARK    2  A    between atoms: C_9  and  S_1 
REMARK    3  A    between atoms: C_3  and  N_2 
REMARK       I    between atoms: C_4  and  N_13 
REMARK       I    between atoms: N_12  and  C_4 
REMARK    4  A    between atoms: C_18  and  N_12 
REMARK    5  A    between atoms: N_13  and  C_22 
ROOT
ATOM      1  C   UNL d   1      -0.035  -1.389   0.004  0.00  0.00     0.075 A 
ATOM      2  C   UNL d   1       0.181  -2.344  -0.992  0.00  0.00     0.027 A 
ATOM      3  C   UNL d   1      -0.662  -1.752   1.195  0.00  0.00     0.027 A 
ATOM      4  C   UNL d   1      -0.715  -4.076   0.466  0.00  0.00     0.036 A 
ATOM      5  C   UNL d   1      -0.169  -3.682  -0.764  0.00  0.00     0.031 A 
ATOM      6  C   UNL d   1      -1.011  -3.087   1.411  0.00  0.00     0.031 A 
ENDROOT
BRANCH   1   7
ATOM      7  S   UNL d   1       0.713   0.219  -0.122  0.00  0.00     0.248 S 
ATOM      8  O   UNL d   1       0.906   0.703   1.230  0.00  0.00    -0.205 OA
ATOM      9  O   UNL d   1       1.844   0.112  -1.022  0.00  0.00    -0.205 OA
BRANCH   7  10
ATOM     10  N   UNL d   1      -0.479   1.183  -0.777  0.00  0.00    -0.151 NA
ATOM     11  H   UNL d   1      -0.409   2.113  -0.376  0.00  0.00     0.149 HD
BRANCH  10  12
ATOM     12  C   UNL d   1      -0.466   1.236  -2.165  0.00  0.00     0.171 A 
ATOM     13  N   UNL d   1      -1.049   0.239  -2.832  0.00  0.00    -0.336 N 
ATOM     14  C   UNL d   1      -1.062   0.374  -4.173  0.00  0.00     0.009 A 
ATOM     15  HN  UNL d   1      -1.456  -0.569  -2.361  1.00  0.00     0.168 HD
ATOM     16  C   UNL d   1      -1.791  -0.669  -4.966  0.00  0.00     0.068 C 
ATOM     17  C   UNL d   1      -0.463   1.444  -4.817  0.00  0.00     0.049 A 
ATOM     18  C   UNL d   1       0.139   2.397  -4.017  0.00  0.00     0.009 A 
ATOM     19  N   UNL d   1       0.119   2.322  -2.673  0.00  0.00    -0.336 N 
ATOM     20  C   UNL d   1       0.828   3.579  -4.630  0.00  0.00     0.068 C 
ATOM     21  HN  UNL d   1       0.525   3.048  -2.082  1.00  0.00     0.168 HD
ENDBRANCH  10  12
ENDBRANCH   7  10
ENDBRANCH   1   7
BRANCH   4  22
ATOM     22  N   UNL d   1      -0.865  -5.466   0.715  0.00  0.00    -0.309 N 
ATOM     23  C   UNL d   1      -1.181  -6.037   1.939  0.00  0.00     0.325 C 
ATOM     24  N   UNL d   1      -1.078  -7.420   1.917  0.00  0.00    -0.309 N 
ATOM     25  O   UNL d   1      -1.503  -5.401   2.937  0.00  0.00    -0.247 OA
ATOM     26  H   UNL d   1      -1.017  -7.865   1.014  0.00  0.00     0.170 HD
ATOM     27  H   UNL d   1      -0.535  -6.084  -0.010  0.00  0.00     0.170 HD
BRANCH  24  28
ATOM     28  C   UNL d   1      -1.161  -8.275   3.046  0.00  0.00     0.037 A 
ATOM     29  C   UNL d   1      -1.157  -7.816   4.369  0.00  0.00     0.053 A 
ATOM     30  C   UNL d   1      -1.187  -8.717   5.435  0.00  0.00     0.036 A 
ATOM     31 CL   UNL d   1      -1.157  -8.129   7.053  0.00  0.00    -0.084 Cl
ATOM     32  C   UNL d   1      -1.227 -10.087   5.202  0.00  0.00     0.024 A 
ATOM     33  C   UNL d   1      -1.247 -10.558   3.890  0.00  0.00     0.004 A 
ATOM     34  C   UNL d   1      -1.210  -9.657   2.818  0.00  0.00     0.029 A 
ENDBRANCH  24  28
ENDBRANCH   4  22
TORSDOF 5
