REMARK  5 active torsions:
REMARK  status: ('A' for Active; 'I' for Inactive)
REMARK    1  A    between atoms: C_2  and  S_1 
REMARK    2  A    between atoms: N_4  and  S_1 
REMARK    3  A    between atoms: C_12  and  C_18 
REMARK    4  A    between atoms: O_23  and  C_12 
REMARK    5  A    between atoms: C_24  and  O_23 
ROOT
ATOM      1  S   UNL d   1       0.926  -0.070   0.131  0.00  0.00     0.267 S 
ATOM      2  O   UNL d   1       2.312   0.208  -0.181  0.00  0.00    -0.200 OA
ATOM      3  O   UNL d   1       0.531  -1.335   0.715  0.00  0.00    -0.200 OA
ENDROOT
BRANCH   1   4
ATOM      4  C   UNL d   1       0.088  -0.061  -1.451  0.00  0.00     0.121 A 
ATOM      5  S   UNL d   1       0.129   1.379  -2.370  0.00  0.00    -0.074 SA
ATOM      6  C   UNL d   1      -0.807   0.710  -3.636  0.00  0.00     0.042 A 
ATOM      7  C   UNL d   1      -1.229   1.470  -4.783  0.00  0.00     0.117 A 
ATOM      8  C   UNL d   1      -1.082  -0.622  -3.393  0.00  0.00     0.024 A 
ATOM      9  O   UNL d   1      -1.981   0.913  -5.789  0.00  0.00    -0.237 OA
ATOM     10  C   UNL d   1      -1.029   2.799  -5.107  0.00  0.00     0.059 A 
ATOM     11  N   UNL d   1      -2.280   1.862  -6.750  0.00  0.00    -0.272 N 
ATOM     12  C   UNL d   1      -1.706   2.985  -6.324  0.00  0.00     0.117 A 
ATOM     13  HN  UNL d   1      -2.824   1.729  -7.602  1.00  0.00     0.194 HD
ATOM     14  C   UNL d   1      -0.575  -1.063  -2.135  0.00  0.00     0.034 A 
ENDBRANCH   1   4
BRANCH   1  15
ATOM     15  N   UNL d   1       0.334   1.173   1.147  0.00  0.00    -0.306 N 
ATOM     16  C   UNL d   1       0.780   2.549   0.830  0.00  0.00     0.136 C 
ATOM     17  C   UNL d   1       0.447   3.505   1.969  0.00  0.00     0.035 C 
ATOM     18  C   UNL d   1      -1.040   3.460   2.330  0.00  0.00     0.088 C 
ATOM     19  C   UNL d   1      -1.421   2.015   2.676  0.00  0.00     0.035 C 
ATOM     20  C   UNL d   1      -1.089   1.045   1.539  0.00  0.00     0.136 C 
BRANCH  18  21
ATOM     21  C   UNL d   1      -1.944   3.986   1.224  0.00  0.00     0.263 C 
ATOM     22  O   UNL d   1      -2.905   3.374   0.774  0.00  0.00    -0.265 OA
BRANCH  21  23
ATOM     23  O   UNL d   1      -1.567   5.228   0.815  0.00  0.00    -0.322 OA
BRANCH  23  24
ATOM     24  C   UNL d   1      -2.381   5.787  -0.230  0.00  0.00     0.174 C 
ATOM     25  C   UNL d   1      -1.905   5.287  -1.583  0.00  0.00     0.034 C 
ENDBRANCH  23  24
ENDBRANCH  21  23
ENDBRANCH  18  21
ENDBRANCH   1  15
TORSDOF 5
