REMARK  4 active torsions:
REMARK  status: ('A' for Active; 'I' for Inactive)
REMARK    1  A    between atoms: N_13  and  C_3 
REMARK    2  A    between atoms: C_12  and  C_4 
REMARK    3  A    between atoms: C_6  and  C_16 
REMARK    4  A    between atoms: N_7  and  N_13 
ROOT
ATOM      1  N   UNL d   1       1.173   0.551  -0.012  0.00  0.00    -0.190 N 
ATOM      2  HN  UNL d   1       2.091   0.994   0.022  1.00  0.00     0.184 HD
ATOM      3  C   UNL d   1       0.058   1.299  -0.089  0.00  0.00     0.697 A 
ATOM      4  C   UNL d   1       1.062  -0.789   0.020  0.00  0.00     0.062 A 
ATOM      5  N   UNL d   1      -1.176   0.775  -0.140  0.00  0.00    -0.200 N 
ATOM      6  HN  UNL d   1      -2.006   1.364  -0.214  1.00  0.00     0.183 HD
ATOM      7  C   UNL d   1      -0.174  -1.402  -0.011  0.00  0.00     0.048 A 
ATOM      8  C   UNL d   1      -1.263  -0.566  -0.088  0.00  0.00     0.108 A 
ENDROOT
BRANCH   3   9
ATOM      9  N   UNL d   1       0.159   2.694  -0.154  0.00  0.00    -0.132 N 
ATOM     10  H   UNL d   1      -0.699   3.133  -0.462  0.00  0.00     0.205 HD
BRANCH   9  11
ATOM     11  N   UNL d   1       1.384   3.262  -0.183  0.00  0.00    -0.297 N 
ATOM     12  C   UNL d   1       1.473   4.449  -0.690  0.00  0.00     0.120 C 
ATOM     13  HN  UNL d   1       2.205   2.776   0.179  1.00  0.00     0.186 HD
BRANCH  12  14
ATOM     14  C   UNL d   1       2.790   5.124  -0.736  0.00  0.00     0.003 A 
ATOM     15  C   UNL d   1       2.978   6.354  -1.378  0.00  0.00     0.047 A 
ATOM     16  C   UNL d   1       4.248   6.942  -1.401  0.00  0.00     0.048 A 
ATOM     17 CL   UNL d   1       1.697   7.199  -2.171  0.00  0.00    -0.083 Cl
ATOM     18  C   UNL d   1       5.324   6.305  -0.782  0.00  0.00     0.035 A 
ATOM     19  C   UNL d   1       5.148   5.085  -0.138  0.00  0.00     0.025 A 
ATOM     20 CL   UNL d   1       6.882   7.033  -0.817  0.00  0.00    -0.084 Cl
ATOM     21  C   UNL d   1       3.884   4.495  -0.116  0.00  0.00     0.016 A 
ENDBRANCH  12  14
ENDBRANCH   9  11
ENDBRANCH   3   9
BRANCH   4  22
ATOM     22  C   UNL d   1       2.337  -1.523   0.061  0.00  0.00     0.007 A 
ATOM     23  C   UNL d   1       3.492  -0.997  -0.526  0.00  0.00     0.101 A 
ATOM     24  N   UNL d   1       4.707  -1.606  -0.549  0.00  0.00    -0.374 N 
ATOM     25  C   UNL d   1       4.792  -2.803   0.062  0.00  0.00     0.087 A 
ATOM     26  HN  UNL d   1       5.513  -1.178  -1.006  1.00  0.00     0.164 HD
ATOM     27  C   UNL d   1       3.723  -3.417   0.689  0.00  0.00     0.018 A 
ATOM     28  C   UNL d   1       2.487  -2.769   0.685  0.00  0.00     0.016 A 
ENDBRANCH   4  22
TORSDOF 4
