REMARK  6 active torsions:
REMARK  status: ('A' for Active; 'I' for Inactive)
REMARK    1  A    between atoms: C_7  and  C_1 
REMARK    2  A    between atoms: C_13  and  N_6 
REMARK       I    between atoms: N_8  and  C_7 
REMARK       I    between atoms: C_9  and  N_8 
REMARK    3  A    between atoms: O_17  and  C_9 
REMARK    4  A    between atoms: C_18  and  C_13 
REMARK    5  A    between atoms: C_22  and  O_17 
REMARK    6  A    between atoms: C_19  and  C_18 
ROOT
ATOM      1  C   UNL d   1      -0.612  -1.292   0.077  0.00  0.00     0.116 C 
ATOM      2  N   UNL d   1      -0.840   1.103  -0.132  0.00  0.00    -0.274 N 
ATOM      3  C   UNL d   1      -1.455  -0.113  -0.200  0.00  0.00     0.266 C 
ATOM      4  C   UNL d   1       0.514   1.301  -0.158  0.00  0.00     0.329 C 
ATOM      5  C   UNL d   1       0.708  -1.081   0.215  0.00  0.00     0.118 C 
ATOM      6  N   UNL d   1       1.290   0.174   0.092  0.00  0.00    -0.308 N 
ATOM      7  O   UNL d   1       0.964   2.412  -0.428  0.00  0.00    -0.246 OA
ATOM      8  O   UNL d   1      -2.638  -0.231  -0.511  0.00  0.00    -0.267 OA
ATOM      9  H   UNL d   1      -1.399   1.909  -0.370  0.00  0.00     0.173 HD
ENDROOT
BRANCH   1  10
ATOM     10  C   UNL d   1      -1.133  -2.694   0.138  0.00  0.00     0.266 C 
ATOM     11  N   UNL d   1      -2.453  -2.850  -0.216  0.00  0.00    -0.269 N 
ATOM     12  C   UNL d   1      -3.042  -4.056  -0.467  0.00  0.00     0.367 C 
ATOM     13  H   UNL d   1      -2.965  -2.052  -0.580  0.00  0.00     0.174 HD
ATOM     14  O   UNL d   1      -2.664  -5.156  -0.090  0.00  0.00    -0.238 OA
ATOM     15  O   UNL d   1      -0.383  -3.602   0.489  0.00  0.00    -0.267 OA
BRANCH  12  16
ATOM     16  O   UNL d   1      -4.165  -3.849  -1.206  0.00  0.00    -0.304 OA
BRANCH  16  17
ATOM     17  C   UNL d   1      -4.807  -5.036  -1.708  0.00  0.00     0.176 C 
ATOM     18  C   UNL d   1      -4.181  -5.410  -3.040  0.00  0.00     0.034 C 
ENDBRANCH  16  17
ENDBRANCH  12  16
ENDBRANCH   1  10
BRANCH   6  19
ATOM     19  C   UNL d   1       2.759   0.281  -0.009  0.00  0.00     0.138 C 
BRANCH  19  20
ATOM     20  C   UNL d   1       3.406   1.274   0.972  0.00  0.00     0.059 C 
BRANCH  20  21
ATOM     21  C   UNL d   1       4.908   1.353   0.808  0.00  0.00    -0.054 A 
ATOM     22  C   UNL d   1       5.486   2.276  -0.070  0.00  0.00     0.024 A 
ATOM     23  C   UNL d   1       6.870   2.329  -0.169  0.00  0.00     0.088 A 
ATOM     24  N   UNL d   1       7.703   1.531   0.530  0.00  0.00    -0.375 N 
ATOM     25  C   UNL d   1       7.128   0.643   1.367  0.00  0.00     0.088 A 
ATOM     26  HN  UNL d   1       8.717   1.595   0.431  1.00  0.00     0.164 HD
ATOM     27  C   UNL d   1       5.756   0.515   1.535  0.00  0.00     0.024 A 
ENDBRANCH  20  21
ENDBRANCH  19  20
ENDBRANCH   6  19
TORSDOF 6
