REMARK  6 active torsions:
REMARK  status: ('A' for Active; 'I' for Inactive)
REMARK    1  A    between atoms: C_8  and  C_1 
REMARK       I    between atoms: N_9  and  C_1 
REMARK    2  A    between atoms: C_2  and  C_11 
REMARK    3  A    between atoms: C_15  and  N_9 
REMARK    4  A    between atoms: S_10  and  C_16 
REMARK    5  A    between atoms: C_11  and  S_10 
REMARK    6  A    between atoms: C_16  and  C_15 
ROOT
ATOM      1  C   UNL d   1       3.158   1.210   0.011  0.00  0.00     0.132 C 
ENDROOT
BRANCH   1   2
ATOM      2  N   UNL d   1       2.487  -0.076   0.104  0.00  0.00    -0.360 N 
ATOM      3  C   UNL d   1       2.271  -0.691   1.322  0.00  0.00     0.221 C 
ATOM      4  O   UNL d   1       2.769  -0.249   2.359  0.00  0.00    -0.273 OA
ATOM      5  H   UNL d   1       2.024  -0.431  -0.721  0.00  0.00     0.162 HD
BRANCH   3   6
ATOM      6  C   UNL d   1       1.349  -1.935   1.280  0.00  0.00     0.078 C 
ATOM      7  C   UNL d   1       1.903  -3.235   1.927  0.00  0.00     0.014 C 
ATOM      8  C   UNL d   1       1.111  -4.024   0.868  0.00  0.00     0.002 C 
ATOM      9  C   UNL d   1       1.192  -2.770  -0.021  0.00  0.00     0.014 C 
ENDBRANCH   3   6
ENDBRANCH   1   2
BRANCH   1  10
ATOM     10  C   UNL d   1       4.683   1.110   0.093  0.00  0.00     0.094 C 
BRANCH  10  11
ATOM     11  S   UNL d   1       5.387   2.783  -0.075  0.00  0.00    -0.161 SA
BRANCH  11  12
ATOM     12  C   UNL d   1       7.155   2.382   0.111  0.00  0.00     0.139 C 
BRANCH  12  13
ATOM     13  C   UNL d   1       7.955   3.634   0.156  0.00  0.00     0.061 A 
ATOM     14  O   UNL d   1       8.795   3.867  -0.896  0.00  0.00    -0.326 OA
ATOM     15  C   UNL d   1       9.396   5.064  -0.666  0.00  0.00     0.142 A 
ATOM     16  C   UNL d   1       8.968   5.598   0.526  0.00  0.00     0.027 A 
ATOM     17  C   UNL d   1       8.044   4.671   1.064  0.00  0.00     0.035 A 
ENDBRANCH  12  13
ENDBRANCH  11  12
ENDBRANCH  10  11
ENDBRANCH   1  10
TORSDOF 6
