REMARK  2 active torsions:
REMARK  status: ('A' for Active; 'I' for Inactive)
REMARK    1  A    between atoms: C_4  and  C_1 
REMARK    2  A    between atoms: C_11  and  C_6 
ROOT
ATOM      1  C   UNL d   1      -3.734  -0.038   0.003  0.00  0.00     0.089 C 
ATOM      2  C   UNL d   1      -4.413   1.129   0.006  0.00  0.00     0.045 C 
ATOM      3  C   UNL d   1      -2.300  -0.066  -0.025  0.00  0.00     0.103 C 
ATOM      4  N   UNL d   1      -1.143  -0.138  -0.051  0.00  0.00    -0.191 NA
ENDROOT
BRANCH   1   5
ATOM      5  C   UNL d   1      -4.501  -1.246   0.015  0.00  0.00     0.127 A 
ATOM      6  N   UNL d   1      -5.813  -1.416   0.032  0.00  0.00    -0.339 N 
ATOM      7  C   UNL d   1      -6.029  -2.772   0.008  0.00  0.00     0.060 A 
ATOM      8  HN  UNL d   1      -6.524  -0.685   0.057  1.00  0.00     0.167 HD
ATOM      9  C   UNL d   1      -7.232  -3.494   0.005  0.00  0.00     0.032 A 
ATOM     10  C   UNL d   1      -4.824  -3.460  -0.021  0.00  0.00     0.060 A 
ATOM     11  C   UNL d   1      -7.177  -4.893  -0.033  0.00  0.00     0.002 A 
ATOM     12  C   UNL d   1      -5.949  -5.558  -0.063  0.00  0.00     0.002 A 
ATOM     13  C   UNL d   1      -4.739  -4.854  -0.056  0.00  0.00     0.032 A 
ATOM     14  N   UNL d   1      -3.869  -2.474  -0.007  0.00  0.00    -0.339 N 
ATOM     15  H   UNL d   1      -2.871  -2.636  -0.022  0.00  0.00     0.167 HD
ENDBRANCH   1   5
BRANCH   2  16
ATOM     16  C   UNL d   1      -3.756   2.388  -0.047  0.00  0.00     0.006 A 
ATOM     17  S   UNL d   1      -3.290   3.188   1.401  0.00  0.00    -0.102 SA
ATOM     18  C   UNL d   1      -2.533   4.454   0.538  0.00  0.00     0.050 A 
ATOM     19  C   UNL d   1      -2.675   4.309  -0.823  0.00  0.00     0.008 A 
ATOM     20  C   UNL d   1      -3.400   3.130  -1.159  0.00  0.00     0.019 A 
ENDBRANCH   2  16
TORSDOF 2
