REMARK  5 active torsions:
REMARK  status: ('A' for Active; 'I' for Inactive)
REMARK    1  A    between atoms: C_5  and  C_1 
REMARK    2  A    between atoms: C_9  and  C_2 
REMARK    3  A    between atoms: C_8  and  O_16 
REMARK    4  A    between atoms: C_15  and  C_8 
REMARK    5  A    between atoms: O_16  and  N_10 
ROOT
ATOM      1  C   UNL d   1      -1.272  -0.903  -0.009  0.00  0.00     0.082 A 
ATOM      2  C   UNL d   1       0.088  -1.375   0.035  0.00  0.00     0.042 A 
ATOM      3  N   UNL d   1      -1.267   0.439  -0.105  0.00  0.00    -0.259 N 
ATOM      4  HN  UNL d   1      -2.087   1.041  -0.184  1.00  0.00     0.195 HD
ATOM      5  O   UNL d   1       0.038   0.849  -0.077  0.00  0.00    -0.241 OA
ATOM      6  C   UNL d   1       0.856  -0.228  -0.019  0.00  0.00     0.086 A 
ATOM      7  C   UNL d   1       2.301   0.080  -0.013  0.00  0.00     0.080 C 
ENDROOT
BRANCH   2   8
ATOM      8  C   UNL d   1       0.600  -2.723   0.091  0.00  0.00     0.131 C 
ATOM      9  N   UNL d   1       1.710  -2.985  -0.513  0.00  0.00    -0.268 N 
ATOM     10  HN  UNL d   1       2.305  -2.291  -0.966  1.00  0.00     0.194 HD
BRANCH   9  11
ATOM     11  O   UNL d   1       1.983  -4.366  -0.459  0.00  0.00    -0.195 OA
BRANCH  11  12
ATOM     12  C   UNL d   1       3.078  -4.642  -1.236  0.00  0.00     0.315 C 
ATOM     13  O   UNL d   1       3.752  -3.854  -1.886  0.00  0.00    -0.257 OA
BRANCH  12  14
ATOM     14  C   UNL d   1       3.341  -6.101  -1.241  0.00  0.00     0.041 A 
ATOM     15  C   UNL d   1       2.958  -6.941  -0.188  0.00  0.00     0.017 A 
ATOM     16  C   UNL d   1       3.253  -8.303  -0.231  0.00  0.00     0.001 A 
ATOM     17  C   UNL d   1       3.937  -8.840  -1.325  0.00  0.00     0.000 A 
ATOM     18  C   UNL d   1       4.331  -8.009  -2.377  0.00  0.00     0.001 A 
ATOM     19  C   UNL d   1       4.041  -6.646  -2.329  0.00  0.00     0.017 A 
ENDBRANCH  12  14
ENDBRANCH  11  12
ENDBRANCH   9  11
ENDBRANCH   2   8
BRANCH   1  20
ATOM     20  C   UNL d   1      -2.564  -1.629  -0.002  0.00  0.00     0.037 A 
ATOM     21  C   UNL d   1      -3.691  -1.119   0.694  0.00  0.00     0.048 A 
ATOM     22 CL   UNL d   1      -3.683   0.345   1.630  0.00  0.00    -0.083 Cl
ATOM     23  C   UNL d   1      -4.925  -1.793   0.691  0.00  0.00     0.025 A 
ATOM     24  C   UNL d   1      -5.067  -3.009   0.041  0.00  0.00     0.003 A 
ATOM     25  C   UNL d   1      -3.984  -3.533  -0.649  0.00  0.00     0.025 A 
ATOM     26  C   UNL d   1      -2.764  -2.836  -0.711  0.00  0.00     0.048 A 
ATOM     27 CL   UNL d   1      -1.617  -3.533  -1.808  0.00  0.00    -0.083 Cl
ENDBRANCH   1  20
TORSDOF 5
