REMARK  6 active torsions:
REMARK  status: ('A' for Active; 'I' for Inactive)
REMARK    1  A    between atoms: C_2  and  C_1 
REMARK    2  A    between atoms: O_11  and  C_1 
REMARK    3  A    between atoms: C_3  and  C_13 
REMARK    4  A    between atoms: C_15  and  C_4 
REMARK    5  A    between atoms: N_6  and  O_11 
REMARK    6  A    between atoms: C_16  and  C_14 
ROOT
ATOM      1  C   UNL d   1       6.663   4.506  -1.331  0.00  0.00     0.018 A 
ATOM      2  C   UNL d   1       5.059   2.308  -0.682  0.00  0.00    -0.019 A 
ATOM      3  C   UNL d   1       6.982   3.235  -1.821  0.00  0.00     0.021 A 
ATOM      4  C   UNL d   1       5.543   4.674  -0.512  0.00  0.00     0.021 A 
ATOM      5  C   UNL d   1       4.740   3.576  -0.187  0.00  0.00     0.014 A 
ATOM      6  C   UNL d   1       6.182   2.134  -1.497  0.00  0.00     0.014 A 
ENDROOT
BRANCH   2   7
ATOM      7  C   UNL d   1       4.215   1.137  -0.372  0.00  0.00     0.126 C 
ATOM      8  N   UNL d   1       3.143   1.238   0.346  0.00  0.00    -0.268 N 
ATOM      9  HN  UNL d   1       2.794   2.097   0.770  1.00  0.00     0.194 HD
BRANCH   8  10
ATOM     10  O   UNL d   1       2.532  -0.030   0.450  0.00  0.00    -0.195 OA
BRANCH  10  11
ATOM     11  C   UNL d   1       1.370   0.049   1.188  0.00  0.00     0.322 C 
ATOM     12  O   UNL d   1       0.933   1.066   1.721  0.00  0.00    -0.257 OA
BRANCH  11  13
ATOM     13  C   UNL d   1       0.705  -1.246   1.262  0.00  0.00     0.082 A 
ATOM     14  S   UNL d   1       1.313  -2.654   0.494  0.00  0.00    -0.096 SA
ATOM     15  C   UNL d   1       0.015  -3.613   1.058  0.00  0.00     0.050 A 
ATOM     16  C   UNL d   1      -0.872  -2.886   1.817  0.00  0.00     0.009 A 
ATOM     17  C   UNL d   1      -0.475  -1.523   1.933  0.00  0.00     0.026 A 
ENDBRANCH  11  13
ENDBRANCH  10  11
ENDBRANCH   8  10
ENDBRANCH   2   7
BRANCH   1  18
ATOM     18  C   UNL d   1       7.487   5.627  -1.667  0.00  0.00    -0.061 C 
ATOM     19  C   UNL d   1       8.198   6.553  -1.950  0.00  0.00    -0.061 C 
BRANCH  19  20
ATOM     20  C   UNL d   1       9.071   7.638  -2.282  0.00  0.00     0.018 A 
ATOM     21  C   UNL d   1       8.865   8.903  -1.728  0.00  0.00     0.020 A 
ATOM     22  C   UNL d   1       9.735   9.952  -2.037  0.00  0.00     0.001 A 
ATOM     23  C   UNL d   1      10.809   9.738  -2.901  0.00  0.00     0.000 A 
ATOM     24  C   UNL d   1      11.012   8.476  -3.461  0.00  0.00     0.001 A 
ATOM     25  C   UNL d   1      10.143   7.427  -3.153  0.00  0.00     0.020 A 
ENDBRANCH  19  20
ENDBRANCH   1  18
TORSDOF 6
