REMARK  5 active torsions:
REMARK  status: ('A' for Active; 'I' for Inactive)
REMARK    1  A    between atoms: C_3  and  C_1 
REMARK    2  A    between atoms: N_2  and  C_5 
REMARK    3  A    between atoms: C_4  and  C_10 
REMARK    4  A    between atoms: O_8  and  C_4 
REMARK    5  A    between atoms: C_21  and  O_8 
ROOT
ATOM      1  N   UNL d   1      -0.665  -4.712   2.502  0.00  0.00    -0.367 N 
ATOM      2  C   UNL d   1      -1.102  -6.518   4.691  0.00  0.00     0.089 C 
ATOM      3  C   UNL d   1       0.478  -5.444   3.050  0.00  0.00     0.125 C 
ATOM      4  C   UNL d   1      -1.969  -5.355   2.592  0.00  0.00     0.125 C 
ATOM      5  C   UNL d   1      -2.250  -5.707   4.059  0.00  0.00     0.034 C 
ATOM      6  C   UNL d   1       0.210  -5.752   4.518  0.00  0.00     0.034 C 
ENDROOT
BRANCH   1   7
ATOM      7  C   UNL d   1      -0.369  -3.705   1.605  0.00  0.00     0.102 A 
ATOM      8  C   UNL d   1      -1.180  -3.377   0.522  0.00  0.00     0.049 A 
ATOM      9  C   UNL d   1      -0.812  -2.339  -0.342  0.00  0.00     0.021 A 
ATOM     10  C   UNL d   1       0.360  -1.623  -0.106  0.00  0.00     0.063 A 
ATOM     11  C   UNL d   1       1.098  -1.987   1.000  0.00  0.00     0.106 A 
ATOM     12  N   UNL d   1       0.761  -2.998   1.831  0.00  0.00    -0.352 N 
ATOM     13  HN  UNL d   1       1.358  -3.227   2.626  1.00  0.00     0.166 HD
BRANCH  10  14
ATOM     14  C   UNL d   1       0.828  -0.525  -1.005  0.00  0.00     0.418 C 
ATOM     15  F   UNL d   1       1.982   0.067  -0.589  0.00  0.00    -0.166 F 
ATOM     16  F   UNL d   1      -0.082   0.480  -1.126  0.00  0.00    -0.166 F 
ATOM     17  F   UNL d   1       1.073  -0.961  -2.271  0.00  0.00    -0.166 F 
ENDBRANCH  10  14
ENDBRANCH   1   7
BRANCH   2  18
ATOM     18  C   UNL d   1      -1.114  -7.931   4.121  0.00  0.00     0.268 C 
ATOM     19  O   UNL d   1      -2.152  -8.469   3.741  0.00  0.00    -0.264 OA
BRANCH  18  20
ATOM     20  O   UNL d   1       0.144  -8.533   4.162  0.00  0.00    -0.279 OA
BRANCH  20  21
ATOM     21  C   UNL d   1       0.391  -9.913   3.917  0.00  0.00     0.079 A 
ATOM     22  C   UNL d   1      -0.596 -10.857   3.632  0.00  0.00     0.037 A 
ATOM     23  C   UNL d   1      -0.266 -12.213   3.556  0.00  0.00     0.003 A 
ATOM     24  C   UNL d   1       1.050 -12.626   3.750  0.00  0.00     0.000 A 
ATOM     25  C   UNL d   1       2.046 -11.678   3.986  0.00  0.00     0.003 A 
ATOM     26  C   UNL d   1       1.720 -10.321   4.065  0.00  0.00     0.037 A 
ENDBRANCH  20  21
ENDBRANCH  18  20
ENDBRANCH   2  18
TORSDOF 5
