REMARK  8 active torsions:
REMARK  status: ('A' for Active; 'I' for Inactive)
REMARK    1  A    between atoms: S_14  and  C_2 
REMARK    2  A    between atoms: C_19  and  C_3 
REMARK    3  A    between atoms: C_8  and  C_10 
REMARK    4  A    between atoms: C_9  and  C_11 
REMARK    5  A    between atoms: C_12  and  C_13 
REMARK       I    between atoms: C_13  and  N_18 
REMARK    6  A    between atoms: C_28  and  S_14 
REMARK    7  A    between atoms: N_18  and  C_19 
REMARK    8  A    between atoms: C_29  and  C_28 
ROOT
ATOM      1  C   UNL d   1       2.899  -2.873   0.625  0.00  0.00     0.252 C 
ATOM      2  N   UNL d   1       1.952  -2.607  -0.332  0.00  0.00    -0.350 N 
ATOM      3  O   UNL d   1       2.684  -2.826   1.831  0.00  0.00    -0.268 OA
ATOM      4  H   UNL d   1       2.221  -2.474  -1.299  0.00  0.00     0.163 HD
ENDROOT
BRANCH   2   5
ATOM      5  C   UNL d   1       0.556  -2.439   0.007  0.00  0.00     0.201 C 
BRANCH   5   6
ATOM      6  C   UNL d   1       0.165  -1.006  -0.047  0.00  0.00     0.117 A 
ATOM      7  N   UNL d   1       0.083  -0.152   1.036  0.00  0.00    -0.318 N 
ATOM      8  C   UNL d   1      -0.405   1.027   0.540  0.00  0.00     0.162 A 
ATOM      9  C   UNL d   1       0.417  -0.488   2.396  0.00  0.00     0.160 C 
ATOM     10  N   UNL d   1      -0.595   0.914  -0.754  0.00  0.00    -0.278 N 
ATOM     11  N   UNL d   1      -0.233  -0.358  -1.126  0.00  0.00    -0.285 N 
ATOM     12  HN  UNL d   1      -0.949   1.642  -1.375  1.00  0.00     0.189 HD
ATOM     13  HN  UNL d   1      -0.267  -0.737  -2.073  1.00  0.00     0.188 HD
BRANCH   8  14
ATOM     14  S   UNL d   1      -0.722   2.444   1.488  0.00  0.00    -0.088 SA
BRANCH  14  15
ATOM     15  C   UNL d   1      -1.899   3.305   0.402  0.00  0.00     0.121 C 
BRANCH  15  16
ATOM     16  C   UNL d   1      -2.348   4.644   0.946  0.00  0.00    -0.049 A 
ATOM     17  C   UNL d   1      -1.760   5.833   0.485  0.00  0.00     0.008 A 
ATOM     18  C   UNL d   1      -2.224   7.075   0.928  0.00  0.00     0.001 A 
ATOM     19  C   UNL d   1      -3.271   7.145   1.842  0.00  0.00     0.000 A 
ATOM     20  C   UNL d   1      -3.849   5.973   2.326  0.00  0.00     0.001 A 
ATOM     21  C   UNL d   1      -3.388   4.729   1.883  0.00  0.00     0.008 A 
ENDBRANCH  15  16
ENDBRANCH  14  15
ENDBRANCH   8  14
ENDBRANCH   5   6
ENDBRANCH   2   5
BRANCH   1  22
ATOM     22  C   UNL d   1       4.245  -3.280   0.144  0.00  0.00     0.033 A 
ATOM     23  C   UNL d   1       5.378  -2.840   0.840  0.00  0.00     0.033 A 
ATOM     24  C   UNL d   1       6.654  -3.327   0.511  0.00  0.00     0.049 A 
ATOM     25  C   UNL d   1       6.773  -4.279  -0.515  0.00  0.00     0.032 A 
ATOM     26  C   UNL d   1       5.641  -4.750  -1.205  0.00  0.00     0.049 A 
ATOM     27  C   UNL d   1       4.378  -4.225  -0.882  0.00  0.00     0.033 A 
BRANCH  24  28
ATOM     28  C   UNL d   1       7.865  -2.863   1.290  0.00  0.00     0.417 C 
ATOM     29  F   UNL d   1       9.018  -3.481   0.912  0.00  0.00    -0.166 F 
ATOM     30  F   UNL d   1       8.091  -1.529   1.150  0.00  0.00    -0.166 F 
ATOM     31  F   UNL d   1       7.740  -3.089   2.626  0.00  0.00    -0.166 F 
ENDBRANCH  24  28
BRANCH  26  32
ATOM     32  C   UNL d   1       5.758  -5.855  -2.231  0.00  0.00     0.417 C 
ATOM     33  F   UNL d   1       7.024  -6.333  -2.374  0.00  0.00    -0.166 F 
ATOM     34  F   UNL d   1       4.985  -6.930  -1.913  0.00  0.00    -0.166 F 
ATOM     35  F   UNL d   1       5.359  -5.459  -3.469  0.00  0.00    -0.166 F 
ENDBRANCH  26  32
ENDBRANCH   1  22
TORSDOF 8
