REMARK  4 active torsions:
REMARK  status: ('A' for Active; 'I' for Inactive)
REMARK    1  A    between atoms: N_2  and  S_1 
REMARK    2  A    between atoms: C_3  and  N_4 
REMARK    3  A    between atoms: C_19  and  C_15 
REMARK    4  A    between atoms: C_20  and  C_19 
ROOT
ATOM      1  C   UNL d   1       2.609  -3.786   3.005  0.00  0.00     0.679 A 
ATOM      2  N   UNL d   1       2.175  -5.026   2.728  0.00  0.00    -0.201 N 
ATOM      3  HN  UNL d   1       1.429  -5.182   2.050  1.00  0.00     0.183 HD
ATOM      4  N   UNL d   1       3.590  -3.553   3.891  0.00  0.00    -0.201 N 
ATOM      5  HN  UNL d   1       3.905  -2.603   4.088  1.00  0.00     0.183 HD
ATOM      6  C   UNL d   1       3.759  -5.914   4.301  0.00  0.00    -0.026 A 
ATOM      7  C   UNL d   1       2.753  -6.057   3.375  0.00  0.00     0.114 A 
ATOM      8  C   UNL d   1       4.144  -4.611   4.512  0.00  0.00     0.114 A 
ENDROOT
BRANCH   1   9
ATOM      9  N   UNL d   1       1.971  -2.715   2.432  0.00  0.00    -0.215 N 
ATOM     10  C   UNL d   1       1.089  -2.919   1.284  0.00  0.00     0.157 C 
ATOM     11  C   UNL d   1      -0.075  -1.917   1.390  0.00  0.00     0.127 C 
ATOM     12  N   UNL d   1       0.415  -0.496   1.460  0.00  0.00    -0.208 NA
ATOM     13  C   UNL d   1       1.393  -0.331   2.591  0.00  0.00     0.127 C 
ATOM     14  C   UNL d   1       2.533  -1.374   2.574  0.00  0.00     0.157 C 
BRANCH  12  15
ATOM     15  S   UNL d   1       0.841   0.191  -0.030  0.00  0.00     0.207 S 
ATOM     16  O   UNL d   1      -0.139  -0.219  -1.010  0.00  0.00    -0.212 OA
ATOM     17  O   UNL d   1       2.255  -0.033  -0.249  0.00  0.00    -0.212 OA
ATOM     18  C   UNL d   1       0.586   1.922   0.290  0.00  0.00     0.180 C 
ENDBRANCH  12  15
ENDBRANCH   1   9
BRANCH   6  19
ATOM     19  C   UNL d   1       4.412  -7.078   4.977  0.00  0.00     0.041 C 
BRANCH  19  20
ATOM     20  C   UNL d   1       4.308  -7.027   6.504  0.00  0.00     0.000 C 
ATOM     21  C   UNL d   1       5.028  -8.205   7.142  0.00  0.00     0.005 C 
ENDBRANCH  19  20
ENDBRANCH   6  19
TORSDOF 4
