REMARK  6 active torsions:
REMARK  status: ('A' for Active; 'I' for Inactive)
REMARK    1  A    between atoms: C_14  and  C_1 
REMARK    2  A    between atoms: C_6  and  C_18 
REMARK       I    between atoms: N_7  and  C_6 
REMARK    3  A    between atoms: C_13  and  N_7 
REMARK    4  A    between atoms: C_15  and  C_8 
REMARK    5  A    between atoms: S_12  and  C_14 
REMARK    6  A    between atoms: C_18  and  S_12 
ROOT
ATOM      1  C   UNL d   1      -1.964  -6.128   0.316  0.00  0.00     0.231 C 
ATOM      2  N   UNL d   1      -3.081  -5.446  -0.144  0.00  0.00    -0.327 N 
ATOM      3  O   UNL d   1      -1.966  -7.250   0.819  0.00  0.00    -0.272 OA
ATOM      4  H   UNL d   1      -2.910  -4.497  -0.462  0.00  0.00     0.169 HD
ENDROOT
BRANCH   1   5
ATOM      5  C   UNL d   1      -0.645  -5.415   0.074  0.00  0.00     0.177 C 
BRANCH   5   6
ATOM      6  S   UNL d   1      -0.637  -3.676   0.635  0.00  0.00    -0.155 SA
BRANCH   6   7
ATOM      7  C   UNL d   1       1.143  -3.366   0.412  0.00  0.00     0.114 C 
BRANCH   7   8
ATOM      8  C   UNL d   1       1.634  -2.124   1.095  0.00  0.00    -0.031 A 
ATOM      9  C   UNL d   1       1.963  -2.073   2.436  0.00  0.00     0.059 A 
ATOM     10  S   UNL d   1       2.666  -0.595   2.901  0.00  0.00    -0.101 SA
ATOM     11  C   UNL d   1       2.542   0.047   1.309  0.00  0.00     0.015 A 
ATOM     12  C   UNL d   1       1.927  -0.860   0.438  0.00  0.00    -0.011 A 
ATOM     13  C   UNL d   1       2.987   1.311   0.878  0.00  0.00     0.019 A 
ATOM     14  C   UNL d   1       1.730  -0.440  -0.903  0.00  0.00     0.013 A 
ATOM     15  C   UNL d   1       2.157   0.821  -1.333  0.00  0.00     0.001 A 
ATOM     16  C   UNL d   1       2.790   1.684  -0.453  0.00  0.00     0.001 A 
ENDBRANCH   7   8
ENDBRANCH   6   7
ENDBRANCH   5   6
ENDBRANCH   1   5
BRANCH   2  17
ATOM     17  C   UNL d   1      -4.435  -5.792   0.074  0.00  0.00     0.034 C 
ATOM     18  C   UNL d   1      -4.853  -6.994   0.643  0.00  0.00     0.030 C 
ATOM     19  C   UNL d   1      -6.173  -7.153   1.081  0.00  0.00     0.010 C 
ATOM     20  C   UNL d   1      -7.090  -6.098   0.975  0.00  0.00    -0.055 C 
ATOM     21  C   UNL d   1      -6.714  -4.972   0.233  0.00  0.00     0.010 C 
ATOM     22  C   UNL d   1      -5.397  -4.819  -0.213  0.00  0.00     0.030 C 
BRANCH  20  23
ATOM     23  C   UNL d   1      -8.386  -6.074   1.766  0.00  0.00     0.010 C 
ATOM     24  C   UNL d   1      -9.516  -6.882   1.136  0.00  0.00     0.015 C 
ATOM     25  C   UNL d   1      -8.151  -6.509   3.221  0.00  0.00     0.015 C 
ENDBRANCH  20  23
ENDBRANCH   2  17
TORSDOF 6
