REMARK  9 active torsions:
REMARK  status: ('A' for Active; 'I' for Inactive)
REMARK    1  A    between atoms: O_9  and  C_1 
REMARK       I    between atoms: C_2  and  N_4 
REMARK       I    between atoms: N_5  and  C_2 
REMARK    2  A    between atoms: C_3  and  C_20 
REMARK       I    between atoms: N_7  and  C_3 
REMARK    3  A    between atoms: N_4  and  N_7 
REMARK    4  A    between atoms: C_19  and  N_5 
REMARK       I    between atoms: C_6  and  N_8 
REMARK    5  A    between atoms: C_25  and  C_6 
REMARK    6  A    between atoms: N_8  and  C_17 
REMARK    7  A    between atoms: C_18  and  O_9 
REMARK    8  A    between atoms: S_16  and  C_25 
REMARK    9  A    between atoms: C_20  and  S_16 
ROOT
ATOM      1  S   UNL d   1       4.714   8.131   2.831  0.00  0.00    -0.150 SA
ENDROOT
BRANCH   1   2
ATOM      2  C   UNL d   1       2.915   8.374   2.619  0.00  0.00     0.177 C 
BRANCH   2   3
ATOM      3  C   UNL d   1       2.210   7.024   2.563  0.00  0.00     0.231 C 
ATOM      4  N   UNL d   1       2.378   6.268   3.715  0.00  0.00    -0.327 N 
ATOM      5  H   UNL d   1       2.926   6.691   4.455  0.00  0.00     0.169 HD
ATOM      6  O   UNL d   1       1.540   6.716   1.581  0.00  0.00    -0.272 OA
BRANCH   4   7
ATOM      7  C   UNL d   1       1.965   4.937   3.927  0.00  0.00     0.034 A 
ATOM      8  C   UNL d   1       1.334   4.161   2.958  0.00  0.00     0.032 A 
ATOM      9  C   UNL d   1       0.972   2.831   3.220  0.00  0.00     0.039 A 
ATOM     10  C   UNL d   1       1.188   2.279   4.475  0.00  0.00     0.078 A 
ATOM     11  C   UNL d   1       1.856   3.037   5.439  0.00  0.00     0.039 A 
ATOM     12  C   UNL d   1       2.242   4.357   5.171  0.00  0.00     0.032 A 
BRANCH  10  13
ATOM     13  O   UNL d   1       0.841   1.024   4.868  0.00  0.00    -0.255 OA
BRANCH  13  14
ATOM     14  C   UNL d   1      -0.261   0.376   4.245  0.00  0.00     0.530 C 
ATOM     15  F   UNL d   1      -1.055   1.197   3.527  0.00  0.00    -0.144 F 
ATOM     16  F   UNL d   1      -1.025  -0.183   5.212  0.00  0.00    -0.144 F 
ATOM     17  F   UNL d   1       0.190  -0.612   3.443  0.00  0.00    -0.144 F 
ENDBRANCH  13  14
ENDBRANCH  10  13
ENDBRANCH   4   7
ENDBRANCH   2   3
ENDBRANCH   1   2
BRANCH   1  18
ATOM     18  C   UNL d   1       5.253   9.869   2.754  0.00  0.00     0.178 C 
BRANCH  18  19
ATOM     19  C   UNL d   1       6.759  10.064   2.905  0.00  0.00     0.245 C 
ATOM     20  N   UNL d   1       7.540   8.938   2.980  0.00  0.00    -0.265 N 
ATOM     21  H   UNL d   1       7.159   7.993   2.883  0.00  0.00     0.190 HD
ATOM     22  O   UNL d   1       7.250  11.200   2.960  0.00  0.00    -0.271 OA
BRANCH  20  23
ATOM     23  N   UNL d   1       8.940   9.065   3.024  0.00  0.00    -0.249 N 
ATOM     24  C   UNL d   1       9.679   7.914   3.269  0.00  0.00     0.339 C 
ATOM     25  N   UNL d   1      11.032   8.184   3.341  0.00  0.00    -0.308 N 
ATOM     26  O   UNL d   1       9.136   6.818   3.365  0.00  0.00    -0.245 OA
ATOM     27  H   UNL d   1      11.303   9.136   3.144  0.00  0.00     0.170 HD
ATOM     28  H   UNL d   1       9.268   9.961   3.376  0.00  0.00     0.192 HD
BRANCH  25  29
ATOM     29  C   UNL d   1      12.081   7.277   3.612  0.00  0.00     0.036 A 
ATOM     30  C   UNL d   1      11.890   5.915   3.854  0.00  0.00     0.029 A 
ATOM     31  C   UNL d   1      12.973   5.086   4.168  0.00  0.00     0.002 A 
ATOM     32  C   UNL d   1      14.261   5.609   4.237  0.00  0.00     0.000 A 
ATOM     33  C   UNL d   1      14.470   6.960   3.972  0.00  0.00     0.002 A 
ATOM     34  C   UNL d   1      13.386   7.788   3.656  0.00  0.00     0.029 A 
ENDBRANCH  25  29
ENDBRANCH  20  23
ENDBRANCH  18  19
ENDBRANCH   1  18
TORSDOF 9
