REMARK  12 active torsions:
REMARK  status: ('A' for Active; 'I' for Inactive)
REMARK    1  A    between atoms: C_3  and  N_11 
REMARK    2  A    between atoms: N_17  and  C_3 
REMARK    3  A    between atoms: C_4  and  C_7 
REMARK       I    between atoms: N_10  and  C_4 
REMARK    4  A    between atoms: C_5  and  C_24 
REMARK    5  A    between atoms: C_6  and  C_25 
REMARK    6  A    between atoms: O_23  and  C_8 
REMARK    7  A    between atoms: O_22  and  C_9 
REMARK    8  A    between atoms: N_11  and  N_10 
REMARK    9  A    between atoms: C_12  and  C_32 
REMARK   10  A    between atoms: C_32  and  N_17 
REMARK   11  A    between atoms: C_25  and  O_22 
REMARK   12  A    between atoms: C_24  and  O_23 
ROOT
ATOM      1  N   UNL d   1      -1.331  -0.000   0.072  0.00  0.00    -0.318 N 
ATOM      2  HN  UNL d   1      -2.349   0.013   0.132  1.00  0.00     0.170 HD
ATOM      3  C   UNL d   1       1.437  -0.038  -0.067  0.00  0.00     0.041 A 
ATOM      4  C   UNL d   1      -0.625   1.146   0.082  0.00  0.00     0.145 A 
ATOM      5  C   UNL d   1      -0.658  -1.166  -0.020  0.00  0.00     0.145 A 
ATOM      6  C   UNL d   1       0.755   1.178   0.044  0.00  0.00     0.073 A 
ATOM      7  C   UNL d   1       0.717  -1.226  -0.118  0.00  0.00     0.073 A 
ENDROOT
BRANCH   3   8
ATOM      8  C   UNL d   1       2.915  -0.009  -0.231  0.00  0.00     0.270 C 
ATOM      9  N   UNL d   1       3.594  -1.171   0.108  0.00  0.00    -0.264 N 
ATOM     10  H   UNL d   1       3.171  -1.979   0.550  0.00  0.00     0.190 HD
ATOM     11  O   UNL d   1       3.440   1.006  -0.667  0.00  0.00    -0.266 OA
BRANCH   9  12
ATOM     12  N   UNL d   1       4.961  -1.249  -0.155  0.00  0.00    -0.274 N 
ATOM     13  H   UNL d   1       5.263  -1.956  -0.817  0.00  0.00     0.189 HD
BRANCH  12  14
ATOM     14  C   UNL d   1       5.911  -0.649   0.635  0.00  0.00     0.186 C 
ATOM     15  S   UNL d   1       5.673  -0.022   2.166  0.00  0.00    -0.040 SA
BRANCH  14  16
ATOM     16  N   UNL d   1       7.154  -0.557   0.072  0.00  0.00    -0.360 N 
ATOM     17  H   UNL d   1       7.842  -0.098   0.657  0.00  0.00     0.162 HD
BRANCH  16  18
ATOM     18  C   UNL d   1       7.460  -0.630  -1.349  0.00  0.00     0.187 C 
BRANCH  18  19
ATOM     19  C   UNL d   1       7.672  -2.031  -1.788  0.00  0.00     0.070 A 
ATOM     20  O   UNL d   1       8.314  -2.877  -0.926  0.00  0.00    -0.325 OA
ATOM     21  C   UNL d   1       8.406  -4.082  -1.539  0.00  0.00     0.142 A 
ATOM     22  C   UNL d   1       7.841  -4.033  -2.791  0.00  0.00     0.027 A 
ATOM     23  C   UNL d   1       7.364  -2.708  -2.953  0.00  0.00     0.036 A 
ENDBRANCH  18  19
ENDBRANCH  16  18
ENDBRANCH  14  16
ENDBRANCH  12  14
ENDBRANCH   9  12
ENDBRANCH   3   8
BRANCH   5  24
ATOM     24  O   UNL d   1      -1.475  -2.259  -0.083  0.00  0.00    -0.327 OA
BRANCH  24  25
ATOM     25  C   UNL d   1      -0.988  -3.454   0.538  0.00  0.00     0.294 C 
BRANCH  25  26
ATOM     26  C   UNL d   1      -0.267  -4.392  -0.425  0.00  0.00     0.408 C 
ATOM     27  F   UNL d   1      -0.302  -3.955  -1.702  0.00  0.00    -0.169 F 
ATOM     28  F   UNL d   1       1.043  -4.492  -0.082  0.00  0.00    -0.169 F 
ATOM     29  F   UNL d   1      -0.786  -5.637  -0.398  0.00  0.00    -0.169 F 
ENDBRANCH  25  26
ENDBRANCH  24  25
ENDBRANCH   5  24
BRANCH   4  30
ATOM     30  O   UNL d   1      -1.407   2.267   0.155  0.00  0.00    -0.327 OA
BRANCH  30  31
ATOM     31  C   UNL d   1      -0.943   3.386  -0.608  0.00  0.00     0.294 C 
BRANCH  31  32
ATOM     32  C   UNL d   1      -2.100   4.235  -1.127  0.00  0.00     0.408 C 
ATOM     33  F   UNL d   1      -3.313   3.699  -0.882  0.00  0.00    -0.169 F 
ATOM     34  F   UNL d   1      -2.080   5.472  -0.573  0.00  0.00    -0.169 F 
ATOM     35  F   UNL d   1      -1.999   4.406  -2.471  0.00  0.00    -0.169 F 
ENDBRANCH  31  32
ENDBRANCH  30  31
ENDBRANCH   4  30
TORSDOF 12
