REMARK  3 active torsions:
REMARK  status: ('A' for Active; 'I' for Inactive)
REMARK    1  A    between atoms: N_7  and  C_1 
REMARK    2  A    between atoms: C_11  and  C_6 
REMARK       I    between atoms: C_8  and  N_7 
REMARK       I    between atoms: N_9  and  C_8 
REMARK    3  A    between atoms: C_10  and  N_9 
ROOT
ATOM      1  N   UNL d   1      -0.448  -2.301  -0.057  0.00  0.00    -0.293 N 
ATOM      2  C   UNL d   1      -1.780  -2.770   0.051  0.00  0.00     0.326 C 
ATOM      3  N   UNL d   1      -2.756  -1.893   0.422  0.00  0.00    -0.308 N 
ATOM      4  O   UNL d   1      -1.898  -3.946  -0.262  0.00  0.00    -0.247 OA
ATOM      5  H   UNL d   1       0.138  -3.055  -0.401  0.00  0.00     0.172 HD
ATOM      6  H   UNL d   1      -2.546  -0.925   0.275  0.00  0.00     0.170 HD
ENDROOT
BRANCH   1   7
ATOM      7  C   UNL d   1       0.188  -1.135   0.325  0.00  0.00     0.127 A 
ATOM      8  C   UNL d   1      -0.302   0.098   0.693  0.00  0.00     0.077 A 
ATOM      9  C   UNL d   1       0.832   0.863   1.086  0.00  0.00     0.037 A 
ATOM     10  N   UNL d   1       1.962   0.177   0.881  0.00  0.00    -0.301 N 
ATOM     11  N   UNL d   1       1.557  -1.015   0.432  0.00  0.00    -0.281 N 
ATOM     12  HN  UNL d   1       2.919   0.493   1.035  1.00  0.00     0.187 HD
ATOM     13  C   UNL d   1       2.550  -2.043   0.220  0.00  0.00     0.179 C 
BRANCH   9  14
ATOM     14  C   UNL d   1       0.902   2.234   1.738  0.00  0.00    -0.007 C 
ATOM     15  C   UNL d   1      -0.482   2.906   1.828  0.00  0.00     0.021 C 
ATOM     16  C   UNL d   1       1.446   2.071   3.174  0.00  0.00     0.021 C 
ATOM     17  C   UNL d   1       1.837   3.169   0.946  0.00  0.00     0.021 C 
ENDBRANCH   9  14
ENDBRANCH   1   7
BRANCH   3  18
ATOM     18  C   UNL d   1      -4.124  -2.261   0.335  0.00  0.00     0.047 A 
ATOM     19  C   UNL d   1      -5.051  -1.399  -0.320  0.00  0.00     0.001 A 
ATOM     20  C   UNL d   1      -6.340  -1.921  -0.614  0.00  0.00    -0.024 A 
ATOM     21  C   UNL d   1      -4.761  -0.087  -0.769  0.00  0.00     0.014 A 
ATOM     22  C   UNL d   1      -7.237  -1.172  -1.393  0.00  0.00     0.012 A 
ATOM     23  C   UNL d   1      -6.709  -3.193  -0.160  0.00  0.00     0.012 A 
ATOM     24  C   UNL d   1      -6.899   0.095  -1.863  0.00  0.00     0.001 A 
ATOM     25  C   UNL d   1      -5.671   0.646  -1.531  0.00  0.00     0.001 A 
ATOM     26  C   UNL d   1      -5.821  -3.978   0.569  0.00  0.00     0.003 A 
ATOM     27  C   UNL d   1      -4.530  -3.520   0.804  0.00  0.00     0.030 A 
ENDBRANCH   3  18
TORSDOF 3
