REMARK  4 active torsions:
REMARK  status: ('A' for Active; 'I' for Inactive)
REMARK    1  A    between atoms: C_2  and  C_1 
REMARK       I    between atoms: N_6  and  C_2 
REMARK    2  A    between atoms: C_5  and  C_8 
REMARK    3  A    between atoms: C_9  and  N_6 
REMARK    4  A    between atoms: C_14  and  C_11 
ROOT
ATOM      1  C   UNL d   1      -5.128   1.056   0.169  0.00  0.00     0.258 C 
ATOM      2  N   UNL d   1      -3.796   1.381  -0.024  0.00  0.00    -0.322 N 
ATOM      3  O   UNL d   1      -6.077   1.813   0.006  0.00  0.00    -0.267 OA
ATOM      4  H   UNL d   1      -3.160   0.610  -0.235  0.00  0.00     0.169 HD
ENDROOT
BRANCH   1   5
ATOM      5  C   UNL d   1      -5.398  -0.376   0.472  0.00  0.00     0.054 A 
ATOM      6  C   UNL d   1      -4.734  -1.083   1.471  0.00  0.00     0.021 A 
ATOM      7  N   UNL d   1      -4.979  -2.402   1.708  0.00  0.00    -0.355 N 
ATOM      8  C   UNL d   1      -3.719  -0.461   2.383  0.00  0.00     0.069 C 
ATOM      9  C   UNL d   1      -5.935  -3.046   0.979  0.00  0.00     0.117 A 
ATOM     10  HN  UNL d   1      -4.452  -2.902   2.423  1.00  0.00     0.166 HD
ATOM     11  C   UNL d   1      -6.674  -2.378   0.004  0.00  0.00     0.035 A 
ATOM     12  C   UNL d   1      -6.401  -1.033  -0.252  0.00  0.00     0.021 A 
BRANCH   9  13
ATOM     13  C   UNL d   1      -6.184  -4.531   1.225  0.00  0.00     0.432 C 
ATOM     14  F   UNL d   1      -5.366  -5.089   2.164  0.00  0.00    -0.165 F 
ATOM     15  F   UNL d   1      -7.458  -4.793   1.640  0.00  0.00    -0.165 F 
ATOM     16  F   UNL d   1      -6.008  -5.278   0.095  0.00  0.00    -0.165 F 
ENDBRANCH   9  13
ENDBRANCH   1   5
BRANCH   2  17
ATOM     17  C   UNL d   1      -3.309   2.675  -0.322  0.00  0.00     0.046 A 
ATOM     18  C   UNL d   1      -2.236   2.857  -1.237  0.00  0.00     0.001 A 
ATOM     19  C   UNL d   1      -1.714   4.163  -1.368  0.00  0.00     0.014 A 
ATOM     20  C   UNL d   1      -2.190   5.231  -0.605  0.00  0.00     0.001 A 
ATOM     21  C   UNL d   1      -3.247   5.036   0.275  0.00  0.00     0.002 A 
ATOM     22  C   UNL d   1      -3.820   3.768   0.399  0.00  0.00     0.030 A 
BRANCH  18  23
ATOM     23  C   UNL d   1      -1.673   1.752  -2.067  0.00  0.00    -0.024 A 
ATOM     24  C   UNL d   1      -2.480   0.727  -2.600  0.00  0.00     0.012 A 
ATOM     25  C   UNL d   1      -1.929  -0.382  -3.246  0.00  0.00     0.001 A 
ATOM     26  C   UNL d   1      -0.557  -0.452  -3.456  0.00  0.00     0.000 A 
ATOM     27  C   UNL d   1       0.256   0.595  -3.036  0.00  0.00     0.001 A 
ATOM     28  C   UNL d   1      -0.295   1.677  -2.341  0.00  0.00     0.012 A 
ENDBRANCH  18  23
ENDBRANCH   2  17
TORSDOF 4
