REMARK  9 active torsions:
REMARK  status: ('A' for Active; 'I' for Inactive)
REMARK    1  A    between atoms: S_2  and  C_1 
REMARK    2  A    between atoms: C_12  and  S_2 
REMARK    3  A    between atoms: S_3  and  C_4 
REMARK    4  A    between atoms: N_13  and  S_3 
REMARK    5  A    between atoms: C_19  and  N_13 
REMARK    6  A    between atoms: C_14  and  C_21 
REMARK    7  A    between atoms: C_22  and  C_19 
REMARK    8  A    between atoms: S_20  and  C_22 
REMARK    9  A    between atoms: C_21  and  S_20 
ROOT
ATOM      1  C   UNL d   1       1.163  -0.810  -0.572  0.00  0.00     0.072 A 
ATOM      2  C   UNL d   1       0.212   1.257  -0.055  0.00  0.00     0.116 A 
ATOM      3  C   UNL d   1       0.973   0.547  -0.966  0.00  0.00     0.056 A 
ATOM      4  S   UNL d   1      -0.284   0.273   1.250  0.00  0.00    -0.087 SA
ATOM      5  C   UNL d   1       0.527  -1.095   0.618  0.00  0.00     0.074 A 
ENDROOT
BRANCH   2   6
ATOM      6  S   UNL d   1      -0.301   2.962  -0.053  0.00  0.00     0.248 S 
ATOM      7  O   UNL d   1      -0.881   3.158  -1.363  0.00  0.00    -0.205 OA
ATOM      8  O   UNL d   1      -1.038   3.214   1.163  0.00  0.00    -0.205 OA
BRANCH   6   9
ATOM      9  N   UNL d   1       1.112   3.883  -0.023  0.00  0.00    -0.214 NA
ATOM     10  H   UNL d   1       0.945   4.761  -0.529  0.00  0.00     0.140 HD
BRANCH   9  11
ATOM     11  C   UNL d   1       1.722   4.134   1.306  0.00  0.00     0.114 C 
BRANCH  11  12
ATOM     12  C   UNL d   1       2.942   5.053   1.149  0.00  0.00     0.089 C 
BRANCH  12  13
ATOM     13  S   UNL d   1       2.423   6.615   0.356  0.00  0.00    -0.161 SA
BRANCH  13  14
ATOM     14  C   UNL d   1       4.038   7.454   0.231  0.00  0.00     0.139 C 
BRANCH  14  15
ATOM     15  C   UNL d   1       3.860   8.734  -0.502  0.00  0.00     0.061 A 
ATOM     16  O   UNL d   1       4.102   9.882   0.194  0.00  0.00    -0.326 OA
ATOM     17  C   UNL d   1       3.811  10.917  -0.636  0.00  0.00     0.142 A 
ATOM     18  C   UNL d   1       3.400  10.452  -1.863  0.00  0.00     0.027 A 
ATOM     19  C   UNL d   1       3.450   9.041  -1.785  0.00  0.00     0.035 A 
ENDBRANCH  14  15
ENDBRANCH  13  14
ENDBRANCH  12  13
ENDBRANCH  11  12
ENDBRANCH   9  11
ENDBRANCH   6   9
ENDBRANCH   2   6
BRANCH   1  20
ATOM     20  S   UNL d   1       2.108  -1.954  -1.468  0.00  0.00     0.207 S 
ATOM     21  O   UNL d   1       3.106  -1.149  -2.144  0.00  0.00    -0.217 OA
ATOM     22  O   UNL d   1       2.467  -2.975  -0.500  0.00  0.00    -0.217 OA
BRANCH  20  23
ATOM     23  C   UNL d   1       1.014  -2.654  -2.669  0.00  0.00     0.064 A 
ATOM     24  C   UNL d   1       0.910  -2.066  -3.935  0.00  0.00     0.024 A 
ATOM     25  C   UNL d   1       0.101  -2.662  -4.904  0.00  0.00     0.002 A 
ATOM     26  C   UNL d   1      -0.588  -3.840  -4.612  0.00  0.00     0.000 A 
ATOM     27  C   UNL d   1      -0.473  -4.428  -3.352  0.00  0.00     0.002 A 
ATOM     28  C   UNL d   1       0.334  -3.840  -2.377  0.00  0.00     0.024 A 
ENDBRANCH  20  23
ENDBRANCH   1  20
TORSDOF 9
