REMARK  5 active torsions:
REMARK  status: ('A' for Active; 'I' for Inactive)
REMARK    1  A    between atoms: N_9  and  C_1 
REMARK    2  A    between atoms: N_13  and  N_7 
REMARK    3  A    between atoms: C_11  and  N_9 
REMARK    4  A    between atoms: C_10  and  C_12 
REMARK    5  A    between atoms: C_21  and  N_13 
ROOT
ATOM      1  C   UNL d   1      -1.255   0.227  -0.151  0.00  0.00     0.154 A 
ATOM      2  C   UNL d   1      -0.243   1.268   0.258  0.00  0.00     0.159 A 
ATOM      3  C   UNL d   1       1.070   0.786  -0.293  0.00  0.00     0.293 A 
ATOM      4  N   UNL d   1      -0.667  -0.642  -0.931  0.00  0.00    -0.279 N 
ATOM      5  HN  UNL d   1      -1.124  -1.428  -1.394  1.00  0.00     0.189 HD
ATOM      6  N   UNL d   1       0.678  -0.320  -1.024  0.00  0.00    -0.258 N 
ATOM      7  N   UNL d   1      -0.397   2.432   0.816  0.00  0.00    -0.309 N 
ATOM      8  HN  UNL d   1       0.410   3.022   1.019  1.00  0.00     0.181 HD
ATOM      9  O   UNL d   1       2.153   1.292  -0.133  0.00  0.00    -0.264 OA
ATOM     10  C   UNL d   1       1.571  -1.119  -1.819  0.00  0.00     0.181 C 
ENDROOT
BRANCH   1  11
ATOM     11  N   UNL d   1      -2.574   0.229   0.259  0.00  0.00    -0.338 N 
ATOM     12  H   UNL d   1      -2.677   0.100   1.268  0.00  0.00     0.167 HD
BRANCH  11  13
ATOM     13  C   UNL d   1      -3.562  -0.511  -0.450  0.00  0.00     0.055 A 
ATOM     14  C   UNL d   1      -4.535  -1.283   0.212  0.00  0.00     0.060 A 
ATOM     15 CL   UNL d   1      -4.545  -1.390   1.937  0.00  0.00    -0.082 Cl
ATOM     16  C   UNL d   1      -5.502  -1.996  -0.507  0.00  0.00     0.026 A 
ATOM     17  C   UNL d   1      -5.522  -1.935  -1.900  0.00  0.00     0.002 A 
ATOM     18  C   UNL d   1      -4.581  -1.161  -2.572  0.00  0.00     0.002 A 
ATOM     19  C   UNL d   1      -3.613  -0.455  -1.853  0.00  0.00     0.031 A 
ENDBRANCH  11  13
ENDBRANCH   1  11
BRANCH   7  20
ATOM     20  N   UNL d   1      -1.659   2.850   1.124  0.00  0.00    -0.205 NA
ATOM     21  H   UNL d   1      -2.445   2.288   0.790  0.00  0.00     0.153 HD
BRANCH  20  22
ATOM     22  C   UNL d   1      -1.939   4.228   0.924  0.00  0.00     0.027 A 
ATOM     23  C   UNL d   1      -3.279   4.630   0.862  0.00  0.00     0.026 A 
ATOM     24  C   UNL d   1      -3.620   5.961   0.605  0.00  0.00     0.018 A 
ATOM     25  C   UNL d   1      -2.626   6.933   0.438  0.00  0.00     0.048 A 
ATOM     26  C   UNL d   1      -1.285   6.553   0.593  0.00  0.00     0.018 A 
ATOM     27  C   UNL d   1      -0.949   5.214   0.847  0.00  0.00     0.026 A 
BRANCH  25  28
ATOM     28  C   UNL d   1      -3.022   8.342   0.070  0.00  0.00     0.417 C 
ATOM     29  F   UNL d   1      -1.975   9.205  -0.034  0.00  0.00    -0.166 F 
ATOM     30  F   UNL d   1      -3.668   8.395  -1.130  0.00  0.00    -0.166 F 
ATOM     31  F   UNL d   1      -3.878   8.897   0.973  0.00  0.00    -0.166 F 
ENDBRANCH  25  28
ENDBRANCH  20  22
ENDBRANCH   7  20
TORSDOF 5
