REMARK  3 active torsions:
REMARK  status: ('A' for Active; 'I' for Inactive)
REMARK       I    between atoms: N_2  and  C_1 
REMARK       I    between atoms: N_6  and  C_1 
REMARK    1  A    between atoms: C_5  and  N_2 
REMARK    2  A    between atoms: C_15  and  N_6 
REMARK    3  A    between atoms: C_8  and  C_9 
ROOT
ATOM      1  C   UNL d   1       1.082  -2.050   0.680  0.00  0.00     0.326 C 
ATOM      2  N   UNL d   1       2.378  -1.600   0.635  0.00  0.00    -0.294 N 
ATOM      3  N   UNL d   1       0.150  -1.233   0.106  0.00  0.00    -0.309 N 
ATOM      4  O   UNL d   1       0.871  -3.158   1.173  0.00  0.00    -0.247 OA
ATOM      5  H   UNL d   1       3.045  -2.281   0.968  0.00  0.00     0.172 HD
ATOM      6  H   UNL d   1       0.545  -0.401  -0.325  0.00  0.00     0.170 HD
ENDROOT
BRANCH   2   7
ATOM      7  C   UNL d   1       2.846  -0.352   0.213  0.00  0.00     0.109 A 
ATOM      8  N   UNL d   1       1.951   0.612  -0.095  0.00  0.00    -0.342 N 
ATOM      9  C   UNL d   1       2.392   1.812  -0.497  0.00  0.00     0.043 A 
ATOM     10  HN  UNL d   1       0.950   0.429  -0.022  1.00  0.00     0.167 HD
ATOM     11  C   UNL d   1       1.472   2.816  -0.762  0.00  0.00     0.030 A 
ATOM     12  C   UNL d   1       3.761   2.089  -0.665  0.00  0.00    -0.009 A 
ATOM     13  C   UNL d   1       1.872   4.071  -1.223  0.00  0.00     0.002 A 
ATOM     14  C   UNL d   1       3.223   4.334  -1.425  0.00  0.00     0.001 A 
ATOM     15  C   UNL d   1       4.168   3.348  -1.142  0.00  0.00     0.013 A 
ATOM     16  C   UNL d   1       4.674   1.076  -0.344  0.00  0.00     0.017 A 
ATOM     17  C   UNL d   1       4.213  -0.154   0.117  0.00  0.00     0.049 A 
ENDBRANCH   2   7
BRANCH   3  18
ATOM     18  C   UNL d   1      -1.240  -1.377   0.034  0.00  0.00     0.036 A 
ATOM     19  C   UNL d   1      -1.959  -2.309   0.770  0.00  0.00     0.030 A 
ATOM     20  C   UNL d   1      -3.356  -2.342   0.685  0.00  0.00     0.010 A 
ATOM     21  C   UNL d   1      -4.071  -1.463  -0.151  0.00  0.00    -0.051 A 
ATOM     22  C   UNL d   1      -3.324  -0.548  -0.907  0.00  0.00     0.010 A 
ATOM     23  C   UNL d   1      -1.929  -0.497  -0.805  0.00  0.00     0.030 A 
BRANCH  21  24
ATOM     24  C   UNL d   1      -5.606  -1.519  -0.195  0.00  0.00    -0.024 C 
ATOM     25  C   UNL d   1      -6.240  -0.502  -1.171  0.00  0.00     0.019 C 
ATOM     26  C   UNL d   1      -6.064  -2.925  -0.636  0.00  0.00     0.019 C 
ATOM     27  C   UNL d   1      -6.170  -1.215   1.210  0.00  0.00     0.019 C 
ENDBRANCH  21  24
ENDBRANCH   3  18
TORSDOF 3
