REMARK  6 active torsions:
REMARK  status: ('A' for Active; 'I' for Inactive)
REMARK    1  A    between atoms: C_2  and  C_1 
REMARK    2  A    between atoms: O_11  and  C_2 
REMARK    3  A    between atoms: C_3  and  C_9 
REMARK    4  A    between atoms: C_13  and  C_4 
REMARK    5  A    between atoms: C_14  and  C_13 
REMARK    6  A    between atoms: C_15  and  C_14 
ROOT
ATOM      1  C   UNL d   1       2.081   1.257   0.031  0.00  0.00     0.054 A 
ATOM      2  N   UNL d   1       2.019  -1.166   0.028  0.00  0.00    -0.373 N 
ATOM      3  HN  UNL d   1       2.504  -2.063   0.042  1.00  0.00     0.164 HD
ATOM      4  C   UNL d   1       0.684   1.308  -0.003  0.00  0.00     0.041 A 
ATOM      5  C   UNL d   1      -0.035   0.113  -0.011  0.00  0.00     0.034 A 
ATOM      6  C   UNL d   1       2.696   0.009   0.032  0.00  0.00     0.105 A 
ATOM      7  C   UNL d   1       0.669  -1.086   0.005  0.00  0.00     0.108 A 
ENDROOT
BRANCH   5   8
ATOM      8  C   UNL d   1      -1.465   0.108  -0.032  0.00  0.00    -0.066 C 
ATOM      9  C   UNL d   1      -2.664   0.061  -0.029  0.00  0.00    -0.101 C 
BRANCH   9  10
ATOM     10  C   UNL d   1      -4.131  -0.035  -0.005  0.00  0.00     0.094 C 
BRANCH  10  11
ATOM     11  C   UNL d   1      -4.593  -0.977   1.107  0.00  0.00     0.012 C 
BRANCH  11  12
ATOM     12  C   UNL d   1      -6.117  -1.081   1.151  0.00  0.00    -0.004 C 
ATOM     13  C   UNL d   1      -6.579  -2.017   2.256  0.00  0.00     0.005 C 
ENDBRANCH  11  12
ENDBRANCH  10  11
ENDBRANCH   9  10
ENDBRANCH   5   8
BRANCH   1  14
ATOM     14  C   UNL d   1       2.954   2.449   0.016  0.00  0.00     0.177 C 
ATOM     15  O   UNL d   1       4.082   2.423  -0.445  0.00  0.00    -0.646 OA
BRANCH  14  16
ATOM     16  O   UNL d   1       2.420   3.550   0.583  0.00  0.00    -0.773 OA
ATOM     17  H   UNL d   1       1.576   3.432   1.055  0.00  0.00     0.167 HD
ENDBRANCH  14  16
ENDBRANCH   1  14
TORSDOF 6
