REMARK  7 active torsions:
REMARK  status: ('A' for Active; 'I' for Inactive)
REMARK    1  A    between atoms: C_2  and  S_1 
REMARK    2  A    between atoms: N_3  and  S_1 
REMARK    3  A    between atoms: C_15  and  N_3 
REMARK    4  A    between atoms: C_21  and  N_3 
REMARK    5  A    between atoms: C_17  and  C_15 
REMARK    6  A    between atoms: C_18  and  C_17 
REMARK    7  A    between atoms: C_19  and  C_21 
ROOT
ATOM      1  N   UNL d   1       2.863  -3.842   3.874  0.00  0.00    -0.197 NA
ATOM      2  C   UNL d   1       2.669  -2.866   3.279  0.00  0.00     0.060 C 
ATOM      3  C   UNL d   1       2.381  -1.637   2.518  0.00  0.00     0.139 C 
ENDROOT
BRANCH   3   4
ATOM      4  C   UNL d   1       0.894  -1.597   2.163  0.00  0.00     0.121 C 
BRANCH   4   5
ATOM      5  N   UNL d   1       0.427  -0.334   1.469  0.00  0.00    -0.205 NA
BRANCH   5   6
ATOM      6  S   UNL d   1       1.183  -0.132  -0.093  0.00  0.00     0.243 S 
ATOM      7  O   UNL d   1       2.592   0.111   0.123  0.00  0.00    -0.206 OA
ATOM      8  O   UNL d   1       0.733  -1.240  -0.910  0.00  0.00    -0.206 OA
BRANCH   6   9
ATOM      9  C   UNL d   1       0.500   1.369  -0.748  0.00  0.00     0.075 A 
ATOM     10  C   UNL d   1       0.740   2.568  -0.065  0.00  0.00     0.034 A 
ATOM     11  C   UNL d   1       0.187   3.719  -0.590  0.00  0.00    -0.021 A 
ATOM     12  C   UNL d   1       0.321   5.124  -0.142  0.00  0.00     0.068 C 
ATOM     13  C   UNL d   1      -0.571   3.689  -1.755  0.00  0.00     0.075 A 
ATOM     14  C   UNL d   1      -0.837   5.725  -0.938  0.00  0.00     0.180 C 
ATOM     15  O   UNL d   1      -1.052   4.918  -2.122  0.00  0.00    -0.350 OA
ATOM     16  C   UNL d   1      -0.786   2.522  -2.458  0.00  0.00     0.039 A 
ATOM     17  C   UNL d   1      -0.240   1.342  -1.949  0.00  0.00     0.027 A 
ENDBRANCH   6   9
ENDBRANCH   5   6
BRANCH   5  18
ATOM     18  C   UNL d   1      -1.091  -0.287   1.366  0.00  0.00     0.113 C 
BRANCH  18  19
ATOM     19  C   UNL d   1      -1.813  -0.395   2.715  0.00  0.00     0.072 C 
BRANCH  19  20
ATOM     20  C   UNL d   1      -3.303  -0.248   2.533  0.00  0.00     0.010 A 
ATOM     21  N   UNL d   1      -3.745   0.937   2.050  0.00  0.00    -0.369 N 
ATOM     22  C   UNL d   1      -5.074   1.069   1.847  0.00  0.00     0.088 A 
ATOM     23  HN  UNL d   1      -3.100   1.700   1.848  1.00  0.00     0.165 HD
ATOM     24  C   UNL d   1      -5.996   0.069   2.106  0.00  0.00     0.017 A 
ATOM     25  C   UNL d   1      -5.529  -1.137   2.614  0.00  0.00     0.003 A 
ATOM     26  C   UNL d   1      -4.165  -1.301   2.834  0.00  0.00     0.025 A 
ENDBRANCH  19  20
ENDBRANCH  18  19
ENDBRANCH   5  18
ENDBRANCH   4   5
ENDBRANCH   3   4
TORSDOF 7
