REMARK  6 active torsions:
REMARK  status: ('A' for Active; 'I' for Inactive)
REMARK    1  A    between atoms: C_2  and  C_1 
REMARK       I    between atoms: N_4  and  C_2 
REMARK    2  A    between atoms: C_3  and  N_5 
REMARK    3  A    between atoms: N_6  and  C_3 
REMARK    4  A    between atoms: N_5  and  N_4 
REMARK    5  A    between atoms: C_9  and  N_6 
REMARK    6  A    between atoms: O_15  and  C_12 
ROOT
ATOM      1  N   UNL d   1       1.693   3.919  -0.064  0.00  0.00    -0.273 N 
ATOM      2  H   UNL d   1       0.688   3.875   0.128  0.00  0.00     0.189 HD
ENDROOT
BRANCH   1   3
ATOM      3  C   UNL d   1       2.295   5.151   0.059  0.00  0.00     0.191 C 
ATOM      4  S   UNL d   1       3.920   5.399   0.382  0.00  0.00    -0.039 SA
BRANCH   3   5
ATOM      5  N   UNL d   1       1.486   6.249  -0.030  0.00  0.00    -0.332 N 
ATOM      6  H   UNL d   1       1.891   7.085   0.379  0.00  0.00     0.168 HD
BRANCH   5   7
ATOM      7  C   UNL d   1       0.309   6.454  -0.775  0.00  0.00     0.036 A 
ATOM      8  C   UNL d   1      -0.033   5.676  -1.888  0.00  0.00     0.066 A 
ATOM      9  C   UNL d   1      -1.142   6.017  -2.669  0.00  0.00     0.070 A 
ATOM     10  C   UNL d   1      -1.935   7.108  -2.304  0.00  0.00     0.037 A 
ATOM     11  C   UNL d   1      -1.607   7.879  -1.191  0.00  0.00     0.005 A 
ATOM     12  C   UNL d   1      -0.474   7.564  -0.442  0.00  0.00     0.029 A 
BRANCH   9  13
ATOM     13  O   UNL d   1      -1.542   5.386  -3.816  0.00  0.00    -0.356 OA
ATOM     14  C   UNL d   1      -0.678   4.379  -4.329  0.00  0.00     0.210 C 
ENDBRANCH   9  13
ENDBRANCH   5   7
ENDBRANCH   3   5
ENDBRANCH   1   3
BRANCH   1  15
ATOM     15  N   UNL d   1       2.389   2.756   0.349  0.00  0.00    -0.264 N 
ATOM     16  C   UNL d   1       1.706   1.818   1.099  0.00  0.00     0.271 C 
ATOM     17  O   UNL d   1       0.481   1.881   1.222  0.00  0.00    -0.266 OA
ATOM     18  H   UNL d   1       3.407   2.831   0.375  0.00  0.00     0.190 HD
BRANCH  16  19
ATOM     19  C   UNL d   1       2.479   0.723   1.780  0.00  0.00     0.055 A 
ATOM     20  C   UNL d   1       3.876   0.589   1.837  0.00  0.00     0.049 A 
ATOM     21 CL   UNL d   1       4.998   1.665   1.082  0.00  0.00    -0.083 Cl
ATOM     22  C   UNL d   1       4.459  -0.476   2.548  0.00  0.00     0.025 A 
ATOM     23  C   UNL d   1       3.668  -1.419   3.200  0.00  0.00     0.002 A 
ATOM     24  C   UNL d   1       2.287  -1.310   3.142  0.00  0.00     0.001 A 
ATOM     25  C   UNL d   1       1.699  -0.249   2.445  0.00  0.00     0.019 A 
ENDBRANCH  16  19
ENDBRANCH   1  15
TORSDOF 6
