REMARK  2 active torsions:
REMARK  status: ('A' for Active; 'I' for Inactive)
REMARK    1  A    between atoms: C_8  and  C_4 
REMARK    2  A    between atoms: C_12  and  N_7 
ROOT
ATOM      1  N   UNL d   1       1.454  -0.535  -0.008  0.00  0.00    -0.335 N 
ATOM      2  HN  UNL d   1       2.363  -0.997   0.042  1.00  0.00     0.168 HD
ATOM      3  C   UNL d   1       0.305  -1.167  -0.096  0.00  0.00     0.149 A 
ATOM      4  C   UNL d   1       1.274   0.836   0.010  0.00  0.00     0.051 A 
ATOM      5  S   UNL d   1      -1.071  -0.127  -0.158  0.00  0.00    -0.064 SA
ATOM      6  C   UNL d   1      -0.044   1.241  -0.025  0.00  0.00     0.083 A 
ATOM      7  N   UNL d   1       0.146  -2.508  -0.187  0.00  0.00    -0.337 N 
ATOM      8  H   UNL d   1      -0.762  -2.870  -0.444  0.00  0.00     0.168 HD
ENDROOT
BRANCH   7   9
ATOM      9  C   UNL d   1       1.041  -3.479   0.299  0.00  0.00     0.034 A 
ATOM     10  C   UNL d   1       1.924  -3.231   1.359  0.00  0.00     0.029 A 
ATOM     11  C   UNL d   1       2.817  -4.212   1.799  0.00  0.00     0.002 A 
ATOM     12  C   UNL d   1       2.864  -5.446   1.160  0.00  0.00     0.000 A 
ATOM     13  C   UNL d   1       2.014  -5.702   0.086  0.00  0.00     0.002 A 
ATOM     14  C   UNL d   1       1.105  -4.727  -0.337  0.00  0.00     0.029 A 
ENDBRANCH   7   9
BRANCH   4  15
ATOM     15  C   UNL d   1       2.419   1.736   0.008  0.00  0.00    -0.009 A 
ATOM     16  C   UNL d   1       3.599   1.336  -0.641  0.00  0.00     0.015 A 
ATOM     17  C   UNL d   1       4.711   2.181  -0.688  0.00  0.00     0.024 A 
ATOM     18  C   UNL d   1       4.653   3.429  -0.073  0.00  0.00     0.034 A 
ATOM     19  C   UNL d   1       3.496   3.835   0.589  0.00  0.00     0.024 A 
ATOM     20 CL   UNL d   1       6.018   4.474  -0.130  0.00  0.00    -0.084 Cl
ATOM     21  C   UNL d   1       2.380   2.991   0.629  0.00  0.00     0.015 A 
ENDBRANCH   4  15
TORSDOF 2
