REMARK  1 active torsions:
REMARK  status: ('A' for Active; 'I' for Inactive)
REMARK    1  A    between atoms: O_10  and  C_8 
ROOT
ATOM      1  N   UNL d   1      -1.188   1.028   0.005  0.00  0.00    -0.359 N 
ATOM      2  C   UNL d   1       0.164  -0.743  -0.004  0.00  0.00    -0.005 A 
ATOM      3  C   UNL d   1      -2.003  -0.077   0.006  0.00  0.00     0.006 A 
ATOM      4  C   UNL d   1      -1.185  -1.188   0.006  0.00  0.00     0.038 A 
ATOM      5  C   UNL d   1       0.136   0.650  -0.002  0.00  0.00     0.043 A 
ATOM      6  C   UNL d   1       1.413  -1.394  -0.016  0.00  0.00     0.050 A 
ATOM      7  C   UNL d   1       1.300   1.425  -0.007  0.00  0.00     0.033 A 
ATOM      8  C   UNL d   1       2.595  -0.640  -0.028  0.00  0.00     0.069 A 
ATOM      9  C   UNL d   1       2.531   0.753  -0.020  0.00  0.00     0.039 A 
ATOM     10  C   UNL d   1      -3.482   0.028   0.005  0.00  0.00     0.068 C 
ATOM     11  H   UNL d   1      -1.506   1.987   0.004  0.00  0.00     0.166 HD
ENDROOT
BRANCH   8  12
ATOM     12  O   UNL d   1       3.740  -1.391  -0.049  0.00  0.00    -0.356 OA
ATOM     13  C   UNL d   1       4.973  -0.684  -0.069  0.00  0.00     0.210 C 
ENDBRANCH   8  12
TORSDOF 1
