REMARK  7 active torsions:
REMARK  status: ('A' for Active; 'I' for Inactive)
REMARK       I    between atoms: N_5  and  C_1 
REMARK    1  A    between atoms: C_8  and  C_1 
REMARK    2  A    between atoms: C_2  and  C_8 
REMARK    3  A    between atoms: C_10  and  C_2 
REMARK    4  A    between atoms: C_3  and  C_6 
REMARK    5  A    between atoms: C_4  and  C_10 
REMARK    6  A    between atoms: O_13  and  C_4 
REMARK    7  A    between atoms: C_6  and  N_5 
ROOT
ATOM      1  C   UNL d   1       0.936  -1.372   1.143  0.00  0.00     0.218 C 
ATOM      2  N   UNL d   1       2.305  -1.388   1.052  0.00  0.00    -0.357 N 
ATOM      3  O   UNL d   1       0.397  -1.649   2.211  0.00  0.00    -0.274 OA
ATOM      4  H   UNL d   1       2.780  -1.603   1.919  0.00  0.00     0.162 HD
ENDROOT
BRANCH   1   5
ATOM      5  C   UNL d   1       0.184  -1.023  -0.129  0.00  0.00     0.112 C 
BRANCH   5   6
ATOM      6  C   UNL d   1      -1.367  -1.088  -0.123  0.00  0.00    -0.023 C 
ATOM      7  C   UNL d   1      -1.879  -2.529   0.165  0.00  0.00     0.010 C 
ATOM      8  C   UNL d   1      -1.528  -3.544  -0.919  0.00  0.00     0.001 C 
ATOM      9  C   UNL d   1      -2.035  -3.093  -2.283  0.00  0.00     0.000 C 
ATOM     10  C   UNL d   1      -1.544  -1.696  -2.638  0.00  0.00     0.001 C 
ATOM     11  C   UNL d   1      -1.871  -0.676  -1.541  0.00  0.00     0.010 C 
BRANCH   6  12
ATOM     12  C   UNL d   1      -2.002  -0.158   0.953  0.00  0.00     0.119 C 
BRANCH  12  13
ATOM     13  C   UNL d   1      -1.650   1.315   0.901  0.00  0.00     0.140 C 
ATOM     14  O   UNL d   1      -0.926   1.856   0.082  0.00  0.00    -0.650 OA
BRANCH  13  15
ATOM     15  O   UNL d   1      -2.260   2.014   1.889  0.00  0.00    -0.776 OA
ATOM     16  H   UNL d   1      -2.796   1.459   2.486  0.00  0.00     0.167 HD
ENDBRANCH  13  15
ENDBRANCH  12  13
ENDBRANCH   6  12
ENDBRANCH   5   6
ENDBRANCH   1   5
BRANCH   2  17
ATOM     17  C   UNL d   1       3.126  -0.947  -0.068  0.00  0.00     0.164 C 
BRANCH  17  18
ATOM     18  C   UNL d   1       4.038  -2.013  -0.612  0.00  0.00    -0.002 A 
ATOM     19  C   UNL d   1       5.193  -1.616  -1.295  0.00  0.00     0.124 A 
ATOM     20  F   UNL d   1       5.482  -0.311  -1.406  0.00  0.00    -0.205 F 
ATOM     21  C   UNL d   1       6.052  -2.541  -1.881  0.00  0.00     0.043 A 
ATOM     22  C   UNL d   1       5.756  -3.898  -1.803  0.00  0.00     0.003 A 
ATOM     23  C   UNL d   1       4.599  -4.319  -1.145  0.00  0.00     0.001 A 
ATOM     24  C   UNL d   1       3.739  -3.382  -0.559  0.00  0.00     0.012 A 
ENDBRANCH  17  18
ENDBRANCH   2  17
TORSDOF 7
