REMARK  3 active torsions:
REMARK  status: ('A' for Active; 'I' for Inactive)
REMARK       I    between atoms: N_2  and  C_1 
REMARK       I    between atoms: N_6  and  C_1 
REMARK    1  A    between atoms: C_4  and  N_2 
REMARK    2  A    between atoms: N_3  and  C_8 
REMARK    3  A    between atoms: C_14  and  N_6 
ROOT
ATOM      1  C   UNL d   1       0.995   1.591  -1.250  0.00  0.00     0.325 C 
ATOM      2  N   UNL d   1       2.224   0.950  -1.297  0.00  0.00    -0.306 N 
ATOM      3  N   UNL d   1       0.117   0.903  -0.432  0.00  0.00    -0.309 N 
ATOM      4  O   UNL d   1       0.724   2.604  -1.884  0.00  0.00    -0.247 OA
ATOM      5  H   UNL d   1       2.148  -0.060  -1.255  0.00  0.00     0.171 HD
ATOM      6  H   UNL d   1       0.531   0.453   0.371  0.00  0.00     0.170 HD
ENDROOT
BRANCH   3   7
ATOM      7  C   UNL d   1      -1.282   1.058  -0.442  0.00  0.00     0.036 A 
ATOM      8  C   UNL d   1      -1.972   1.565  -1.539  0.00  0.00     0.032 A 
ATOM      9  C   UNL d   1      -3.368   1.677  -1.515  0.00  0.00     0.031 A 
ATOM     10  C   UNL d   1      -4.123   1.297  -0.399  0.00  0.00     0.030 A 
ATOM     11  C   UNL d   1      -3.409   0.770   0.687  0.00  0.00     0.031 A 
ATOM     12  C   UNL d   1      -2.012   0.638   0.670  0.00  0.00     0.032 A 
BRANCH  10  13
ATOM     13  N   UNL d   1      -5.495   1.473  -0.344  0.00  0.00    -0.381 N 
ATOM     14  C   UNL d   1      -6.182   2.461  -1.176  0.00  0.00     0.123 C 
ATOM     15  C   UNL d   1      -7.190   3.213  -0.306  0.00  0.00     0.020 C 
ATOM     16  C   UNL d   1      -8.137   2.259   0.419  0.00  0.00     0.003 C 
ATOM     17  C   UNL d   1      -7.368   1.176   1.178  0.00  0.00     0.020 C 
ATOM     18  C   UNL d   1      -6.364   0.467   0.271  0.00  0.00     0.123 C 
ENDBRANCH  10  13
ENDBRANCH   3   7
BRANCH   2  19
ATOM     19  C   UNL d   1       3.281   1.436  -2.099  0.00  0.00     0.075 A 
ATOM     20  C   UNL d   1       4.005   0.522  -2.873  0.00  0.00     0.146 A 
ATOM     21  C   UNL d   1       5.011   0.944  -3.731  0.00  0.00     0.086 A 
ATOM     22  F   UNL d   1       3.683  -0.781  -2.830  0.00  0.00    -0.204 F 
ATOM     23  C   UNL d   1       5.324   2.296  -3.780  0.00  0.00     0.119 A 
ATOM     24  C   UNL d   1       4.645   3.221  -2.992  0.00  0.00     0.044 A 
ATOM     25  F   UNL d   1       6.293   2.717  -4.602  0.00  0.00    -0.206 F 
ATOM     26  C   UNL d   1       3.614   2.792  -2.153  0.00  0.00     0.036 A 
ENDBRANCH   2  19
TORSDOF 3
