REMARK  5 active torsions:
REMARK  status: ('A' for Active; 'I' for Inactive)
REMARK    1  A    between atoms: N_2  and  C_1 
REMARK    2  A    between atoms: N_3  and  C_1 
REMARK    3  A    between atoms: C_5  and  N_2 
REMARK    4  A    between atoms: C_12  and  N_2 
REMARK    5  A    between atoms: C_6  and  N_3 
ROOT
ATOM      1  C   UNL d   1       0.674   0.115  -0.135  0.00  0.00     0.179 C 
ATOM      2  S   UNL d   1      -0.223  -0.575  -1.397  0.00  0.00    -0.040 SA
ENDROOT
BRANCH   1   3
ATOM      3  N   UNL d   1       0.133   1.035   0.811  0.00  0.00    -0.324 N 
BRANCH   3   4
ATOM      4  C   UNL d   1      -1.282   1.093   1.096  0.00  0.00     0.036 A 
ATOM      5  C   UNL d   1      -2.017  -0.088   1.287  0.00  0.00     0.029 A 
ATOM      6  C   UNL d   1      -3.393  -0.057   1.516  0.00  0.00     0.002 A 
ATOM      7  C   UNL d   1      -4.061   1.163   1.584  0.00  0.00     0.000 A 
ATOM      8  C   UNL d   1      -3.344   2.348   1.433  0.00  0.00     0.002 A 
ATOM      9  C   UNL d   1      -1.964   2.314   1.202  0.00  0.00     0.029 A 
ENDBRANCH   3   4
BRANCH   3  10
ATOM     10  C   UNL d   1       0.995   2.046   1.454  0.00  0.00     0.127 C 
ATOM     11  C   UNL d   1       1.278   1.716   2.913  0.00  0.00     0.027 C 
ENDBRANCH   3  10
ENDBRANCH   1   3
BRANCH   1  12
ATOM     12  N   UNL d   1       2.033  -0.149   0.101  0.00  0.00    -0.333 N 
ATOM     13  H   UNL d   1       2.250  -0.235   1.085  0.00  0.00     0.168 HD
BRANCH  12  14
ATOM     14  C   UNL d   1       2.937  -0.802  -0.771  0.00  0.00     0.034 C 
ATOM     15  C   UNL d   1       2.939  -0.569  -2.147  0.00  0.00     0.030 C 
ATOM     16  C   UNL d   1       3.723  -1.352  -2.995  0.00  0.00     0.009 C 
ATOM     17  C   UNL d   1       4.544  -2.353  -2.472  0.00  0.00    -0.062 C 
ATOM     18  C   UNL d   1       4.634  -2.500  -1.084  0.00  0.00     0.009 C 
ATOM     19  C   UNL d   1       5.239  -3.300  -3.403  0.00  0.00     0.048 C 
ATOM     20  C   UNL d   1       3.850  -1.709  -0.233  0.00  0.00     0.030 C 
ENDBRANCH  12  14
ENDBRANCH   1  12
TORSDOF 5
