REMARK  3 active torsions:
REMARK  status: ('A' for Active; 'I' for Inactive)
REMARK    1  A    between atoms: O_2  and  C_1 
REMARK    2  A    between atoms: C_3  and  O_2 
REMARK    3  A    between atoms: C_6  and  C_3 
ROOT
ATOM      1  O   UNL d   1      -1.518   2.196  -0.767  0.00  0.00    -0.271 OA
ENDROOT
BRANCH   1   2
ATOM      2  C   UNL d   1      -0.788   1.025  -0.471  0.00  0.00     0.122 A 
ATOM      3  C   UNL d   1      -1.247  -0.242  -0.837  0.00  0.00     0.070 A 
ATOM      4  C   UNL d   1      -0.444  -1.366  -0.610  0.00  0.00     0.033 A 
ATOM      5 CL   UNL d   1      -2.738  -0.473  -1.677  0.00  0.00    -0.081 Cl
ATOM      6  C   UNL d   1       0.848  -1.233  -0.082  0.00  0.00    -0.059 A 
ATOM      7  C   UNL d   1       1.318   0.044   0.248  0.00  0.00     0.033 A 
ATOM      8  C   UNL d   1       1.699  -2.453   0.134  0.00  0.00     0.048 C 
ATOM      9  C   UNL d   1       0.504   1.167   0.055  0.00  0.00     0.070 A 
ATOM     10 CL   UNL d   1       1.154   2.723   0.429  0.00  0.00    -0.081 Cl
ENDBRANCH   1   2
BRANCH   1  11
ATOM     11  C   UNL d   1      -2.740   2.413  -0.145  0.00  0.00     0.298 C 
ATOM     12  O   UNL d   1      -3.301   1.681   0.648  0.00  0.00    -0.259 OA
BRANCH  11  13
ATOM     13  C   UNL d   1      -3.264   3.751  -0.566  0.00  0.00     0.041 A 
ATOM     14  C   UNL d   1      -2.502   4.631  -1.349  0.00  0.00     0.043 A 
ATOM     15  C   UNL d   1      -2.969   5.921  -1.627  0.00  0.00     0.056 A 
ATOM     16 CL   UNL d   1      -1.945   6.955  -2.561  0.00  0.00    -0.083 Cl
ATOM     17  C   UNL d   1      -4.211   6.338  -1.140  0.00  0.00     0.055 A 
ATOM     18  C   UNL d   1      -4.997   5.450  -0.400  0.00  0.00     0.026 A 
ATOM     19 CL   UNL d   1      -4.816   7.936  -1.395  0.00  0.00    -0.083 Cl
ATOM     20  C   UNL d   1      -4.526   4.160  -0.115  0.00  0.00     0.019 A 
ENDBRANCH  11  13
ENDBRANCH   1  11
TORSDOF 3
