REMARK  9 active torsions:
REMARK  status: ('A' for Active; 'I' for Inactive)
REMARK    1  A    between atoms: C_9  and  C_1 
REMARK    2  A    between atoms: C_8  and  C_2 
REMARK    3  A    between atoms: C_7  and  C_3 
REMARK    4  A    between atoms: O_18  and  C_8 
REMARK    5  A    between atoms: O_17  and  C_9 
REMARK    6  A    between atoms: O_21  and  C_11 
REMARK    7  A    between atoms: O_22  and  C_13 
REMARK    8  A    between atoms: C_24  and  O_17 
REMARK    9  A    between atoms: C_23  and  O_18 
ROOT
ATOM      1  C   UNL d   1       1.335  -1.012   0.140  0.00  0.00     0.052 C 
ATOM      2  C   UNL d   1      -1.239  -1.001   0.160  0.00  0.00     0.052 C 
ATOM      3  C   UNL d   1       0.044  -1.829  -0.021  0.00  0.00     0.101 C 
ATOM      4  C   UNL d   1       1.278   0.343   0.100  0.00  0.00     0.018 C 
ATOM      5  C   UNL d   1      -1.184   0.351   0.111  0.00  0.00     0.018 C 
ATOM      6  N   UNL d   1       0.046   0.974  -0.017  0.00  0.00    -0.362 N 
ATOM      7  C   UNL d   1      -2.374   1.275   0.187  0.00  0.00     0.069 C 
ATOM      8  C   UNL d   1       2.440   1.303   0.170  0.00  0.00     0.069 C 
ATOM      9  H   UNL d   1       0.054   1.992  -0.016  0.00  0.00     0.165 HD
ENDROOT
BRANCH   3  10
ATOM     10  C   UNL d   1       0.024  -2.519  -1.398  0.00  0.00    -0.042 A 
ATOM     11  C   UNL d   1       0.032  -3.923  -1.494  0.00  0.00     0.047 A 
ATOM     12  C   UNL d   1       0.026  -4.560  -2.743  0.00  0.00     0.101 A 
ATOM     13  C   UNL d   1      -0.003  -3.771  -3.904  0.00  0.00     0.099 A 
ATOM     14  C   UNL d   1      -0.019  -2.381  -3.830  0.00  0.00     0.040 A 
ATOM     15  C   UNL d   1      -0.002  -1.760  -2.581  0.00  0.00     0.011 A 
BRANCH  12  16
ATOM     16  O   UNL d   1       0.046  -5.913  -2.938  0.00  0.00    -0.353 OA
ATOM     17  C   UNL d   1       0.107  -6.739  -1.786  0.00  0.00     0.210 C 
ENDBRANCH  12  16
BRANCH  13  18
ATOM     18  O   UNL d   1      -0.013  -4.381  -5.131  0.00  0.00    -0.358 OA
ATOM     19  H   UNL d   1      -0.017  -3.702  -5.820  0.00  0.00     0.217 HD
ENDBRANCH  13  18
ENDBRANCH   3  10
BRANCH   2  20
ATOM     20  C   UNL d   1      -2.460  -1.832   0.345  0.00  0.00     0.292 C 
ATOM     21  O   UNL d   1      -2.425  -3.007   0.683  0.00  0.00    -0.259 OA
BRANCH  20  22
ATOM     22  O   UNL d   1      -3.577  -1.153   0.000  0.00  0.00    -0.318 OA
BRANCH  22  23
ATOM     23  C   UNL d   1      -4.756  -1.935  -0.227  0.00  0.00     0.174 C 
ATOM     24  C   UNL d   1      -4.779  -2.325  -1.692  0.00  0.00     0.034 C 
ENDBRANCH  22  23
ENDBRANCH  20  22
ENDBRANCH   2  20
BRANCH   1  25
ATOM     25  C   UNL d   1       2.614  -1.776   0.249  0.00  0.00     0.292 C 
ATOM     26  O   UNL d   1       3.716  -1.331  -0.030  0.00  0.00    -0.259 OA
BRANCH  25  27
ATOM     27  O   UNL d   1       2.382  -3.051   0.660  0.00  0.00    -0.318 OA
BRANCH  27  28
ATOM     28  C   UNL d   1       3.487  -3.965   0.542  0.00  0.00     0.174 C 
ATOM     29  C   UNL d   1       4.060  -4.290   1.907  0.00  0.00     0.034 C 
ENDBRANCH  27  28
ENDBRANCH  25  27
ENDBRANCH   1  25
TORSDOF 9
