REMARK  6 active torsions:
REMARK  status: ('A' for Active; 'I' for Inactive)
REMARK    1  A    between atoms: C_7  and  O_20 
REMARK    2  A    between atoms: C_10  and  C_7 
REMARK    3  A    between atoms: C_24  and  N_8 
REMARK    4  A    between atoms: C_11  and  C_12 
REMARK    5  A    between atoms: O_20  and  C_23 
REMARK    6  A    between atoms: C_23  and  C_24 
ROOT
ATOM      1  C   UNL d   1       7.810   0.275  -0.032  0.00  0.00     0.199 C 
ENDROOT
BRANCH   1   2
ATOM      2  O   UNL d   1       6.638   1.065   0.272  0.00  0.00    -0.316 OA
BRANCH   2   3
ATOM      3  C   UNL d   1       6.702   2.371  -0.086  0.00  0.00     0.293 C 
ATOM      4  O   UNL d   1       7.700   2.928  -0.522  0.00  0.00    -0.259 OA
BRANCH   3   5
ATOM      5  C   UNL d   1       5.401   3.070   0.111  0.00  0.00     0.039 A 
ATOM      6  C   UNL d   1       5.375   4.464  -0.004  0.00  0.00     0.018 A 
ATOM      7  C   UNL d   1       4.174   5.170   0.147  0.00  0.00     0.009 A 
ATOM      8  C   UNL d   1       2.959   4.510   0.411  0.00  0.00    -0.051 A 
ATOM      9  C   UNL d   1       3.003   3.108   0.515  0.00  0.00     0.009 A 
ATOM     10  C   UNL d   1       4.206   2.396   0.370  0.00  0.00     0.018 A 
BRANCH   8  11
ATOM     11  C   UNL d   1       1.661   5.324   0.586  0.00  0.00    -0.024 C 
ATOM     12  C   UNL d   1       0.406   4.456   0.831  0.00  0.00     0.019 C 
ATOM     13  C   UNL d   1       1.806   6.270   1.798  0.00  0.00     0.019 C 
ATOM     14  C   UNL d   1       1.384   6.170  -0.677  0.00  0.00     0.019 C 
ENDBRANCH   8  11
ENDBRANCH   3   5
ENDBRANCH   2   3
ENDBRANCH   1   2
BRANCH   1  15
ATOM     15  C   UNL d   1       8.935   0.460   1.000  0.00  0.00     0.151 C 
BRANCH  15  16
ATOM     16  N   UNL d   1      10.159  -0.257   0.626  0.00  0.00    -0.364 N 
ATOM     17  C   UNL d   1      10.302  -1.612   0.697  0.00  0.00     0.147 A 
ATOM     18  N   UNL d   1      11.194  -2.278  -0.007  0.00  0.00    -0.336 N 
ATOM     19  S   UNL d   1       9.369  -2.616   1.755  0.00  0.00    -0.052 SA
ATOM     20  C   UNL d   1      11.181  -3.627   0.298  0.00  0.00     0.053 A 
ATOM     21  HN  UNL d   1      11.817  -1.852  -0.692  1.00  0.00     0.168 HD
ATOM     22  C   UNL d   1      12.004  -4.614  -0.283  0.00  0.00     0.054 A 
ATOM     23  C   UNL d   1      10.267  -4.001   1.280  0.00  0.00     0.035 A 
ATOM     24  C   UNL d   1      11.901  -5.935   0.158  0.00  0.00     0.036 A 
ATOM     25 CL   UNL d   1      12.902  -7.145  -0.548  0.00  0.00    -0.084 Cl
ATOM     26  C   UNL d   1      11.005  -6.287   1.161  0.00  0.00     0.025 A 
ATOM     27  C   UNL d   1      10.168  -5.326   1.738  0.00  0.00     0.023 A 
ATOM     28  C   UNL d   1      11.265   0.541   0.117  0.00  0.00     0.151 C 
ENDBRANCH  15  16
ENDBRANCH   1  15
TORSDOF 6
