REMARK  3 active torsions:
REMARK  status: ('A' for Active; 'I' for Inactive)
REMARK       I    between atoms: N_2  and  C_1 
REMARK    1  A    between atoms: C_3  and  C_1 
REMARK    2  A    between atoms: C_9  and  N_2 
REMARK    3  A    between atoms: O_13  and  C_10 
ROOT
ATOM      1  C   UNL d   1       1.034  -0.158  -0.186  0.00  0.00     0.256 C 
ATOM      2  N   UNL d   1       2.410  -0.267  -0.117  0.00  0.00    -0.322 N 
ATOM      3  O   UNL d   1       0.404   0.792  -0.635  0.00  0.00    -0.267 OA
ATOM      4  H   UNL d   1       2.798  -1.178   0.090  0.00  0.00     0.169 HD
ENDROOT
BRANCH   1   5
ATOM      5  C   UNL d   1       0.279  -1.351   0.279  0.00  0.00     0.032 A 
ATOM      6  C   UNL d   1       0.709  -2.109   1.373  0.00  0.00     0.020 A 
ATOM      7  C   UNL d   1      -0.029  -3.225   1.782  0.00  0.00     0.038 A 
ATOM      8  C   UNL d   1      -1.196  -3.586   1.105  0.00  0.00     0.068 A 
ATOM      9  C   UNL d   1      -1.633  -2.809   0.030  0.00  0.00     0.038 A 
ATOM     10  C   UNL d   1      -0.905  -1.691  -0.381  0.00  0.00     0.020 A 
BRANCH   8  11
ATOM     11  O   UNL d   1      -1.992  -4.658   1.396  0.00  0.00    -0.356 OA
ATOM     12  C   UNL d   1      -1.573  -5.497   2.466  0.00  0.00     0.210 C 
ENDBRANCH   8  11
ENDBRANCH   1   5
BRANCH   2  13
ATOM     13  C   UNL d   1       3.332   0.743  -0.470  0.00  0.00     0.050 A 
ATOM     14  C   UNL d   1       2.996   2.073  -0.712  0.00  0.00     0.117 A 
ATOM     15  N   UNL d   1       3.889   3.033  -1.060  0.00  0.00    -0.373 N 
ATOM     16  C   UNL d   1       5.177   2.652  -1.180  0.00  0.00     0.088 A 
ATOM     17  HN  UNL d   1       3.600   3.997  -1.223  1.00  0.00     0.164 HD
ATOM     18  C   UNL d   1       5.618   1.361  -0.948  0.00  0.00     0.019 A 
ATOM     19  C   UNL d   1       4.680   0.396  -0.579  0.00  0.00     0.032 A 
ENDBRANCH   2  13
TORSDOF 3
