REMARK  2 active torsions:
REMARK  status: ('A' for Active; 'I' for Inactive)
REMARK    1  A    between atoms: C_8  and  N_3 
REMARK    2  A    between atoms: C_16  and  C_12 
ROOT
ATOM      1  C   UNL d   1       0.865   0.329   0.161  0.00  0.00     0.141 C 
ATOM      2  N   UNL d   1       0.082   1.445   0.051  0.00  0.00    -0.365 N 
ATOM      3  N   UNL d   1       2.139   0.201   0.271  0.00  0.00    -0.337 N 
ATOM      4  HN  UNL d   1       2.548  -0.732   0.313  1.00  0.00     0.168 HD
ATOM      5  S   UNL d   1      -0.135  -1.120   0.120  0.00  0.00    -0.092 SA
ATOM      6  C   UNL d   1      -1.669  -0.153   0.296  0.00  0.00     0.107 C 
ATOM      7  C   UNL d   1      -1.329   1.252  -0.221  0.00  0.00     0.093 C 
ATOM      8  H   UNL d   1       0.532   2.283  -0.292  0.00  0.00     0.162 HD
ENDROOT
BRANCH   3   9
ATOM      9  C   UNL d   1       2.976   1.328   0.336  0.00  0.00     0.035 A 
ATOM     10  C   UNL d   1       4.181   1.308  -0.368  0.00  0.00     0.053 A 
ATOM     11  C   UNL d   1       5.044   2.410  -0.342  0.00  0.00     0.042 A 
ATOM     12 CL   UNL d   1       6.533   2.295  -1.212  0.00  0.00    -0.084 Cl
ATOM     13  C   UNL d   1       4.707   3.568   0.374  0.00  0.00    -0.040 A 
ATOM     14  C   UNL d   1       3.521   3.569   1.118  0.00  0.00     0.011 A 
ATOM     15  C   UNL d   1       5.586   4.785   0.398  0.00  0.00     0.050 C 
ATOM     16  C   UNL d   1       2.686   2.449   1.120  0.00  0.00     0.030 A 
ENDBRANCH   3   9
BRANCH   7  17
ATOM     17  C   UNL d   1      -1.636   1.431  -1.714  0.00  0.00     0.021 C 
ATOM     18  C   UNL d   1      -1.296   2.828  -2.223  0.00  0.00     0.007 C 
ENDBRANCH   7  17
TORSDOF 2
