REMARK  3 active torsions:
REMARK  status: ('A' for Active; 'I' for Inactive)
REMARK    1  A    between atoms: N_10  and  C_1 
REMARK    2  A    between atoms: N_11  and  C_6 
REMARK    3  A    between atoms: N_12  and  C_7 
ROOT
ATOM      1  C   UNL d   1      -1.214  -0.179  -0.070  0.00  0.00     0.714 A 
ATOM      2  N   UNL d   1      -0.429  -1.251  -0.041  0.00  0.00    -0.021 N 
ATOM      3  HN  UNL d   1      -0.816  -2.194  -0.065  1.00  0.00     0.203 HD
ATOM      4  N   UNL d   1      -0.731   1.060  -0.031  0.00  0.00    -0.021 N 
ATOM      5  HN  UNL d   1      -1.350   1.870  -0.037  1.00  0.00     0.203 HD
ATOM      6  C   UNL d   1       0.878  -1.042   0.021  0.00  0.00     0.709 A 
ATOM      7  C   UNL d   1       0.583   1.199   0.015  0.00  0.00     0.709 A 
ATOM      8  N   UNL d   1       1.415   0.171   0.061  0.00  0.00    -0.021 N 
ATOM      9  HN  UNL d   1       2.424   0.305   0.125  1.00  0.00     0.203 HD
ENDROOT
BRANCH   1  10
ATOM     10  N   UNL d   1      -2.604  -0.346  -0.209  0.00  0.00    -0.182 N 
ATOM     11  C   UNL d   1      -3.392  -1.458   0.163  0.00  0.00     0.058 A 
ATOM     12  C   UNL d   1      -4.603  -1.749  -0.504  0.00  0.00    -0.031 A 
ATOM     13  C   UNL d   1      -3.020  -2.287   1.235  0.00  0.00     0.031 A 
ATOM     14  C   UNL d   1      -5.400  -2.830  -0.092  0.00  0.00     0.009 A 
ATOM     15  C   UNL d   1      -5.089  -0.894  -1.647  0.00  0.00     0.042 C 
ATOM     16  C   UNL d   1      -5.010  -3.630   0.978  0.00  0.00     0.001 A 
ATOM     17  C   UNL d   1      -3.820  -3.357   1.642  0.00  0.00     0.002 A 
ATOM     18  C   UNL d   1      -4.005   0.035  -2.172  0.00  0.00     0.025 C 
ATOM     19  C   UNL d   1      -3.280   0.685  -1.001  0.00  0.00     0.148 C 
ENDBRANCH   1  10
BRANCH   6  20
ATOM     20  N   UNL d   1       1.734  -2.115  -0.005  0.00  0.00    -0.217 N 
ATOM     21  C   UNL d   1       1.253  -3.485  -0.045  0.00  0.00     0.141 C 
ATOM     22  C   UNL d   1       2.234  -4.237   0.855  0.00  0.00     0.022 C 
ATOM     23  C   UNL d   1       3.522  -3.438   0.727  0.00  0.00     0.022 C 
ATOM     24  C   UNL d   1       3.032  -1.995   0.637  0.00  0.00     0.141 C 
ENDBRANCH   6  20
BRANCH   7  25
ATOM     25  N   UNL d   1       1.100   2.468  -0.109  0.00  0.00    -0.213 N 
ATOM     26  C   UNL d   1       0.314   3.617   0.336  0.00  0.00     0.167 C 
ATOM     27  C   UNL d   1       0.714   4.841  -0.504  0.00  0.00     0.188 C 
ATOM     28  O   UNL d   1       2.134   5.077  -0.460  0.00  0.00    -0.388 OA
ATOM     29  C   UNL d   1       2.849   3.927  -0.948  0.00  0.00     0.188 C 
ATOM     30  C   UNL d   1       2.546   2.676  -0.107  0.00  0.00     0.167 C 
ENDBRANCH   7  25
TORSDOF 3
