REMARK  5 active torsions:
REMARK  status: ('A' for Active; 'I' for Inactive)
REMARK    1  A    between atoms: C_5  and  C_1 
REMARK    2  A    between atoms: O_13  and  C_1 
REMARK    3  A    between atoms: C_7  and  C_5 
REMARK    4  A    between atoms: C_10  and  C_7 
REMARK    5  A    between atoms: O_22  and  C_17 
ROOT
ATOM      1  C   UNL d   1      -1.306  -1.473  -0.016  0.00  0.00     0.174 A 
ATOM      2  C   UNL d   1      -2.536  -0.592   0.369  0.00  0.00     0.262 A 
ATOM      3  C   UNL d   1      -0.164  -0.512   0.188  0.00  0.00     0.014 A 
ATOM      4  N   UNL d   1      -2.042   0.631   0.810  0.00  0.00    -0.324 N 
ATOM      5  C   UNL d   1      -0.665   0.708   0.645  0.00  0.00     0.044 A 
ATOM      6  C   UNL d   1       1.185  -0.668  -0.084  0.00  0.00     0.032 A 
ATOM      7  O   UNL d   1      -3.715  -0.919   0.357  0.00  0.00    -0.269 OA
ATOM      8  C   UNL d   1       0.135   1.817   0.818  0.00  0.00     0.031 A 
ATOM      9  C   UNL d   1       2.003   0.456   0.047  0.00  0.00     0.011 A 
ATOM     10  C   UNL d   1       1.488   1.689   0.488  0.00  0.00     0.021 A 
ATOM     11 BR   UNL d   1       3.827   0.332  -0.444  0.00  0.00    -0.051 Br
ATOM     12  H   UNL d   1      -2.644   1.394   1.080  0.00  0.00     0.169 HD
ENDROOT
BRANCH   1  13
ATOM     13  C   UNL d   1      -1.419  -2.071  -1.418  0.00  0.00     0.137 C 
BRANCH  13  14
ATOM     14  C   UNL d   1      -1.537  -1.074  -2.562  0.00  0.00     0.163 C 
ATOM     15  O   UNL d   1      -1.632   0.143  -2.398  0.00  0.00    -0.292 OA
BRANCH  14  16
ATOM     16  C   UNL d   1      -1.441  -1.618  -3.966  0.00  0.00     0.010 A 
ATOM     17  C   UNL d   1      -1.331  -2.989  -4.233  0.00  0.00     0.018 A 
ATOM     18  C   UNL d   1      -1.112  -3.437  -5.541  0.00  0.00     0.037 A 
ATOM     19  C   UNL d   1      -1.008  -2.536  -6.603  0.00  0.00     0.068 A 
ATOM     20  C   UNL d   1      -1.212  -1.179  -6.358  0.00  0.00     0.037 A 
ATOM     21  C   UNL d   1      -1.424  -0.724  -5.047  0.00  0.00     0.018 A 
BRANCH  19  22
ATOM     22  O   UNL d   1      -0.704  -3.107  -7.804  0.00  0.00    -0.356 OA
ATOM     23  C   UNL d   1      -0.338  -2.235  -8.864  0.00  0.00     0.210 C 
ENDBRANCH  19  22
ENDBRANCH  14  16
ENDBRANCH  13  14
ENDBRANCH   1  13
BRANCH   1  24
ATOM     24  O   UNL d   1      -1.148  -2.557   0.908  0.00  0.00    -0.375 OA
ATOM     25  H   UNL d   1      -1.057  -2.166   1.795  0.00  0.00     0.211 HD
ENDBRANCH   1  24
TORSDOF 5
