REMARK  6 active torsions:
REMARK  status: ('A' for Active; 'I' for Inactive)
REMARK    1  A    between atoms: C_2  and  N_1 
REMARK    2  A    between atoms: C_3  and  C_5 
REMARK    3  A    between atoms: O_9  and  C_3 
REMARK    4  A    between atoms: C_15  and  O_9 
REMARK    5  A    between atoms: C_11  and  C_15 
REMARK    6  A    between atoms: C_12  and  C_11 
ROOT
ATOM      1  C   UNL d   1      -1.865  -2.545   4.373  0.00  0.00     0.293 C 
ATOM      2  O   UNL d   1      -1.427  -2.479   5.513  0.00  0.00    -0.259 OA
ENDROOT
BRANCH   1   3
ATOM      3  C   UNL d   1      -1.159  -1.925   3.215  0.00  0.00     0.040 A 
ATOM      4  C   UNL d   1      -0.000  -1.181   3.491  0.00  0.00     0.020 A 
ATOM      5  C   UNL d   1       0.711  -0.565   2.462  0.00  0.00     0.037 A 
ATOM      6  C   UNL d   1       0.261  -0.699   1.143  0.00  0.00     0.108 A 
ATOM      7  C   UNL d   1      -0.875  -1.463   0.822  0.00  0.00    -0.028 A 
ATOM      8  C   UNL d   1      -1.589  -2.062   1.883  0.00  0.00     0.027 A 
ATOM      9  C   UNL d   1      -1.379  -1.659  -0.583  0.00  0.00     0.050 C 
BRANCH   6  10
ATOM     10  N   UNL d   1       1.021  -0.000   0.115  0.00  0.00    -0.115 N 
ATOM     11  O   UNL d   1       0.415   0.843  -0.561  0.00  0.00    -0.532 OA
ATOM     12  O   UNL d   1       2.221  -0.283   0.014  0.00  0.00    -0.532 OA
ENDBRANCH   6  10
ENDBRANCH   1   3
BRANCH   1  13
ATOM     13  O   UNL d   1      -2.999  -3.181   4.000  0.00  0.00    -0.310 OA
BRANCH  13  14
ATOM     14  C   UNL d   1      -3.735  -3.807   5.062  0.00  0.00     0.263 C 
BRANCH  14  15
ATOM     15  C   UNL d   1      -5.136  -3.223   5.224  0.00  0.00     0.183 C 
ATOM     16  O   UNL d   1      -5.586  -2.368   4.462  0.00  0.00    -0.290 OA
BRANCH  15  17
ATOM     17  C   UNL d   1      -5.995  -3.727   6.348  0.00  0.00     0.012 A 
ATOM     18  C   UNL d   1      -5.552  -4.692   7.264  0.00  0.00     0.017 A 
ATOM     19  C   UNL d   1      -6.394  -5.124   8.298  0.00  0.00     0.025 A 
ATOM     20  C   UNL d   1      -7.678  -4.599   8.419  0.00  0.00     0.034 A 
ATOM     21  C   UNL d   1      -8.132  -3.642   7.515  0.00  0.00     0.025 A 
ATOM     22 CL   UNL d   1      -8.705  -5.135   9.690  0.00  0.00    -0.084 Cl
ATOM     23  C   UNL d   1      -7.293  -3.207   6.483  0.00  0.00     0.017 A 
ENDBRANCH  15  17
ENDBRANCH  14  15
ENDBRANCH  13  14
ENDBRANCH   1  13
TORSDOF 6
