REMARK  3 active torsions:
REMARK  status: ('A' for Active; 'I' for Inactive)
REMARK    1  A    between atoms: C_3  and  C_1 
REMARK    2  A    between atoms: N_2  and  C_4 
REMARK       I    between atoms: N_5  and  C_3 
REMARK    3  A    between atoms: C_15  and  N_5 
ROOT
ATOM      1  C   UNL d   1      -2.959   0.162   0.139  0.00  0.00     0.231 C 
ATOM      2  N   UNL d   1      -3.631   1.359  -0.033  0.00  0.00    -0.326 N 
ATOM      3  O   UNL d   1      -3.514  -0.914   0.368  0.00  0.00    -0.272 OA
ATOM      4  H   UNL d   1      -3.088   2.171  -0.298  0.00  0.00     0.169 HD
ENDROOT
BRANCH   1   5
ATOM      5  C   UNL d   1      -1.425   0.207   0.003  0.00  0.00     0.042 C 
ATOM      6  C   UNL d   1      -0.770   1.024   1.139  0.00  0.00     0.024 C 
ATOM      7  C   UNL d   1       0.768   0.956   1.024  0.00  0.00    -0.013 C 
ATOM      8  C   UNL d   1       1.231  -0.509   1.109  0.00  0.00     0.009 C 
ATOM      9  C   UNL d   1       1.204   1.535  -0.334  0.00  0.00     0.009 C 
ATOM     10  C   UNL d   1       0.613  -1.323  -0.037  0.00  0.00    -0.013 C 
ATOM     11  C   UNL d   1      -0.909  -1.257   0.088  0.00  0.00     0.024 C 
ATOM     12  C   UNL d   1       1.021  -0.728  -1.391  0.00  0.00     0.009 C 
ATOM     13  C   UNL d   1       0.561   0.736  -1.481  0.00  0.00    -0.013 C 
ATOM     14  C   UNL d   1      -0.974   0.803  -1.352  0.00  0.00     0.024 C 
ENDBRANCH   1   5
BRANCH   2  15
ATOM     15  C   UNL d   1      -5.043   1.492  -0.097  0.00  0.00     0.037 A 
ATOM     16  C   UNL d   1      -5.926   0.481   0.300  0.00  0.00     0.065 A 
ATOM     17  C   UNL d   1      -7.304   0.611   0.078  0.00  0.00     0.105 A 
ATOM     18  C   UNL d   1      -7.821   1.773  -0.503  0.00  0.00     0.036 A 
ATOM     19  C   UNL d   1      -6.952   2.810  -0.841  0.00  0.00     0.005 A 
ATOM     20  C   UNL d   1      -5.572   2.672  -0.634  0.00  0.00     0.029 A 
BRANCH  17  21
ATOM     21  N   UNL d   1      -8.200  -0.496   0.434  0.00  0.00    -0.116 N 
ATOM     22  O   UNL d   1      -7.712  -1.491   0.988  0.00  0.00    -0.532 OA
ATOM     23  O   UNL d   1      -9.402  -0.368   0.157  0.00  0.00    -0.532 OA
ENDBRANCH  17  21
ENDBRANCH   2  15
TORSDOF 3
