REMARK  6 active torsions:
REMARK  status: ('A' for Active; 'I' for Inactive)
REMARK    1  A    between atoms: N_2  and  C_1 
REMARK    2  A    between atoms: N_6  and  N_2 
REMARK    3  A    between atoms: C_3  and  N_6 
REMARK    4  A    between atoms: N_12  and  C_3 
REMARK    5  A    between atoms: C_8  and  C_16 
REMARK    6  A    between atoms: C_16  and  N_12 
ROOT
ATOM      1  N   UNL d   1      -1.215  -3.003  -0.506  0.00  0.00    -0.293 N 
ATOM      2  H   UNL d   1      -1.942  -2.502  -0.001  0.00  0.00     0.183 HD
ENDROOT
BRANCH   1   3
ATOM      3  C   UNL d   1      -1.135  -4.362  -0.286  0.00  0.00     0.182 C 
ATOM      4  S   UNL d   1       0.249  -5.298  -0.281  0.00  0.00    -0.040 SA
BRANCH   3   5
ATOM      5  N   UNL d   1      -2.336  -4.997  -0.121  0.00  0.00    -0.362 N 
ATOM      6  H   UNL d   1      -2.231  -5.996   0.012  0.00  0.00     0.162 HD
BRANCH   5   7
ATOM      7  C   UNL d   1      -3.579  -4.571  -0.739  0.00  0.00     0.168 C 
BRANCH   7   8
ATOM      8  C   UNL d   1      -4.372  -3.735   0.212  0.00  0.00     0.000 A 
ATOM      9  S   UNL d   1      -4.706  -2.093  -0.155  0.00  0.00    -0.105 SA
ATOM     10  C   UNL d   1      -5.647  -1.901   1.258  0.00  0.00     0.050 A 
ATOM     11  C   UNL d   1      -5.697  -3.054   2.007  0.00  0.00     0.008 A 
ATOM     12  C   UNL d   1      -4.956  -4.112   1.405  0.00  0.00     0.017 A 
ENDBRANCH   7   8
ENDBRANCH   5   7
ENDBRANCH   3   5
ENDBRANCH   1   3
BRANCH   1  13
ATOM     13  N   UNL d   1      -0.046  -2.285  -0.827  0.00  0.00    -0.200 NA
ATOM     14  H   UNL d   1       0.112  -2.313  -1.837  0.00  0.00     0.153 HD
BRANCH  13  15
ATOM     15  C   UNL d   1      -0.004  -0.945  -0.343  0.00  0.00     0.073 A 
ATOM     16  C   UNL d   1      -0.139  -0.605   1.014  0.00  0.00     0.073 A 
ATOM     17 CL   UNL d   1      -0.431  -1.764   2.259  0.00  0.00    -0.081 Cl
ATOM     18  C   UNL d   1       0.009   0.728   1.392  0.00  0.00     0.113 A 
ATOM     19  N   UNL d   1       0.271   1.742   0.532  0.00  0.00    -0.372 N 
ATOM     20  C   UNL d   1       0.406   1.401  -0.767  0.00  0.00     0.113 A 
ATOM     21  HN  UNL d   1       0.360   2.708   0.848  1.00  0.00     0.164 HD
ATOM     22  C   UNL d   1       0.287   0.100  -1.242  0.00  0.00     0.073 A 
ATOM     23 CL   UNL d   1       0.485  -0.195  -2.932  0.00  0.00    -0.081 Cl
ENDBRANCH  13  15
ENDBRANCH   1  13
TORSDOF 6
