REMARK  6 active torsions:
REMARK  status: ('A' for Active; 'I' for Inactive)
REMARK       I    between atoms: N_14  and  C_1 
REMARK       I    between atoms: N_15  and  C_1 
REMARK    1  A    between atoms: N_16  and  C_6 
REMARK    2  A    between atoms: N_17  and  C_7 
REMARK    3  A    between atoms: C_8  and  C_23 
REMARK    4  A    between atoms: C_9  and  C_24 
REMARK    5  A    between atoms: N_10  and  N_15 
REMARK    6  A    between atoms: N_12  and  N_14 
ROOT
ATOM      1  C   UNL d   1       0.957  -0.022   0.034  0.00  0.00     0.353 C 
ATOM      2  N   UNL d   1       0.277  -1.122   0.570  0.00  0.00    -0.251 N 
ATOM      3  N   UNL d   1       0.071   0.949  -0.443  0.00  0.00    -0.251 N 
ATOM      4  O   UNL d   1       2.178   0.077  -0.014  0.00  0.00    -0.244 OA
ATOM      5  H   UNL d   1      -0.726  -1.116   0.664  0.00  0.00     0.191 HD
ATOM      6  H   UNL d   1      -0.919   0.761  -0.478  0.00  0.00     0.191 HD
ENDROOT
BRANCH   2   7
ATOM      7  N   UNL d   1       0.996  -2.163   1.091  0.00  0.00    -0.307 N 
ATOM      8  C   UNL d   1       0.328  -3.154   1.594  0.00  0.00     0.120 C 
ATOM      9  HN  UNL d   1       2.016  -2.159   1.085  1.00  0.00     0.186 HD
BRANCH   8  10
ATOM     10  C   UNL d   1       1.029  -4.317   2.198  0.00  0.00     0.003 A 
ATOM     11  C   UNL d   1       0.349  -5.411   2.733  0.00  0.00     0.047 A 
ATOM     12  C   UNL d   1       1.065  -6.474   3.318  0.00  0.00     0.054 A 
ATOM     13 CL   UNL d   1      -1.377  -5.532   2.726  0.00  0.00    -0.083 Cl
ATOM     14  C   UNL d   1       2.469  -6.492   3.387  0.00  0.00     0.031 A 
ATOM     15  C   UNL d   1       3.123  -5.384   2.827  0.00  0.00     0.030 A 
ATOM     16  C   UNL d   1       2.425  -4.315   2.245  0.00  0.00     0.017 A 
BRANCH  14  17
ATOM     17  N   UNL d   1       3.159  -7.527   3.993  0.00  0.00    -0.390 N 
ATOM     18  C   UNL d   1       2.656  -8.898   4.006  0.00  0.00     0.149 C 
ATOM     19  C   UNL d   1       4.508  -7.360   4.531  0.00  0.00     0.149 C 
ENDBRANCH  14  17
ENDBRANCH   8  10
ENDBRANCH   2   7
BRANCH   3  20
ATOM     20  N   UNL d   1       0.560   2.074  -1.054  0.00  0.00    -0.307 N 
ATOM     21  C   UNL d   1      -0.323   2.909  -1.507  0.00  0.00     0.120 C 
ATOM     22  HN  UNL d   1       1.561   2.245  -1.147  1.00  0.00     0.186 HD
BRANCH  21  23
ATOM     23  C   UNL d   1       0.068   4.144  -2.231  0.00  0.00     0.003 A 
ATOM     24  C   UNL d   1      -0.879   5.045  -2.722  0.00  0.00     0.047 A 
ATOM     25  C   UNL d   1      -0.470   6.174  -3.456  0.00  0.00     0.054 A 
ATOM     26 CL   UNL d   1      -2.580   4.840  -2.478  0.00  0.00    -0.083 Cl
ATOM     27  C   UNL d   1       0.881   6.453  -3.721  0.00  0.00     0.031 A 
ATOM     28  C   UNL d   1       1.809   5.544  -3.189  0.00  0.00     0.030 A 
ATOM     29  C   UNL d   1       1.419   4.408  -2.461  0.00  0.00     0.017 A 
BRANCH  27  30
ATOM     30  N   UNL d   1       1.271   7.553  -4.465  0.00  0.00    -0.390 N 
ATOM     31  C   UNL d   1       0.471   8.771  -4.551  0.00  0.00     0.149 C 
ATOM     32  C   UNL d   1       2.522   7.580  -5.220  0.00  0.00     0.149 C 
ENDBRANCH  27  30
ENDBRANCH  21  23
ENDBRANCH   3  20
TORSDOF 6
