REMARK  7 active torsions:
REMARK  status: ('A' for Active; 'I' for Inactive)
REMARK    1  A    between atoms: N_2  and  C_1 
REMARK    2  A    between atoms: N_3  and  C_1 
REMARK    3  A    between atoms: C_4  and  N_2 
REMARK    4  A    between atoms: C_9  and  N_3 
REMARK    5  A    between atoms: C_11  and  N_3 
REMARK    6  A    between atoms: C_14  and  C_9 
REMARK    7  A    between atoms: C_19  and  C_11 
ROOT
ATOM      1  N   UNL d   1       0.401   0.624  -0.992  0.00  0.00    -0.350 N 
ENDROOT
BRANCH   1   2
ATOM      2  C   UNL d   1       0.791  -0.309  -0.035  0.00  0.00     0.175 C 
ATOM      3  S   UNL d   1       1.543  -1.776  -0.369  0.00  0.00    -0.041 SA
BRANCH   2   4
ATOM      4  N   UNL d   1       0.400  -0.116   1.269  0.00  0.00    -0.332 N 
ATOM      5  H   UNL d   1       0.395  -0.969   1.817  0.00  0.00     0.168 HD
BRANCH   4   6
ATOM      6  C   UNL d   1       0.053   1.067   1.966  0.00  0.00     0.046 A 
ATOM      7  C   UNL d   1      -1.001   1.014   2.906  0.00  0.00    -0.035 A 
ATOM      8  C   UNL d   1      -1.414   2.195   3.554  0.00  0.00     0.009 A 
ATOM      9  C   UNL d   1      -1.781  -0.232   3.233  0.00  0.00     0.050 C 
ATOM     10  C   UNL d   1      -0.787   3.408   3.307  0.00  0.00     0.001 A 
ATOM     11  C   UNL d   1       0.301   3.446   2.447  0.00  0.00     0.009 A 
ATOM     12  C   UNL d   1       0.758   2.280   1.805  0.00  0.00    -0.035 A 
ATOM     13  C   UNL d   1       2.063   2.408   1.078  0.00  0.00     0.050 C 
ENDBRANCH   4   6
ENDBRANCH   2   4
ENDBRANCH   1   2
BRANCH   1  14
ATOM     14  C   UNL d   1       1.132   0.832  -2.270  0.00  0.00     0.164 C 
BRANCH  14  15
ATOM     15  C   UNL d   1       2.421   1.628  -2.171  0.00  0.00    -0.037 A 
ATOM     16  C   UNL d   1       3.612   1.031  -1.728  0.00  0.00     0.048 A 
ATOM     17  C   UNL d   1       4.754   1.802  -1.663  0.00  0.00     0.105 A 
ATOM     18  O   UNL d   1       5.972   1.379  -1.233  0.00  0.00    -0.323 OA
ATOM     19  C   UNL d   1       4.761   3.123  -2.036  0.00  0.00     0.105 A 
ATOM     20  C   UNL d   1       6.750   2.582  -1.392  0.00  0.00     0.352 A 
ATOM     21  O   UNL d   1       5.987   3.696  -1.899  0.00  0.00    -0.323 OA
ATOM     22  C   UNL d   1       3.623   3.749  -2.497  0.00  0.00     0.040 A 
ATOM     23  C   UNL d   1       2.445   2.994  -2.558  0.00  0.00     0.012 A 
ENDBRANCH  14  15
ENDBRANCH   1  14
BRANCH   1  24
ATOM     24  C   UNL d   1      -1.026   1.008  -0.982  0.00  0.00     0.164 C 
BRANCH  24  25
ATOM     25  C   UNL d   1      -1.789   0.694  -2.252  0.00  0.00    -0.040 A 
ATOM     26  C   UNL d   1      -1.800  -0.594  -2.817  0.00  0.00     0.009 A 
ATOM     27  C   UNL d   1      -2.471  -0.842  -4.018  0.00  0.00     0.001 A 
ATOM     28  C   UNL d   1      -3.161   0.188  -4.659  0.00  0.00     0.000 A 
ATOM     29  C   UNL d   1      -3.192   1.458  -4.092  0.00  0.00     0.001 A 
ATOM     30  C   UNL d   1      -2.517   1.710  -2.897  0.00  0.00     0.009 A 
ENDBRANCH  24  25
ENDBRANCH   1  24
TORSDOF 7
