REMARK  2 active torsions:
REMARK  status: ('A' for Active; 'I' for Inactive)
REMARK       I    between atoms: N_3  and  C_1 
REMARK    1  A    between atoms: C_5  and  C_1 
REMARK    2  A    between atoms: C_2  and  N_4 
ROOT
ATOM      1  C   UNL d   1       0.744   0.052  -0.126  0.00  0.00     0.260 C 
ATOM      2  N   UNL d   1      -0.050   0.544  -1.172  0.00  0.00    -0.344 N 
ATOM      3  N   UNL d   1      -0.178   2.705  -3.051  0.00  0.00    -0.214 N 
ATOM      4  C   UNL d   1       0.404   0.347  -2.560  0.00  0.00     0.146 C 
ATOM      5  C   UNL d   1      -1.091   1.581  -1.037  0.00  0.00     0.146 C 
ATOM      6  C   UNL d   1       0.858   1.673  -3.206  0.00  0.00     0.161 C 
ATOM      7  C   UNL d   1      -0.648   2.911  -1.679  0.00  0.00     0.161 C 
ATOM      8  O   UNL d   1       1.821  -0.495  -0.377  0.00  0.00    -0.267 OA
ENDROOT
BRANCH   3   9
ATOM      9  C   UNL d   1      -1.056   2.928  -4.096  0.00  0.00     0.679 A 
ATOM     10  N   UNL d   1      -2.221   3.553  -3.847  0.00  0.00    -0.202 N 
ATOM     11  C   UNL d   1      -3.001   3.876  -4.897  0.00  0.00     0.107 A 
ATOM     12  HN  UNL d   1      -2.505   3.775  -2.893  1.00  0.00     0.183 HD
ATOM     13  C   UNL d   1      -2.676   3.599  -6.198  0.00  0.00     0.035 A 
ATOM     14  C   UNL d   1      -1.489   2.936  -6.362  0.00  0.00     0.107 A 
ATOM     15  N   UNL d   1      -0.682   2.586  -5.339  0.00  0.00    -0.202 N 
ATOM     16  HN  UNL d   1       0.186   2.078  -5.505  1.00  0.00     0.183 HD
ENDBRANCH   3   9
BRANCH   1  17
ATOM     17  C   UNL d   1       0.249   0.174   1.242  0.00  0.00     0.072 A 
ATOM     18  S   UNL d   1       1.375   0.501   2.500  0.00  0.00    -0.097 SA
ATOM     19  C   UNL d   1       0.153   0.508   3.694  0.00  0.00     0.050 A 
ATOM     20  C   UNL d   1      -1.087   0.234   3.164  0.00  0.00     0.009 A 
ATOM     21  C   UNL d   1      -1.025   0.007   1.756  0.00  0.00     0.025 A 
ENDBRANCH   1  17
TORSDOF 2
