REMARK  3 active torsions:
REMARK  status: ('A' for Active; 'I' for Inactive)
REMARK    1  A    between atoms: C_9  and  N_1 
REMARK    2  A    between atoms: C_3  and  C_7 
REMARK    3  A    between atoms: C_17  and  C_9 
ROOT
ATOM      1  N   UNL d   1       0.851   1.269  -0.093  0.00  0.00    -0.312 N 
ATOM      2  C   UNL d   1      -0.491   0.759  -0.034  0.00  0.00     0.055 A 
ATOM      3  C   UNL d   1       1.973   0.502   0.242  0.00  0.00     0.234 C 
ATOM      4  C   UNL d   1      -1.595   1.630  -0.016  0.00  0.00     0.047 A 
ATOM      5  S   UNL d   1       0.568  -1.826  -0.049  0.00  0.00    -0.118 SA
ATOM      6  C   UNL d   1      -2.916   1.149   0.028  0.00  0.00     0.050 A 
ATOM      7  C   UNL d   1      -0.745  -0.627  -0.016  0.00  0.00     0.028 A 
ATOM      8  C   UNL d   1       1.746  -0.845   0.887  0.00  0.00     0.182 C 
ATOM      9  O   UNL d   1       3.125   0.935   0.133  0.00  0.00    -0.272 OA
ATOM     10  C   UNL d   1      -3.137  -0.232   0.020  0.00  0.00     0.017 A 
ATOM     11  C   UNL d   1      -2.059  -1.112  -0.009  0.00  0.00     0.021 A 
ENDROOT
BRANCH   1  12
ATOM     12  C   UNL d   1       1.103   2.592  -0.678  0.00  0.00     0.170 C 
BRANCH  12  13
ATOM     13  C   UNL d   1       1.096   3.762   0.287  0.00  0.00    -0.040 A 
ATOM     14  C   UNL d   1       1.510   3.644   1.623  0.00  0.00     0.012 A 
ATOM     15  C   UNL d   1       1.577   4.769   2.448  0.00  0.00     0.043 A 
ATOM     16  C   UNL d   1       1.244   6.018   1.940  0.00  0.00     0.116 A 
ATOM     17  C   UNL d   1       0.836   6.163   0.621  0.00  0.00     0.043 A 
ATOM     18  F   UNL d   1       1.331   7.098   2.727  0.00  0.00    -0.206 F 
ATOM     19  C   UNL d   1       0.765   5.040  -0.204  0.00  0.00     0.012 A 
ENDBRANCH  12  13
ENDBRANCH   1  12
BRANCH   6  20
ATOM     20  C   UNL d   1      -4.092   2.095   0.102  0.00  0.00     0.417 C 
ATOM     21  F   UNL d   1      -3.735   3.409   0.088  0.00  0.00    -0.166 F 
ATOM     22  F   UNL d   1      -4.957   1.932  -0.936  0.00  0.00    -0.166 F 
ATOM     23  F   UNL d   1      -4.827   1.918   1.234  0.00  0.00    -0.166 F 
ENDBRANCH   6  20
TORSDOF 3
