REMARK  3 active torsions:
REMARK  status: ('A' for Active; 'I' for Inactive)
REMARK    1  A    between atoms: C_2  and  C_1 
REMARK    2  A    between atoms: O_8  and  C_1 
REMARK    3  A    between atoms: C_9  and  C_7 
ROOT
ATOM      1  C   UNL d   1      -1.233   0.010  -0.117  0.00  0.00     0.233 C 
ATOM      2  N   UNL d   1      -0.255   1.042   0.260  0.00  0.00    -0.198 NA
ATOM      3  N   UNL d   1       1.028   0.636   0.086  0.00  0.00    -0.322 N 
ATOM      4  HN  UNL d   1       1.858   1.227   0.037  1.00  0.00     0.180 HD
ATOM      5  C   UNL d   1      -0.397  -1.246   0.109  0.00  0.00     0.124 C 
ATOM      6  C   UNL d   1       0.985  -0.660  -0.007  0.00  0.00     0.035 C 
ATOM      7  H   UNL d   1      -0.439   1.936  -0.192  0.00  0.00     0.150 HD
ENDROOT
BRANCH   6   8
ATOM      8  C   UNL d   1       2.183  -1.510  -0.192  0.00  0.00    -0.010 A 
ATOM      9  C   UNL d   1       2.087  -2.897  -0.290  0.00  0.00     0.030 A 
ATOM     10  C   UNL d   1       3.249  -3.619  -0.474  0.00  0.00     0.088 A 
ATOM     11  N   UNL d   1       4.473  -3.060  -0.559  0.00  0.00    -0.375 N 
ATOM     12  C   UNL d   1       4.541  -1.713  -0.455  0.00  0.00     0.088 A 
ATOM     13  HN  UNL d   1       5.310  -3.627  -0.697  1.00  0.00     0.164 HD
ATOM     14  C   UNL d   1       3.436  -0.905  -0.276  0.00  0.00     0.030 A 
ENDBRANCH   6   8
BRANCH   1  15
ATOM     15  C   UNL d   1      -2.550  -0.011   0.722  0.00  0.00     0.434 C 
ATOM     16  F   UNL d   1      -2.486   0.763   1.829  0.00  0.00    -0.166 F 
ATOM     17  F   UNL d   1      -3.580   0.470  -0.028  0.00  0.00    -0.166 F 
ATOM     18  F   UNL d   1      -2.896  -1.259   1.114  0.00  0.00    -0.166 F 
ENDBRANCH   1  15
BRANCH   1  19
ATOM     19  O   UNL d   1      -1.495   0.112  -1.527  0.00  0.00    -0.366 OA
ATOM     20  H   UNL d   1      -2.184   0.793  -1.633  0.00  0.00     0.212 HD
ENDBRANCH   1  19
TORSDOF 3
