REMARK  3 active torsions:
REMARK  status: ('A' for Active; 'I' for Inactive)
REMARK    1  A    between atoms: C_6  and  C_1 
REMARK    2  A    between atoms: C_7  and  C_8 
REMARK       I    between atoms: N_9  and  C_7 
REMARK    3  A    between atoms: C_11  and  N_9 
ROOT
ATOM      1  C   UNL d   1       3.483   0.488   0.458  0.00  0.00     0.025 C 
ATOM      2  C   UNL d   1       4.304   1.413  -0.070  0.00  0.00     0.075 C 
ENDROOT
BRANCH   2   3
ATOM      3  C   UNL d   1       5.774   1.291   0.152  0.00  0.00     0.245 C 
ATOM      4  N   UNL d   1       6.492   2.316  -0.438  0.00  0.00    -0.324 N 
ATOM      5  H   UNL d   1       5.975   3.107  -0.800  0.00  0.00     0.169 HD
ATOM      6  O   UNL d   1       6.231   0.356   0.793  0.00  0.00    -0.268 OA
BRANCH   4   7
ATOM      7  C   UNL d   1       7.896   2.368  -0.600  0.00  0.00     0.035 A 
ATOM      8  C   UNL d   1       8.738   1.277  -0.349  0.00  0.00     0.032 A 
ATOM      9  C   UNL d   1      10.112   1.366  -0.592  0.00  0.00     0.044 A 
ATOM     10  C   UNL d   1      10.649   2.548  -1.077  0.00  0.00     0.116 A 
ATOM     11  C   UNL d   1       9.837   3.648  -1.321  0.00  0.00     0.044 A 
ATOM     12  F   UNL d   1      11.963   2.627  -1.322  0.00  0.00    -0.206 F 
ATOM     13  C   UNL d   1       8.459   3.557  -1.088  0.00  0.00     0.032 A 
ENDBRANCH   4   7
ENDBRANCH   2   3
BRANCH   1  14
ATOM     14  C   UNL d   1       2.075   0.438   0.201  0.00  0.00     0.012 A 
ATOM     15  S   UNL d   1       1.450   0.928  -1.327  0.00  0.00    -0.089 SA
ATOM     16  C   UNL d   1      -0.157   0.503  -0.934  0.00  0.00     0.016 A 
ATOM     17  C   UNL d   1      -1.286   0.621  -1.769  0.00  0.00     0.019 A 
ATOM     18  C   UNL d   1      -0.246  -0.004   0.360  0.00  0.00    -0.012 A 
ATOM     19  C   UNL d   1      -2.532   0.221  -1.285  0.00  0.00     0.001 A 
ATOM     20  C   UNL d   1      -2.656  -0.279   0.002  0.00  0.00     0.001 A 
ATOM     21  C   UNL d   1      -1.531  -0.394   0.825  0.00  0.00     0.013 A 
ATOM     22  C   UNL d   1       1.052  -0.051   1.012  0.00  0.00    -0.033 A 
ATOM     23  C   UNL d   1       1.216  -0.583   2.407  0.00  0.00     0.050 C 
ENDBRANCH   1  14
TORSDOF 3
