REMARK  5 active torsions:
REMARK  status: ('A' for Active; 'I' for Inactive)
REMARK    1  A    between atoms: C_5  and  S_1 
REMARK    2  A    between atoms: N_12  and  S_1 
REMARK    3  A    between atoms: N_3  and  C_2 
REMARK    4  A    between atoms: S_7  and  C_6 
REMARK    5  A    between atoms: C_15  and  S_7 
ROOT
ATOM      1  C   UNL d   1      -0.685  -1.019  -3.498  0.00  0.00     0.121 A 
ATOM      2  C   UNL d   1      -0.342  -0.317  -2.332  0.00  0.00     0.062 A 
ATOM      3  C   UNL d   1       0.389  -0.974  -1.342  0.00  0.00     0.076 A 
ATOM      4  C   UNL d   1      -0.279  -2.344  -3.718  0.00  0.00     0.038 A 
ATOM      5  C   UNL d   1       0.421  -2.986  -2.681  0.00  0.00     0.023 A 
ATOM      6  C   UNL d   1       0.762  -2.309  -1.504  0.00  0.00     0.026 A 
ENDROOT
BRANCH   4   7
ATOM      7  S   UNL d   1      -0.616  -3.299  -5.192  0.00  0.00    -0.088 SA
BRANCH   7   8
ATOM      8  C   UNL d   1       0.830  -2.949  -6.190  0.00  0.00     0.005 A 
ATOM      9  C   UNL d   1       2.127  -3.234  -5.744  0.00  0.00     0.020 A 
ATOM     10  C   UNL d   1       3.236  -2.943  -6.547  0.00  0.00     0.025 A 
ATOM     11  C   UNL d   1       3.051  -2.381  -7.807  0.00  0.00     0.034 A 
ATOM     12  C   UNL d   1       1.766  -2.124  -8.278  0.00  0.00     0.025 A 
ATOM     13 CL   UNL d   1       4.415  -2.005  -8.785  0.00  0.00    -0.084 Cl
ATOM     14  C   UNL d   1       0.659  -2.410  -7.471  0.00  0.00     0.020 A 
ENDBRANCH   7   8
ENDBRANCH   4   7
BRANCH   1  15
ATOM     15  N   UNL d   1      -1.557  -0.336  -4.433  0.00  0.00    -0.114 N 
ATOM     16  O   UNL d   1      -2.680  -0.024  -4.016  0.00  0.00    -0.532 OA
ATOM     17  O   UNL d   1      -1.099  -0.065  -5.550  0.00  0.00    -0.532 OA
ENDBRANCH   1  15
BRANCH   3  18
ATOM     18  S   UNL d   1       0.875  -0.083   0.105  0.00  0.00     0.239 S 
ATOM     19  O   UNL d   1       0.905   1.324  -0.206  0.00  0.00    -0.206 OA
ATOM     20  O   UNL d   1       1.984  -0.768   0.729  0.00  0.00    -0.206 OA
BRANCH  18  21
ATOM     21  N   UNL d   1      -0.450  -0.317   1.107  0.00  0.00    -0.225 NA
ATOM     22  H   UNL d   1      -0.959   0.558   1.231  0.00  0.00     0.136 HD
ATOM     23  H   UNL d   1      -0.146  -0.739   1.986  0.00  0.00     0.136 HD
ENDBRANCH  18  21
ENDBRANCH   3  18
TORSDOF 5
