REMARK  9 active torsions:
REMARK  status: ('A' for Active; 'I' for Inactive)
REMARK    1  A    between atoms: O_8  and  C_1 
REMARK    2  A    between atoms: C_4  and  C_12 
REMARK    3  A    between atoms: C_5  and  C_4 
REMARK    4  A    between atoms: N_6  and  C_4 
REMARK    5  A    between atoms: O_18  and  C_5 
REMARK       I    between atoms: C_9  and  N_6 
REMARK    6  A    between atoms: C_12  and  C_7 
REMARK    7  A    between atoms: C_15  and  O_8 
REMARK    8  A    between atoms: C_26  and  O_18 
REMARK    9  A    between atoms: O_24  and  C_19 
ROOT
ATOM      1  C   UNL d   1      -0.231   0.091   0.280  0.00  0.00     0.109 A 
ATOM      2  C   UNL d   1      -1.380  -0.715   0.334  0.00  0.00     0.042 A 
ATOM      3  C   UNL d   1       1.013  -0.557   0.130  0.00  0.00     0.042 A 
ATOM      4  C   UNL d   1      -0.025  -2.752   0.181  0.00  0.00    -0.053 A 
ATOM      5  C   UNL d   1       1.114  -1.956   0.059  0.00  0.00     0.028 A 
ATOM      6  C   UNL d   1      -1.263  -2.119   0.342  0.00  0.00     0.028 A 
ATOM      7  I   UNL d   1      -3.380  -0.042   0.161  0.00  0.00    -0.042 I 
ATOM      8  I   UNL d   1       2.812   0.525  -0.102  0.00  0.00    -0.042 I 
ENDROOT
BRANCH   4   9
ATOM      9  C   UNL d   1       0.028  -4.254  -0.007  0.00  0.00     0.074 C 
BRANCH   9  10
ATOM     10  C   UNL d   1       1.066  -5.018   0.828  0.00  0.00     0.188 C 
BRANCH  10  11
ATOM     11  C   UNL d   1       0.730  -4.916   2.314  0.00  0.00     0.282 C 
ATOM     12  O   UNL d   1      -0.004  -5.698   2.900  0.00  0.00    -0.263 OA
BRANCH  11  13
ATOM     13  O   UNL d   1       1.354  -3.840   2.873  0.00  0.00    -0.320 OA
BRANCH  13  14
ATOM     14  C   UNL d   1       1.127  -3.642   4.272  0.00  0.00     0.174 C 
ATOM     15  C   UNL d   1      -0.139  -2.834   4.489  0.00  0.00     0.034 C 
ENDBRANCH  13  14
ENDBRANCH  11  13
ENDBRANCH  10  11
BRANCH  10  16
ATOM     16  N   UNL d   1       1.072  -6.441   0.470  0.00  0.00    -0.347 N 
ATOM     17  C   UNL d   1       1.759  -6.909  -0.620  0.00  0.00     0.214 C 
ATOM     18  O   UNL d   1       2.436  -6.183  -1.343  0.00  0.00    -0.274 OA
ATOM     19  C   UNL d   1       1.642  -8.391  -0.852  0.00  0.00     0.117 C 
ATOM     20  H   UNL d   1       0.489  -7.064   1.021  0.00  0.00     0.163 HD
ENDBRANCH  10  16
ENDBRANCH   9  10
ENDBRANCH   4   9
BRANCH   1  21
ATOM     21  O   UNL d   1      -0.185   1.464   0.178  0.00  0.00    -0.308 OA
BRANCH  21  22
ATOM     22  C   UNL d   1      -0.975   2.291   0.932  0.00  0.00     0.076 C 
ATOM     23  C   UNL d   1      -1.455   2.017   2.211  0.00  0.00     0.040 C 
ATOM     24  C   UNL d   1      -2.393   2.878   2.799  0.00  0.00     0.039 C 
ATOM     25  C   UNL d   1      -2.797   4.041   2.137  0.00  0.00     0.068 C 
ATOM     26  C   UNL d   1      -2.202   4.377   0.922  0.00  0.00     0.039 C 
ATOM     27  C   UNL d   1      -1.294   3.506   0.321  0.00  0.00     0.040 C 
BRANCH  25  28
ATOM     28  O   UNL d   1      -3.747   4.923   2.572  0.00  0.00    -0.356 OA
ATOM     29  C   UNL d   1      -4.627   4.452   3.586  0.00  0.00     0.210 C 
ENDBRANCH  25  28
ENDBRANCH  21  22
ENDBRANCH   1  21
TORSDOF 9
