REMARK  2 active torsions:
REMARK  status: ('A' for Active; 'I' for Inactive)
REMARK       I    between atoms: C_5  and  N_1 
REMARK    1  A    between atoms: C_7  and  C_2 
REMARK    2  A    between atoms: C_13  and  C_5 
ROOT
ATOM      1  N   UNL d   1       1.063  -0.557  -0.095  0.00  0.00    -0.223 N 
ATOM      2  C   UNL d   1       0.919   0.833  -0.027  0.00  0.00     0.064 A 
ATOM      3  N   UNL d   1      -0.157  -1.169  -0.235  0.00  0.00    -0.301 N 
ATOM      4  HN  UNL d   1      -0.340  -2.162  -0.375  1.00  0.00     0.186 HD
ATOM      5  C   UNL d   1       2.197  -1.401  -0.039  0.00  0.00     0.276 C 
ATOM      6  C   UNL d   1      -0.448   1.069  -0.043  0.00  0.00     0.086 A 
ATOM      7  C   UNL d   1      -1.049  -0.185  -0.149  0.00  0.00     0.132 A 
ATOM      8  C   UNL d   1      -1.126   2.322   0.006  0.00  0.00     0.103 C 
ATOM      9  N   UNL d   1      -1.679   3.340   0.037  0.00  0.00    -0.191 NA
ATOM     10  O   UNL d   1       3.203  -0.997   0.541  0.00  0.00    -0.265 OA
ENDROOT
BRANCH   2  11
ATOM     11  C   UNL d   1       1.925   1.992  -0.030  0.00  0.00     0.039 A 
ATOM     12  C   UNL d   1       3.289   1.858  -0.662  0.00  0.00     0.011 A 
ATOM     13  C   UNL d   1       3.165   1.967   0.822  0.00  0.00     0.011 A 
ENDBRANCH   2  11
BRANCH   5  14
ATOM     14  C   UNL d   1       2.263  -2.757  -0.661  0.00  0.00     0.034 A 
ATOM     15  C   UNL d   1       1.598  -3.030  -1.865  0.00  0.00     0.019 A 
ATOM     16  C   UNL d   1       1.836  -4.228  -2.544  0.00  0.00     0.025 A 
ATOM     17  C   UNL d   1       2.736  -5.156  -2.023  0.00  0.00     0.034 A 
ATOM     18  C   UNL d   1       3.369  -4.916  -0.805  0.00  0.00     0.025 A 
ATOM     19 CL   UNL d   1       3.098  -6.583  -2.912  0.00  0.00    -0.084 Cl
ATOM     20  C   UNL d   1       3.136  -3.716  -0.124  0.00  0.00     0.019 A 
ENDBRANCH   5  14
TORSDOF 2
