REMARK  4 active torsions:
REMARK  status: ('A' for Active; 'I' for Inactive)
REMARK    1  A    between atoms: S_8  and  C_1 
REMARK    2  A    between atoms: C_3  and  S_8 
REMARK    3  A    between atoms: C_16  and  C_6 
REMARK    4  A    between atoms: C_18  and  C_7 
ROOT
ATOM      1  S   UNL d   1      -1.618   2.785   0.264  0.00  0.00    -0.034 SA
ENDROOT
BRANCH   1   2
ATOM      2  C   UNL d   1      -3.269   2.338   0.073  0.00  0.00     0.167 A 
ATOM      3  N   UNL d   1      -3.772   1.128   0.424  0.00  0.00    -0.320 N 
ATOM      4  C   UNL d   1      -5.127   1.192   0.252  0.00  0.00     0.132 A 
ATOM      5  H   UNL d   1      -3.225   0.337   0.729  0.00  0.00     0.169 HD
ATOM      6  N   UNL d   1      -5.419   2.391  -0.221  0.00  0.00    -0.283 N 
ATOM      7  N   UNL d   1      -4.249   3.120  -0.310  0.00  0.00    -0.278 N 
ATOM      8  HN  UNL d   1      -6.350   2.722  -0.476  1.00  0.00     0.188 HD
ATOM      9  HN  UNL d   1      -4.164   4.089  -0.618  1.00  0.00     0.189 HD
BRANCH   4  10
ATOM     10  C   UNL d   1      -6.047   0.092   0.527  0.00  0.00     0.009 A 
ATOM     11  C   UNL d   1      -5.718  -0.936   1.425  0.00  0.00     0.015 A 
ATOM     12  C   UNL d   1      -6.609  -1.987   1.662  0.00  0.00     0.001 A 
ATOM     13  C   UNL d   1      -7.837  -2.021   1.006  0.00  0.00     0.000 A 
ATOM     14  C   UNL d   1      -8.181  -1.002   0.121  0.00  0.00     0.001 A 
ATOM     15  C   UNL d   1      -7.292   0.052  -0.112  0.00  0.00     0.015 A 
ENDBRANCH   4  10
ENDBRANCH   1   2
BRANCH   1  16
ATOM     16  C   UNL d   1      -0.689   1.259   0.065  0.00  0.00     0.086 A 
ATOM     17  N   UNL d   1      -1.309   0.113   0.437  0.00  0.00    -0.332 N 
ATOM     18  C   UNL d   1      -0.604  -1.042   0.368  0.00  0.00     0.191 A 
ATOM     19  HN  UNL d   1      -2.277   0.119   0.758  1.00  0.00     0.168 HD
ATOM     20  N   UNL d   1       0.684  -1.095  -0.025  0.00  0.00    -0.342 N 
ATOM     21  C   UNL d   1       1.289   0.058  -0.377  0.00  0.00     0.015 A 
ATOM     22  HN  UNL d   1       1.187  -1.981  -0.054  1.00  0.00     0.167 HD
ATOM     23  C   UNL d   1       0.635   1.288  -0.366  0.00  0.00    -0.006 A 
ATOM     24  C   UNL d   1       2.736  -0.071  -0.766  0.00  0.00     0.069 C 
ATOM     25  C   UNL d   1       1.373   2.531  -0.776  0.00  0.00     0.053 C 
BRANCH  18  26
ATOM     26  C   UNL d   1      -1.296  -2.355   0.759  0.00  0.00     0.449 C 
ATOM     27  F   UNL d   1      -2.591  -2.167   1.167  0.00  0.00    -0.163 F 
ATOM     28  F   UNL d   1      -1.367  -3.255  -0.265  0.00  0.00    -0.163 F 
ATOM     29  F   UNL d   1      -0.684  -3.006   1.791  0.00  0.00    -0.163 F 
ENDBRANCH  18  26
ENDBRANCH   1  16
TORSDOF 4
