REMARK  4 active torsions:
REMARK  status: ('A' for Active; 'I' for Inactive)
REMARK    1  A    between atoms: C_6  and  C_1 
REMARK    2  A    between atoms: C_11  and  C_6 
REMARK    3  A    between atoms: O_15  and  C_9 
REMARK    4  A    between atoms: O_20  and  C_16 
ROOT
ATOM      1  C   UNL d   1       3.024  -0.465   0.027  0.00  0.00     0.050 A 
ATOM      2  C   UNL d   1       1.653  -0.868   0.037  0.00  0.00     0.017 A 
ATOM      3  C   UNL d   1       0.898   0.299   0.023  0.00  0.00     0.097 A 
ATOM      4  C   UNL d   1       3.004   0.915   0.036  0.00  0.00     0.159 A 
ATOM      5  O   UNL d   1       1.729   1.383   0.021  0.00  0.00    -0.320 OA
ATOM      6  C   UNL d   1       0.986  -2.107   0.041  0.00  0.00     0.052 A 
ATOM      7  C   UNL d   1      -0.513   0.316   0.015  0.00  0.00     0.012 A 
ATOM      8  C   UNL d   1      -0.413  -2.121   0.027  0.00  0.00     0.077 A 
ATOM      9  C   UNL d   1      -1.175  -0.936   0.016  0.00  0.00     0.010 A 
ATOM     10  C   UNL d   1      -1.236   1.524   0.005  0.00  0.00     0.015 A 
ATOM     11  C   UNL d   1      -2.582  -0.930   0.005  0.00  0.00     0.015 A 
ATOM     12  C   UNL d   1      -2.631   1.492  -0.003  0.00  0.00     0.001 A 
ATOM     13  C   UNL d   1      -3.301   0.269  -0.004  0.00  0.00     0.001 A 
ENDROOT
BRANCH   1  14
ATOM     14  C   UNL d   1       4.178  -1.347   0.055  0.00  0.00     0.195 C 
ATOM     15  O   UNL d   1       4.124  -2.443   0.612  0.00  0.00    -0.287 OA
BRANCH  14  16
ATOM     16  C   UNL d   1       5.444  -0.975  -0.631  0.00  0.00     0.015 A 
ATOM     17  C   UNL d   1       5.475  -0.156  -1.764  0.00  0.00     0.018 A 
ATOM     18  C   UNL d   1       6.690   0.084  -2.415  0.00  0.00     0.037 A 
ATOM     19  C   UNL d   1       7.876  -0.499  -1.959  0.00  0.00     0.068 A 
ATOM     20  C   UNL d   1       7.845  -1.316  -0.830  0.00  0.00     0.037 A 
ATOM     21  C   UNL d   1       6.634  -1.556  -0.173  0.00  0.00     0.018 A 
BRANCH  19  22
ATOM     22  O   UNL d   1       8.981  -0.208  -2.709  0.00  0.00    -0.356 OA
ATOM     23  C   UNL d   1      10.198  -0.839  -2.329  0.00  0.00     0.210 C 
ENDBRANCH  19  22
ENDBRANCH  14  16
ENDBRANCH   1  14
BRANCH   8  24
ATOM     24  O   UNL d   1      -1.061  -3.332   0.021  0.00  0.00    -0.360 OA
ATOM     25  H   UNL d   1      -0.398  -4.042   0.045  0.00  0.00     0.217 HD
ENDBRANCH   8  24
TORSDOF 4
