REMARK  3 active torsions:
REMARK  status: ('A' for Active; 'I' for Inactive)
REMARK    1  A    between atoms: C_6  and  N_1 
REMARK    2  A    between atoms: C_15  and  C_6 
REMARK    3  A    between atoms: C_18  and  C_15 
ROOT
ATOM      1  N   UNL d   1       0.064  -1.576   0.085  0.00  0.00    -0.345 N 
ATOM      2  C   UNL d   1      -0.699   0.530   0.061  0.00  0.00     0.005 A 
ATOM      3  C   UNL d   1       0.728   0.562   0.060  0.00  0.00     0.005 A 
ATOM      4  C   UNL d   1      -1.093  -0.810   0.062  0.00  0.00     0.046 A 
ATOM      5  C   UNL d   1       1.185  -0.758   0.056  0.00  0.00     0.046 A 
ATOM      6  C   UNL d   1      -2.452  -1.173   0.029  0.00  0.00     0.032 A 
ATOM      7  C   UNL d   1       2.557  -1.058   0.017  0.00  0.00     0.032 A 
ATOM      8  C   UNL d   1       1.666   1.617   0.040  0.00  0.00     0.038 A 
ATOM      9  C   UNL d   1      -1.687   1.538   0.041  0.00  0.00     0.038 A 
ATOM     10  C   UNL d   1      -3.034   1.178   0.018  0.00  0.00     0.035 A 
ATOM     11  C   UNL d   1       3.028   1.319   0.019  0.00  0.00     0.035 A 
ATOM     12  C   UNL d   1       3.471   0.003   0.008  0.00  0.00     0.026 A 
ATOM     13  C   UNL d   1      -3.415  -0.158   0.011  0.00  0.00     0.026 A 
ATOM     14 CL   UNL d   1      -4.241   2.406  -0.011  0.00  0.00    -0.084 Cl
ATOM     15 CL   UNL d   1       4.176   2.603  -0.004  0.00  0.00    -0.084 Cl
ENDROOT
BRANCH   1  16
ATOM     16  C   UNL d   1       0.089  -3.030   0.016  0.00  0.00     0.130 C 
BRANCH  16  17
ATOM     17  C   UNL d   1       0.723  -3.765   1.203  0.00  0.00     0.024 C 
BRANCH  17  18
ATOM     18  C   UNL d   1       0.137  -3.473   2.596  0.00  0.00    -0.021 C 
ATOM     19  C   UNL d   1      -1.342  -3.839   2.710  0.00  0.00     0.009 C 
ATOM     20  C   UNL d   1       0.933  -4.256   3.647  0.00  0.00     0.009 C 
ENDBRANCH  17  18
ENDBRANCH  16  17
ENDBRANCH   1  16
TORSDOF 3
