REMARK  6 active torsions:
REMARK  status: ('A' for Active; 'I' for Inactive)
REMARK    1  A    between atoms: N_10  and  C_2 
REMARK    2  A    between atoms: C_8  and  C_6 
REMARK    3  A    between atoms: O_26  and  C_7 
REMARK       I    between atoms: C_9  and  N_10 
REMARK       I    between atoms: N_13  and  C_9 
REMARK    4  A    between atoms: C_12  and  O_15 
REMARK    5  A    between atoms: C_25  and  N_13 
REMARK    6  A    between atoms: O_15  and  C_27 
ROOT
ATOM      1  C   UNL d   1      -0.186  -1.021  -0.178  0.00  0.00     0.046 A 
ATOM      2  C   UNL d   1       1.200  -1.336  -0.393  0.00  0.00     0.038 C 
ATOM      3  N   UNL d   1      -1.830   0.769  -0.092  0.00  0.00    -0.352 N 
ATOM      4  HN  UNL d   1      -2.033   1.768  -0.136  1.00  0.00     0.166 HD
ATOM      5  C   UNL d   1      -0.581   0.329  -0.297  0.00  0.00     0.047 A 
ATOM      6  C   UNL d   1      -2.823  -0.116   0.174  0.00  0.00     0.119 A 
ATOM      7  C   UNL d   1      -1.259  -1.928   0.049  0.00  0.00     0.084 A 
ATOM      8  C   UNL d   1      -2.572  -1.482   0.236  0.00  0.00     0.072 A 
ATOM      9  C   UNL d   1       2.082  -0.381  -0.941  0.00  0.00    -0.039 C 
ATOM     10  C   UNL d   1       0.331   1.269  -0.726  0.00  0.00     0.031 C 
ATOM     11  C   UNL d   1       1.624   0.927  -1.103  0.00  0.00     0.011 C 
ATOM     12  C   UNL d   1       3.478  -0.699  -1.400  0.00  0.00     0.050 C 
ENDROOT
BRANCH   2  13
ATOM     13  N   UNL d   1       1.761  -2.582   0.021  0.00  0.00    -0.209 NA
ATOM     14  C   UNL d   1       1.952  -2.801   1.396  0.00  0.00     0.303 C 
ATOM     15  N   UNL d   1       2.833  -3.858   1.592  0.00  0.00    -0.313 N 
ATOM     16  O   UNL d   1       1.435  -2.134   2.280  0.00  0.00    -0.253 OA
ATOM     17  H   UNL d   1       3.105  -4.364   0.762  0.00  0.00     0.170 HD
ATOM     18  H   UNL d   1       2.578  -2.855  -0.503  0.00  0.00     0.138 HD
BRANCH  15  19
ATOM     19  C   UNL d   1       3.382  -4.330   2.805  0.00  0.00     0.036 A 
ATOM     20  C   UNL d   1       3.057  -3.837   4.069  0.00  0.00     0.032 A 
ATOM     21  C   UNL d   1       3.657  -4.368   5.228  0.00  0.00     0.039 A 
ATOM     22  C   UNL d   1       4.596  -5.392   5.133  0.00  0.00     0.078 A 
ATOM     23  C   UNL d   1       4.929  -5.880   3.868  0.00  0.00     0.039 A 
ATOM     24  C   UNL d   1       4.327  -5.358   2.717  0.00  0.00     0.032 A 
BRANCH  22  25
ATOM     25  O   UNL d   1       5.254  -6.003   6.161  0.00  0.00    -0.255 OA
BRANCH  25  26
ATOM     26  C   UNL d   1       5.008  -5.547   7.479  0.00  0.00     0.530 C 
ATOM     27  F   UNL d   1       3.707  -5.692   7.813  0.00  0.00    -0.144 F 
ATOM     28  F   UNL d   1       5.743  -6.291   8.337  0.00  0.00    -0.144 F 
ATOM     29  F   UNL d   1       5.373  -4.257   7.625  0.00  0.00    -0.144 F 
ENDBRANCH  25  26
ENDBRANCH  22  25
ENDBRANCH  15  19
ENDBRANCH   2  13
BRANCH   7  30
ATOM     30  O   UNL d   1      -1.110  -3.261  -0.268  0.00  0.00    -0.355 OA
ATOM     31  C   UNL d   1      -0.898  -4.098   0.862  0.00  0.00     0.210 C 
ENDBRANCH   7  30
BRANCH   6  32
ATOM     32  C   UNL d   1      -4.252   0.401   0.275  0.00  0.00     0.432 C 
ATOM     33  F   UNL d   1      -4.364   1.759   0.195  0.00  0.00    -0.165 F 
ATOM     34  F   UNL d   1      -5.054  -0.089  -0.716  0.00  0.00    -0.165 F 
ATOM     35  F   UNL d   1      -4.863   0.051   1.444  0.00  0.00    -0.165 F 
ENDBRANCH   6  32
TORSDOF 6
