REMARK  7 active torsions:
REMARK  status: ('A' for Active; 'I' for Inactive)
REMARK    1  A    between atoms: C_8  and  N_1 
REMARK    2  A    between atoms: C_6  and  C_4 
REMARK    3  A    between atoms: O_13  and  C_5 
REMARK    4  A    between atoms: O_14  and  C_9 
REMARK    5  A    between atoms: S_11  and  C_10 
REMARK    6  A    between atoms: C_17  and  S_11 
REMARK    7  A    between atoms: C_12  and  C_17 
ROOT
ATOM      1  N   UNL d   1       2.983   4.391   2.801  0.00  0.00    -0.197 NA
ATOM      2  C   UNL d   1       2.273   3.541   2.462  0.00  0.00     0.059 C 
ATOM      3  C   UNL d   1       1.364   2.455   2.068  0.00  0.00     0.134 C 
ENDROOT
BRANCH   3   4
ATOM      4  C   UNL d   1       0.848   2.600   0.638  0.00  0.00     0.093 C 
BRANCH   4   5
ATOM      5  S   UNL d   1       2.096   2.517  -0.700  0.00  0.00    -0.127 SA
BRANCH   5   6
ATOM      6  C   UNL d   1       2.988   1.026  -0.269  0.00  0.00     0.027 A 
ATOM      7  C   UNL d   1       2.433  -0.268  -0.278  0.00  0.00     0.049 A 
ATOM      8  C   UNL d   1       3.248  -1.354   0.097  0.00  0.00     0.031 A 
ATOM      9  C   UNL d   1       4.595  -1.181   0.412  0.00  0.00     0.002 A 
ATOM     10  C   UNL d   1       5.145   0.093   0.388  0.00  0.00     0.002 A 
ATOM     11  C   UNL d   1       4.347   1.190   0.058  0.00  0.00     0.021 A 
BRANCH   7  12
ATOM     12  N   UNL d   1       1.094  -0.545  -0.647  0.00  0.00    -0.364 N 
ATOM     13  C   UNL d   1       0.981  -1.278  -1.715  0.00  0.00     0.102 C 
ATOM     14  HN  UNL d   1       0.290  -0.199  -0.122  1.00  0.00     0.165 HD
BRANCH  13  15
ATOM     15  C   UNL d   1      -0.292  -1.853  -2.200  0.00  0.00     0.015 A 
ATOM     16  C   UNL d   1      -0.331  -2.538  -3.431  0.00  0.00     0.110 A 
ATOM     17  C   UNL d   1      -1.488  -3.234  -3.806  0.00  0.00     0.102 A 
ATOM     18  C   UNL d   1      -2.589  -3.241  -2.941  0.00  0.00     0.040 A 
ATOM     19  C   UNL d   1      -2.562  -2.535  -1.737  0.00  0.00     0.004 A 
ATOM     20  C   UNL d   1      -1.414  -1.838  -1.366  0.00  0.00     0.016 A 
BRANCH  16  21
ATOM     21  O   UNL d   1       0.768  -2.562  -4.250  0.00  0.00    -0.357 OA
ATOM     22  H   UNL d   1       1.160  -1.672  -4.269  0.00  0.00     0.217 HD
ENDBRANCH  16  21
BRANCH  17  23
ATOM     23  O   UNL d   1      -1.689  -3.971  -4.944  0.00  0.00    -0.353 OA
ATOM     24  C   UNL d   1      -0.912  -3.632  -6.086  0.00  0.00     0.210 C 
ENDBRANCH  17  23
ENDBRANCH  13  15
ENDBRANCH   7  12
ENDBRANCH   5   6
ENDBRANCH   4   5
ENDBRANCH   3   4
TORSDOF 7
