REMARK  3 active torsions:
REMARK  status: ('A' for Active; 'I' for Inactive)
REMARK    1  A    between atoms: C_6  and  C_1 
REMARK    2  A    between atoms: C_7  and  C_6 
REMARK       I    between atoms: N_8  and  C_7 
REMARK    3  A    between atoms: C_12  and  N_8 
ROOT
ATOM      1  C   UNL d   1       3.588  -0.080  -0.233  0.00  0.00     0.150 C 
ENDROOT
BRANCH   1   2
ATOM      2  C   UNL d   1       2.084  -0.226  -0.171  0.00  0.00    -0.001 A 
ATOM      3  S   UNL d   1       0.970   1.038  -0.423  0.00  0.00    -0.093 SA
ATOM      4  C   UNL d   1      -0.395   0.050  -0.113  0.00  0.00     0.016 A 
ATOM      5  C   UNL d   1      -1.744   0.455  -0.057  0.00  0.00     0.021 A 
ATOM      6  C   UNL d   1      -0.020  -1.278   0.083  0.00  0.00    -0.011 A 
ATOM      7  C   UNL d   1      -2.729  -0.504   0.196  0.00  0.00     0.025 A 
ATOM      8  C   UNL d   1      -2.381  -1.834   0.362  0.00  0.00     0.035 A 
ATOM      9  C   UNL d   1      -1.044  -2.235   0.300  0.00  0.00     0.037 A 
ATOM     10 CL   UNL d   1      -3.605  -3.009   0.659  0.00  0.00    -0.084 Cl
ATOM     11  C   UNL d   1       1.419  -1.434   0.043  0.00  0.00    -0.037 A 
ATOM     12  C   UNL d   1       2.084  -2.768   0.238  0.00  0.00     0.050 C 
ENDBRANCH   1   2
BRANCH   1  13
ATOM     13  C   UNL d   1       4.335   1.241  -0.250  0.00  0.00     0.226 C 
ATOM     14  N   UNL d   1       3.641   2.420  -0.113  0.00  0.00    -0.327 N 
ATOM     15  H   UNL d   1       2.637   2.344  -0.009  0.00  0.00     0.169 HD
ATOM     16  O   UNL d   1       5.567   1.177  -0.339  0.00  0.00    -0.273 OA
BRANCH  14  17
ATOM     17  C   UNL d   1       4.183   3.723  -0.016  0.00  0.00     0.034 A 
ATOM     18  C   UNL d   1       5.540   4.018  -0.177  0.00  0.00     0.031 A 
ATOM     19  C   UNL d   1       6.023   5.314   0.019  0.00  0.00     0.026 A 
ATOM     20  C   UNL d   1       5.146   6.334   0.367  0.00  0.00     0.034 A 
ATOM     21  C   UNL d   1       3.785   6.072   0.489  0.00  0.00     0.026 A 
ATOM     22 CL   UNL d   1       5.747   7.918   0.665  0.00  0.00    -0.084 Cl
ATOM     23  C   UNL d   1       3.302   4.770   0.288  0.00  0.00     0.031 A 
ENDBRANCH  14  17
ENDBRANCH   1  13
TORSDOF 3
