REMARK  5 active torsions:
REMARK  status: ('A' for Active; 'I' for Inactive)
REMARK       I    between atoms: C_2  and  N_1 
REMARK       I    between atoms: C_4  and  N_1 
REMARK    1  A    between atoms: C_3  and  C_2 
REMARK    2  A    between atoms: O_12  and  C_4 
REMARK    3  A    between atoms: N_9  and  N_5 
REMARK    4  A    between atoms: C_13  and  N_9 
REMARK    5  A    between atoms: C_14  and  O_12 
ROOT
ATOM      1  C   UNL d   1       0.984   1.315   2.580  0.00  0.00     0.197 C 
ATOM      2  N   UNL d   1       0.440   1.622   3.725  0.00  0.00    -0.286 N 
ATOM      3  HN  UNL d   1       1.016   1.901   4.519  1.00  0.00     0.188 HD
ATOM      4  C   UNL d   1       0.078   0.981   1.494  0.00  0.00     0.125 C 
ATOM      5  N   UNL d   1      -0.731   0.751   0.691  0.00  0.00    -0.190 NA
ENDROOT
BRANCH   1   6
ATOM      6  C   UNL d   1       2.467   1.277   2.305  0.00  0.00     0.288 C 
ATOM      7  N   UNL d   1       3.452   1.581   3.227  0.00  0.00    -0.267 N 
ATOM      8  C   UNL d   1       3.455   1.998   4.530  0.00  0.00     0.367 C 
ATOM      9  H   UNL d   1       4.382   1.499   2.844  0.00  0.00     0.174 HD
ATOM     10  O   UNL d   1       2.505   2.176   5.268  0.00  0.00    -0.238 OA
ATOM     11  O   UNL d   1       2.819   0.944   1.169  0.00  0.00    -0.265 OA
BRANCH   8  12
ATOM     12  O   UNL d   1       4.750   2.194   4.899  0.00  0.00    -0.304 OA
BRANCH  12  13
ATOM     13  C   UNL d   1       4.950   2.628   6.255  0.00  0.00     0.176 C 
ATOM     14  C   UNL d   1       4.759   4.129   6.366  0.00  0.00     0.034 C 
ENDBRANCH  12  13
ENDBRANCH   8  12
ENDBRANCH   1   6
BRANCH   2  15
ATOM     15  N   UNL d   1      -0.922   1.559   3.835  0.00  0.00    -0.300 N 
ATOM     16  H   UNL d   1      -1.543   1.542   3.023  0.00  0.00     0.187 HD
BRANCH  15  17
ATOM     17  C   UNL d   1      -1.603   1.912   5.014  0.00  0.00     0.048 A 
ATOM     18  C   UNL d   1      -0.986   2.429   6.153  0.00  0.00     0.031 A 
ATOM     19  C   UNL d   1      -1.740   2.724   7.296  0.00  0.00     0.002 A 
ATOM     20  C   UNL d   1      -3.111   2.467   7.324  0.00  0.00     0.000 A 
ATOM     21  C   UNL d   1      -3.731   1.908   6.213  0.00  0.00     0.002 A 
ATOM     22  C   UNL d   1      -2.980   1.631   5.072  0.00  0.00     0.031 A 
ENDBRANCH  15  17
ENDBRANCH   2  15
TORSDOF 5
