REMARK  2 active torsions:
REMARK  status: ('A' for Active; 'I' for Inactive)
REMARK    1  A    between atoms: C_7  and  C_1 
REMARK    2  A    between atoms: C_12  and  C_8 
ROOT
ATOM      1  C   UNL d   1       1.196   1.153   0.005  0.00  0.00     0.166 A 
ATOM      2  N   UNL d   1       1.559  -0.083   0.128  0.00  0.00    -0.331 N 
ATOM      3  HN  UNL d   1       2.500  -0.459   0.248  1.00  0.00     0.168 HD
ATOM      4  O   UNL d   1      -0.124   1.399  -0.150  0.00  0.00    -0.255 OA
ATOM      5  C   UNL d   1       0.371  -0.765   0.057  0.00  0.00     0.111 A 
ATOM      6  C   UNL d   1      -0.763   0.198  -0.068  0.00  0.00     0.316 A 
ATOM      7  C   UNL d   1       0.280  -2.101   0.076  0.00  0.00     0.047 C 
ATOM      8  O   UNL d   1      -1.958   0.006  -0.101  0.00  0.00    -0.257 OA
ENDROOT
BRANCH   7   9
ATOM      9  C   UNL d   1      -0.977  -2.847   0.043  0.00  0.00    -0.032 A 
ATOM     10  C   UNL d   1      -1.574  -3.196  -1.173  0.00  0.00     0.037 A 
ATOM     11  C   UNL d   1      -2.806  -3.861  -1.185  0.00  0.00     0.056 A 
ATOM     12 CL   UNL d   1      -3.490  -4.258  -2.722  0.00  0.00    -0.083 Cl
ATOM     13  C   UNL d   1      -3.440  -4.182   0.021  0.00  0.00     0.055 A 
ATOM     14  C   UNL d   1      -2.836  -3.845   1.235  0.00  0.00     0.026 A 
ATOM     15 CL   UNL d   1      -4.966  -4.990   0.083  0.00  0.00    -0.083 Cl
ATOM     16  C   UNL d   1      -1.607  -3.180   1.246  0.00  0.00     0.013 A 
ENDBRANCH   7   9
BRANCH   1  17
ATOM     17  C   UNL d   1       2.067   2.341  -0.016  0.00  0.00     0.059 A 
ATOM     18  C   UNL d   1       3.315   2.291  -0.665  0.00  0.00     0.050 A 
ATOM     19 CL   UNL d   1       3.883   0.914  -1.547  0.00  0.00    -0.083 Cl
ATOM     20  C   UNL d   1       4.164   3.407  -0.662  0.00  0.00     0.025 A 
ATOM     21  C   UNL d   1       3.780   4.586  -0.032  0.00  0.00     0.003 A 
ATOM     22  C   UNL d   1       2.546   4.651   0.607  0.00  0.00     0.025 A 
ATOM     23  C   UNL d   1       1.697   3.536   0.629  0.00  0.00     0.050 A 
ATOM     24 CL   UNL d   1       0.236   3.725   1.539  0.00  0.00    -0.083 Cl
ENDBRANCH   1  17
TORSDOF 2
