REMARK  1 active torsions:
REMARK  status: ('A' for Active; 'I' for Inactive)
REMARK    1  A    between atoms: C_5  and  C_2 
ROOT
ATOM      1  C   UNL d   1      -2.059   0.482   0.225  0.00  0.00     0.102 A 
ATOM      2  C   UNL d   1      -4.392   0.148  -0.475  0.00  0.00    -0.048 A 
ATOM      3  C   UNL d   1      -3.301   0.994  -0.181  0.00  0.00     0.047 A 
ATOM      4  C   UNL d   1      -1.880  -0.906   0.330  0.00  0.00     0.102 A 
ATOM      5  O   UNL d   1      -0.962   1.243   0.536  0.00  0.00    -0.346 OA
ATOM      6  O   UNL d   1      -0.648  -1.333   0.755  0.00  0.00    -0.346 OA
ATOM      7  C   UNL d   1      -4.173  -1.237  -0.378  0.00  0.00     0.011 A 
ATOM      8  C   UNL d   1      -2.941  -1.758   0.032  0.00  0.00     0.040 A 
ATOM      9  O   UNL d   1       1.180   2.958  -0.606  0.00  0.00    -0.387 OA
ATOM     10  O   UNL d   1       1.830  -2.102  -0.562  0.00  0.00    -0.387 OA
ATOM     11  O   UNL d   1       3.701   0.353   0.008  0.00  0.00    -0.387 OA
ATOM     12  C   UNL d   1      -1.024   2.653   0.321  0.00  0.00     0.201 C 
ATOM     13  C   UNL d   1      -0.281  -2.678   0.432  0.00  0.00     0.201 C 
ATOM     14  C   UNL d   1       1.239  -2.792   0.542  0.00  0.00     0.194 C 
ATOM     15  C   UNL d   1       0.379   3.217   0.550  0.00  0.00     0.194 C 
ATOM     16  C   UNL d   1       2.452   2.379  -0.324  0.00  0.00     0.193 C 
ATOM     17  C   UNL d   1       3.788  -0.994   0.481  0.00  0.00     0.193 C 
ATOM     18  C   UNL d   1       2.375   0.892   0.038  0.00  0.00     0.193 C 
ATOM     19  C   UNL d   1       3.255  -2.036  -0.509  0.00  0.00     0.193 C 
ENDROOT
BRANCH   2  20
ATOM     20  C   UNL d   1      -5.754   0.709  -0.927  0.00  0.00    -0.024 C 
ATOM     21  C   UNL d   1      -5.750   0.829  -2.463  0.00  0.00     0.019 C 
ATOM     22  C   UNL d   1      -6.932  -0.204  -0.509  0.00  0.00     0.019 C 
ATOM     23  C   UNL d   1      -6.054   2.102  -0.326  0.00  0.00     0.019 C 
ENDBRANCH   2  20
TORSDOF 1
