REMARK  1 active torsions:
REMARK  status: ('A' for Active; 'I' for Inactive)
REMARK    1  A    between atoms: N_7  and  C_3 
ROOT
ATOM      1  C   UNL d   1      -1.211  -1.072  -0.442  0.00  0.00     0.085 A 
ATOM      2  C   UNL d   1       1.116  -1.206   0.244  0.00  0.00     0.085 A 
ATOM      3  C   UNL d   1      -0.060  -1.871  -0.186  0.00  0.00     0.077 A 
ATOM      4  C   UNL d   1      -1.185   0.327  -0.301  0.00  0.00     0.081 A 
ATOM      5  C   UNL d   1       1.152   0.200   0.361  0.00  0.00     0.081 A 
ATOM      6  C   UNL d   1       0.003   0.965   0.088  0.00  0.00     0.081 A 
ATOM      7 CL   UNL d   1       2.522  -2.128   0.711  0.00  0.00    -0.080 Cl
ATOM      8 CL   UNL d   1      -2.683  -1.860  -0.969  0.00  0.00    -0.080 Cl
ATOM      9 CL   UNL d   1      -2.620   1.266  -0.609  0.00  0.00    -0.081 Cl
ATOM     10 CL   UNL d   1       2.626   1.001   0.848  0.00  0.00    -0.081 Cl
ATOM     11 CL   UNL d   1       0.051   2.702   0.241  0.00  0.00    -0.081 Cl
ENDROOT
BRANCH   3  12
ATOM     12  N   UNL d   1      -0.165  -3.264  -0.368  0.00  0.00    -0.387 N 
ATOM     13  C   UNL d   1      -0.650  -4.006   0.795  0.00  0.00     0.149 C 
ATOM     14  C   UNL d   1       0.815  -3.952  -1.202  0.00  0.00     0.149 C 
ENDBRANCH   3  12
TORSDOF 1
