REMARK  5 active torsions:
REMARK  status: ('A' for Active; 'I' for Inactive)
REMARK    1  A    between atoms: C_3  and  C_1 
REMARK    2  A    between atoms: C_4  and  C_2 
REMARK    3  A    between atoms: C_5  and  C_3 
REMARK    4  A    between atoms: N_12  and  C_9 
REMARK    5  A    between atoms: C_17  and  N_12 
ROOT
ATOM      1  C   UNL d   1      -0.909  -3.692  -0.041  0.00  0.00     0.110 C 
ATOM      2  C   UNL d   1      -0.556  -4.990   0.053  0.00  0.00     0.115 C 
ATOM      3  C   UNL d   1       0.099  -2.675  -0.049  0.00  0.00     0.105 C 
ATOM      4  N   UNL d   1       0.978  -1.919  -0.061  0.00  0.00    -0.191 NA
ENDROOT
BRANCH   1   5
ATOM      5  C   UNL d   1      -2.336  -3.229  -0.070  0.00  0.00     0.207 C 
ATOM      6  O   UNL d   1      -2.627  -2.088   0.269  0.00  0.00    -0.286 OA
BRANCH   5   7
ATOM      7  C   UNL d   1      -3.356  -4.161  -0.550  0.00  0.00     0.057 A 
ATOM      8  C   UNL d   1      -4.686  -4.178  -0.132  0.00  0.00     0.173 A 
ATOM      9  O   UNL d   1      -5.364  -5.175  -0.785  0.00  0.00    -0.310 OA
ATOM     10  C   UNL d   1      -4.505  -5.776  -1.643  0.00  0.00     0.051 A 
ATOM     11  C   UNL d   1      -3.269  -5.176  -1.560  0.00  0.00     0.050 A 
ATOM     12  C   UNL d   1      -5.058  -6.883  -2.450  0.00  0.00     0.076 C 
BRANCH   8  13
ATOM     13  C   UNL d   1      -5.502  -3.404   0.846  0.00  0.00     0.440 C 
ATOM     14  F   UNL d   1      -4.787  -2.529   1.591  0.00  0.00    -0.164 F 
ATOM     15  F   UNL d   1      -6.487  -2.696   0.233  0.00  0.00    -0.164 F 
ATOM     16  F   UNL d   1      -6.117  -4.233   1.734  0.00  0.00    -0.164 F 
ENDBRANCH   8  13
ENDBRANCH   5   7
ENDBRANCH   1   5
BRANCH   2  17
ATOM     17  N   UNL d   1       0.707  -5.544   0.031  0.00  0.00    -0.364 N 
ATOM     18  H   UNL d   1       1.491  -4.905  -0.090  0.00  0.00     0.165 HD
BRANCH  17  19
ATOM     19  C   UNL d   1       1.073  -6.902   0.082  0.00  0.00     0.032 A 
ATOM     20  C   UNL d   1       2.308  -7.278  -0.472  0.00  0.00     0.031 A 
ATOM     21  C   UNL d   1       2.721  -8.614  -0.491  0.00  0.00     0.026 A 
ATOM     22  C   UNL d   1       1.896  -9.595   0.046  0.00  0.00     0.034 A 
ATOM     23  C   UNL d   1       0.659  -9.252   0.583  0.00  0.00     0.026 A 
ATOM     24 CL   UNL d   1       2.408 -11.237   0.046  0.00  0.00    -0.084 Cl
ATOM     25  C   UNL d   1       0.245  -7.913   0.588  0.00  0.00     0.031 A 
ENDBRANCH  17  19
ENDBRANCH   2  17
TORSDOF 5
