REMARK  9 active torsions:
REMARK  status: ('A' for Active; 'I' for Inactive)
REMARK    1  A    between atoms: C_16  and  N_1 
REMARK    2  A    between atoms: C_15  and  N_2 
REMARK    3  A    between atoms: C_3  and  C_13 
REMARK    4  A    between atoms: C_14  and  C_4 
REMARK    5  A    between atoms: C_17  and  N_20 
REMARK    6  A    between atoms: N_19  and  C_18 
REMARK    7  A    between atoms: C_26  and  N_19 
REMARK    8  A    between atoms: N_20  and  C_25 
REMARK    9  A    between atoms: C_25  and  C_26 
ROOT
ATOM      1  C   UNL d   1       4.811  -1.066   0.015  0.00  0.00     0.141 C 
ENDROOT
BRANCH   1   2
ATOM      2  N   UNL d   1       6.176  -0.487   0.007  0.00  0.00    -0.393 N 
ATOM      3  C   UNL d   1       7.158  -1.169  -0.837  0.00  0.00     0.148 C 
BRANCH   2   4
ATOM      4  C   UNL d   1       6.401   0.817   0.442  0.00  0.00     0.089 C 
ATOM      5  C   UNL d   1       5.898   1.409   1.537  0.00  0.00     0.068 C 
BRANCH   5   6
ATOM      6  C   UNL d   1       6.317   2.694   1.954  0.00  0.00     0.139 A 
ATOM      7  N   UNL d   1       7.270   2.888   2.961  0.00  0.00    -0.225 N 
ATOM      8  N   UNL d   1       7.183   4.189   3.350  0.00  0.00     0.001 NA
ATOM      9  N   UNL d   1       6.327   4.771   2.526  0.00  0.00    -0.007 NA
ATOM     10  N   UNL d   1       5.780   3.865   1.664  0.00  0.00    -0.270 N 
ATOM     11  HN  UNL d   1       5.090   4.056   0.938  1.00  0.00     0.185 HD
BRANCH   7  12
ATOM     12  C   UNL d   1       8.264   2.035   3.522  0.00  0.00     0.056 A 
ATOM     13  C   UNL d   1       8.688   0.876   2.865  0.00  0.00     0.032 A 
ATOM     14  C   UNL d   1       9.690   0.072   3.401  0.00  0.00     0.009 A 
ATOM     15  C   UNL d   1      10.295   0.406   4.609  0.00  0.00    -0.062 A 
ATOM     16  C   UNL d   1       9.887   1.567   5.276  0.00  0.00     0.009 A 
ATOM     17  C   UNL d   1      11.382  -0.478   5.141  0.00  0.00     0.048 C 
ATOM     18  C   UNL d   1       8.884   2.384   4.731  0.00  0.00     0.032 A 
ENDBRANCH   7  12
ENDBRANCH   5   6
ENDBRANCH   2   4
ENDBRANCH   1   2
BRANCH   1  19
ATOM     19  C   UNL d   1       4.692  -2.611   0.034  0.00  0.00     0.141 C 
BRANCH  19  20
ATOM     20  N   UNL d   1       5.420  -3.341   1.099  0.00  0.00    -0.393 N 
ATOM     21  C   UNL d   1       5.749  -4.727   0.736  0.00  0.00     0.148 C 
BRANCH  20  22
ATOM     22  C   UNL d   1       5.567  -2.908   2.410  0.00  0.00     0.089 C 
ATOM     23  C   UNL d   1       4.785  -2.053   3.085  0.00  0.00     0.068 C 
BRANCH  23  24
ATOM     24  C   UNL d   1       5.134  -1.542   4.354  0.00  0.00     0.139 A 
ATOM     25  N   UNL d   1       4.841  -2.176   5.556  0.00  0.00    -0.225 N 
ATOM     26  N   UNL d   1       5.421  -1.453   6.553  0.00  0.00     0.001 NA
ATOM     27  N   UNL d   1       5.917  -0.369   5.985  0.00  0.00    -0.007 NA
ATOM     28  N   UNL d   1       5.754  -0.406   4.629  0.00  0.00    -0.270 N 
ATOM     29  HN  UNL d   1       6.052   0.303   3.959  1.00  0.00     0.185 HD
BRANCH  25  30
ATOM     30  C   UNL d   1       4.050  -3.311   5.870  0.00  0.00     0.056 A 
ATOM     31  C   UNL d   1       4.286  -3.979   7.080  0.00  0.00     0.032 A 
ATOM     32  C   UNL d   1       3.495  -5.068   7.449  0.00  0.00     0.009 A 
ATOM     33  C   UNL d   1       2.434  -5.481   6.636  0.00  0.00    -0.062 A 
ATOM     34  C   UNL d   1       2.200  -4.812   5.430  0.00  0.00     0.009 A 
ATOM     35  C   UNL d   1       1.559  -6.616   7.075  0.00  0.00     0.048 C 
ATOM     36  C   UNL d   1       3.007  -3.739   5.040  0.00  0.00     0.032 A 
ENDBRANCH  25  30
ENDBRANCH  23  24
ENDBRANCH  20  22
ENDBRANCH  19  20
ENDBRANCH   1  19
TORSDOF 9
