REMARK  4 active torsions:
REMARK  status: ('A' for Active; 'I' for Inactive)
REMARK    1  A    between atoms: C_2  and  C_1 
REMARK       I    between atoms: N_8  and  C_2 
REMARK    2  A    between atoms: C_4  and  C_6 
REMARK    3  A    between atoms: C_11  and  C_5 
REMARK    4  A    between atoms: C_12  and  N_8 
ROOT
ATOM      1  C   UNL d   1      -0.370  -0.976  -0.080  0.00  0.00     0.144 A 
ATOM      2  O   UNL d   1       0.948  -0.587  -0.100  0.00  0.00    -0.296 OA
ATOM      3  C   UNL d   1       0.941   0.776  -0.046  0.00  0.00     0.130 A 
ATOM      4  C   UNL d   1      -1.184   0.142  -0.005  0.00  0.00     0.046 A 
ATOM      5  C   UNL d   1      -0.341   1.269   0.013  0.00  0.00     0.050 A 
ENDROOT
BRANCH   1   6
ATOM      6  C   UNL d   1      -0.768  -2.371  -0.124  0.00  0.00     0.280 C 
ATOM      7  N   UNL d   1       0.269  -3.292  -0.116  0.00  0.00    -0.321 N 
ATOM      8  H   UNL d   1       1.201  -2.910  -0.002  0.00  0.00     0.169 HD
ATOM      9  O   UNL d   1      -1.961  -2.665  -0.127  0.00  0.00    -0.265 OA
BRANCH   7  10
ATOM     10  C   UNL d   1       0.118  -4.700  -0.064  0.00  0.00     0.035 A 
ATOM     11  C   UNL d   1      -1.094  -5.352  -0.316  0.00  0.00     0.029 A 
ATOM     12  C   UNL d   1      -1.220  -6.733  -0.148  0.00  0.00     0.002 A 
ATOM     13  C   UNL d   1      -0.126  -7.486   0.259  0.00  0.00     0.000 A 
ATOM     14  C   UNL d   1       1.102  -6.860   0.462  0.00  0.00     0.002 A 
ATOM     15  C   UNL d   1       1.229  -5.475   0.289  0.00  0.00     0.029 A 
ENDBRANCH   7  10
ENDBRANCH   1   6
BRANCH   3  16
ATOM     16  C   UNL d   1       2.171   1.471  -0.059  0.00  0.00    -0.036 C 
ATOM     17  C   UNL d   1       3.158   2.159  -0.070  0.00  0.00    -0.059 C 
BRANCH  17  18
ATOM     18  C   UNL d   1       4.303   3.017  -0.093  0.00  0.00     0.018 A 
ATOM     19  C   UNL d   1       4.147   4.406  -0.017  0.00  0.00     0.020 A 
ATOM     20  C   UNL d   1       5.269   5.239  -0.052  0.00  0.00     0.001 A 
ATOM     21  C   UNL d   1       6.545   4.685  -0.162  0.00  0.00     0.000 A 
ATOM     22  C   UNL d   1       6.700   3.301  -0.234  0.00  0.00     0.001 A 
ATOM     23  C   UNL d   1       5.581   2.469  -0.199  0.00  0.00     0.020 A 
ENDBRANCH  17  18
ENDBRANCH   3  16
TORSDOF 4
