REMARK  7 active torsions:
REMARK  status: ('A' for Active; 'I' for Inactive)
REMARK    1  A    between atoms: N_7  and  C_1 
REMARK    2  A    between atoms: S_4  and  C_2 
REMARK    3  A    between atoms: N_14  and  S_4 
REMARK    4  A    between atoms: S_8  and  C_5 
REMARK    5  A    between atoms: C_16  and  S_8 
REMARK    6  A    between atoms: C_13  and  C_16 
REMARK    7  A    between atoms: O_17  and  C_13 
ROOT
ATOM      1  C   UNL d   1       1.612  -0.671   0.033  0.00  0.00     0.128 A 
ATOM      2  C   UNL d   1       0.241   1.243   0.024  0.00  0.00     0.118 A 
ATOM      3  C   UNL d   1       1.533   0.768   0.031  0.00  0.00     0.070 A 
ATOM      4  C   UNL d   1       0.347  -1.247   0.050  0.00  0.00     0.076 A 
ATOM      5  S   UNL d   1      -0.884  -0.029   0.044  0.00  0.00    -0.068 SA
ENDROOT
BRANCH   2   6
ATOM      6  S   UNL d   1      -0.415   2.892   0.010  0.00  0.00     0.246 S 
ATOM      7  O   UNL d   1       0.746   3.737   0.167  0.00  0.00    -0.206 OA
ATOM      8  O   UNL d   1      -1.299   2.959  -1.130  0.00  0.00    -0.206 OA
BRANCH   6   9
ATOM      9  N   UNL d   1      -1.336   3.056   1.398  0.00  0.00    -0.225 NA
ATOM     10  H   UNL d   1      -0.781   2.997   2.249  0.00  0.00     0.136 HD
ATOM     11  H   UNL d   1      -2.175   2.477   1.380  0.00  0.00     0.136 HD
ENDBRANCH   6   9
ENDBRANCH   2   6
BRANCH   1  12
ATOM     12  N   UNL d   1       2.887  -1.357  -0.011  0.00  0.00    -0.114 N 
ATOM     13  O   UNL d   1       3.897  -0.643   0.013  0.00  0.00    -0.532 OA
ATOM     14  O   UNL d   1       2.893  -2.591  -0.050  0.00  0.00    -0.532 OA
ENDBRANCH   1  12
BRANCH   4  15
ATOM     15  S   UNL d   1      -0.216  -2.917  -0.059  0.00  0.00    -0.110 SA
BRANCH  15  16
ATOM     16  C   UNL d   1       0.365  -3.744   1.439  0.00  0.00     0.191 C 
BRANCH  16  17
ATOM     17  C   UNL d   1      -0.086  -3.136   2.747  0.00  0.00     0.268 C 
ATOM     18  O   UNL d   1      -0.726  -2.107   2.906  0.00  0.00    -0.264 OA
BRANCH  17  19
ATOM     19  O   UNL d   1       0.379  -3.929   3.762  0.00  0.00    -0.326 OA
ATOM     20  C   UNL d   1       0.075  -3.474   5.082  0.00  0.00     0.213 C 
ENDBRANCH  17  19
ENDBRANCH  16  17
ENDBRANCH  15  16
ENDBRANCH   4  15
TORSDOF 7
