REMARK  3 active torsions:
REMARK  status: ('A' for Active; 'I' for Inactive)
REMARK    1  A    between atoms: N_6  and  C_3 
REMARK    2  A    between atoms: C_11  and  C_10 
REMARK    3  A    between atoms: O_13  and  C_12 
ROOT
ATOM      1  N   UNL d   1       0.253   2.495   0.691  0.00  0.00    -0.200 N 
ATOM      2  HN  UNL d   1      -0.397   2.944   1.336  1.00  0.00     0.183 HD
ATOM      3  C   UNL d   1       1.085   3.151  -0.050  0.00  0.00     0.120 C 
ENDROOT
BRANCH   1   4
ATOM      4  C   UNL d   1       0.329   1.116   0.521  0.00  0.00     0.697 A 
ATOM      5  N   UNL d   1       1.125   0.426  -0.352  0.00  0.00    -0.185 N 
ATOM      6  C   UNL d   1       0.809  -0.825  -0.112  0.00  0.00     0.215 A 
ATOM      7  HN  UNL d   1       1.798   0.793  -1.025  1.00  0.00     0.185 HD
ATOM      8  N   UNL d   1      -0.136  -0.873   0.863  0.00  0.00    -0.281 N 
ATOM      9  N   UNL d   1      -0.459   0.356   1.283  0.00  0.00    -0.131 N 
ATOM     10  H   UNL d   1      -0.592  -1.677   1.280  0.00  0.00     0.188 HD
ATOM     11  HN  UNL d   1      -1.130   0.638   1.997  1.00  0.00     0.205 HD
ENDBRANCH   1   4
BRANCH   3  12
ATOM     12  C   UNL d   1       1.134   4.629   0.006  0.00  0.00     0.013 A 
ATOM     13  C   UNL d   1       0.310   5.371   0.862  0.00  0.00     0.077 A 
ATOM     14  C   UNL d   1       0.391   6.761   0.883  0.00  0.00     0.037 A 
ATOM     15  C   UNL d   1       1.292   7.419   0.047  0.00  0.00     0.003 A 
ATOM     16  C   UNL d   1       2.115   6.686  -0.810  0.00  0.00     0.001 A 
ATOM     17  C   UNL d   1       2.039   5.291  -0.832  0.00  0.00     0.015 A 
BRANCH  13  18
ATOM     18  O   UNL d   1      -0.601   4.802   1.710  0.00  0.00    -0.360 OA
ATOM     19  H   UNL d   1      -0.557   3.827   1.584  0.00  0.00     0.217 HD
ENDBRANCH  13  18
ENDBRANCH   3  12
TORSDOF 3
