REMARK  5 active torsions:
REMARK  status: ('A' for Active; 'I' for Inactive)
REMARK    1  A    between atoms: C_3  and  C_1 
REMARK    2  A    between atoms: C_5  and  C_2 
REMARK       I    between atoms: N_4  and  C_3 
REMARK    3  A    between atoms: C_7  and  N_4 
REMARK    4  A    between atoms: O_16  and  C_5 
REMARK    5  A    between atoms: N_6  and  C_8 
ROOT
ATOM      1  C   UNL d   1      -1.386  -3.558  -0.802  0.00  0.00     0.275 C 
ATOM      2  N   UNL d   1      -0.121  -3.154  -1.185  0.00  0.00    -0.320 N 
ATOM      3  O   UNL d   1      -1.717  -4.074   0.257  0.00  0.00    -0.266 OA
ATOM      4  H   UNL d   1      -0.061  -2.952  -2.179  0.00  0.00     0.169 HD
ENDROOT
BRANCH   1   5
ATOM      5  C   UNL d   1      -2.396  -3.336  -1.887  0.00  0.00     0.134 A 
ATOM      6  C   UNL d   1      -3.528  -4.123  -2.025  0.00  0.00     0.140 A 
ATOM      7  N   UNL d   1      -4.458  -3.896  -3.006  0.00  0.00    -0.358 N 
ATOM      8  C   UNL d   1      -4.184  -2.876  -3.848  0.00  0.00     0.105 A 
ATOM      9  HN  UNL d   1      -5.303  -4.460  -3.094  1.00  0.00     0.165 HD
ATOM     10  C   UNL d   1      -3.027  -2.117  -3.745  0.00  0.00     0.105 A 
ATOM     11  N   UNL d   1      -2.105  -2.328  -2.772  0.00  0.00    -0.358 N 
ATOM     12  HN  UNL d   1      -1.252  -1.774  -2.703  1.00  0.00     0.165 HD
BRANCH   6  13
ATOM     13  C   UNL d   1      -3.684  -5.376  -1.260  0.00  0.00     0.312 C 
ATOM     14  O   UNL d   1      -4.662  -5.698  -0.616  0.00  0.00    -0.258 OA
BRANCH  13  15
ATOM     15  O   UNL d   1      -2.584  -6.131  -1.522  0.00  0.00    -0.321 OA
ATOM     16  C   UNL d   1      -2.526  -7.352  -0.785  0.00  0.00     0.213 C 
ENDBRANCH  13  15
ENDBRANCH   6  13
ENDBRANCH   1   5
BRANCH   2  17
ATOM     17  C   UNL d   1       1.097  -3.495  -0.557  0.00  0.00     0.061 A 
ATOM     18  C   UNL d   1       1.457  -3.289   0.804  0.00  0.00     0.057 A 
ATOM     19  C   UNL d   1       2.779  -3.692   1.135  0.00  0.00     0.031 A 
ATOM     20  C   UNL d   1       3.665  -4.294   0.233  0.00  0.00     0.002 A 
ATOM     21  C   UNL d   1       3.274  -4.505  -1.072  0.00  0.00     0.002 A 
ATOM     22  C   UNL d   1       2.013  -4.080  -1.466  0.00  0.00     0.032 A 
BRANCH  18  23
ATOM     23  N   UNL d   1       0.640  -2.748   1.805  0.00  0.00    -0.375 N 
ATOM     24  C   UNL d   1      -0.242  -1.594   1.537  0.00  0.00     0.149 C 
ATOM     25  C   UNL d   1      -1.411  -1.618   2.540  0.00  0.00     0.187 C 
ATOM     26  O   UNL d   1      -0.925  -1.499   3.889  0.00  0.00    -0.388 OA
ATOM     27  C   UNL d   1      -0.085  -2.620   4.191  0.00  0.00     0.187 C 
ATOM     28  C   UNL d   1       1.099  -2.745   3.217  0.00  0.00     0.149 C 
ENDBRANCH  18  23
ENDBRANCH   2  17
TORSDOF 5
