REMARK  1 active torsions:
REMARK  status: ('A' for Active; 'I' for Inactive)
REMARK       I    between atoms: C_2  and  N_1 
REMARK       I    between atoms: C_3  and  N_1 
REMARK       I    between atoms: N_5  and  C_2 
REMARK    1  A    between atoms: C_4  and  C_3 
ROOT
ATOM      1  N   UNL d   1       1.051  -0.394   0.053  0.00  0.00    -0.275 N 
ATOM      2  C   UNL d   1       0.331  -0.504  -1.113  0.00  0.00     0.325 C 
ATOM      3  C   UNL d   1       0.659   0.376   1.137  0.00  0.00     0.262 C 
ATOM      4  N   UNL d   1       0.929  -1.222  -2.149  0.00  0.00    -0.334 N 
ATOM      5  O   UNL d   1      -0.789  -0.016  -1.255  0.00  0.00    -0.247 OA
ATOM      6  O   UNL d   1      -0.366   1.045   1.201  0.00  0.00    -0.267 OA
ATOM      7  C   UNL d   1       0.204  -1.270  -3.425  0.00  0.00     0.127 C 
ATOM      8  C   UNL d   1       2.310  -1.704  -2.226  0.00  0.00     0.127 C 
ATOM      9  C   UNL d   1       0.213  -2.675  -4.017  0.00  0.00     0.020 C 
ATOM     10  C   UNL d   1       2.365  -3.120  -2.800  0.00  0.00     0.020 C 
ATOM     11  C   UNL d   1       1.633  -3.216  -4.138  0.00  0.00     0.003 C 
ATOM     12  H   UNL d   1       1.883  -0.946   0.152  0.00  0.00     0.173 HD
ENDROOT
BRANCH   3  13
ATOM     13  C   UNL d   1       1.566   0.414   2.322  0.00  0.00     0.071 A 
ATOM     14  C   UNL d   1       2.822  -0.197   2.358  0.00  0.00     0.135 A 
ATOM     15  C   UNL d   1       3.649  -0.080   3.474  0.00  0.00     0.085 A 
ATOM     16  F   UNL d   1       3.268  -0.909   1.311  0.00  0.00    -0.205 F 
ATOM     17  C   UNL d   1       3.213   0.652   4.571  0.00  0.00     0.119 A 
ATOM     18  C   UNL d   1       1.965   1.261   4.573  0.00  0.00     0.043 A 
ATOM     19  F   UNL d   1       4.009   0.779   5.639  0.00  0.00    -0.206 F 
ATOM     20  C   UNL d   1       1.142   1.141   3.451  0.00  0.00     0.023 A 
ENDBRANCH   3  13
TORSDOF 1
