REMARK  7 active torsions:
REMARK  status: ('A' for Active; 'I' for Inactive)
REMARK    1  A    between atoms: N_2  and  C_1 
REMARK    2  A    between atoms: S_6  and  C_3 
REMARK    3  A    between atoms: S_8  and  C_5 
REMARK    4  A    between atoms: C_10  and  S_6 
REMARK    5  A    between atoms: C_11  and  S_8 
REMARK    6  A    between atoms: N_17  and  C_14 
REMARK    7  A    between atoms: N_18  and  C_15 
ROOT
ATOM      1  C   UNL d   1       1.839  -1.276  -0.109  0.00  0.00     0.121 A 
ATOM      2  C   UNL d   1       2.495  -0.043  -0.025  0.00  0.00     0.040 A 
ATOM      3  C   UNL d   1       0.449  -1.371  -0.264  0.00  0.00     0.062 A 
ATOM      4  C   UNL d   1       0.291   1.051  -0.165  0.00  0.00     0.029 A 
ATOM      5  C   UNL d   1       1.695   1.115  -0.045  0.00  0.00     0.042 A 
ATOM      6  C   UNL d   1      -0.319  -0.207  -0.306  0.00  0.00     0.053 A 
ATOM      7 CL   UNL d   1      -2.015  -0.404  -0.579  0.00  0.00    -0.083 Cl
ENDROOT
BRANCH   2   8
ATOM      8  S   UNL d   1       4.259   0.166   0.193  0.00  0.00    -0.086 SA
BRANCH   8   9
ATOM      9  C   UNL d   1       4.884   0.102  -1.491  0.00  0.00     0.026 A 
ATOM     10  C   UNL d   1       5.059   1.276  -2.254  0.00  0.00     0.023 A 
ATOM     11  C   UNL d   1       5.578   1.173  -3.553  0.00  0.00     0.024 A 
ATOM     12  C   UNL d   1       6.031  -0.051  -4.048  0.00  0.00     0.002 A 
ATOM     13  C   UNL d   1       5.919  -1.197  -3.269  0.00  0.00     0.001 A 
ATOM     14  C   UNL d   1       5.342  -1.124  -1.998  0.00  0.00     0.021 A 
BRANCH  10  15
ATOM     15  N   UNL d   1       4.549   2.520  -1.825  0.00  0.00    -0.302 NA
ATOM     16  H   UNL d   1       4.541   2.582  -0.810  0.00  0.00     0.124 HD
ATOM     17  H   UNL d   1       5.025   3.312  -2.249  0.00  0.00     0.124 HD
ENDBRANCH  10  15
ENDBRANCH   8   9
ENDBRANCH   2   8
BRANCH   1  18
ATOM     18  N   UNL d   1       2.568  -2.524  -0.020  0.00  0.00    -0.114 N 
ATOM     19  O   UNL d   1       3.143  -2.775   1.046  0.00  0.00    -0.532 OA
ATOM     20  O   UNL d   1       2.511  -3.276  -1.002  0.00  0.00    -0.532 OA
ENDBRANCH   1  18
BRANCH   4  21
ATOM     21  S   UNL d   1      -0.622   2.592  -0.249  0.00  0.00    -0.087 SA
BRANCH  21  22
ATOM     22  C   UNL d   1      -0.870   3.001   1.486  0.00  0.00     0.026 A 
ATOM     23  C   UNL d   1      -2.084   2.713   2.148  0.00  0.00     0.023 A 
ATOM     24  C   UNL d   1      -2.245   3.117   3.481  0.00  0.00     0.024 A 
ATOM     25  C   UNL d   1      -1.266   3.874   4.124  0.00  0.00     0.002 A 
ATOM     26  C   UNL d   1      -0.091   4.198   3.456  0.00  0.00     0.001 A 
ATOM     27  C   UNL d   1       0.109   3.762   2.142  0.00  0.00     0.021 A 
BRANCH  23  28
ATOM     28  N   UNL d   1      -3.055   1.865   1.587  0.00  0.00    -0.302 NA
ATOM     29  H   UNL d   1      -2.992   1.811   0.573  0.00  0.00     0.124 HD
ATOM     30  H   UNL d   1      -3.999   2.040   1.912  0.00  0.00     0.124 HD
ENDBRANCH  23  28
ENDBRANCH  21  22
ENDBRANCH   4  21
TORSDOF 7
