REMARK  9 active torsions:
REMARK  status: ('A' for Active; 'I' for Inactive)
REMARK    1  A    between atoms: C_9  and  N_1 
REMARK    2  A    between atoms: S_8  and  C_2 
REMARK    3  A    between atoms: C_7  and  C_10 
REMARK    4  A    between atoms: C_14  and  S_8 
REMARK    5  A    between atoms: C_11  and  C_14 
REMARK    6  A    between atoms: C_13  and  C_11 
REMARK    7  A    between atoms: O_25  and  C_26 
REMARK    8  A    between atoms: C_27  and  O_25 
REMARK    9  A    between atoms: C_30  and  C_27 
ROOT
ATOM      1  N   UNL d   1       0.919  -0.688  -0.017  0.00  0.00    -0.241 N 
ATOM      2  C   UNL d   1       0.848   0.674  -0.040  0.00  0.00     0.170 A 
ATOM      3  C   UNL d   1      -0.385  -1.122  -0.052  0.00  0.00     0.347 A 
ATOM      4  N   UNL d   1      -0.363   1.157  -0.035  0.00  0.00    -0.275 N 
ATOM      5  HN  UNL d   1      -0.651   2.136  -0.039  1.00  0.00     0.189 HD
ATOM      6  N   UNL d   1      -1.158   0.040  -0.024  0.00  0.00    -0.249 N 
ATOM      7  O   UNL d   1      -0.830  -2.257  -0.080  0.00  0.00    -0.245 OA
ATOM      8  H   UNL d   1      -2.168   0.075  -0.042  0.00  0.00     0.192 HD
ENDROOT
BRANCH   1   9
ATOM      9  C   UNL d   1       2.046  -1.515  -0.026  0.00  0.00     0.046 A 
ATOM     10  C   UNL d   1       2.231  -2.437  -1.061  0.00  0.00     0.033 A 
ATOM     11  C   UNL d   1       3.409  -3.184  -1.126  0.00  0.00     0.039 A 
ATOM     12  C   UNL d   1       4.374  -3.070  -0.123  0.00  0.00     0.069 A 
ATOM     13  C   UNL d   1       4.166  -2.183   0.934  0.00  0.00     0.039 A 
ATOM     14  C   UNL d   1       3.006  -1.410   0.984  0.00  0.00     0.033 A 
BRANCH  12  15
ATOM     15  O   UNL d   1       5.478  -3.866  -0.272  0.00  0.00    -0.347 OA
BRANCH  15  16
ATOM     16  C   UNL d   1       6.223  -4.090   0.921  0.00  0.00     0.214 C 
BRANCH  16  17
ATOM     17  C   UNL d   1       7.109  -5.292   0.730  0.00  0.00    -0.034 A 
ATOM     18  C   UNL d   1       8.451  -5.144   0.366  0.00  0.00     0.009 A 
ATOM     19  C   UNL d   1       9.266  -6.269   0.225  0.00  0.00     0.001 A 
ATOM     20  C   UNL d   1       8.742  -7.543   0.437  0.00  0.00     0.000 A 
ATOM     21  C   UNL d   1       7.402  -7.698   0.772  0.00  0.00     0.001 A 
ATOM     22  C   UNL d   1       6.583  -6.578   0.917  0.00  0.00     0.009 A 
ENDBRANCH  16  17
ENDBRANCH  15  16
ENDBRANCH  12  15
ENDBRANCH   1   9
BRANCH   2  23
ATOM     23  S   UNL d   1       2.268   1.660  -0.179  0.00  0.00    -0.084 SA
BRANCH  23  24
ATOM     24  C   UNL d   1       1.531   3.303  -0.437  0.00  0.00     0.166 C 
BRANCH  24  25
ATOM     25  C   UNL d   1       2.590   4.367  -0.699  0.00  0.00     0.169 C 
ATOM     26  O   UNL d   1       3.797   4.140  -0.768  0.00  0.00    -0.291 OA
BRANCH  25  27
ATOM     27  C   UNL d   1       2.146   5.787  -0.860  0.00  0.00     0.011 A 
ATOM     28  C   UNL d   1       3.059   6.804  -0.546  0.00  0.00     0.016 A 
ATOM     29  C   UNL d   1       2.723   8.149  -0.732  0.00  0.00     0.017 A 
ATOM     30  C   UNL d   1       1.471   8.504  -1.255  0.00  0.00     0.048 A 
ATOM     31  C   UNL d   1       0.553   7.483  -1.551  0.00  0.00     0.017 A 
ATOM     32  C   UNL d   1       0.883   6.134  -1.352  0.00  0.00     0.016 A 
BRANCH  30  33
ATOM     33  C   UNL d   1       1.148   9.959  -1.512  0.00  0.00     0.417 C 
ATOM     34  F   UNL d   1      -0.077  10.153  -2.074  0.00  0.00    -0.166 F 
ATOM     35  F   UNL d   1       1.160  10.706  -0.374  0.00  0.00    -0.166 F 
ATOM     36  F   UNL d   1       2.041  10.548  -2.355  0.00  0.00    -0.166 F 
ENDBRANCH  30  33
ENDBRANCH  25  27
ENDBRANCH  24  25
ENDBRANCH  23  24
ENDBRANCH   2  23
TORSDOF 9
