REMARK  4 active torsions:
REMARK  status: ('A' for Active; 'I' for Inactive)
REMARK       I    between atoms: N_2  and  C_1 
REMARK    1  A    between atoms: C_3  and  C_1 
REMARK    2  A    between atoms: C_8  and  N_2 
REMARK    3  A    between atoms: C_14  and  N_2 
REMARK    4  A    between atoms: C_15  and  C_8 
ROOT
ATOM      1  C   UNL d   1       0.929  -0.118  -0.016  0.00  0.00     0.254 C 
ATOM      2  N   UNL d   1       0.278   1.091  -0.356  0.00  0.00    -0.340 N 
ATOM      3  O   UNL d   1       0.386  -1.013   0.632  0.00  0.00    -0.267 OA
ENDROOT
BRANCH   1   4
ATOM      4  C   UNL d   1       2.348  -0.358  -0.411  0.00  0.00     0.035 A 
ATOM      5  C   UNL d   1       3.224  -0.916   0.532  0.00  0.00     0.056 A 
ATOM      6  C   UNL d   1       4.559  -1.031   0.185  0.00  0.00     0.106 A 
ATOM      7  O   UNL d   1       5.557  -1.480   0.985  0.00  0.00    -0.323 OA
ATOM      8  C   UNL d   1       5.016  -0.650  -1.055  0.00  0.00     0.105 A 
ATOM      9  C   UNL d   1       6.711  -1.168   0.176  0.00  0.00     0.352 C 
ATOM     10  O   UNL d   1       6.365  -0.789  -1.173  0.00  0.00    -0.323 OA
ATOM     11  C   UNL d   1       4.167  -0.181  -2.031  0.00  0.00     0.041 A 
ATOM     12  C   UNL d   1       2.810  -0.054  -1.711  0.00  0.00     0.020 A 
ENDBRANCH   1   4
BRANCH   2  13
ATOM     13  C   UNL d   1      -1.109   1.238   0.123  0.00  0.00     0.165 C 
BRANCH  13  14
ATOM     14  C   UNL d   1      -2.201   0.775  -0.821  0.00  0.00    -0.040 A 
ATOM     15  C   UNL d   1      -2.434  -0.590  -1.038  0.00  0.00     0.009 A 
ATOM     16  C   UNL d   1      -3.558  -1.022  -1.749  0.00  0.00     0.001 A 
ATOM     17  C   UNL d   1      -4.461  -0.095  -2.264  0.00  0.00     0.000 A 
ATOM     18  C   UNL d   1      -4.228   1.266  -2.089  0.00  0.00     0.001 A 
ATOM     19  C   UNL d   1      -3.105   1.699  -1.377  0.00  0.00     0.009 A 
ENDBRANCH  13  14
ENDBRANCH   2  13
BRANCH   2  20
ATOM     20  C   UNL d   1       1.020   2.343  -0.651  0.00  0.00     0.079 C 
ATOM     21  C   UNL d   1       0.354   3.179  -1.744  0.00  0.00     0.032 C 
ATOM     22  C   UNL d   1       1.272   3.168   0.617  0.00  0.00     0.032 C 
ENDBRANCH   2  20
TORSDOF 4
