REMARK  5 active torsions:
REMARK  status: ('A' for Active; 'I' for Inactive)
REMARK    1  A    between atoms: C_7  and  C_1 
REMARK    2  A    between atoms: C_6  and  C_2 
REMARK    3  A    between atoms: S_3  and  C_11 
REMARK    4  A    between atoms: N_19  and  S_3 
REMARK       I    between atoms: N_10  and  C_6 
REMARK    5  A    between atoms: C_18  and  N_10 
ROOT
ATOM      1  C   UNL d   1       0.666  -2.379  -0.448  0.00  0.00     0.261 C 
ATOM      2  N   UNL d   1      -0.055  -3.507  -0.077  0.00  0.00    -0.323 N 
ATOM      3  O   UNL d   1       1.745  -2.455  -1.032  0.00  0.00    -0.267 OA
ATOM      4  H   UNL d   1      -1.063  -3.430  -0.069  0.00  0.00     0.169 HD
ENDROOT
BRANCH   1   5
ATOM      5  C   UNL d   1       0.059  -1.082  -0.190  0.00  0.00     0.093 A 
ATOM      6  C   UNL d   1       0.570   0.202  -0.607  0.00  0.00     0.088 A 
ATOM      7  N   UNL d   1      -0.249   1.185  -0.207  0.00  0.00    -0.259 N 
ATOM      8  O   UNL d   1      -1.259   0.588   0.497  0.00  0.00    -0.241 OA
ATOM      9  HN  UNL d   1      -0.140   2.183  -0.391  1.00  0.00     0.195 HD
ATOM     10  C   UNL d   1      -1.062  -0.754   0.552  0.00  0.00     0.090 A 
ATOM     11  C   UNL d   1      -2.051  -1.459   1.393  0.00  0.00     0.080 C 
BRANCH   6  12
ATOM     12  C   UNL d   1       1.811   0.537  -1.308  0.00  0.00     0.054 A 
ATOM     13  C   UNL d   1       1.843   1.301  -2.486  0.00  0.00     0.049 A 
ATOM     14 CL   UNL d   1       0.411   1.854  -3.286  0.00  0.00    -0.083 Cl
ATOM     15  C   UNL d   1       3.068   1.637  -3.086  0.00  0.00     0.025 A 
ATOM     16  C   UNL d   1       4.272   1.198  -2.536  0.00  0.00     0.005 A 
ATOM     17  C   UNL d   1       4.254   0.437  -1.372  0.00  0.00     0.043 A 
ATOM     18  C   UNL d   1       3.038   0.134  -0.760  0.00  0.00     0.130 A 
ATOM     19  F   UNL d   1       3.076  -0.547   0.397  0.00  0.00    -0.205 F 
ENDBRANCH   6  12
ENDBRANCH   1   5
BRANCH   2  20
ATOM     20  C   UNL d   1       0.497  -4.810  -0.079  0.00  0.00     0.036 A 
ATOM     21  C   UNL d   1       1.864  -5.018   0.119  0.00  0.00     0.054 A 
ATOM     22  C   UNL d   1       2.407  -6.296  -0.010  0.00  0.00     0.076 A 
ATOM     23  C   UNL d   1       1.584  -7.389  -0.284  0.00  0.00     0.025 A 
ATOM     24  C   UNL d   1       0.208  -7.194  -0.412  0.00  0.00     0.004 A 
ATOM     25  C   UNL d   1      -0.338  -5.909  -0.298  0.00  0.00     0.029 A 
BRANCH  22  26
ATOM     26  S   UNL d   1       4.152  -6.547   0.096  0.00  0.00     0.239 S 
ATOM     27  O   UNL d   1       4.412  -7.444   1.200  0.00  0.00    -0.206 OA
ATOM     28  O   UNL d   1       4.658  -6.777  -1.234  0.00  0.00    -0.206 OA
BRANCH  26  29
ATOM     29  N   UNL d   1       4.775  -5.061   0.574  0.00  0.00    -0.225 NA
ATOM     30  H   UNL d   1       5.274  -5.153   1.455  0.00  0.00     0.136 HD
ATOM     31  H   UNL d   1       5.322  -4.649  -0.183  0.00  0.00     0.136 HD
ENDBRANCH  26  29
ENDBRANCH  22  26
ENDBRANCH   2  20
TORSDOF 5
