REMARK  1 active torsions:
REMARK  status: ('A' for Active; 'I' for Inactive)
REMARK    1  A    between atoms: C_6  and  N_5 
ROOT
ATOM      1  C   UNL d   1      -1.142  -3.128  -0.265  0.00  0.00     0.140 C 
ATOM      2  N   UNL d   1      -1.362  -4.271  -0.821  0.00  0.00    -0.370 N 
ATOM      3  HN  UNL d   1      -0.680  -5.026  -0.881  1.00  0.00     0.161 HD
ATOM      4  S   UNL d   1      -2.504  -2.020  -0.204  0.00  0.00    -0.093 SA
ATOM      5  N   UNL d   1      -0.013  -2.651   0.326  0.00  0.00    -0.337 N 
ATOM      6  C   UNL d   1      -2.732  -4.336  -1.355  0.00  0.00     0.132 C 
ATOM      7  C   UNL d   1      -3.627  -3.365  -0.610  0.00  0.00     0.102 C 
ATOM      8  H   UNL d   1      -0.106  -1.751   0.776  0.00  0.00     0.168 HD
ENDROOT
BRANCH   5   9
ATOM      9  C   UNL d   1       1.281  -3.194   0.309  0.00  0.00     0.034 A 
ATOM     10  C   UNL d   1       1.681  -4.200  -0.580  0.00  0.00     0.031 A 
ATOM     11  C   UNL d   1       2.966  -4.749  -0.525  0.00  0.00     0.026 A 
ATOM     12  C   UNL d   1       3.865  -4.310   0.439  0.00  0.00     0.034 A 
ATOM     13  C   UNL d   1       3.489  -3.323   1.345  0.00  0.00     0.026 A 
ATOM     14 CL   UNL d   1       5.441  -4.992   0.518  0.00  0.00    -0.084 Cl
ATOM     15  C   UNL d   1       2.205  -2.772   1.279  0.00  0.00     0.031 A 
ENDBRANCH   5   9
TORSDOF 1
