REMARK  3 active torsions:
REMARK  status: ('A' for Active; 'I' for Inactive)
REMARK    1  A    between atoms: N_6  and  C_2 
REMARK    2  A    between atoms: C_8  and  N_6 
REMARK    3  A    between atoms: S_11  and  C_10 
ROOT
ATOM      1  O   UNL d   1       1.820  -0.816   0.128  0.00  0.00    -0.287 OA
ATOM      2  C   UNL d   1       0.793  -1.804  -0.067  0.00  0.00     0.266 C 
ATOM      3  C   UNL d   1       1.327   0.447   0.052  0.00  0.00     0.296 C 
ATOM      4  C   UNL d   1      -0.453  -0.999  -0.089  0.00  0.00     0.007 A 
ATOM      5  C   UNL d   1      -0.117   0.338  -0.056  0.00  0.00     0.050 A 
ATOM      6  O   UNL d   1       1.968   1.478   0.087  0.00  0.00    -0.259 OA
ATOM      7  C   UNL d   1      -1.056   1.351  -0.106  0.00  0.00     0.018 A 
ATOM      8  C   UNL d   1      -1.784  -1.383  -0.152  0.00  0.00     0.012 A 
ATOM      9  C   UNL d   1      -2.399   0.979  -0.178  0.00  0.00     0.001 A 
ATOM     10  C   UNL d   1      -2.759  -0.379  -0.195  0.00  0.00     0.001 A 
ENDROOT
BRANCH   2  11
ATOM     11  N   UNL d   1       0.775  -2.779   1.003  0.00  0.00    -0.359 N 
ATOM     12  H   UNL d   1       0.332  -2.427   1.846  0.00  0.00     0.162 HD
BRANCH  11  13
ATOM     13  C   UNL d   1       1.912  -3.533   1.312  0.00  0.00     0.031 A 
ATOM     14  C   UNL d   1       3.086  -3.545   0.543  0.00  0.00     0.047 A 
ATOM     15  C   UNL d   1       4.193  -4.327   0.898  0.00  0.00     0.002 A 
ATOM     16  C   UNL d   1       4.094  -5.173   2.007  0.00  0.00     0.018 A 
ATOM     17  C   UNL d   1       2.919  -5.220   2.753  0.00  0.00     0.004 A 
ATOM     18  C   UNL d   1       1.839  -4.410   2.403  0.00  0.00     0.029 A 
BRANCH  15  19
ATOM     19  S   UNL d   1       5.723  -4.354  -0.032  0.00  0.00    -0.134 SA
ATOM     20  C   UNL d   1       5.847  -2.646  -0.636  0.00  0.00     0.095 C 
ENDBRANCH  15  19
ENDBRANCH  11  13
ENDBRANCH   2  11
TORSDOF 3
