REMARK  4 active torsions:
REMARK  status: ('A' for Active; 'I' for Inactive)
REMARK    1  A    between atoms: N_2  and  S_1 
REMARK    2  A    between atoms: C_3  and  S_1 
REMARK    3  A    between atoms: C_4  and  N_5 
REMARK    4  A    between atoms: N_7  and  C_8 
REMARK       I    between atoms: C_15  and  N_7 
ROOT
ATOM      1  N   UNL d   1       0.489   0.373  -1.586  0.00  0.00    -0.205 NA
ATOM      2  N   UNL d   1       0.929   1.766  -4.293  0.00  0.00    -0.377 N 
ATOM      3  C   UNL d   1       0.875   1.809  -1.784  0.00  0.00     0.127 C 
ATOM      4  C   UNL d   1       0.412   2.452  -3.094  0.00  0.00     0.138 C 
ATOM      5  C   UNL d   1       0.174  -0.587  -3.882  0.00  0.00     0.035 C 
ATOM      6  C   UNL d   1       1.074  -0.512  -2.650  0.00  0.00     0.109 C 
ATOM      7  C   UNL d   1       0.081   0.664  -4.763  0.00  0.00     0.124 C 
ENDROOT
BRANCH   1   8
ATOM      8  S   UNL d   1       0.927  -0.188  -0.004  0.00  0.00     0.243 S 
ATOM      9  O   UNL d   1       2.298   0.227   0.234  0.00  0.00    -0.206 OA
ATOM     10  O   UNL d   1       0.529  -1.570   0.140  0.00  0.00    -0.206 OA
BRANCH   8  11
ATOM     11  C   UNL d   1      -0.130   0.770   1.049  0.00  0.00     0.076 A 
ATOM     12  C   UNL d   1      -1.500   0.503   1.039  0.00  0.00     0.050 A 
ATOM     13  C   UNL d   1      -2.350   1.268   1.841  0.00  0.00     0.062 A 
ATOM     14 CL   UNL d   1      -4.047   0.930   1.780  0.00  0.00    -0.082 Cl
ATOM     15  C   UNL d   1      -1.847   2.306   2.649  0.00  0.00     0.056 A 
ATOM     16  C   UNL d   1      -0.464   2.531   2.665  0.00  0.00     0.033 A 
ATOM     17  C   UNL d   1       0.396   1.765   1.874  0.00  0.00     0.027 A 
BRANCH  15  18
ATOM     18  N   UNL d   1      -2.751   3.075   3.426  0.00  0.00    -0.326 N 
ATOM     19  C   UNL d   1      -2.483   4.268   4.065  0.00  0.00     0.218 C 
ATOM     20  O   UNL d   1      -1.429   4.904   4.004  0.00  0.00    -0.274 OA
ATOM     21  C   UNL d   1      -3.630   4.794   4.886  0.00  0.00     0.117 C 
ATOM     22  H   UNL d   1      -3.712   2.748   3.417  0.00  0.00     0.169 HD
ENDBRANCH  15  18
ENDBRANCH   8  11
ENDBRANCH   1   8
BRANCH   2  23
ATOM     23  C   UNL d   1       1.897   2.321  -5.145  0.00  0.00     0.077 A 
ATOM     24  C   UNL d   1       2.880   1.517  -5.790  0.00  0.00     0.077 A 
ATOM     25 CL   UNL d   1       2.998  -0.205  -5.640  0.00  0.00    -0.080 Cl
ATOM     26  C   UNL d   1       3.879   2.102  -6.574  0.00  0.00     0.113 A 
ATOM     27  N   UNL d   1       4.018   3.426  -6.773  0.00  0.00    -0.372 N 
ATOM     28  C   UNL d   1       3.076   4.194  -6.194  0.00  0.00     0.113 A 
ATOM     29  HN  UNL d   1       4.782   3.819  -7.323  1.00  0.00     0.164 HD
ATOM     30  C   UNL d   1       2.009   3.709  -5.426  0.00  0.00     0.077 A 
ATOM     31 CL   UNL d   1       0.816   4.904  -5.022  0.00  0.00    -0.080 Cl
ENDBRANCH   2  23
TORSDOF 4
