REMARK  3 active torsions:
REMARK  status: ('A' for Active; 'I' for Inactive)
REMARK    1  A    between atoms: N_4  and  C_1 
REMARK    2  A    between atoms: S_10  and  C_3 
REMARK    3  A    between atoms: C_14  and  S_10 
ROOT
ATOM      1  C   UNL d   1      -1.160  -1.085   0.026  0.00  0.00     0.132 A 
ATOM      2  C   UNL d   1       0.832   0.274   0.003  0.00  0.00     0.086 A 
ATOM      3  C   UNL d   1      -0.005   1.400  -0.028  0.00  0.00     0.096 A 
ATOM      4  C   UNL d   1       0.248  -1.014   0.023  0.00  0.00    -0.003 A 
ATOM      5  N   UNL d   1      -1.361   1.303  -0.027  0.00  0.00    -0.351 N 
ATOM      6  HN  UNL d   1      -1.940   2.142  -0.052  1.00  0.00     0.166 HD
ATOM      7  C   UNL d   1      -1.936   0.073   0.010  0.00  0.00     0.040 A 
ATOM      8  C   UNL d   1       2.255   0.440   0.002  0.00  0.00     0.103 C 
ATOM      9  N   UNL d   1       3.412   0.541   0.006  0.00  0.00    -0.191 NA
ATOM     10  C   UNL d   1       1.084  -2.271   0.009  0.00  0.00     0.052 C 
ATOM     11  C   UNL d   1      -3.439   0.058   0.022  0.00  0.00     0.071 C 
ENDROOT
BRANCH   3  12
ATOM     12  S   UNL d   1       0.649   3.052  -0.259  0.00  0.00    -0.071 SA
BRANCH  12  13
ATOM     13  C   UNL d   1       0.044   3.951   1.154  0.00  0.00     0.007 A 
ATOM     14  C   UNL d   1       0.958   4.449   2.091  0.00  0.00     0.019 A 
ATOM     15  C   UNL d   1       0.527   5.273   3.135  0.00  0.00     0.001 A 
ATOM     16  C   UNL d   1      -0.821   5.607   3.247  0.00  0.00     0.000 A 
ATOM     17  C   UNL d   1      -1.739   5.111   2.323  0.00  0.00     0.001 A 
ATOM     18  C   UNL d   1      -1.307   4.288   1.279  0.00  0.00     0.019 A 
ENDBRANCH  12  13
ENDBRANCH   3  12
BRANCH   1  19
ATOM     19  N   UNL d   1      -1.828  -2.372   0.035  0.00  0.00    -0.113 N 
ATOM     20  O   UNL d   1      -1.698  -3.066   1.050  0.00  0.00    -0.532 OA
ATOM     21  O   UNL d   1      -2.469  -2.680  -0.977  0.00  0.00    -0.532 OA
ENDBRANCH   1  19
TORSDOF 3
