REMARK  12 active torsions:
REMARK  status: ('A' for Active; 'I' for Inactive)
REMARK    1  A    between atoms: C_2  and  C_1 
REMARK    2  A    between atoms: C_3  and  C_1 
REMARK    3  A    between atoms: C_4  and  C_1 
REMARK    4  A    between atoms: C_5  and  C_1 
REMARK    5  A    between atoms: O_14  and  C_2 
REMARK    6  A    between atoms: C_13  and  C_3 
REMARK    7  A    between atoms: C_12  and  C_4 
REMARK    8  A    between atoms: C_6  and  C_13 
REMARK    9  A    between atoms: O_16  and  C_6 
REMARK   10  A    between atoms: C_7  and  C_12 
REMARK   11  A    between atoms: O_15  and  C_7 
REMARK   12  A    between atoms: C_18  and  O_14 
ROOT
ATOM      1  C   UNL d   1       1.004  -0.044  -0.085  0.00  0.00     0.109 C 
ENDROOT
BRANCH   1   2
ATOM      2  C   UNL d   1       0.429   0.579  -1.361  0.00  0.00     0.275 C 
ATOM      3  O   UNL d   1      -0.337   0.010  -2.132  0.00  0.00    -0.264 OA
BRANCH   2   4
ATOM      4  O   UNL d   1       0.876   1.855  -1.510  0.00  0.00    -0.321 OA
BRANCH   4   5
ATOM      5  C   UNL d   1       0.761   2.414  -2.827  0.00  0.00     0.174 C 
ATOM      6  C   UNL d   1       2.066   2.154  -3.557  0.00  0.00     0.034 C 
ENDBRANCH   4   5
ENDBRANCH   2   4
ENDBRANCH   1   2
BRANCH   1   7
ATOM      7  C   UNL d   1       0.618  -1.544   0.027  0.00  0.00     0.038 C 
BRANCH   7   8
ATOM      8  C   UNL d   1       1.137  -2.474  -1.084  0.00  0.00     0.111 C 
BRANCH   8   9
ATOM      9  C   UNL d   1       0.645  -3.889  -0.875  0.00  0.00     0.139 C 
ATOM     10  O   UNL d   1      -0.006  -4.268   0.088  0.00  0.00    -0.650 OA
BRANCH   9  11
ATOM     11  O   UNL d   1       1.017  -4.721  -1.871  0.00  0.00    -0.776 OA
ATOM     12  H   UNL d   1       1.527  -4.281  -2.580  0.00  0.00     0.167 HD
ENDBRANCH   9  11
ENDBRANCH   8   9
ENDBRANCH   7   8
ENDBRANCH   1   7
BRANCH   1  13
ATOM     13  C   UNL d   1       0.421   0.746   1.121  0.00  0.00     0.038 C 
BRANCH  13  14
ATOM     14  C   UNL d   1      -1.113   0.777   1.226  0.00  0.00     0.111 C 
BRANCH  14  15
ATOM     15  C   UNL d   1      -1.559   1.594   2.420  0.00  0.00     0.139 C 
ATOM     16  O   UNL d   1      -0.813   2.196   3.174  0.00  0.00    -0.650 OA
BRANCH  15  17
ATOM     17  O   UNL d   1      -2.901   1.590   2.576  0.00  0.00    -0.776 OA
ATOM     18  H   UNL d   1      -3.381   1.061   1.910  0.00  0.00     0.167 HD
ENDBRANCH  15  17
ENDBRANCH  14  15
ENDBRANCH  13  14
ENDBRANCH   1  13
BRANCH   1  19
ATOM     19  C   UNL d   1       2.544   0.049  -0.155  0.00  0.00     0.141 C 
ATOM     20  O   UNL d   1       3.127  -0.054  -1.241  0.00  0.00    -0.297 OA
ATOM     21  C   UNL d   1       3.380   0.124   1.098  0.00  0.00     0.092 C 
ENDBRANCH   1  19
TORSDOF 12
