REMARK  7 active torsions:
REMARK  status: ('A' for Active; 'I' for Inactive)
REMARK    1  A    between atoms: C_3  and  C_1 
REMARK    2  A    between atoms: C_4  and  C_1 
REMARK    3  A    between atoms: N_8  and  C_2 
REMARK    4  A    between atoms: S_9  and  C_2 
REMARK    5  A    between atoms: O_11  and  C_3 
REMARK    6  A    between atoms: N_5  and  C_4 
REMARK    7  A    between atoms: C_15  and  O_11 
ROOT
ATOM      1  C   UNL d   1       1.052  -0.037   0.077  0.00  0.00     0.134 C 
ATOM      2  C   UNL d   1       0.352   0.591  -0.914  0.00  0.00     0.092 C 
ENDROOT
BRANCH   1   3
ATOM      3  C   UNL d   1       0.521  -0.751   1.258  0.00  0.00     0.305 C 
ATOM      4  O   UNL d   1       1.111  -0.771   2.333  0.00  0.00    -0.258 OA
BRANCH   3   5
ATOM      5  O   UNL d   1      -0.620  -1.434   0.995  0.00  0.00    -0.317 OA
BRANCH   5   6
ATOM      6  C   UNL d   1      -1.139  -2.233   2.076  0.00  0.00     0.174 C 
ATOM      7  C   UNL d   1      -1.764  -1.385   3.169  0.00  0.00     0.034 C 
ENDBRANCH   5   6
ENDBRANCH   3   5
ENDBRANCH   1   3
BRANCH   1   8
ATOM      8  C   UNL d   1       2.572  -0.037   0.077  0.00  0.00    -0.028 C 
BRANCH   8   9
ATOM      9  N   UNL d   1       3.833  -0.037   0.077  0.00  0.00    -0.365 N 
ATOM     10  HN2 UNL d   1       2.813  -0.037   0.077  1.00  0.00     0.165 HD
ATOM     11  HN1 UNL d   1       4.853  -0.037   0.077  1.00  0.00     0.165 HD
ENDBRANCH   8   9
ENDBRANCH   1   8
BRANCH   2  12
ATOM     12  N   UNL d   1      -1.051   0.741  -1.014  0.00  0.00    -0.383 N 
ATOM     13  C   UNL d   1      -1.948   0.933   0.124  0.00  0.00     0.149 C 
ATOM     14  C   UNL d   1      -1.742   0.898  -2.303  0.00  0.00     0.149 C 
ENDBRANCH   2  12
BRANCH   2  15
ATOM     15  S   UNL d   1       1.362   1.293  -2.245  0.00  0.00    -0.115 SA
ATOM     16  C   UNL d   1       1.123   3.052  -1.902  0.00  0.00     0.097 C 
ENDBRANCH   2  15
TORSDOF 7
