REMARK  3 active torsions:
REMARK  status: ('A' for Active; 'I' for Inactive)
REMARK    1  A    between atoms: C_2  and  C_1 
REMARK       I    between atoms: N_5  and  C_2 
REMARK    2  A    between atoms: C_4  and  C_7 
REMARK    3  A    between atoms: C_11  and  C_6 
ROOT
ATOM      1  C   UNL d   1      -0.251  -1.039   0.029  0.00  0.00     0.144 A 
ATOM      2  O   UNL d   1       1.027  -0.570   0.206  0.00  0.00    -0.296 OA
ATOM      3  C   UNL d   1       0.959   0.784   0.215  0.00  0.00     0.130 A 
ATOM      4  C   UNL d   1      -1.129   0.033   0.070  0.00  0.00     0.046 A 
ATOM      5  C   UNL d   1      -0.345   1.209   0.148  0.00  0.00     0.050 A 
ENDROOT
BRANCH   1   6
ATOM      6  C   UNL d   1      -0.538  -2.457  -0.145  0.00  0.00     0.277 C 
ATOM      7  N   UNL d   1       0.395  -3.284  -0.787  0.00  0.00    -0.346 N 
ATOM      8  C   UNL d   1       1.649  -2.860  -1.410  0.00  0.00     0.126 C 
ATOM      9  C   UNL d   1       0.068  -4.693  -1.015  0.00  0.00     0.126 C 
ATOM     10  C   UNL d   1       2.799  -3.677  -0.836  0.00  0.00     0.020 C 
ATOM     11  C   UNL d   1       2.560  -5.163  -1.100  0.00  0.00     0.003 C 
ATOM     12  C   UNL d   1       1.203  -5.605  -0.548  0.00  0.00     0.020 C 
ATOM     13  O   UNL d   1      -1.624  -2.915   0.219  0.00  0.00    -0.265 OA
ENDBRANCH   1   6
BRANCH   3  14
ATOM     14  C   UNL d   1       2.177   1.509   0.216  0.00  0.00    -0.036 C 
ATOM     15  C   UNL d   1       3.173   2.176   0.154  0.00  0.00    -0.059 C 
BRANCH  15  16
ATOM     16  C   UNL d   1       4.323   3.025   0.041  0.00  0.00     0.018 A 
ATOM     17  C   UNL d   1       4.164   4.414   0.070  0.00  0.00     0.020 A 
ATOM     18  C   UNL d   1       5.276   5.252  -0.048  0.00  0.00     0.001 A 
ATOM     19  C   UNL d   1       6.549   4.703  -0.198  0.00  0.00     0.000 A 
ATOM     20  C   UNL d   1       6.711   3.318  -0.231  0.00  0.00     0.001 A 
ATOM     21  C   UNL d   1       5.599   2.479  -0.112  0.00  0.00     0.020 A 
ENDBRANCH  15  16
ENDBRANCH   3  14
TORSDOF 3
