REMARK  2 active torsions:
REMARK  status: ('A' for Active; 'I' for Inactive)
REMARK    1  A    between atoms: C_5  and  C_2 
REMARK       I    between atoms: N_7  and  C_5 
REMARK    2  A    between atoms: C_9  and  N_7 
ROOT
ATOM      1  N   UNL d   1      -1.612  -1.006  -0.243  0.00  0.00    -0.351 N 
ATOM      2  C   UNL d   1      -2.462   0.084  -0.257  0.00  0.00     0.102 A 
ATOM      3  C   UNL d   1      -0.295  -0.613  -0.195  0.00  0.00     0.049 A 
ATOM      4  C   UNL d   1      -0.296   0.781  -0.188  0.00  0.00    -0.006 A 
ATOM      5  C   UNL d   1      -1.653   1.207  -0.217  0.00  0.00     0.049 A 
ATOM      6  C   UNL d   1       0.886  -1.375  -0.148  0.00  0.00    -0.034 A 
ATOM      7  C   UNL d   1       0.932   1.467  -0.143  0.00  0.00     0.020 A 
ATOM      8  C   UNL d   1       2.096  -0.653  -0.133  0.00  0.00     0.015 A 
ATOM      9  C   UNL d   1       2.133   0.747  -0.138  0.00  0.00    -0.061 A 
ATOM     10  C   UNL d   1       0.933  -2.876  -0.127  0.00  0.00     0.050 C 
ATOM     11  C   UNL d   1       3.440   1.482  -0.141  0.00  0.00     0.048 C 
ATOM     12  H   UNL d   1      -1.939  -1.962  -0.259  0.00  0.00     0.166 HD
ENDROOT
BRANCH   2  13
ATOM     13  C   UNL d   1      -3.901  -0.064  -0.261  0.00  0.00     0.272 C 
ATOM     14  N   UNL d   1      -4.587   1.075  -0.627  0.00  0.00    -0.320 N 
ATOM     15  H   UNL d   1      -4.077   1.747  -1.188  0.00  0.00     0.169 HD
ATOM     16  O   UNL d   1      -4.434  -1.142   0.002  0.00  0.00    -0.266 OA
BRANCH  14  17
ATOM     17  C   UNL d   1      -5.984   1.262  -0.539  0.00  0.00     0.052 A 
ATOM     18  C   UNL d   1      -6.627   2.136  -1.435  0.00  0.00     0.040 A 
ATOM     19  C   UNL d   1      -7.994   2.390  -1.327  0.00  0.00     0.063 A 
ATOM     20 BR   UNL d   1      -5.680   2.946  -2.873  0.00  0.00    -0.049 Br
ATOM     21  C   UNL d   1      -8.717   1.796  -0.300  0.00  0.00     0.117 A 
ATOM     22  C   UNL d   1      -8.101   0.935   0.602  0.00  0.00     0.044 A 
ATOM     23  F   UNL d   1     -10.022   2.059  -0.174  0.00  0.00    -0.206 F 
ATOM     24  C   UNL d   1      -6.738   0.657   0.475  0.00  0.00     0.034 A 
ENDBRANCH  14  17
ENDBRANCH   2  13
TORSDOF 2
