REMARK  1 active torsions:
REMARK  status: ('A' for Active; 'I' for Inactive)
REMARK    1  A    between atoms: O_10  and  C_2 
ROOT
ATOM      1  C   UNL d   1       2.360  -0.660  -0.082  0.00  0.00     0.146 A 
ATOM      2  C   UNL d   1       1.214  -1.369  -0.052  0.00  0.00     0.104 A 
ATOM      3  C   UNL d   1       2.321   0.829  -0.061  0.00  0.00     0.269 A 
ATOM      4  N   UNL d   1       1.091   1.428  -0.028  0.00  0.00    -0.321 N 
ATOM      5  C   UNL d   1      -0.090  -0.680  -0.023  0.00  0.00     0.025 A 
ATOM      6  C   UNL d   1      -0.115   0.721  -0.018  0.00  0.00     0.048 A 
ATOM      7  C   UNL d   1       3.630  -1.290  -0.142  0.00  0.00     0.108 C 
ATOM      8  N   UNL d   1       4.612  -1.907  -0.196  0.00  0.00    -0.191 NA
ATOM      9  O   UNL d   1       3.345   1.508  -0.074  0.00  0.00    -0.266 OA
ATOM     10  C   UNL d   1      -1.309  -1.370  -0.014  0.00  0.00     0.016 A 
ATOM     11  C   UNL d   1      -1.322   1.423  -0.011  0.00  0.00     0.030 A 
ATOM     12  C   UNL d   1      -2.521  -0.674  -0.012  0.00  0.00     0.001 A 
ATOM     13  C   UNL d   1      -2.527   0.720  -0.013  0.00  0.00     0.002 A 
ATOM     14  H   UNL d   1       1.091   2.440  -0.018  0.00  0.00     0.169 HD
ENDROOT
BRANCH   2  15
ATOM     15  O   UNL d   1       1.139  -2.752  -0.060  0.00  0.00    -0.358 OA
ATOM     16  H   UNL d   1       2.027  -3.153  -0.076  0.00  0.00     0.217 HD
ENDBRANCH   2  15
TORSDOF 1
