REMARK  8 active torsions:
REMARK  status: ('A' for Active; 'I' for Inactive)
REMARK       I    between atoms: N_6  and  C_1 
REMARK       I    between atoms: N_7  and  C_1 
REMARK    1  A    between atoms: O_8  and  C_2 
REMARK    2  A    between atoms: O_9  and  C_3 
REMARK    3  A    between atoms: C_11  and  N_6 
REMARK    4  A    between atoms: C_10  and  N_7 
REMARK    5  A    between atoms: C_19  and  O_8 
REMARK    6  A    between atoms: C_20  and  O_9 
REMARK    7  A    between atoms: O_22  and  C_12 
REMARK    8  A    between atoms: O_21  and  C_13 
ROOT
ATOM      1  C   UNL d   1       1.057  -0.183   0.378  0.00  0.00     0.303 C 
ATOM      2  N   UNL d   1       0.428   1.012   0.125  0.00  0.00    -0.313 N 
ATOM      3  N   UNL d   1       0.214  -1.220   0.723  0.00  0.00    -0.210 NA
ATOM      4  O   UNL d   1       2.265  -0.285   0.171  0.00  0.00    -0.253 OA
ATOM      5  H   UNL d   1       0.969   1.620  -0.470  0.00  0.00     0.170 HD
ATOM      6  H   UNL d   1      -0.660  -1.138   0.223  0.00  0.00     0.138 HD
ENDROOT
BRANCH   2   7
ATOM      7  C   UNL d   1      -0.889   1.362   0.453  0.00  0.00     0.038 A 
ATOM      8  C   UNL d   1      -1.598   2.137  -0.472  0.00  0.00     0.069 A 
ATOM      9  C   UNL d   1      -2.941   2.465  -0.256  0.00  0.00     0.104 A 
ATOM     10  C   UNL d   1      -3.571   2.028   0.924  0.00  0.00     0.101 A 
ATOM     11  C   UNL d   1      -2.831   1.301   1.866  0.00  0.00     0.042 A 
ATOM     12  C   UNL d   1      -1.501   0.973   1.637  0.00  0.00     0.032 A 
BRANCH   9  13
ATOM     13  O   UNL d   1      -3.670   3.153  -1.196  0.00  0.00    -0.343 OA
BRANCH  13  14
ATOM     14  C   UNL d   1      -2.977   4.072  -2.040  0.00  0.00     0.129 C 
ATOM     15  C   UNL d   1      -2.379   5.241  -1.262  0.00  0.00     0.032 C 
ATOM     16  C   UNL d   1      -2.411   6.435  -2.204  0.00  0.00     0.002 C 
ATOM     17  C   UNL d   1      -3.358   6.071  -3.342  0.00  0.00     0.002 C 
ATOM     18  C   UNL d   1      -3.990   4.741  -2.964  0.00  0.00     0.032 C 
ENDBRANCH  13  14
ENDBRANCH   9  13
BRANCH  10  19
ATOM     19  O   UNL d   1      -4.866   2.211   1.333  0.00  0.00    -0.353 OA
ATOM     20  C   UNL d   1      -5.755   2.940   0.506  0.00  0.00     0.210 C 
ENDBRANCH  10  19
ENDBRANCH   2   7
BRANCH   3  21
ATOM     21  C   UNL d   1       0.718  -2.526   0.793  0.00  0.00     0.019 A 
ATOM     22  C   UNL d   1       1.217  -2.958   2.015  0.00  0.00     0.063 A 
ATOM     23  C   UNL d   1       1.691  -4.261   2.170  0.00  0.00     0.104 A 
ATOM     24  C   UNL d   1       1.634  -5.140   1.074  0.00  0.00     0.101 A 
ATOM     25  C   UNL d   1       1.131  -4.685  -0.156  0.00  0.00     0.041 A 
ATOM     26  C   UNL d   1       0.650  -3.384  -0.296  0.00  0.00     0.027 A 
BRANCH  23  27
ATOM     27  O   UNL d   1       2.200  -4.697   3.366  0.00  0.00    -0.343 OA
BRANCH  27  28
ATOM     28  C   UNL d   1       2.804  -3.716   4.218  0.00  0.00     0.129 C 
ATOM     29  C   UNL d   1       4.056  -3.097   3.601  0.00  0.00     0.032 C 
ATOM     30  C   UNL d   1       5.034  -2.860   4.743  0.00  0.00     0.002 C 
ATOM     31  C   UNL d   1       4.454  -3.550   5.971  0.00  0.00     0.002 C 
ATOM     32  C   UNL d   1       3.312  -4.417   5.472  0.00  0.00     0.032 C 
ENDBRANCH  27  28
ENDBRANCH  23  27
BRANCH  24  33
ATOM     33  O   UNL d   1       2.084  -6.435   1.016  0.00  0.00    -0.353 OA
ATOM     34  C   UNL d   1       2.022  -7.190   2.218  0.00  0.00     0.210 C 
ENDBRANCH  24  33
ENDBRANCH   3  21
TORSDOF 8
