REMARK  5 active torsions:
REMARK  status: ('A' for Active; 'I' for Inactive)
REMARK    1  A    between atoms: S_13  and  C_2 
REMARK    2  A    between atoms: C_10  and  C_3 
REMARK       I    between atoms: C_8  and  N_9 
REMARK    3  A    between atoms: O_11  and  C_8 
REMARK    4  A    between atoms: N_9  and  C_10 
REMARK    5  A    between atoms: C_14  and  O_11 
ROOT
ATOM      1  N   UNL d   1      -0.657  -2.725  -2.242  0.00  0.00    -0.318 N 
ATOM      2  C   UNL d   1      -1.345  -1.944  -3.131  0.00  0.00     0.162 A 
ATOM      3  C   UNL d   1      -0.204  -1.864  -1.264  0.00  0.00     0.117 A 
ATOM      4  N   UNL d   1      -1.300  -0.691  -2.744  0.00  0.00    -0.278 N 
ATOM      5  HN  UNL d   1      -1.725   0.102  -3.225  1.00  0.00     0.189 HD
ATOM      6  N   UNL d   1      -0.578  -0.638  -1.577  0.00  0.00    -0.285 N 
ATOM      7  HN  UNL d   1      -0.367   0.206  -1.043  1.00  0.00     0.188 HD
ATOM      8  C   UNL d   1      -0.448  -4.149  -2.282  0.00  0.00     0.160 C 
ENDROOT
BRANCH   3   9
ATOM      9  C   UNL d   1       0.480  -2.262  -0.003  0.00  0.00     0.203 C 
BRANCH   9  10
ATOM     10  N   UNL d   1       1.858  -2.624  -0.227  0.00  0.00    -0.330 N 
ATOM     11  C   UNL d   1       2.307  -3.898  -0.114  0.00  0.00     0.361 C 
ATOM     12  O   UNL d   1       1.575  -4.874  -0.011  0.00  0.00    -0.238 OA
ATOM     13  H   UNL d   1       2.553  -1.897  -0.328  0.00  0.00     0.165 HD
BRANCH  11  14
ATOM     14  O   UNL d   1       3.659  -3.926  -0.160  0.00  0.00    -0.294 OA
BRANCH  14  15
ATOM     15  C   UNL d   1       4.363  -5.196  -0.237  0.00  0.00     0.061 C 
ATOM     16  C   UNL d   1       4.023  -5.893  -1.562  0.00  0.00     0.046 C 
ATOM     17  C   UNL d   1       5.857  -4.833  -0.228  0.00  0.00     0.046 C 
ATOM     18  C   UNL d   1       4.084  -6.103   0.968  0.00  0.00     0.046 C 
ENDBRANCH  14  15
ENDBRANCH  11  14
ENDBRANCH   9  10
ENDBRANCH   3   9
BRANCH   2  19
ATOM     19  S   UNL d   1      -2.141  -2.549  -4.543  0.00  0.00    -0.097 SA
ATOM     20  C   UNL d   1      -2.916  -1.045  -5.176  0.00  0.00     0.099 C 
ENDBRANCH   2  19
TORSDOF 5
