REMARK  3 active torsions:
REMARK  status: ('A' for Active; 'I' for Inactive)
REMARK    1  A    between atoms: C_4  and  C_1 
REMARK    2  A    between atoms: C_12  and  C_5 
REMARK    3  A    between atoms: C_6  and  C_8 
ROOT
ATOM      1  N   UNL d   1       6.881   4.856   0.209  0.00  0.00    -0.191 NA
ATOM      2  C   UNL d   1       5.943   4.173   0.132  0.00  0.00     0.099 C 
ATOM      3  C   UNL d   1       2.491   1.702  -0.123  0.00  0.00    -0.009 A 
ATOM      4  C   UNL d   1       2.458   3.020  -0.602  0.00  0.00     0.015 A 
ATOM      5  C   UNL d   1       3.684   1.209   0.424  0.00  0.00     0.015 A 
ATOM      6  C   UNL d   1       4.780   3.336   0.041  0.00  0.00     0.044 A 
ATOM      7  C   UNL d   1       4.822   2.023   0.512  0.00  0.00     0.023 A 
ATOM      8  C   UNL d   1       3.600   3.831  -0.520  0.00  0.00     0.023 A 
ENDROOT
BRANCH   3   9
ATOM      9  C   UNL d   1       1.313   0.843  -0.145  0.00  0.00     0.050 A 
ATOM     10  N   UNL d   1       1.429  -0.536  -0.259  0.00  0.00    -0.349 N 
ATOM     11  C   UNL d   1       0.259  -1.116  -0.094  0.00  0.00     0.087 A 
ATOM     12  HN  UNL d   1       2.301  -1.032  -0.444  1.00  0.00     0.166 HD
ATOM     13  S   UNL d   1      -1.062  -0.021   0.102  0.00  0.00    -0.081 SA
ATOM     14  C   UNL d   1       0.021   1.302   0.017  0.00  0.00     0.082 A 
BRANCH  11  15
ATOM     15  C   UNL d   1       0.045  -2.569  -0.040  0.00  0.00     0.028 A 
ATOM     16  C   UNL d   1       0.934  -3.466   0.582  0.00  0.00     0.063 A 
ATOM     17  C   UNL d   1       0.642  -4.847   0.537  0.00  0.00     0.034 A 
ATOM     18  C   UNL d   1      -0.513  -5.286  -0.081  0.00  0.00     0.088 A 
ATOM     19  N   UNL d   1      -1.387  -4.455  -0.669  0.00  0.00    -0.374 N 
ATOM     20  C   UNL d   1      -1.085  -3.133  -0.644  0.00  0.00     0.102 A 
ATOM     21  HN  UNL d   1      -2.238  -4.801  -1.114  1.00  0.00     0.164 HD
BRANCH  16  22
ATOM     22  C   UNL d   1       2.198  -3.082   1.315  0.00  0.00     0.418 C 
ATOM     23  F   UNL d   1       2.340  -1.784   1.678  0.00  0.00    -0.166 F 
ATOM     24  F   UNL d   1       2.302  -3.770   2.494  0.00  0.00    -0.166 F 
ATOM     25  F   UNL d   1       3.319  -3.416   0.614  0.00  0.00    -0.166 F 
ENDBRANCH  16  22
ENDBRANCH  11  15
ENDBRANCH   3   9
TORSDOF 3
