REMARK  4 active torsions:
REMARK  status: ('A' for Active; 'I' for Inactive)
REMARK    1  A    between atoms: O_16  and  C_1 
REMARK    2  A    between atoms: C_4  and  N_10 
REMARK    3  A    between atoms: N_10  and  N_5 
REMARK    4  A    between atoms: C_12  and  C_11 
ROOT
ATOM      1  C   UNL d   1      -0.018   0.111   0.025  0.00  0.00     0.100 A 
ATOM      2  C   UNL d   1       1.178  -0.618   0.036  0.00  0.00     0.046 A 
ATOM      3  C   UNL d   1      -1.239  -0.566   0.026  0.00  0.00     0.046 A 
ATOM      4  C   UNL d   1      -1.264  -1.959   0.044  0.00  0.00     0.034 A 
ATOM      5  C   UNL d   1       1.163  -2.015   0.054  0.00  0.00     0.034 A 
ATOM      6  C   UNL d   1      -0.064  -2.681   0.062  0.00  0.00    -0.017 A 
ATOM      7 BR   UNL d   1      -2.894   0.359   0.008  0.00  0.00    -0.048 Br
ATOM      8 BR   UNL d   1       2.851   0.276   0.030  0.00  0.00    -0.048 Br
ENDROOT
BRANCH   6   9
ATOM      9  C   UNL d   1      -0.097  -4.158   0.099  0.00  0.00     0.118 C 
ATOM     10  N   UNL d   1      -1.232  -4.780   0.120  0.00  0.00    -0.309 N 
ATOM     11  HN  UNL d   1      -2.120  -4.279   0.103  1.00  0.00     0.186 HD
BRANCH  10  12
ATOM     12  N   UNL d   1      -1.173  -6.140   0.166  0.00  0.00    -0.277 N 
ATOM     13  H   UNL d   1      -0.283  -6.627   0.195  0.00  0.00     0.189 HD
BRANCH  12  14
ATOM     14  C   UNL d   1      -2.326  -6.879   0.197  0.00  0.00     0.184 C 
ATOM     15  S   UNL d   1      -2.326  -8.534   0.272  0.00  0.00    -0.040 SA
ATOM     16  N   UNL d   1      -3.473  -6.158   0.162  0.00  0.00    -0.375 N 
ATOM     17  H   UNL d   1      -3.380  -5.150   0.124  0.00  0.00     0.158 HD
ATOM     18  H   UNL d   1      -4.382  -6.595   0.184  0.00  0.00     0.158 HD
ENDBRANCH  12  14
ENDBRANCH  10  12
ENDBRANCH   6   9
BRANCH   1  19
ATOM     19  O   UNL d   1      -0.011   1.480   0.017  0.00  0.00    -0.358 OA
ATOM     20  H   UNL d   1       0.914   1.783   0.038  0.00  0.00     0.217 HD
ENDBRANCH   1  19
TORSDOF 4
