REMARK  3 active torsions:
REMARK  status: ('A' for Active; 'I' for Inactive)
REMARK    1  A    between atoms: C_5  and  C_1 
REMARK    2  A    between atoms: C_2  and  C_3 
REMARK       I    between atoms: N_4  and  C_2 
REMARK    3  A    between atoms: C_8  and  N_4 
ROOT
ATOM      1  C   UNL d   1      -1.288  -1.050   0.141  0.00  0.00     0.245 C 
ATOM      2  N   UNL d   1      -1.868   0.202   0.096  0.00  0.00    -0.324 N 
ATOM      3  O   UNL d   1      -1.865  -2.124   0.287  0.00  0.00    -0.268 OA
ATOM      4  H   UNL d   1      -1.257   0.996  -0.039  0.00  0.00     0.169 HD
ENDROOT
BRANCH   1   5
ATOM      5  C   UNL d   1       0.195  -1.008  -0.029  0.00  0.00     0.075 C 
ATOM      6  C   UNL d   1       0.891  -2.156   0.041  0.00  0.00     0.018 C 
BRANCH   6   7
ATOM      7  C   UNL d   1       2.353  -2.315  -0.097  0.00  0.00    -0.014 A 
ATOM      8  C   UNL d   1       3.334  -1.493   0.489  0.00  0.00     0.044 A 
ATOM      9 CL   UNL d   1       2.950  -0.118   1.468  0.00  0.00    -0.083 Cl
ATOM     10  C   UNL d   1       4.696  -1.789   0.338  0.00  0.00     0.024 A 
ATOM     11  C   UNL d   1       5.102  -2.915  -0.377  0.00  0.00     0.002 A 
ATOM     12  C   UNL d   1       4.147  -3.750  -0.944  0.00  0.00     0.001 A 
ATOM     13  C   UNL d   1       2.788  -3.454  -0.804  0.00  0.00     0.013 A 
ENDBRANCH   6   7
ENDBRANCH   1   5
BRANCH   2  14
ATOM     14  C   UNL d   1      -3.251   0.498   0.152  0.00  0.00     0.035 A 
ATOM     15  C   UNL d   1      -4.246  -0.465   0.338  0.00  0.00     0.029 A 
ATOM     16  C   UNL d   1      -5.599  -0.110   0.310  0.00  0.00     0.002 A 
ATOM     17  C   UNL d   1      -5.972   1.214   0.107  0.00  0.00     0.000 A 
ATOM     18  C   UNL d   1      -4.991   2.190  -0.045  0.00  0.00     0.002 A 
ATOM     19  C   UNL d   1      -3.636   1.834  -0.017  0.00  0.00     0.029 A 
ENDBRANCH   2  14
TORSDOF 3
