REMARK  0 active torsions:
REMARK  status: ('A' for Active; 'I' for Inactive)
ROOT
ATOM      1  C   UNL d   1      -0.117  -1.149  -0.016  0.00  0.00     0.137 A 
ATOM      2  N   UNL d   1       0.134   0.238  -0.032  0.00  0.00    -0.260 N 
ATOM      3  C   UNL d   1      -1.387  -1.612  -0.030  0.00  0.00     0.096 A 
ATOM      4  C   UNL d   1      -0.831   1.226  -0.067  0.00  0.00     0.261 A 
ATOM      5  N   UNL d   1       1.094  -1.824   0.014  0.00  0.00    -0.339 N 
ATOM      6  C   UNL d   1      -2.457  -0.632  -0.056  0.00  0.00    -0.022 A 
ATOM      7  C   UNL d   1      -2.208   0.685  -0.081  0.00  0.00     0.018 A 
ATOM      8  C   UNL d   1       1.536   0.424  -0.009  0.00  0.00     0.071 A 
ATOM      9  C   UNL d   1       2.114  -0.866   0.019  0.00  0.00     0.061 A 
ATOM     10  C   UNL d   1      -1.676  -3.009  -0.018  0.00  0.00     0.104 C 
ATOM     11  N   UNL d   1      -1.909  -4.147  -0.008  0.00  0.00    -0.191 NA
ATOM     12  O   UNL d   1      -0.646   2.438  -0.084  0.00  0.00    -0.267 OA
ATOM     13  C   UNL d   1      -3.934  -0.884  -0.061  0.00  0.00     0.041 C 
ATOM     14  C   UNL d   1      -3.438   1.516  -0.106  0.00  0.00     0.045 C 
ATOM     15  C   UNL d   1       2.304   1.571  -0.011  0.00  0.00     0.032 A 
ATOM     16  C   UNL d   1       3.481  -1.030   0.047  0.00  0.00     0.032 A 
ATOM     17  C   UNL d   1      -4.499   0.496   0.314  0.00  0.00     0.009 C 
ATOM     18  C   UNL d   1       3.693   1.410   0.017  0.00  0.00     0.002 A 
ATOM     19  C   UNL d   1       4.275   0.126   0.045  0.00  0.00     0.002 A 
ATOM     20  H   UNL d   1       1.213  -2.823   0.027  0.00  0.00     0.167 HD
ENDROOT
TORSDOF 0
