REMARK  3 active torsions:
REMARK  status: ('A' for Active; 'I' for Inactive)
REMARK    1  A    between atoms: C_5  and  C_2 
REMARK    2  A    between atoms: O_13  and  C_5 
REMARK    3  A    between atoms: C_15  and  O_13 
ROOT
ATOM      1  C   UNL d   1       0.111  -0.475   0.043  0.00  0.00     0.086 A 
ATOM      2  C   UNL d   1      -2.238  -0.609  -0.271  0.00  0.00     0.042 A 
ATOM      3  C   UNL d   1       0.048   0.974  -0.100  0.00  0.00     0.085 A 
ATOM      4  C   UNL d   1      -1.029  -1.301  -0.041  0.00  0.00     0.051 A 
ATOM      5  O   UNL d   1       2.103   0.370   0.247  0.00  0.00    -0.156 OA
ATOM      6  N   UNL d   1       1.388  -0.817   0.253  0.00  0.00    -0.240 N 
ATOM      7  HN  UNL d   1       1.758  -1.757   0.390  1.00  0.00     0.197 HD
ATOM      8  N   UNL d   1       1.285   1.465   0.030  0.00  0.00    -0.240 N 
ATOM      9  HN  UNL d   1       1.567   2.444  -0.021  1.00  0.00     0.197 HD
ATOM     10  C   UNL d   1      -2.288   0.816  -0.412  0.00  0.00     0.020 A 
ATOM     11  C   UNL d   1      -1.158   1.655  -0.334  0.00  0.00     0.035 A 
ENDROOT
BRANCH   2  12
ATOM     12  C   UNL d   1      -3.543  -1.329  -0.385  0.00  0.00     0.298 C 
ATOM     13  O   UNL d   1      -4.588  -0.736  -0.607  0.00  0.00    -0.259 OA
BRANCH  12  14
ATOM     14  O   UNL d   1      -3.374  -2.696  -0.220  0.00  0.00    -0.275 OA
BRANCH  14  15
ATOM     15  C   UNL d   1      -4.428  -3.642  -0.288  0.00  0.00     0.079 A 
ATOM     16  C   UNL d   1      -4.027  -4.973  -0.432  0.00  0.00     0.039 A 
ATOM     17  C   UNL d   1      -4.986  -5.988  -0.498  0.00  0.00     0.026 A 
ATOM     18  C   UNL d   1      -6.340  -5.667  -0.418  0.00  0.00     0.034 A 
ATOM     19  C   UNL d   1      -6.741  -4.341  -0.265  0.00  0.00     0.026 A 
ATOM     20 CL   UNL d   1      -7.524  -6.912  -0.503  0.00  0.00    -0.084 Cl
ATOM     21  C   UNL d   1      -5.783  -3.325  -0.191  0.00  0.00     0.039 A 
ENDBRANCH  14  15
ENDBRANCH  12  14
ENDBRANCH   2  12
TORSDOF 3
