REMARK  2 active torsions:
REMARK  status: ('A' for Active; 'I' for Inactive)
REMARK    1  A    between atoms: C_2  and  C_1 
REMARK       I    between atoms: N_4  and  C_2 
REMARK    2  A    between atoms: C_7  and  C_3 
ROOT
ATOM      1  C   UNL d   1       1.020   0.307  -0.130  0.00  0.00     0.114 C 
ATOM      2  C   UNL d   1       0.325   0.378   1.026  0.00  0.00     0.058 C 
ATOM      3  C   UNL d   1       0.459   0.659  -1.383  0.00  0.00     0.105 C 
ATOM      4  N   UNL d   1       0.001   0.921  -2.420  0.00  0.00    -0.191 NA
ENDROOT
BRANCH   1   5
ATOM      5  C   UNL d   1       2.478  -0.020   0.006  0.00  0.00     0.264 C 
ATOM      6  N   UNL d   1       3.157  -0.754  -0.961  0.00  0.00    -0.347 N 
ATOM      7  C   UNL d   1       4.586  -1.018  -0.759  0.00  0.00     0.126 C 
ATOM      8  C   UNL d   1       2.648  -1.319  -2.215  0.00  0.00     0.126 C 
ATOM      9  C   UNL d   1       5.411  -0.443  -1.910  0.00  0.00     0.020 C 
ATOM     10  C   UNL d   1       4.890  -0.909  -3.271  0.00  0.00     0.003 C 
ATOM     11  C   UNL d   1       3.380  -0.682  -3.395  0.00  0.00     0.020 C 
ATOM     12  O   UNL d   1       3.055   0.360   1.030  0.00  0.00    -0.267 OA
ENDBRANCH   1   5
BRANCH   2  13
ATOM     13  C   UNL d   1      -1.067   0.652   1.095  0.00  0.00     0.033 A 
ATOM     14  N   UNL d   1      -1.521   1.512   2.069  0.00  0.00    -0.366 N 
ATOM     15  C   UNL d   1      -2.883   1.647   1.969  0.00  0.00     0.088 A 
ATOM     16  H   UNL d   1      -0.944   1.999   2.743  0.00  0.00     0.165 HD
ATOM     17  C   UNL d   1      -3.314   0.844   0.937  0.00  0.00     0.019 A 
ATOM     18  C   UNL d   1      -2.171   0.214   0.390  0.00  0.00     0.031 A 
ENDBRANCH   2  13
TORSDOF 2
