REMARK  1 active torsions:
REMARK  status: ('A' for Active; 'I' for Inactive)
REMARK       I    between atoms: C_4  and  N_2 
REMARK    1  A    between atoms: C_5  and  C_4 
ROOT
ATOM      1  C   UNL d   1      -0.682  -0.420   0.108  0.00  0.00    -0.005 A 
ATOM      2  N   UNL d   1      -3.017  -1.139   0.316  0.00  0.00    -0.343 N 
ATOM      3  C   UNL d   1      -1.089   0.895   0.094  0.00  0.00     0.020 A 
ATOM      4  C   UNL d   1      -4.049  -1.925   0.850  0.00  0.00     0.255 C 
ATOM      5  N   UNL d   1       0.016   1.697   0.060  0.00  0.00    -0.358 N 
ATOM      6  C   UNL d   1       0.738  -0.429   0.042  0.00  0.00     0.003 A 
ATOM      7  C   UNL d   1      -1.616  -1.574   0.151  0.00  0.00     0.167 C 
ATOM      8  C   UNL d   1       1.152   0.907   0.024  0.00  0.00     0.043 A 
ATOM      9  C   UNL d   1      -2.511   1.326   0.126  0.00  0.00     0.077 C 
ATOM     10  C   UNL d   1      -3.388   0.140  -0.339  0.00  0.00     0.132 C 
ATOM     11  C   UNL d   1       1.708  -1.447  -0.005  0.00  0.00     0.056 A 
ATOM     12  O   UNL d   1      -5.218  -1.540   0.846  0.00  0.00    -0.267 OA
ATOM     13  C   UNL d   1       2.506   1.272  -0.028  0.00  0.00     0.033 A 
ATOM     14  C   UNL d   1       3.051  -1.089  -0.057  0.00  0.00     0.117 A 
ATOM     15  C   UNL d   1       3.450   0.243  -0.067  0.00  0.00     0.044 A 
ATOM     16  F   UNL d   1       3.982  -2.054  -0.109  0.00  0.00    -0.206 F 
ATOM     17  H   UNL d   1       0.016   2.704   0.061  0.00  0.00     0.166 HD
ENDROOT
BRANCH   4  18
ATOM     18  C   UNL d   1      -3.778  -3.281   1.426  0.00  0.00     0.053 A 
ATOM     19  C   UNL d   1      -4.400  -3.716   2.613  0.00  0.00     0.051 A 
ATOM     20  C   UNL d   1      -4.159  -5.007   3.111  0.00  0.00     0.048 A 
ATOM     21 CL   UNL d   1      -5.462  -2.729   3.558  0.00  0.00    -0.083 Cl
ATOM     22  C   UNL d   1      -3.280  -5.858   2.449  0.00  0.00     0.035 A 
ATOM     23  C   UNL d   1      -2.674  -5.455   1.266  0.00  0.00     0.025 A 
ATOM     24 CL   UNL d   1      -2.955  -7.423   3.082  0.00  0.00    -0.084 Cl
ATOM     25  C   UNL d   1      -2.961  -4.194   0.736  0.00  0.00     0.020 A 
ENDBRANCH   4  18
TORSDOF 1
