REMARK  3 active torsions:
REMARK  status: ('A' for Active; 'I' for Inactive)
REMARK    1  A    between atoms: C_12  and  C_1 
REMARK    2  A    between atoms: C_10  and  O_14 
REMARK    3  A    between atoms: O_14  and  C_12 
ROOT
ATOM      1  C   UNL d   1      -4.979   3.334  -1.249  0.00  0.00     0.026 A 
ATOM      2  N   UNL d   1      -6.996   2.510  -2.298  0.00  0.00    -0.359 N 
ATOM      3  HN  UNL d   1      -7.993   2.609  -2.489  1.00  0.00     0.166 HD
ATOM      4  C   UNL d   1      -4.303   2.175  -1.689  0.00  0.00     0.083 A 
ATOM      5  C   UNL d   1      -6.352   3.426  -1.566  0.00  0.00     0.045 A 
ATOM      6  C   UNL d   1      -4.968   1.240  -2.485  0.00  0.00     0.062 A 
ATOM      7  C   UNL d   1      -6.309   1.450  -2.780  0.00  0.00     0.008 A 
ATOM      8  C   UNL d   1      -4.371   4.409  -0.557  0.00  0.00     0.040 A 
ATOM      9  C   UNL d   1      -7.073   4.531  -1.131  0.00  0.00     0.032 A 
ATOM     10  C   UNL d   1      -5.121   5.497  -0.122  0.00  0.00     0.035 A 
ATOM     11  C   UNL d   1      -6.478   5.561  -0.400  0.00  0.00     0.026 A 
ATOM     12 CL   UNL d   1      -4.362   6.762   0.760  0.00  0.00    -0.084 Cl
ATOM     13  C   UNL d   1      -7.063   0.515  -3.676  0.00  0.00     0.068 C 
ENDROOT
BRANCH   4  14
ATOM     14  O   UNL d   1      -2.960   1.950  -1.485  0.00  0.00    -0.346 OA
BRANCH  14  15
ATOM     15  C   UNL d   1      -2.602   1.717  -0.113  0.00  0.00     0.215 C 
BRANCH  15  16
ATOM     16  C   UNL d   1      -1.271   0.965  -0.058  0.00  0.00    -0.021 A 
ATOM     17  C   UNL d   1      -0.028   1.663   0.010  0.00  0.00    -0.047 A 
ATOM     18  C   UNL d   1       1.198   0.939  -0.027  0.00  0.00    -0.049 A 
ATOM     19  C   UNL d   1       0.043   3.175   0.086  0.00  0.00     0.049 C 
ATOM     20  C   UNL d   1       2.539   1.649  -0.044  0.00  0.00     0.049 C 
ATOM     21  C   UNL d   1       1.190  -0.480  -0.030  0.00  0.00    -0.049 A 
ATOM     22  C   UNL d   1      -0.042  -1.179  -0.051  0.00  0.00    -0.049 A 
ATOM     23  C   UNL d   1       2.514  -1.219  -0.019  0.00  0.00     0.049 C 
ATOM     24  C   UNL d   1      -1.269  -0.460  -0.107  0.00  0.00    -0.047 A 
ATOM     25  C   UNL d   1      -0.026  -2.693  -0.024  0.00  0.00     0.049 C 
ATOM     26  C   UNL d   1      -2.560  -1.246  -0.196  0.00  0.00     0.049 C 
ENDBRANCH  15  16
ENDBRANCH  14  15
ENDBRANCH   4  14
TORSDOF 3
