REMARK  4 active torsions:
REMARK  status: ('A' for Active; 'I' for Inactive)
REMARK    1  A    between atoms: C_4  and  C_1 
REMARK    2  A    between atoms: C_5  and  C_1 
REMARK    3  A    between atoms: N_6  and  N_2 
REMARK    4  A    between atoms: C_9  and  N_6 
ROOT
ATOM      1  C   UNL d   1       0.992   0.064  -0.151  0.00  0.00     0.139 C 
ATOM      2  N   UNL d   1       0.374  -0.403  -1.205  0.00  0.00    -0.294 N 
ATOM      3  HN  UNL d   1      -0.602  -0.172  -1.388  1.00  0.00     0.187 HD
ENDROOT
BRANCH   2   4
ATOM      4  N   UNL d   1       1.082  -1.210  -2.051  0.00  0.00    -0.300 N 
ATOM      5  H   UNL d   1       1.832  -1.783  -1.640  0.00  0.00     0.187 HD
BRANCH   4   6
ATOM      6  C   UNL d   1       0.340  -1.921  -3.026  0.00  0.00     0.048 A 
ATOM      7  C   UNL d   1      -0.861  -1.423  -3.555  0.00  0.00     0.034 A 
ATOM      8  C   UNL d   1      -1.544  -2.113  -4.560  0.00  0.00     0.044 A 
ATOM      9  C   UNL d   1      -1.023  -3.304  -5.047  0.00  0.00     0.116 A 
ATOM     10  C   UNL d   1       0.171  -3.813  -4.553  0.00  0.00     0.044 A 
ATOM     11  F   UNL d   1      -1.675  -3.966  -6.011  0.00  0.00    -0.206 F 
ATOM     12  C   UNL d   1       0.857  -3.116  -3.554  0.00  0.00     0.034 A 
ENDBRANCH   4   6
ENDBRANCH   2   4
BRANCH   1  13
ATOM     13  C   UNL d   1       0.130   0.818   0.837  0.00  0.00     0.177 C 
ATOM     14  O   UNL d   1       0.561   1.839   1.357  0.00  0.00    -0.291 OA
ATOM     15  C   UNL d   1      -1.212   0.234   1.172  0.00  0.00     0.098 C 
ENDBRANCH   1  13
BRANCH   1  16
ATOM     16  C   UNL d   1       2.468  -0.181   0.109  0.00  0.00     0.177 C 
ATOM     17  O   UNL d   1       2.898  -1.328  -0.016  0.00  0.00    -0.291 OA
ATOM     18  C   UNL d   1       3.352   0.992   0.410  0.00  0.00     0.098 C 
ENDBRANCH   1  16
TORSDOF 4
