REMARK  6 active torsions:
REMARK  status: ('A' for Active; 'I' for Inactive)
REMARK    1  A    between atoms: C_6  and  N_1 
REMARK    2  A    between atoms: N_7  and  C_6 
REMARK    3  A    between atoms: C_13  and  N_7 
REMARK    4  A    between atoms: N_14  and  C_8 
REMARK    5  A    between atoms: C_20  and  N_14 
REMARK    6  A    between atoms: C_21  and  N_14 
ROOT
ATOM      1  N   UNL d   1       3.861   1.232  -0.527  0.00  0.00    -0.275 NA
ATOM      2  H   UNL d   1       3.482   1.807  -1.283  0.00  0.00     0.129 HD
ENDROOT
BRANCH   1   3
ATOM      3  C   UNL d   1       3.068   1.454   0.676  0.00  0.00     0.230 C 
BRANCH   3   4
ATOM      4  N   UNL d   1       1.710   1.085   0.389  0.00  0.00    -0.267 N 
ATOM      5  C   UNL d   1       0.910   1.769  -0.481  0.00  0.00     0.262 C 
ATOM      6  C   UNL d   1      -0.414   1.154  -0.399  0.00  0.00     0.048 A 
ATOM      7  O   UNL d   1       1.179   2.725  -1.183  0.00  0.00    -0.267 OA
ATOM      8  C   UNL d   1      -1.568   1.407  -1.113  0.00  0.00     0.018 A 
ATOM      9  C   UNL d   1      -0.362   0.192   0.594  0.00  0.00     0.048 A 
ATOM     10  C   UNL d   1      -2.693   0.635  -0.801  0.00  0.00     0.001 A 
ATOM     11  C   UNL d   1      -2.641  -0.342   0.216  0.00  0.00     0.001 A 
ATOM     12  C   UNL d   1      -1.462  -0.568   0.934  0.00  0.00     0.018 A 
ATOM     13  C   UNL d   1       0.997   0.192   1.137  0.00  0.00     0.262 C 
ATOM     14  O   UNL d   1       1.337  -0.456   2.107  0.00  0.00    -0.267 OA
ENDBRANCH   3   4
ENDBRANCH   1   3
BRANCH   1  15
ATOM     15  C   UNL d   1       5.245   1.487  -0.442  0.00  0.00     0.015 A 
ATOM     16  C   UNL d   1       6.121   0.853  -1.339  0.00  0.00    -0.039 A 
ATOM     17  C   UNL d   1       7.507   1.136  -1.294  0.00  0.00     0.038 A 
ATOM     18  C   UNL d   1       5.626  -0.202  -2.293  0.00  0.00     0.050 C 
ATOM     19  C   UNL d   1       8.065   2.058  -0.395  0.00  0.00     0.030 A 
ATOM     20  C   UNL d   1       7.158   2.720   0.438  0.00  0.00     0.031 A 
ATOM     21  C   UNL d   1       5.782   2.455   0.408  0.00  0.00     0.026 A 
BRANCH  19  22
ATOM     22  N   UNL d   1       9.439   2.266  -0.315  0.00  0.00    -0.382 N 
BRANCH  22  23
ATOM     23  C   UNL d   1      10.230   2.334  -1.551  0.00  0.00     0.118 C 
ATOM     24  C   UNL d   1      11.072   1.080  -1.731  0.00  0.00     0.026 C 
ENDBRANCH  22  23
BRANCH  22  25
ATOM     25  C   UNL d   1      10.053   2.834   0.893  0.00  0.00     0.118 C 
ATOM     26  C   UNL d   1       9.969   1.866   2.067  0.00  0.00     0.026 C 
ENDBRANCH  22  25
ENDBRANCH  19  22
ENDBRANCH   1  15
TORSDOF 6
