REMARK  6 active torsions:
REMARK  status: ('A' for Active; 'I' for Inactive)
REMARK    1  A    between atoms: C_7  and  C_1 
REMARK    2  A    between atoms: C_8  and  C_2 
REMARK    3  A    between atoms: O_14  and  C_8 
REMARK    4  A    between atoms: N_11  and  N_9 
REMARK    5  A    between atoms: C_15  and  N_11 
REMARK    6  A    between atoms: C_17  and  O_14 
ROOT
ATOM      1  C   UNL d   1       0.775  -3.534   0.048  0.00  0.00     0.074 A 
ATOM      2  C   UNL d   1       2.915  -4.470  -0.105  0.00  0.00     0.142 A 
ATOM      3  C   UNL d   1       2.065  -3.333  -0.414  0.00  0.00     0.080 A 
ATOM      4  N   UNL d   1       2.312  -5.445   0.592  0.00  0.00    -0.319 N 
ATOM      5  HN  UNL d   1       2.765  -6.294   0.929  1.00  0.00     0.174 HD
ATOM      6  S   UNL d   1       0.723  -5.061   0.819  0.00  0.00    -0.010 SA
ATOM      7  N   UNL d   1       2.489  -2.246  -1.111  0.00  0.00    -0.396 N 
ATOM      8  H   UNL d   1       3.431  -2.251  -1.518  0.00  0.00     0.156 HD
ATOM      9  H   UNL d   1       1.854  -1.659  -1.644  0.00  0.00     0.156 HD
ENDROOT
BRANCH   1  10
ATOM     10  C   UNL d   1      -0.425  -2.723  -0.014  0.00  0.00     0.042 C 
ATOM     11  N   UNL d   1      -1.586  -3.311  -0.124  0.00  0.00    -0.303 N 
ATOM     12  HN  UNL d   1      -1.664  -4.328  -0.102  1.00  0.00     0.186 HD
ATOM     13  C   UNL d   1      -0.269  -1.216   0.029  0.00  0.00     0.071 C 
BRANCH  11  14
ATOM     14  N   UNL d   1      -2.688  -2.529  -0.267  0.00  0.00    -0.301 N 
ATOM     15  H   UNL d   1      -2.679  -1.539  -0.041  0.00  0.00     0.187 HD
BRANCH  14  16
ATOM     16  C   UNL d   1      -3.978  -3.093  -0.258  0.00  0.00     0.048 A 
ATOM     17  C   UNL d   1      -4.217  -4.466  -0.141  0.00  0.00     0.031 A 
ATOM     18  C   UNL d   1      -5.521  -4.973  -0.195  0.00  0.00     0.002 A 
ATOM     19  C   UNL d   1      -6.601  -4.114  -0.397  0.00  0.00     0.000 A 
ATOM     20  C   UNL d   1      -6.378  -2.749  -0.550  0.00  0.00     0.002 A 
ATOM     21  C   UNL d   1      -5.076  -2.247  -0.485  0.00  0.00     0.031 A 
ENDBRANCH  14  16
ENDBRANCH  11  14
ENDBRANCH   1  10
BRANCH   2  22
ATOM     22  C   UNL d   1       4.301  -4.632  -0.567  0.00  0.00     0.312 C 
ATOM     23  O   UNL d   1       4.869  -3.813  -1.289  0.00  0.00    -0.258 OA
BRANCH  22  24
ATOM     24  O   UNL d   1       4.859  -5.824  -0.188  0.00  0.00    -0.317 OA
BRANCH  24  25
ATOM     25  C   UNL d   1       6.009  -6.243  -0.932  0.00  0.00     0.175 C 
ATOM     26  C   UNL d   1       5.535  -6.977  -2.174  0.00  0.00     0.034 C 
ENDBRANCH  24  25
ENDBRANCH  22  24
ENDBRANCH   2  22
TORSDOF 6
