REMARK  9 active torsions:
REMARK  status: ('A' for Active; 'I' for Inactive)
REMARK    1  A    between atoms: N_3  and  C_1 
REMARK    2  A    between atoms: C_4  and  C_1 
REMARK    3  A    between atoms: C_7  and  C_1 
REMARK       I    between atoms: C_2  and  N_3 
REMARK    4  A    between atoms: O_5  and  C_2 
REMARK       I    between atoms: N_11  and  C_4 
REMARK    5  A    between atoms: C_10  and  O_5 
REMARK    6  A    between atoms: O_9  and  C_7 
REMARK    7  A    between atoms: C_12  and  O_9 
REMARK    8  A    between atoms: C_17  and  N_11 
REMARK    9  A    between atoms: C_13  and  C_12 
ROOT
ATOM      1  C   UNL d   1       1.222   0.414   0.130  0.00  0.00     0.207 C 
ENDROOT
BRANCH   1   2
ATOM      2  N   UNL d   1       0.417  -0.070   1.252  0.00  0.00    -0.321 N 
ATOM      3  C   UNL d   1      -0.160  -1.298   1.385  0.00  0.00     0.362 C 
ATOM      4  O   UNL d   1      -0.977  -1.512   2.265  0.00  0.00    -0.238 OA
ATOM      5  H   UNL d   1       0.201   0.590   1.988  0.00  0.00     0.165 HD
BRANCH   3   6
ATOM      6  O   UNL d   1       0.258  -2.189   0.454  0.00  0.00    -0.294 OA
BRANCH   6   7
ATOM      7  C   UNL d   1      -0.298  -3.534   0.405  0.00  0.00     0.061 C 
ATOM      8  C   UNL d   1      -1.763  -3.486  -0.042  0.00  0.00     0.046 C 
ATOM      9  C   UNL d   1       0.521  -4.268  -0.670  0.00  0.00     0.046 C 
ATOM     10  C   UNL d   1      -0.134  -4.297   1.726  0.00  0.00     0.046 C 
ENDBRANCH   6   7
ENDBRANCH   3   6
ENDBRANCH   1   2
BRANCH   1  11
ATOM     11  C   UNL d   1       0.618   1.702  -0.473  0.00  0.00     0.243 C 
ATOM     12  O   UNL d   1       1.267   2.477  -1.174  0.00  0.00    -0.271 OA
ATOM     13  N   UNL d   1      -0.756   1.816  -0.329  0.00  0.00    -0.360 N 
ATOM     14  H   UNL d   1      -1.251   1.018   0.055  0.00  0.00     0.162 HD
BRANCH  13  15
ATOM     15  C   UNL d   1      -1.498   2.830  -1.050  0.00  0.00     0.118 C 
ATOM     16  C   UNL d   1      -2.934   2.935  -0.573  0.00  0.00     0.026 C 
ENDBRANCH  13  15
ENDBRANCH   1  11
BRANCH   1  17
ATOM     17  C   UNL d   1       2.721   0.606   0.472  0.00  0.00     0.149 C 
ATOM     18  C   UNL d   1       3.384  -0.758   0.687  0.00  0.00     0.042 C 
BRANCH  17  19
ATOM     19  O   UNL d   1       2.898   1.434   1.647  0.00  0.00    -0.379 OA
BRANCH  19  20
ATOM     20  C   UNL d   1       4.203   2.037   1.660  0.00  0.00     0.206 C 
BRANCH  20  21
ATOM     21  C   UNL d   1       4.507   2.905   2.861  0.00  0.00    -0.035 A 
ATOM     22  C   UNL d   1       3.675   2.999   3.980  0.00  0.00     0.009 A 
ATOM     23  C   UNL d   1       4.049   3.788   5.074  0.00  0.00     0.001 A 
ATOM     24  C   UNL d   1       5.256   4.487   5.064  0.00  0.00     0.000 A 
ATOM     25  C   UNL d   1       6.095   4.402   3.958  0.00  0.00     0.001 A 
ATOM     26  C   UNL d   1       5.723   3.617   2.866  0.00  0.00     0.009 A 
ENDBRANCH  20  21
ENDBRANCH  19  20
ENDBRANCH  17  19
ENDBRANCH   1  17
TORSDOF 9
