REMARK  2 active torsions:
REMARK  status: ('A' for Active; 'I' for Inactive)
REMARK    1  A    between atoms: C_4  and  N_2 
REMARK    2  A    between atoms: C_15  and  N_3 
ROOT
ATOM      1  C   UNL d   1      -1.195   0.343   0.135  0.00  0.00     0.332 C 
ATOM      2  N   UNL d   1       0.067   0.959   0.234  0.00  0.00    -0.234 N 
ATOM      3  N   UNL d   1      -1.175  -1.042  -0.047  0.00  0.00    -0.329 N 
ATOM      4  C   UNL d   1       1.283   0.335  -0.057  0.00  0.00     0.234 C 
ATOM      5  C   UNL d   1       1.207  -1.117  -0.440  0.00  0.00     0.123 C 
ATOM      6  C   UNL d   1       0.038  -1.772   0.245  0.00  0.00     0.137 C 
ATOM      7  O   UNL d   1      -2.257   0.964   0.132  0.00  0.00    -0.246 OA
ATOM      8  O   UNL d   1       2.386   0.888  -0.056  0.00  0.00    -0.272 OA
ENDROOT
BRANCH   2   9
ATOM      9  C   UNL d   1       0.075   2.372   0.473  0.00  0.00     0.047 A 
ATOM     10  C   UNL d   1      -0.543   2.885   1.626  0.00  0.00     0.040 A 
ATOM     11  C   UNL d   1      -0.527   4.255   1.829  0.00  0.00    -0.021 A 
ATOM     12  C   UNL d   1      -0.994   5.043   2.990  0.00  0.00     0.068 C 
ATOM     13  C   UNL d   1       0.056   5.107   0.905  0.00  0.00     0.075 A 
ATOM     14  C   UNL d   1      -0.944   6.438   2.367  0.00  0.00     0.180 C 
ATOM     15  O   UNL d   1      -0.015   6.430   1.257  0.00  0.00    -0.350 OA
ATOM     16  C   UNL d   1       0.665   4.636  -0.238  0.00  0.00     0.039 A 
ATOM     17  C   UNL d   1       0.685   3.253  -0.447  0.00  0.00     0.033 A 
ENDBRANCH   2   9
BRANCH   3  18
ATOM     18  C   UNL d   1      -2.432  -1.762  -0.332  0.00  0.00     0.080 C 
ATOM     19  C   UNL d   1      -2.390  -2.423  -1.712  0.00  0.00     0.032 C 
ATOM     20  C   UNL d   1      -2.800  -2.776   0.752  0.00  0.00     0.032 C 
ENDBRANCH   3  18
TORSDOF 2
