REMARK  9 active torsions:
REMARK  status: ('A' for Active; 'I' for Inactive)
REMARK    1  A    between atoms: N_4  and  C_1 
REMARK    2  A    between atoms: N_12  and  C_1 
REMARK       I    between atoms: C_2  and  N_7 
REMARK    3  A    between atoms: O_8  and  C_2 
REMARK       I    between atoms: C_3  and  N_5 
REMARK    4  A    between atoms: C_13  and  C_3 
REMARK    5  A    between atoms: N_5  and  N_4 
REMARK    6  A    between atoms: N_7  and  C_13 
REMARK    7  A    between atoms: C_11  and  O_8 
REMARK    8  A    between atoms: C_16  and  N_12 
REMARK    9  A    between atoms: C_14  and  C_16 
ROOT
ATOM      1  C   UNL d   1      -0.313   1.550  -3.366  0.00  0.00     0.253 C 
ATOM      2  N   UNL d   1      -1.169   0.554  -3.799  0.00  0.00    -0.267 N 
ATOM      3  O   UNL d   1      -0.196   1.857  -2.180  0.00  0.00    -0.270 OA
ATOM      4  H   UNL d   1      -1.078   0.168  -4.743  0.00  0.00     0.190 HD
ENDROOT
BRANCH   1   5
ATOM      5  C   UNL d   1       0.602   2.131  -4.448  0.00  0.00     0.229 C 
BRANCH   5   6
ATOM      6  N   UNL d   1      -0.064   2.693  -5.603  0.00  0.00    -0.328 N 
ATOM      7  C   UNL d   1      -0.385   1.967  -6.707  0.00  0.00     0.361 C 
ATOM      8  O   UNL d   1      -0.339   0.749  -6.757  0.00  0.00    -0.238 OA
ATOM      9  H   UNL d   1      -0.173   3.695  -5.687  0.00  0.00     0.165 HD
BRANCH   7  10
ATOM     10  O   UNL d   1      -0.763   2.808  -7.689  0.00  0.00    -0.294 OA
BRANCH  10  11
ATOM     11  C   UNL d   1      -1.260   2.312  -8.966  0.00  0.00     0.061 C 
ATOM     12  C   UNL d   1      -2.504   1.440  -8.756  0.00  0.00     0.046 C 
ATOM     13  C   UNL d   1      -1.654   3.572  -9.758  0.00  0.00     0.046 C 
ATOM     14  C   UNL d   1      -0.172   1.567  -9.747  0.00  0.00     0.046 C 
ENDBRANCH  10  11
ENDBRANCH   7  10
ENDBRANCH   5   6
ENDBRANCH   1   5
BRANCH   2  15
ATOM     15  N   UNL d   1      -1.694  -0.310  -2.814  0.00  0.00    -0.274 N 
ATOM     16  H   UNL d   1      -1.855   0.109  -1.899  0.00  0.00     0.189 HD
BRANCH  15  17
ATOM     17  C   UNL d   1      -2.251  -1.516  -3.137  0.00  0.00     0.186 C 
ATOM     18  S   UNL d   1      -2.431  -2.113  -4.689  0.00  0.00    -0.040 SA
BRANCH  17  19
ATOM     19  N   UNL d   1      -2.654  -2.303  -2.095  0.00  0.00    -0.363 N 
ATOM     20  H   UNL d   1      -3.050  -3.184  -2.406  0.00  0.00     0.162 HD
BRANCH  19  21
ATOM     21  C   UNL d   1      -2.089  -2.311  -0.763  0.00  0.00     0.148 C 
BRANCH  21  22
ATOM     22  C   UNL d   1      -2.925  -1.470   0.144  0.00  0.00    -0.018 C 
ATOM     23  C   UNL d   1      -2.443  -0.472   0.895  0.00  0.00     0.008 C 
ENDBRANCH  21  22
ENDBRANCH  19  21
ENDBRANCH  17  19
ENDBRANCH  15  17
ENDBRANCH   2  15
TORSDOF 9
