REMARK  2 active torsions:
REMARK  status: ('A' for Active; 'I' for Inactive)
REMARK    1  A    between atoms: C_5  and  C_1 
REMARK    2  A    between atoms: S_12  and  C_6 
ROOT
ATOM      1  C   UNL d   1      -0.149  -1.318  -0.031  0.00  0.00     0.136 A 
ATOM      2  N   UNL d   1      -0.974  -0.338  -0.566  0.00  0.00    -0.315 N 
ATOM      3  N   UNL d   1       0.934  -0.720   0.429  0.00  0.00    -0.283 N 
ATOM      4  HN  UNL d   1       1.718  -1.188   0.884  1.00  0.00     0.188 HD
ATOM      5  C   UNL d   1      -0.294   0.845  -0.413  0.00  0.00     0.159 A 
ATOM      6  N   UNL d   1       0.841   0.628   0.198  0.00  0.00    -0.278 N 
ATOM      7  HN  UNL d   1       1.531   1.333   0.456  1.00  0.00     0.189 HD
ATOM      8  C   UNL d   1      -2.284  -0.494  -1.139  0.00  0.00     0.160 C 
ENDROOT
BRANCH   1   9
ATOM      9  C   UNL d   1      -0.387  -2.772   0.014  0.00  0.00     0.031 A 
ATOM     10  C   UNL d   1      -0.014  -3.564   1.122  0.00  0.00     0.049 A 
ATOM     11  C   UNL d   1      -0.221  -4.952   1.120  0.00  0.00     0.048 A 
ATOM     12 CL   UNL d   1       0.689  -2.908   2.562  0.00  0.00    -0.083 Cl
ATOM     13  C   UNL d   1      -0.819  -5.563   0.025  0.00  0.00     0.035 A 
ATOM     14  C   UNL d   1      -1.189  -4.808  -1.082  0.00  0.00     0.025 A 
ATOM     15 CL   UNL d   1      -1.095  -7.260   0.032  0.00  0.00    -0.084 Cl
ATOM     16  C   UNL d   1      -0.952  -3.430  -1.094  0.00  0.00     0.018 A 
ENDBRANCH   1   9
BRANCH   5  17
ATOM     17  S   UNL d   1      -0.833   2.397  -0.955  0.00  0.00    -0.105 SA
ATOM     18  H   UNL d   1      -1.888   2.046  -1.698  0.00  0.00     0.110 HD
ENDBRANCH   5  17
TORSDOF 2
