REMARK  6 active torsions:
REMARK  status: ('A' for Active; 'I' for Inactive)
REMARK    1  A    between atoms: C_14  and  C_3 
REMARK    2  A    between atoms: C_15  and  C_7 
REMARK    3  A    between atoms: C_16  and  C_8 
REMARK    4  A    between atoms: C_10  and  O_17 
REMARK    5  A    between atoms: C_11  and  C_14 
REMARK    6  A    between atoms: O_17  and  C_26 
ROOT
ATOM      1  C   UNL d   1      -1.084   2.499  -0.141  0.00  0.00     0.109 C 
ENDROOT
BRANCH   1   2
ATOM      2  C   UNL d   1      -2.559   2.386   0.065  0.00  0.00     0.058 A 
ATOM      3  O   UNL d   1      -3.003   2.382   1.353  0.00  0.00    -0.314 OA
ATOM      4  C   UNL d   1      -4.370   2.301   1.322  0.00  0.00     0.086 A 
ATOM      5  C   UNL d   1      -4.792   2.267   0.006  0.00  0.00     0.040 A 
ATOM      6  C   UNL d   1      -3.628   2.295  -0.800  0.00  0.00     0.036 A 
BRANCH   4   7
ATOM      7  C   UNL d   1      -5.046   2.252   2.616  0.00  0.00    -0.002 A 
ATOM      8  C   UNL d   1      -4.317   2.225   3.815  0.00  0.00     0.017 A 
ATOM      9  C   UNL d   1      -4.959   2.128   5.058  0.00  0.00     0.038 A 
ATOM     10  C   UNL d   1      -6.347   2.104   5.128  0.00  0.00     0.078 A 
ATOM     11  C   UNL d   1      -7.083   2.112   3.940  0.00  0.00     0.038 A 
ATOM     12  C   UNL d   1      -6.442   2.190   2.698  0.00  0.00     0.017 A 
BRANCH  10  13
ATOM     13  O   UNL d   1      -7.100   2.033   6.259  0.00  0.00    -0.255 OA
BRANCH  13  14
ATOM     14  C   UNL d   1      -6.582   2.523   7.487  0.00  0.00     0.530 C 
ATOM     15  F   UNL d   1      -5.494   3.309   7.354  0.00  0.00    -0.144 F 
ATOM     16  F   UNL d   1      -7.545   3.257   8.090  0.00  0.00    -0.144 F 
ATOM     17  F   UNL d   1      -6.277   1.485   8.295  0.00  0.00    -0.144 F 
ENDBRANCH  13  14
ENDBRANCH  10  13
ENDBRANCH   4   7
ENDBRANCH   1   2
BRANCH   1  18
ATOM     18  C   UNL d   1      -0.294   1.218  -0.131  0.00  0.00     0.019 A 
ATOM     19  C   UNL d   1      -0.581   0.142   0.618  0.00  0.00     0.045 A 
ATOM     20  C   UNL d   1       0.283  -1.059   0.502  0.00  0.00     0.059 A 
ATOM     21  N   UNL d   1       1.327  -1.115  -0.274  0.00  0.00    -0.297 N 
ATOM     22  N   UNL d   1       1.603  -0.007  -1.014  0.00  0.00    -0.266 N 
ATOM     23  HN  UNL d   1       1.911  -1.950  -0.324  1.00  0.00     0.187 HD
ATOM     24  C   UNL d   1       0.894   1.158  -1.014  0.00  0.00     0.266 A 
ATOM     25  H   UNL d   1       2.420  -0.062  -1.617  0.00  0.00     0.190 HD
ATOM     26  O   UNL d   1       1.223   2.111  -1.707  0.00  0.00    -0.266 OA
BRANCH  20  27
ATOM     27  C   UNL d   1      -0.067  -2.248   1.333  0.00  0.00    -0.008 A 
ATOM     28  C   UNL d   1      -1.381  -2.521   1.735  0.00  0.00     0.014 A 
ATOM     29  C   UNL d   1      -1.662  -3.666   2.485  0.00  0.00     0.007 A 
ATOM     30  C   UNL d   1      -0.642  -4.558   2.834  0.00  0.00    -0.062 A 
ATOM     31  C   UNL d   1       0.669  -4.286   2.432  0.00  0.00     0.007 A 
ATOM     32  C   UNL d   1      -0.970  -5.797   3.613  0.00  0.00     0.048 C 
ATOM     33  C   UNL d   1       0.954  -3.140   1.685  0.00  0.00     0.014 A 
ENDBRANCH  20  27
ENDBRANCH   1  18
TORSDOF 6
