REMARK  8 active torsions:
REMARK  status: ('A' for Active; 'I' for Inactive)
REMARK    1  A    between atoms: C_7  and  C_1 
REMARK    2  A    between atoms: C_3  and  C_2 
REMARK    3  A    between atoms: N_11  and  C_6 
REMARK    4  A    between atoms: O_13  and  C_7 
REMARK    5  A    between atoms: C_26  and  N_11 
REMARK    6  A    between atoms: C_12  and  C_25 
REMARK    7  A    between atoms: C_25  and  O_13 
REMARK    8  A    between atoms: C_27  and  C_16 
ROOT
ATOM      1  C   UNL d   1      -0.042  -1.466  -0.059  0.00  0.00     0.087 A 
ATOM      2  C   UNL d   1       1.195  -0.861  -0.044  0.00  0.00     0.150 A 
ATOM      3  N   UNL d   1       1.289   0.502  -0.025  0.00  0.00    -0.185 N 
ATOM      4  HN  UNL d   1       2.210   0.941  -0.008  1.00  0.00     0.184 HD
ATOM      5  C   UNL d   1       0.192   1.271  -0.028  0.00  0.00     0.683 A 
ATOM      6  N   UNL d   1      -1.034   0.751  -0.100  0.00  0.00    -0.201 N 
ATOM      7  HN  UNL d   1      -1.864   1.342  -0.152  1.00  0.00     0.183 HD
ATOM      8  C   UNL d   1      -1.122  -0.601  -0.103  0.00  0.00     0.126 A 
ENDROOT
BRANCH   5   9
ATOM      9  N   UNL d   1       0.303   2.659   0.040  0.00  0.00    -0.192 N 
ATOM     10  H   UNL d   1      -0.602   3.096  -0.043  0.00  0.00     0.184 HD
BRANCH   9  11
ATOM     11  C   UNL d   1       1.335   3.453   0.572  0.00  0.00     0.049 A 
ATOM     12  C   UNL d   1       2.439   2.910   1.236  0.00  0.00     0.030 A 
ATOM     13  C   UNL d   1       3.486   3.706   1.698  0.00  0.00     0.010 A 
ATOM     14  C   UNL d   1       3.473   5.089   1.506  0.00  0.00    -0.055 A 
ATOM     15  C   UNL d   1       2.379   5.648   0.835  0.00  0.00     0.010 A 
ATOM     16  C   UNL d   1       1.328   4.839   0.367  0.00  0.00     0.030 A 
BRANCH  14  17
ATOM     17  C   UNL d   1       4.622   5.948   2.003  0.00  0.00     0.010 C 
ATOM     18  C   UNL d   1       4.782   5.839   3.524  0.00  0.00     0.015 C 
ATOM     19  C   UNL d   1       5.934   5.580   1.301  0.00  0.00     0.015 C 
ENDBRANCH  14  17
ENDBRANCH   9  11
ENDBRANCH   5   9
BRANCH   2  20
ATOM     20  C   UNL d   1       2.531  -1.571  -0.085  0.00  0.00     0.434 C 
ATOM     21  F   UNL d   1       2.510  -2.922  -0.233  0.00  0.00    -0.165 F 
ATOM     22  F   UNL d   1       3.298  -1.137  -1.133  0.00  0.00    -0.165 F 
ATOM     23  F   UNL d   1       3.280  -1.331   1.032  0.00  0.00    -0.165 F 
ENDBRANCH   2  20
BRANCH   1  24
ATOM     24  C   UNL d   1      -0.357  -2.904  -0.034  0.00  0.00     0.297 C 
ATOM     25  O   UNL d   1      -1.339  -3.368  -0.576  0.00  0.00    -0.259 OA
BRANCH  24  26
ATOM     26  O   UNL d   1       0.494  -3.546   0.783  0.00  0.00    -0.311 OA
BRANCH  26  27
ATOM     27  C   UNL d   1       0.165  -4.904   1.113  0.00  0.00     0.244 C 
BRANCH  27  28
ATOM     28  C   UNL d   1      -0.315  -4.863   2.514  0.00  0.00     0.076 A 
ATOM     29  O   UNL d   1       0.549  -4.333   3.427  0.00  0.00    -0.325 OA
ATOM     30  C   UNL d   1      -0.098  -4.306   4.618  0.00  0.00     0.142 A 
ATOM     31  C   UNL d   1      -1.362  -4.828   4.488  0.00  0.00     0.027 A 
ATOM     32  C   UNL d   1      -1.502  -5.199   3.128  0.00  0.00     0.037 A 
ENDBRANCH  27  28
ENDBRANCH  26  27
ENDBRANCH  24  26
ENDBRANCH   1  24
TORSDOF 8
