REMARK  7 active torsions:
REMARK  status: ('A' for Active; 'I' for Inactive)
REMARK    1  A    between atoms: C_5  and  C_1 
REMARK    2  A    between atoms: C_12  and  C_3 
REMARK    3  A    between atoms: C_7  and  C_5 
REMARK    4  A    between atoms: C_8  and  O_13 
REMARK    5  A    between atoms: N_14  and  C_9 
REMARK    6  A    between atoms: O_13  and  C_17 
REMARK    7  A    between atoms: C_21  and  N_14 
ROOT
ATOM      1  C   UNL d   1      -4.006  -0.621  -0.019  0.00  0.00     0.110 C 
ATOM      2  C   UNL d   1      -5.120  -1.257   0.415  0.00  0.00     0.115 C 
ATOM      3  C   UNL d   1      -2.875  -1.370  -0.452  0.00  0.00     0.105 C 
ATOM      4  N   UNL d   1      -1.973  -2.021  -0.772  0.00  0.00    -0.191 NA
ENDROOT
BRANCH   1   5
ATOM      5  C   UNL d   1      -4.004   0.882  -0.095  0.00  0.00     0.206 C 
ATOM      6  O   UNL d   1      -5.048   1.508  -0.262  0.00  0.00    -0.286 OA
BRANCH   5   7
ATOM      7  C   UNL d   1      -2.704   1.548   0.046  0.00  0.00     0.047 A 
ATOM      8  C   UNL d   1      -1.513   1.106   0.719  0.00  0.00     0.051 A 
ATOM      9  C   UNL d   1      -0.557   2.091   0.570  0.00  0.00     0.061 A 
ATOM     10  O   UNL d   1      -1.091   3.119  -0.135  0.00  0.00    -0.318 OA
ATOM     11  C   UNL d   1      -2.387   2.823  -0.411  0.00  0.00     0.063 A 
ATOM     12  C   UNL d   1      -3.096   3.914  -1.116  0.00  0.00     0.077 C 
BRANCH   9  13
ATOM     13  C   UNL d   1       0.868   2.289   1.017  0.00  0.00    -0.002 C 
ATOM     14  C   UNL d   1       1.305   1.190   1.998  0.00  0.00     0.021 C 
ATOM     15  C   UNL d   1       1.803   2.268  -0.205  0.00  0.00     0.021 C 
ATOM     16  C   UNL d   1       0.996   3.654   1.723  0.00  0.00     0.021 C 
ENDBRANCH   9  13
ENDBRANCH   5   7
ENDBRANCH   1   5
BRANCH   2  17
ATOM     17  N   UNL d   1      -5.315  -2.615   0.574  0.00  0.00    -0.364 N 
ATOM     18  H   UNL d   1      -4.540  -3.220   0.307  0.00  0.00     0.165 HD
BRANCH  17  19
ATOM     19  C   UNL d   1      -6.459  -3.336   0.993  0.00  0.00     0.034 A 
ATOM     20  C   UNL d   1      -7.686  -2.736   1.305  0.00  0.00     0.066 A 
ATOM     21  C   UNL d   1      -8.801  -3.511   1.652  0.00  0.00     0.080 A 
ATOM     22  C   UNL d   1      -8.663  -4.893   1.803  0.00  0.00     0.037 A 
ATOM     23  C   UNL d   1      -7.443  -5.506   1.537  0.00  0.00     0.005 A 
ATOM     24  C   UNL d   1      -6.358  -4.731   1.119  0.00  0.00     0.029 A 
BRANCH  21  25
ATOM     25  O   UNL d   1     -10.057  -3.038   1.895  0.00  0.00    -0.255 OA
BRANCH  25  26
ATOM     26  C   UNL d   1     -10.481  -1.847   1.244  0.00  0.00     0.530 C 
ATOM     27  F   UNL d   1      -9.721  -1.499   0.184  0.00  0.00    -0.144 F 
ATOM     28  F   UNL d   1     -11.743  -2.032   0.797  0.00  0.00    -0.144 F 
ATOM     29  F   UNL d   1     -10.492  -0.829   2.131  0.00  0.00    -0.144 F 
ENDBRANCH  25  26
ENDBRANCH  21  25
ENDBRANCH  17  19
ENDBRANCH   2  17
TORSDOF 7
