REMARK  7 active torsions:
REMARK  status: ('A' for Active; 'I' for Inactive)
REMARK    1  A    between atoms: C_7  and  C_1 
REMARK    2  A    between atoms: C_13  and  N_4 
REMARK    3  A    between atoms: S_16  and  C_5 
REMARK    4  A    between atoms: N_8  and  C_7 
REMARK    5  A    between atoms: O_12  and  N_8 
REMARK    6  A    between atoms: C_10  and  O_12 
REMARK       I    between atoms: N_11  and  C_10 
REMARK    7  A    between atoms: C_15  and  N_11 
ROOT
ATOM      1  C   UNL d   1      -0.823   2.577  -0.274  0.00  0.00     0.134 C 
ATOM      2  N   UNL d   1      -0.001   3.553  -0.759  0.00  0.00    -0.383 N 
ATOM      3  H   UNL d   1      -0.331   4.514  -0.749  0.00  0.00     0.157 HD
ATOM      4  H   UNL d   1       0.977   3.447  -0.514  0.00  0.00     0.157 HD
ENDROOT
BRANCH   1   5
ATOM      5  C   UNL d   1      -2.244   2.896  -0.334  0.00  0.00     0.061 A 
ATOM      6  C   UNL d   1      -2.938   4.063  -0.759  0.00  0.00     0.100 A 
ATOM      7  N   UNL d   1      -4.258   3.937  -0.687  0.00  0.00    -0.287 N 
ATOM      8  N   UNL d   1      -4.469   2.693  -0.215  0.00  0.00    -0.266 N 
ATOM      9  HN  UNL d   1      -4.961   4.632  -0.937  1.00  0.00     0.188 HD
ATOM     10  C   UNL d   1      -3.278   2.048   0.040  0.00  0.00     0.135 A 
BRANCH   6  11
ATOM     11  S   UNL d   1      -2.261   5.584  -1.315  0.00  0.00    -0.114 SA
ATOM     12  C   UNL d   1      -3.677   6.696  -1.109  0.00  0.00     0.097 C 
ENDBRANCH   6  11
BRANCH   8  13
ATOM     13  C   UNL d   1      -5.802   2.226  -0.041  0.00  0.00     0.056 A 
ATOM     14  C   UNL d   1      -6.075   0.942   0.439  0.00  0.00     0.031 A 
ATOM     15  C   UNL d   1      -7.402   0.522   0.580  0.00  0.00     0.002 A 
ATOM     16  C   UNL d   1      -8.455   1.377   0.246  0.00  0.00     0.000 A 
ATOM     17  C   UNL d   1      -8.189   2.655  -0.234  0.00  0.00     0.002 A 
ATOM     18  C   UNL d   1      -6.869   3.081  -0.377  0.00  0.00     0.031 A 
ENDBRANCH   8  13
ENDBRANCH   1   5
BRANCH   1  19
ATOM     19  N   UNL d   1      -0.422   1.432   0.197  0.00  0.00    -0.239 N 
ATOM     20  HN  UNL d   1      -1.011   0.696   0.585  1.00  0.00     0.196 HD
BRANCH  19  21
ATOM     21  O   UNL d   1       0.993   1.401   0.067  0.00  0.00    -0.179 OA
BRANCH  21  22
ATOM     22  C   UNL d   1       1.614   0.235   0.459  0.00  0.00     0.387 C 
ATOM     23  N   UNL d   1       0.799  -0.676   1.094  0.00  0.00    -0.301 N 
ATOM     24  H   UNL d   1      -0.161  -0.362   1.163  0.00  0.00     0.171 HD
ATOM     25  O   UNL d   1       2.812   0.107   0.242  0.00  0.00    -0.236 OA
BRANCH  23  26
ATOM     26  C   UNL d   1       1.173  -1.937   1.611  0.00  0.00     0.038 A 
ATOM     27  C   UNL d   1       2.474  -2.449   1.539  0.00  0.00     0.053 A 
ATOM     28  C   UNL d   1       2.769  -3.719   2.040  0.00  0.00     0.036 A 
ATOM     29 CL   UNL d   1       4.372  -4.337   1.918  0.00  0.00    -0.084 Cl
ATOM     30  C   UNL d   1       1.778  -4.494   2.631  0.00  0.00     0.024 A 
ATOM     31  C   UNL d   1       0.484  -3.990   2.729  0.00  0.00     0.004 A 
ATOM     32  C   UNL d   1       0.182  -2.718   2.221  0.00  0.00     0.029 A 
ENDBRANCH  23  26
ENDBRANCH  21  22
ENDBRANCH  19  21
ENDBRANCH   1  19
TORSDOF 7
