REMARK  11 active torsions:
REMARK  status: ('A' for Active; 'I' for Inactive)
REMARK    1  A    between atoms: C_8  and  C_1 
REMARK    2  A    between atoms: C_10  and  N_6 
REMARK    3  A    between atoms: C_9  and  N_21 
REMARK    4  A    between atoms: N_14  and  C_9 
REMARK    5  A    between atoms: C_12  and  C_10 
REMARK    6  A    between atoms: O_13  and  C_11 
REMARK       I    between atoms: N_22  and  C_12 
REMARK    7  A    between atoms: C_15  and  O_13 
REMARK    8  A    between atoms: C_16  and  N_14 
REMARK    9  A    between atoms: O_32  and  C_18 
REMARK   10  A    between atoms: N_21  and  N_22 
REMARK   11  A    between atoms: O_35  and  C_28 
ROOT
ATOM      1  C   UNL d   1      -1.107  -0.370  -0.767  0.00  0.00     0.147 A 
ATOM      2  N   UNL d   1      -0.047   0.132  -1.433  0.00  0.00    -0.268 N 
ATOM      3  HN  UNL d   1       0.080   0.291  -2.432  1.00  0.00     0.190 HD
ATOM      4  N   UNL d   1      -0.838  -0.543   0.571  0.00  0.00    -0.266 N 
ATOM      5  HN  UNL d   1      -1.449  -0.980   1.261  1.00  0.00     0.186 HD
ATOM      6  N   UNL d   1       0.797   0.362  -0.409  0.00  0.00    -0.207 N 
ATOM      7  N   UNL d   1       0.367  -0.036   0.793  0.00  0.00    -0.002 NA
ENDROOT
BRANCH   6   8
ATOM      8  C   UNL d   1       1.987   1.144  -0.603  0.00  0.00     0.271 C 
BRANCH   8   9
ATOM      9  C   UNL d   1       3.273   0.424  -0.328  0.00  0.00     0.257 C 
ATOM     10  N   UNL d   1       3.523  -0.849  -0.762  0.00  0.00    -0.266 N 
ATOM     11  H   UNL d   1       4.412  -1.230  -0.435  0.00  0.00     0.190 HD
ATOM     12  O   UNL d   1       4.218   1.048   0.184  0.00  0.00    -0.270 OA
BRANCH  10  13
ATOM     13  N   UNL d   1       2.573  -1.809  -1.132  0.00  0.00    -0.273 N 
ATOM     14  H   UNL d   1       1.848  -1.576  -1.807  0.00  0.00     0.189 HD
BRANCH  13  15
ATOM     15  C   UNL d   1       2.671  -3.114  -0.649  0.00  0.00     0.191 C 
ATOM     16  S   UNL d   1       3.719  -3.574   0.581  0.00  0.00    -0.039 SA
BRANCH  15  17
ATOM     17  N   UNL d   1       1.907  -3.993  -1.403  0.00  0.00    -0.330 N 
ATOM     18  H   UNL d   1       2.196  -4.073  -2.375  0.00  0.00     0.168 HD
BRANCH  17  19
ATOM     19  C   UNL d   1       1.256  -5.158  -0.922  0.00  0.00     0.068 A 
ATOM     20  C   UNL d   1       1.142  -6.285  -1.760  0.00  0.00     0.097 A 
ATOM     21  C   UNL d   1       0.425  -7.407  -1.317  0.00  0.00     0.075 A 
ATOM     22  C   UNL d   1      -0.209  -7.394  -0.071  0.00  0.00     0.070 A 
ATOM     23  C   UNL d   1      -0.085  -6.275   0.751  0.00  0.00     0.039 A 
ATOM     24  C   UNL d   1       0.641  -5.160   0.332  0.00  0.00     0.035 A 
BRANCH  20  25
ATOM     25  O   UNL d   1       1.780  -6.197  -2.977  0.00  0.00    -0.354 OA
ATOM     26  C   UNL d   1       1.651  -7.315  -3.853  0.00  0.00     0.210 C 
ENDBRANCH  20  25
BRANCH  22  27
ATOM     27  O   UNL d   1      -0.974  -8.402   0.451  0.00  0.00    -0.356 OA
ATOM     28  C   UNL d   1      -1.318  -9.472  -0.420  0.00  0.00     0.210 C 
ENDBRANCH  22  27
ENDBRANCH  17  19
ENDBRANCH  15  17
ENDBRANCH  13  15
ENDBRANCH  10  13
ENDBRANCH   8   9
ENDBRANCH   6   8
BRANCH   1  29
ATOM     29  C   UNL d   1      -2.366  -0.714  -1.415  0.00  0.00     0.044 A 
ATOM     30  C   UNL d   1      -3.633  -0.672  -0.807  0.00  0.00     0.090 A 
ATOM     31  C   UNL d   1      -4.755  -1.137  -1.523  0.00  0.00     0.038 A 
ATOM     32  C   UNL d   1      -4.651  -1.567  -2.844  0.00  0.00     0.003 A 
ATOM     33  C   UNL d   1      -3.419  -1.532  -3.478  0.00  0.00     0.001 A 
ATOM     34  C   UNL d   1      -2.293  -1.113  -2.770  0.00  0.00     0.018 A 
BRANCH  30  35
ATOM     35  O   UNL d   1      -3.977  -0.284   0.468  0.00  0.00    -0.308 OA
BRANCH  35  36
ATOM     36  C   UNL d   1      -3.374   0.755   1.132  0.00  0.00     0.098 A 
ATOM     37  C   UNL d   1      -2.977   1.995   0.618  0.00  0.00     0.069 A 
ATOM     38  C   UNL d   1      -2.310   2.910   1.444  0.00  0.00     0.050 A 
ATOM     39 CL   UNL d   1      -3.313   2.507  -0.997  0.00  0.00    -0.081 Cl
ATOM     40  C   UNL d   1      -2.105   2.616   2.791  0.00  0.00     0.035 A 
ATOM     41  C   UNL d   1      -2.587   1.431   3.335  0.00  0.00     0.026 A 
ATOM     42 CL   UNL d   1      -1.268   3.735   3.795  0.00  0.00    -0.084 Cl
ATOM     43  C   UNL d   1      -3.222   0.507   2.506  0.00  0.00     0.041 A 
ENDBRANCH  35  36
ENDBRANCH  30  35
ENDBRANCH   1  29
TORSDOF 11
