REMARK  3 active torsions:
REMARK  status: ('A' for Active; 'I' for Inactive)
REMARK    1  A    between atoms: N_2  and  S_1 
REMARK    2  A    between atoms: C_6  and  S_1 
REMARK    3  A    between atoms: C_5  and  N_4 
ROOT
ATOM      1  N   UNL d   1       0.462  -1.261  -0.280  0.00  0.00    -0.304 N 
ATOM      2  N   UNL d   1      -1.019  -3.037   1.497  0.00  0.00    -0.280 NA
ATOM      3  C   UNL d   1      -1.017  -1.173  -0.221  0.00  0.00     0.150 C 
ATOM      4  C   UNL d   1       0.921  -2.650  -0.028  0.00  0.00     0.150 C 
ATOM      5  C   UNL d   1      -1.572  -1.705   1.119  0.00  0.00     0.116 C 
ATOM      6  C   UNL d   1       0.441  -3.171   1.331  0.00  0.00     0.116 C 
ENDROOT
BRANCH   1   7
ATOM      7  S   UNL d   1       1.396   0.060   0.198  0.00  0.00     0.260 S 
ATOM      8  O   UNL d   1       1.029   1.173  -0.653  0.00  0.00    -0.200 OA
ATOM      9  O   UNL d   1       2.773  -0.369   0.313  0.00  0.00    -0.200 OA
BRANCH   7  10
ATOM     10  C   UNL d   1       0.829   0.480   1.837  0.00  0.00     0.079 A 
ATOM     11  C   UNL d   1       1.395  -0.125   2.963  0.00  0.00     0.027 A 
ATOM     12  C   UNL d   1       0.871   0.152   4.229  0.00  0.00     0.025 A 
ATOM     13  C   UNL d   1      -0.178   1.062   4.367  0.00  0.00     0.034 A 
ATOM     14  C   UNL d   1      -0.693   1.724   3.252  0.00  0.00     0.025 A 
ATOM     15 CL   UNL d   1      -0.846   1.370   5.922  0.00  0.00    -0.084 Cl
ATOM     16  C   UNL d   1      -0.181   1.443   1.984  0.00  0.00     0.027 A 
ENDBRANCH   7  10
ENDBRANCH   1   7
BRANCH   2  17
ATOM     17  C   UNL d   1      -1.574  -3.522   2.726  0.00  0.00     0.023 A 
ATOM     18  C   UNL d   1      -0.881  -3.945   3.912  0.00  0.00     0.013 A 
ATOM     19  C   UNL d   1      -1.624  -4.359   5.031  0.00  0.00     0.044 A 
ATOM     20  C   UNL d   1       0.489  -4.063   4.321  0.00  0.00     0.032 A 
ATOM     21  N   UNL d   1      -0.743  -4.696   6.036  0.00  0.00    -0.365 N 
ATOM     22  C   UNL d   1      -3.019  -4.404   5.063  0.00  0.00     0.030 A 
ATOM     23  C   UNL d   1       0.541  -4.525   5.617  0.00  0.00     0.089 A 
ATOM     24  H   UNL d   1      -1.021  -5.031   6.947  0.00  0.00     0.165 HD
ATOM     25  C   UNL d   1      -3.696  -4.042   3.909  0.00  0.00     0.004 A 
ATOM     26  C   UNL d   1      -2.993  -3.632   2.781  0.00  0.00     0.024 A 
ENDBRANCH   2  17
TORSDOF 3
