REMARK  2 active torsions:
REMARK  status: ('A' for Active; 'I' for Inactive)
REMARK    1  A    between atoms: C_13  and  C_3 
REMARK    2  A    between atoms: O_17  and  C_15 
ROOT
ATOM      1  C   UNL d   1       1.161   0.469   0.015  0.00  0.00     0.091 A 
ATOM      2  C   UNL d   1       1.201  -1.003  -0.000  0.00  0.00     0.010 A 
ATOM      3  C   UNL d   1       0.050  -1.729   0.014  0.00  0.00     0.000 A 
ATOM      4  O   UNL d   1      -0.053   1.139   0.019  0.00  0.00    -0.309 OA
ATOM      5  C   UNL d   1      -1.217   0.418   0.025  0.00  0.00     0.089 A 
ATOM      6  C   UNL d   1      -1.232  -0.978   0.038  0.00  0.00     0.010 A 
ATOM      7  C   UNL d   1       2.285   1.198   0.019  0.00  0.00     0.092 A 
ATOM      8  C   UNL d   1       2.525  -1.642  -0.039  0.00  0.00     0.019 A 
ATOM      9  C   UNL d   1      -2.401   1.163   0.014  0.00  0.00     0.074 A 
ATOM     10  C   UNL d   1       3.657  -0.924  -0.037  0.00  0.00     0.056 A 
ATOM     11  C   UNL d   1       3.613   0.553   0.001  0.00  0.00     0.174 A 
ATOM     12  C   UNL d   1      -2.479  -1.624   0.060  0.00  0.00     0.018 A 
ATOM     13  O   UNL d   1       4.642   1.217   0.012  0.00  0.00    -0.288 OA
ATOM     14  C   UNL d   1      -3.620   0.499   0.020  0.00  0.00     0.068 A 
ATOM     15  C   UNL d   1      -3.668  -0.888   0.049  0.00  0.00     0.037 A 
ENDROOT
BRANCH   3  16
ATOM     16  C   UNL d   1       0.097  -3.214  -0.018  0.00  0.00    -0.024 A 
ATOM     17  C   UNL d   1       0.167  -3.948   1.173  0.00  0.00     0.012 A 
ATOM     18  C   UNL d   1       0.211  -5.343   1.135  0.00  0.00     0.001 A 
ATOM     19  C   UNL d   1       0.178  -6.011  -0.089  0.00  0.00     0.000 A 
ATOM     20  C   UNL d   1       0.102  -5.287  -1.278  0.00  0.00     0.001 A 
ATOM     21  C   UNL d   1       0.062  -3.892  -1.245  0.00  0.00     0.012 A 
ENDBRANCH   3  16
BRANCH  14  22
ATOM     22  O   UNL d   1      -4.802   1.177  -0.003  0.00  0.00    -0.361 OA
ATOM     23  H   UNL d   1      -4.617   2.130  -0.034  0.00  0.00     0.217 HD
ENDBRANCH  14  22
TORSDOF 2
