REMARK  4 active torsions:
REMARK  status: ('A' for Active; 'I' for Inactive)
REMARK    1  A    between atoms: C_8  and  C_1 
REMARK    2  A    between atoms: C_5  and  C_3 
REMARK    3  A    between atoms: C_10  and  C_6 
REMARK    4  A    between atoms: O_11  and  C_10 
ROOT
ATOM      1  C   UNL d   1      -3.037  -0.195   0.007  0.00  0.00     0.051 A 
ATOM      2  S   UNL d   1      -1.567  -1.095   0.012  0.00  0.00    -0.078 SA
ATOM      3  C   UNL d   1      -0.609   0.313   0.007  0.00  0.00     0.059 A 
ATOM      4  C   UNL d   1      -2.775   1.163   0.001  0.00  0.00     0.025 A 
ATOM      5  C   UNL d   1      -1.379   1.453   0.001  0.00  0.00     0.029 A 
ENDROOT
BRANCH   3   6
ATOM      6  C   UNL d   1       0.817   0.317   0.008  0.00  0.00    -0.057 C 
ATOM      7  C   UNL d   1       2.015   0.394   0.010  0.00  0.00    -0.075 C 
BRANCH   7   8
ATOM      8  C   UNL d   1       3.470   0.549   0.011  0.00  0.00     0.258 C 
BRANCH   8   9
ATOM      9  O   UNL d   1       4.101  -0.722   0.020  0.00  0.00    -0.389 OA
ATOM     10  H   UNL d   1       3.717  -1.222   0.760  0.00  0.00     0.210 HD
ENDBRANCH   8   9
ENDBRANCH   7   8
ENDBRANCH   3   6
BRANCH   1  11
ATOM     11  C   UNL d   1      -4.309  -0.914   0.009  0.00  0.00     0.162 C 
ATOM     12  O   UNL d   1      -4.399  -2.145   0.014  0.00  0.00    -0.292 OA
ATOM     13  C   UNL d   1      -5.591  -0.111   0.006  0.00  0.00     0.097 C 
ENDBRANCH   1  11
TORSDOF 4
