REMARK  5 active torsions:
REMARK  status: ('A' for Active; 'I' for Inactive)
REMARK    1  A    between atoms: C_7  and  C_1 
REMARK    2  A    between atoms: C_9  and  C_2 
REMARK    3  A    between atoms: C_6  and  O_10 
REMARK       I    between atoms: N_8  and  C_6 
REMARK    4  A    between atoms: C_15  and  N_8 
REMARK    5  A    between atoms: O_10  and  C_9 
ROOT
ATOM      1  C   UNL d   1      -1.403   0.659   0.174  0.00  0.00     0.086 A 
ATOM      2  C   UNL d   1      -0.087  -1.182   0.242  0.00  0.00    -0.002 A 
ATOM      3  O   UNL d   1      -0.102   1.071   0.122  0.00  0.00    -0.314 OA
ATOM      4  C   UNL d   1      -1.435  -0.720   0.268  0.00  0.00     0.050 A 
ATOM      5  C   UNL d   1       0.687  -0.037   0.156  0.00  0.00     0.058 A 
ATOM      6  C   UNL d   1       2.144   0.197   0.063  0.00  0.00     0.077 C 
ENDROOT
BRANCH   2   7
ATOM      7  C   UNL d   1       0.383  -2.597   0.236  0.00  0.00     0.222 C 
BRANCH   7   8
ATOM      8  O   UNL d   1      -0.149  -3.361   1.329  0.00  0.00    -0.299 OA
BRANCH   8   9
ATOM      9  C   UNL d   1      -1.031  -4.334   1.006  0.00  0.00     0.365 C 
ATOM     10  N   UNL d   1      -1.378  -5.190   2.017  0.00  0.00    -0.303 N 
ATOM     11  H   UNL d   1      -1.988  -5.921   1.674  0.00  0.00     0.171 HD
ATOM     12  O   UNL d   1      -1.492  -4.507  -0.119  0.00  0.00    -0.238 OA
BRANCH  10  13
ATOM     13  C   UNL d   1      -0.981  -5.282   3.363  0.00  0.00     0.036 A 
ATOM     14  C   UNL d   1      -0.190  -4.347   4.031  0.00  0.00     0.029 A 
ATOM     15  C   UNL d   1       0.175  -4.550   5.368  0.00  0.00     0.002 A 
ATOM     16  C   UNL d   1      -0.249  -5.687   6.050  0.00  0.00     0.000 A 
ATOM     17  C   UNL d   1      -1.053  -6.618   5.402  0.00  0.00     0.002 A 
ATOM     18  C   UNL d   1      -1.421  -6.413   4.069  0.00  0.00     0.029 A 
ENDBRANCH  10  13
ENDBRANCH   8   9
ENDBRANCH   7   8
ENDBRANCH   2   7
BRANCH   1  19
ATOM     19  C   UNL d   1      -2.424   1.701   0.091  0.00  0.00    -0.002 A 
ATOM     20  C   UNL d   1      -2.082   3.060  -0.011  0.00  0.00     0.016 A 
ATOM     21  C   UNL d   1      -3.070   4.047  -0.116  0.00  0.00     0.024 A 
ATOM     22  C   UNL d   1      -4.413   3.684  -0.119  0.00  0.00     0.034 A 
ATOM     23  C   UNL d   1      -4.777   2.344  -0.015  0.00  0.00     0.024 A 
ATOM     24 CL   UNL d   1      -5.629   4.891  -0.258  0.00  0.00    -0.084 Cl
ATOM     25  C   UNL d   1      -3.788   1.361   0.090  0.00  0.00     0.016 A 
ENDBRANCH   1  19
TORSDOF 5
