REMARK  1 active torsions:
REMARK  status: ('A' for Active; 'I' for Inactive)
REMARK    1  A    between atoms: C_7  and  N_1 
ROOT
ATOM      1  N   UNL d   1      -0.632  -1.209  -0.101  0.00  0.00    -0.272 N 
ATOM      2  C   UNL d   1      -1.403  -0.038  -0.168  0.00  0.00     0.334 A 
ATOM      3  N   UNL d   1      -0.693   1.136  -0.104  0.00  0.00    -0.274 N 
ATOM      4  C   UNL d   1       1.433   0.010   0.027  0.00  0.00     0.128 A 
ATOM      5  C   UNL d   1       0.752  -1.143  -0.010  0.00  0.00     0.130 A 
ATOM      6  C   UNL d   1       0.664   1.269  -0.014  0.00  0.00     0.271 A 
ATOM      7  C   UNL d   1       2.850   0.043   0.071  0.00  0.00     0.106 C 
ATOM      8  N   UNL d   1       4.009   0.008   0.092  0.00  0.00    -0.191 NA
ATOM      9  O   UNL d   1      -2.629   0.011  -0.254  0.00  0.00    -0.246 OA
ATOM     10  O   UNL d   1       1.199   2.371   0.019  0.00  0.00    -0.266 OA
ATOM     11  H   UNL d   1      -1.237   1.986  -0.128  0.00  0.00     0.173 HD
ENDROOT
BRANCH   1  12
ATOM     12  C   UNL d   1      -1.308  -2.474  -0.172  0.00  0.00     0.065 A 
ATOM     13  C   UNL d   1      -1.137  -3.488   0.790  0.00  0.00     0.061 A 
ATOM     14 CL   UNL d   1      -0.202  -3.260   2.230  0.00  0.00    -0.082 Cl
ATOM     15  C   UNL d   1      -1.808  -4.709   0.656  0.00  0.00     0.026 A 
ATOM     16  C   UNL d   1      -2.642  -4.939  -0.438  0.00  0.00     0.002 A 
ATOM     17  C   UNL d   1      -2.818  -3.945  -1.395  0.00  0.00     0.002 A 
ATOM     18  C   UNL d   1      -2.164  -2.718  -1.259  0.00  0.00     0.032 A 
ENDBRANCH   1  12
TORSDOF 1
