REMARK  3 active torsions:
REMARK  status: ('A' for Active; 'I' for Inactive)
REMARK    1  A    between atoms: O_5  and  C_1 
REMARK    2  A    between atoms: C_6  and  O_5 
REMARK       I    between atoms: N_10  and  C_6 
REMARK    3  A    between atoms: C_13  and  N_10 
ROOT
ATOM      1  C   UNL d   1       2.972   0.672   0.454  0.00  0.00     0.186 A 
ATOM      2  C   UNL d   1       4.356   0.953   0.596  0.00  0.00     0.053 A 
ATOM      3  N   UNL d   1       2.701  -0.632   0.575  0.00  0.00    -0.237 N 
ATOM      4  HN  UNL d   1       1.786  -1.079   0.534  1.00  0.00     0.197 HD
ATOM      5  C   UNL d   1       4.906  -0.305   0.804  0.00  0.00     0.115 A 
ATOM      6  O   UNL d   1       3.926  -1.246   0.769  0.00  0.00    -0.235 OA
ATOM      7  C   UNL d   1       5.221   2.064   0.625  0.00  0.00     0.020 A 
ATOM      8  C   UNL d   1       6.255  -0.557   1.041  0.00  0.00     0.064 A 
ATOM      9  C   UNL d   1       7.090   0.560   1.061  0.00  0.00     0.036 A 
ATOM     10  C   UNL d   1       6.592   1.849   0.851  0.00  0.00     0.025 A 
ATOM     11 CL   UNL d   1       8.772   0.343   1.364  0.00  0.00    -0.084 Cl
ENDROOT
BRANCH   1  12
ATOM     12  O   UNL d   1       1.885   1.460   0.400  0.00  0.00    -0.241 OA
BRANCH  12  13
ATOM     13  C   UNL d   1       1.934   2.651  -0.226  0.00  0.00     0.367 C 
ATOM     14  N   UNL d   1       0.895   3.485   0.088  0.00  0.00    -0.328 N 
ATOM     15  H   UNL d   1       0.934   4.334  -0.463  0.00  0.00     0.165 HD
ATOM     16  O   UNL d   1       2.806   3.028  -1.002  0.00  0.00    -0.238 OA
BRANCH  14  17
ATOM     17  C   UNL d   1      -0.326   3.285   0.898  0.00  0.00     0.024 C 
ATOM     18  C   UNL d   1      -0.581   4.602   1.654  0.00  0.00     0.037 C 
ATOM     19  C   UNL d   1      -1.514   3.006  -0.035  0.00  0.00     0.037 C 
ATOM     20  C   UNL d   1      -0.241   2.159   1.942  0.00  0.00     0.037 C 
ENDBRANCH  14  17
ENDBRANCH  12  13
ENDBRANCH   1  12
TORSDOF 3
