REMARK  4 active torsions:
REMARK  status: ('A' for Active; 'I' for Inactive)
REMARK    1  A    between atoms: O_5  and  C_3 
REMARK    2  A    between atoms: C_4  and  O_5 
REMARK       I    between atoms: N_11  and  C_4 
REMARK    3  A    between atoms: S_14  and  C_6 
REMARK    4  A    between atoms: C_13  and  C_9 
ROOT
ATOM      1  N   UNL d   1       1.284   0.648  -0.143  0.00  0.00    -0.317 N 
ATOM      2  HN  UNL d   1       2.213   1.036  -0.308  1.00  0.00     0.170 HD
ATOM      3  C   UNL d   1       1.096  -0.648   0.163  0.00  0.00     0.157 A 
ATOM      4  C   UNL d   1       0.176   1.400  -0.216  0.00  0.00     0.146 A 
ATOM      5  N   UNL d   1      -1.077   0.936  -0.077  0.00  0.00    -0.336 N 
ATOM      6  HN  UNL d   1      -1.882   1.554  -0.180  1.00  0.00     0.168 HD
ATOM      7  C   UNL d   1      -1.236  -0.373   0.203  0.00  0.00     0.048 A 
ATOM      8  C   UNL d   1      -0.142  -1.190   0.400  0.00  0.00     0.087 A 
ENDROOT
BRANCH   3   9
ATOM      9  O   UNL d   1       2.257  -1.449   0.024  0.00  0.00    -0.244 OA
BRANCH   9  10
ATOM     10  C   UNL d   1       2.320  -2.822   0.281  0.00  0.00     0.368 C 
ATOM     11  N   UNL d   1       3.395  -3.437  -0.346  0.00  0.00    -0.336 N 
ATOM     12  C   UNL d   1       4.419  -2.711  -1.075  0.00  0.00     0.154 C 
ATOM     13  C   UNL d   1       3.613  -4.858  -0.143  0.00  0.00     0.154 C 
ATOM     14  O   UNL d   1       1.511  -3.433   0.969  0.00  0.00    -0.238 OA
ENDBRANCH   9  10
ENDBRANCH   3   9
BRANCH   4  15
ATOM     15  S   UNL d   1       0.331   3.146  -0.514  0.00  0.00    -0.098 SA
ATOM     16  C   UNL d   1       1.952   3.206  -1.311  0.00  0.00     0.099 C 
ENDBRANCH   4  15
BRANCH   7  17
ATOM     17  C   UNL d   1      -2.623  -0.905   0.169  0.00  0.00    -0.009 A 
ATOM     18  C   UNL d   1      -2.890  -2.290   0.093  0.00  0.00     0.013 A 
ATOM     19  C   UNL d   1      -4.190  -2.791  -0.017  0.00  0.00     0.001 A 
ATOM     20  C   UNL d   1      -5.266  -1.916  -0.058  0.00  0.00     0.000 A 
ATOM     21  C   UNL d   1      -5.042  -0.545   0.022  0.00  0.00     0.001 A 
ATOM     22  C   UNL d   1      -3.737  -0.047   0.137  0.00  0.00     0.013 A 
ENDBRANCH   7  17
TORSDOF 4
