REMARK  7 active torsions:
REMARK  status: ('A' for Active; 'I' for Inactive)
REMARK    1  A    between atoms: C_2  and  C_1 
REMARK       I    between atoms: N_3  and  C_1 
REMARK    2  A    between atoms: C_4  and  N_3 
REMARK    3  A    between atoms: C_22  and  N_3 
REMARK    4  A    between atoms: O_19  and  C_5 
REMARK    5  A    between atoms: O_20  and  C_6 
REMARK    6  A    between atoms: O_21  and  C_7 
REMARK    7  A    between atoms: C_18  and  C_22 
ROOT
ATOM      1  N   UNL d   1      -4.373  -1.277  -0.957  0.00  0.00    -0.197 NA
ATOM      2  C   UNL d   1      -3.245  -1.039  -1.078  0.00  0.00     0.060 C 
ATOM      3  C   UNL d   1      -1.801  -0.759  -1.216  0.00  0.00     0.143 C 
ENDROOT
BRANCH   3   4
ATOM      4  C   UNL d   1      -1.024  -1.513  -0.130  0.00  0.00     0.140 C 
BRANCH   4   5
ATOM      5  N   UNL d   1       0.455  -1.431  -0.134  0.00  0.00    -0.342 N 
ATOM      6  C   UNL d   1       1.021  -0.121  -0.107  0.00  0.00     0.254 C 
ATOM      7  O   UNL d   1       0.331   0.890  -0.213  0.00  0.00    -0.267 OA
BRANCH   6   8
ATOM      8  C   UNL d   1       2.485   0.106   0.135  0.00  0.00     0.037 C 
ATOM      9  C   UNL d   1       3.489  -0.607  -0.526  0.00  0.00     0.057 C 
ATOM     10  C   UNL d   1       4.824  -0.553  -0.098  0.00  0.00     0.105 C 
ATOM     11  C   UNL d   1       5.195   0.376   0.889  0.00  0.00     0.135 C 
ATOM     12  C   UNL d   1       4.215   1.267   1.376  0.00  0.00     0.105 C 
ATOM     13  C   UNL d   1       2.864   1.091   1.046  0.00  0.00     0.057 C 
BRANCH  10  14
ATOM     14  O   UNL d   1       5.780  -1.412  -0.567  0.00  0.00    -0.353 OA
ATOM     15  C   UNL d   1       5.551  -2.144  -1.760  0.00  0.00     0.210 C 
ENDBRANCH  10  14
BRANCH  11  16
ATOM     16  O   UNL d   1       6.436   0.521   1.455  0.00  0.00    -0.351 OA
ATOM     17  C   UNL d   1       7.485  -0.377   1.132  0.00  0.00     0.210 C 
ENDBRANCH  11  16
BRANCH  12  18
ATOM     18  O   UNL d   1       4.459   2.314   2.234  0.00  0.00    -0.353 OA
ATOM     19  C   UNL d   1       5.625   3.078   1.915  0.00  0.00     0.210 C 
ENDBRANCH  12  18
ENDBRANCH   6   8
BRANCH   5  20
ATOM     20  C   UNL d   1       1.216  -2.643   0.313  0.00  0.00     0.088 C 
ATOM     21  C   UNL d   1       1.948  -3.337  -0.859  0.00  0.00     0.034 C 
ATOM     22  C   UNL d   1       1.664  -4.800  -1.247  0.00  0.00    -0.045 C 
ATOM     23  C   UNL d   1       0.663  -4.859  -2.416  0.00  0.00     0.015 C 
ATOM     24  C   UNL d   1       2.987  -5.429  -1.754  0.00  0.00     0.015 C 
ATOM     25  C   UNL d   1       1.163  -5.616  -0.051  0.00  0.00     0.013 C 
ATOM     26  C   UNL d   1       0.020  -4.921   0.692  0.00  0.00    -0.016 C 
ATOM     27  C   UNL d   1       0.509  -3.600   1.297  0.00  0.00     0.029 C 
ATOM     28  C   UNL d   1      -0.515  -5.837   1.793  0.00  0.00     0.010 C 
ENDBRANCH   5  20
ENDBRANCH   4   5
ENDBRANCH   3   4
TORSDOF 7
