REMARK  6 active torsions:
REMARK  status: ('A' for Active; 'I' for Inactive)
REMARK    1  A    between atoms: C_2  and  C_1 
REMARK       I    between atoms: N_8  and  C_2 
REMARK    2  A    between atoms: O_13  and  C_3 
REMARK    3  A    between atoms: O_12  and  C_4 
REMARK    4  A    between atoms: C_11  and  N_8 
REMARK    5  A    between atoms: C_9  and  C_10 
REMARK    6  A    between atoms: C_10  and  C_11 
ROOT
ATOM      1  C   UNL d   1       3.067  -0.462   0.485  0.00  0.00     0.257 C 
ATOM      2  O   UNL d   1       3.424   0.262   1.408  0.00  0.00    -0.267 OA
ATOM      3  N   UNL d   1       3.871  -1.456  -0.023  0.00  0.00    -0.356 N 
ATOM      4  H   UNL d   1       3.504  -2.052  -0.758  0.00  0.00     0.162 HD
ENDROOT
BRANCH   1   5
ATOM      5  C   UNL d   1       1.700  -0.346  -0.090  0.00  0.00     0.098 A 
ATOM      6  C   UNL d   1       1.126   0.921  -0.303  0.00  0.00     0.086 A 
ATOM      7  C   UNL d   1      -0.169   1.034  -0.823  0.00  0.00     0.038 A 
ATOM      8  C   UNL d   1      -0.910  -0.108  -1.127  0.00  0.00     0.005 A 
ATOM      9  C   UNL d   1      -0.347  -1.369  -0.939  0.00  0.00     0.038 A 
ATOM     10  C   UNL d   1       0.944  -1.490  -0.412  0.00  0.00     0.086 A 
BRANCH   6  11
ATOM     11  O   UNL d   1       1.837   2.091  -0.221  0.00  0.00    -0.355 OA
ATOM     12  C   UNL d   1       1.941   2.590   1.113  0.00  0.00     0.210 C 
ENDBRANCH   6  11
BRANCH  10  13
ATOM     13  O   UNL d   1       1.456  -2.763  -0.361  0.00  0.00    -0.355 OA
ATOM     14  C   UNL d   1       1.468  -3.288   0.968  0.00  0.00     0.210 C 
ENDBRANCH  10  13
ENDBRANCH   1   5
BRANCH   3  15
ATOM     15  C   UNL d   1       5.217  -1.689   0.469  0.00  0.00     0.129 C 
BRANCH  15  16
ATOM     16  C   UNL d   1       5.270  -2.074   1.950  0.00  0.00     0.076 C 
BRANCH  16  17
ATOM     17  C   UNL d   1       6.688  -2.334   2.380  0.00  0.00     0.010 A 
ATOM     18  N   UNL d   1       7.240  -3.505   1.981  0.00  0.00    -0.369 N 
ATOM     19  C   UNL d   1       8.519  -3.741   2.350  0.00  0.00     0.088 A 
ATOM     20  HN  UNL d   1       6.714  -4.179   1.425  1.00  0.00     0.165 HD
ATOM     21  C   UNL d   1       9.281  -2.864   3.100  0.00  0.00     0.017 A 
ATOM     22  C   UNL d   1       8.697  -1.663   3.499  0.00  0.00     0.003 A 
ATOM     23  C   UNL d   1       7.384  -1.393   3.133  0.00  0.00     0.025 A 
ENDBRANCH  16  17
ENDBRANCH  15  16
ENDBRANCH   3  15
TORSDOF 6
