REMARK  7 active torsions:
REMARK  status: ('A' for Active; 'I' for Inactive)
REMARK    1  A    between atoms: C_13  and  N_1 
REMARK    2  A    between atoms: C_6  and  C_3 
REMARK    3  A    between atoms: C_18  and  N_5 
REMARK    4  A    between atoms: C_15  and  C_10 
REMARK    5  A    between atoms: C_16  and  C_13 
REMARK    6  A    between atoms: O_20  and  C_16 
REMARK    7  A    between atoms: C_26  and  O_20 
ROOT
ATOM      1  N   UNL d   1      -0.732   1.114   0.046  0.00  0.00    -0.256 N 
ATOM      2  C   UNL d   1      -1.376  -0.092  -0.192  0.00  0.00     0.332 C 
ATOM      3  C   UNL d   1       1.449   0.024   0.124  0.00  0.00     0.082 C 
ATOM      4  C   UNL d   1       0.639   1.261   0.198  0.00  0.00     0.266 C 
ATOM      5  N   UNL d   1      -0.587  -1.234  -0.015  0.00  0.00    -0.304 N 
ATOM      6  C   UNL d   1       0.789  -1.142   0.051  0.00  0.00     0.116 C 
ATOM      7  O   UNL d   1      -2.562  -0.150  -0.516  0.00  0.00    -0.246 OA
ATOM      8  O   UNL d   1       1.154   2.370   0.356  0.00  0.00    -0.267 OA
ENDROOT
BRANCH   3   9
ATOM      9  C   UNL d   1       2.879   0.014   0.080  0.00  0.00     0.091 A 
ATOM     10  N   UNL d   1       3.611  -0.865  -0.589  0.00  0.00    -0.352 N 
ATOM     11  C   UNL d   1       4.970  -0.596  -0.490  0.00  0.00     0.024 A 
ATOM     12  HN  UNL d   1       3.222  -1.648  -1.116  1.00  0.00     0.166 HD
ATOM     13  C   UNL d   1       5.264   0.482   0.321  0.00  0.00     0.077 A 
ATOM     14  S   UNL d   1       3.836   1.149   0.972  0.00  0.00    -0.081 SA
BRANCH  11  15
ATOM     15  C   UNL d   1       5.974  -1.459  -1.243  0.00  0.00    -0.008 C 
ATOM     16  C   UNL d   1       5.277  -2.587  -2.032  0.00  0.00     0.021 C 
ATOM     17  C   UNL d   1       6.768  -0.595  -2.244  0.00  0.00     0.021 C 
ATOM     18  C   UNL d   1       6.960  -2.110  -0.252  0.00  0.00     0.021 C 
ENDBRANCH  11  15
ENDBRANCH   3   9
BRANCH   1  19
ATOM     19  C   UNL d   1      -1.528   2.337   0.047  0.00  0.00     0.248 C 
BRANCH  19  20
ATOM     20  C   UNL d   1      -1.472   3.115  -1.260  0.00  0.00     0.277 C 
ATOM     21  O   UNL d   1      -2.110   4.145  -1.449  0.00  0.00    -0.263 OA
BRANCH  20  22
ATOM     22  O   UNL d   1      -0.678   2.512  -2.187  0.00  0.00    -0.321 OA
BRANCH  22  23
ATOM     23  C   UNL d   1      -0.812   2.990  -3.530  0.00  0.00     0.174 C 
ATOM     24  C   UNL d   1      -1.879   2.145  -4.204  0.00  0.00     0.034 C 
ENDBRANCH  22  23
ENDBRANCH  20  22
ENDBRANCH  19  20
ENDBRANCH   1  19
BRANCH   5  25
ATOM     25  C   UNL d   1      -1.248  -2.559  -0.065  0.00  0.00     0.086 C 
ATOM     26  C   UNL d   1      -1.148  -3.190  -1.453  0.00  0.00     0.032 C 
ATOM     27  C   UNL d   1      -0.756  -3.530   1.020  0.00  0.00     0.032 C 
ENDBRANCH   5  25
TORSDOF 7
