REMARK  6 active torsions:
REMARK  status: ('A' for Active; 'I' for Inactive)
REMARK    1  A    between atoms: N_7  and  C_1 
REMARK    2  A    between atoms: N_8  and  C_1 
REMARK    3  A    between atoms: N_2  and  N_8 
REMARK    4  A    between atoms: C_4  and  C_14 
REMARK    5  A    between atoms: C_14  and  N_7 
REMARK    6  A    between atoms: C_16  and  C_15 
ROOT
ATOM      1  N   UNL d   1       2.330  -0.137  -0.258  0.00  0.00    -0.277 N 
ATOM      2  H   UNL d   1       2.824   0.055   0.607  0.00  0.00     0.189 HD
ENDROOT
BRANCH   1   3
ATOM      3  N   UNL d   1       3.008  -0.412  -1.408  0.00  0.00    -0.309 N 
ATOM      4  C   UNL d   1       4.300  -0.389  -1.310  0.00  0.00     0.118 C 
ATOM      5  HN  UNL d   1       2.532  -0.622  -2.286  1.00  0.00     0.186 HD
BRANCH   4   6
ATOM      6  C   UNL d   1       5.151  -0.659  -2.483  0.00  0.00    -0.017 A 
ATOM      7  C   UNL d   1       4.577  -0.972  -3.714  0.00  0.00     0.030 A 
ATOM      8  C   UNL d   1       5.423  -1.211  -4.776  0.00  0.00     0.088 A 
ATOM      9  N   UNL d   1       6.770  -1.157  -4.685  0.00  0.00    -0.375 N 
ATOM     10  C   UNL d   1       7.294  -0.850  -3.479  0.00  0.00     0.088 A 
ATOM     11  HN  UNL d   1       7.366  -1.340  -5.492  1.00  0.00     0.164 HD
ATOM     12  C   UNL d   1       6.536  -0.594  -2.352  0.00  0.00     0.030 A 
ENDBRANCH   4   6
ENDBRANCH   1   3
BRANCH   1  13
ATOM     13  C   UNL d   1       0.963   0.039  -0.277  0.00  0.00     0.186 C 
ATOM     14  S   UNL d   1       0.175   0.525   1.110  0.00  0.00    -0.040 SA
BRANCH  13  15
ATOM     15  N   UNL d   1       0.396  -0.193  -1.501  0.00  0.00    -0.360 N 
ATOM     16  H   UNL d   1       1.073  -0.466  -2.205  0.00  0.00     0.162 HD
BRANCH  15  17
ATOM     17  C   UNL d   1      -0.952   0.143  -1.901  0.00  0.00     0.187 C 
BRANCH  17  18
ATOM     18  C   UNL d   1      -1.195  -0.279  -3.303  0.00  0.00     0.070 A 
ATOM     19  O   UNL d   1      -1.262  -1.621  -3.544  0.00  0.00    -0.325 OA
ATOM     20  C   UNL d   1      -1.547  -1.775  -4.863  0.00  0.00     0.142 A 
ATOM     21  C   UNL d   1      -1.660  -0.550  -5.478  0.00  0.00     0.027 A 
ATOM     22  C   UNL d   1      -1.424   0.418  -4.472  0.00  0.00     0.036 A 
ENDBRANCH  17  18
ENDBRANCH  15  17
ENDBRANCH  13  15
ENDBRANCH   1  13
TORSDOF 6
