REMARK  6 active torsions:
REMARK  status: ('A' for Active; 'I' for Inactive)
REMARK    1  A    between atoms: C_19  and  C_3 
REMARK       I    between atoms: C_5  and  N_12 
REMARK    2  A    between atoms: C_6  and  C_5 
REMARK    3  A    between atoms: C_15  and  C_8 
REMARK    4  A    between atoms: C_9  and  C_10 
REMARK    5  A    between atoms: N_12  and  C_18 
REMARK    6  A    between atoms: C_18  and  C_19 
ROOT
ATOM      1  C   UNL d   1      -0.396  -6.101   0.336  0.00  0.00     0.241 C 
ATOM      2  O   UNL d   1      -1.083  -5.205   0.813  0.00  0.00    -0.269 OA
ATOM      3  N   UNL d   1      -0.895  -7.328  -0.033  0.00  0.00    -0.357 N 
ATOM      4  H   UNL d   1      -0.330  -7.938  -0.609  0.00  0.00     0.162 HD
ENDROOT
BRANCH   1   5
ATOM      5  C   UNL d   1       1.064  -5.945   0.089  0.00  0.00     0.075 C 
ATOM      6  C   UNL d   1       1.649  -4.777   0.404  0.00  0.00     0.017 C 
BRANCH   6   7
ATOM      7  C   UNL d   1       3.066  -4.420   0.227  0.00  0.00    -0.036 A 
ATOM      8  C   UNL d   1       3.401  -3.063   0.161  0.00  0.00     0.012 A 
ATOM      9  C   UNL d   1       4.734  -2.650   0.038  0.00  0.00     0.009 A 
ATOM     10  C   UNL d   1       5.791  -3.575  -0.011  0.00  0.00    -0.051 A 
ATOM     11  C   UNL d   1       5.445  -4.936   0.061  0.00  0.00     0.009 A 
ATOM     12  C   UNL d   1       4.107  -5.351   0.184  0.00  0.00     0.012 A 
BRANCH  10  13
ATOM     13  C   UNL d   1       7.244  -3.080  -0.134  0.00  0.00    -0.024 C 
ATOM     14  C   UNL d   1       8.296  -4.211  -0.110  0.00  0.00     0.019 C 
ATOM     15  C   UNL d   1       7.422  -2.318  -1.465  0.00  0.00     0.019 C 
ATOM     16  C   UNL d   1       7.578  -2.128   1.036  0.00  0.00     0.019 C 
ENDBRANCH  10  13
ENDBRANCH   6   7
ENDBRANCH   1   5
BRANCH   3  17
ATOM     17  C   UNL d   1      -2.331  -7.564   0.012  0.00  0.00     0.127 C 
BRANCH  17  18
ATOM     18  C   UNL d   1      -2.733  -9.016  -0.257  0.00  0.00     0.060 C 
BRANCH  18  19
ATOM     19  C   UNL d   1      -2.504  -9.437  -1.677  0.00  0.00    -0.029 A 
ATOM     20  C   UNL d   1      -3.365  -9.231  -2.738  0.00  0.00     0.096 A 
ATOM     21  N   UNL d   1      -2.787  -9.742  -3.868  0.00  0.00    -0.365 N 
ATOM     22  C   UNL d   1      -1.559 -10.284  -3.569  0.00  0.00     0.042 A 
ATOM     23  H   UNL d   1      -3.197  -9.726  -4.793  0.00  0.00     0.165 HD
ATOM     24  C   UNL d   1      -1.363 -10.128  -2.199  0.00  0.00    -0.002 A 
ATOM     25  C   UNL d   1      -0.622 -10.905  -4.405  0.00  0.00     0.030 A 
ATOM     26  C   UNL d   1      -0.174 -10.630  -1.628  0.00  0.00     0.014 A 
ATOM     27  C   UNL d   1       0.774 -11.252  -2.447  0.00  0.00     0.001 A 
ATOM     28  C   UNL d   1       0.552 -11.383  -3.816  0.00  0.00     0.002 A 
ENDBRANCH  18  19
ENDBRANCH  17  18
ENDBRANCH   3  17
TORSDOF 6
