REMARK  7 active torsions:
REMARK  status: ('A' for Active; 'I' for Inactive)
REMARK    1  A    between atoms: CA_1  and  C_5 
REMARK    2  A    between atoms: CA_1  and  N_3 
REMARK    3  A    between atoms: CA_1  and  C_2 
REMARK    4  A    between atoms: OXT_11  and  C_2 
REMARK       I    between atoms: C_4  and  N_3 
REMARK    5  A    between atoms: C_9  and  C_5 
REMARK    6  A    between atoms: O_8  and  C_10 
REMARK    7  A    between atoms: C_16  and  O_8 
ROOT
ATOM      1  C   UNL d   1       2.678   0.093  -0.035  0.00  0.00     0.074 C 
ENDROOT
BRANCH   1   2
ATOM      2  CA  UNL d   1       3.031   0.701  -1.407  0.00  0.00     0.186 C 
BRANCH   2   3
ATOM      3  N   UNL d   1       4.484   0.776  -1.598  0.00  0.00    -0.347 N 
ATOM      4  C   UNL d   1       5.054   1.722  -2.404  0.00  0.00     0.214 C 
ATOM      5  O   UNL d   1       4.360   2.488  -3.073  0.00  0.00    -0.274 OA
ATOM      6  C   UNL d   1       6.551   1.682  -2.485  0.00  0.00     0.117 C 
ATOM      7  H   UNL d   1       5.048   0.001  -1.273  0.00  0.00     0.163 HD
ENDBRANCH   2   3
BRANCH   2   8
ATOM      8  C   UNL d   1       2.378  -0.056  -2.563  0.00  0.00     0.163 C 
ATOM      9  O   UNL d   1       1.648  -1.028  -2.441  0.00  0.00    -0.648 OA
BRANCH   8  10
ATOM     10  OXT UNL d   1       2.621   0.510  -3.776  0.00  0.00    -0.775 OA
ATOM     11  HXT UNL d   1       3.150   1.343  -3.706  0.00  0.00     0.167 HD
ENDBRANCH   8  10
ENDBRANCH   2   8
ENDBRANCH   1   2
BRANCH   1  12
ATOM     12  C   UNL d   1       3.096   0.923   1.169  0.00  0.00    -0.056 A 
ATOM     13  C   UNL d   1       3.281   2.309   1.092  0.00  0.00     0.010 A 
ATOM     14  C   UNL d   1       3.527   3.070   2.233  0.00  0.00     0.037 A 
ATOM     15  C   UNL d   1       3.545   2.466   3.485  0.00  0.00     0.069 A 
ATOM     16  C   UNL d   1       3.445   1.078   3.573  0.00  0.00     0.037 A 
ATOM     17  C   UNL d   1       3.211   0.310   2.426  0.00  0.00     0.010 A 
BRANCH  15  18
ATOM     18  O   UNL d   1       3.621   3.146   4.670  0.00  0.00    -0.347 OA
BRANCH  18  19
ATOM     19  C   UNL d   1       3.048   4.465   4.691  0.00  0.00     0.120 C 
ATOM     20  C   UNL d   1       1.536   4.439   4.443  0.00  0.00     0.040 C 
ATOM     21  C   UNL d   1       3.321   5.049   6.074  0.00  0.00     0.040 C 
ENDBRANCH  18  19
ENDBRANCH  15  18
ENDBRANCH   1  12
TORSDOF 7
