REMARK  3 active torsions:
REMARK  status: ('A' for Active; 'I' for Inactive)
REMARK    1  A    between atoms: S_11  and  C_2 
REMARK    2  A    between atoms: C_13  and  C_3 
REMARK    3  A    between atoms: C_14  and  S_11 
ROOT
ATOM      1  C   UNL d   1       0.318   0.999   0.057  0.00  0.00     0.043 A 
ATOM      2  C   UNL d   1       1.692   1.271   0.226  0.00  0.00     0.089 A 
ATOM      3  C   UNL d   1      -0.919   1.771  -0.055  0.00  0.00    -0.004 A 
ATOM      4  C   UNL d   1      -2.026   0.948  -0.193  0.00  0.00     0.065 A 
ATOM      5  C   UNL d   1       0.025  -0.364  -0.017  0.00  0.00     0.088 A 
ATOM      6  S   UNL d   1      -1.631  -0.706  -0.188  0.00  0.00    -0.082 SA
ATOM      7  N   UNL d   1       2.596   0.263   0.258  0.00  0.00    -0.346 N 
ATOM      8  HN  UNL d   1       3.593   0.458   0.356  1.00  0.00     0.167 HD
ATOM      9  N   UNL d   1       0.893  -1.388   0.028  0.00  0.00    -0.346 N 
ATOM     10  HN  UNL d   1       0.612  -2.366  -0.032  1.00  0.00     0.167 HD
ATOM     11  C   UNL d   1       2.153  -0.994   0.159  0.00  0.00     0.182 A 
ENDROOT
BRANCH   2  12
ATOM     12  S   UNL d   1       2.345   2.911   0.254  0.00  0.00    -0.072 SA
BRANCH  12  13
ATOM     13  C   UNL d   1       3.122   3.033   1.847  0.00  0.00     0.007 A 
ATOM     14  C   UNL d   1       4.300   2.335   2.140  0.00  0.00     0.022 A 
ATOM     15  C   UNL d   1       4.954   2.538   3.357  0.00  0.00     0.043 A 
ATOM     16  C   UNL d   1       4.434   3.445   4.273  0.00  0.00     0.116 A 
ATOM     17  C   UNL d   1       3.266   4.146   3.999  0.00  0.00     0.043 A 
ATOM     18  F   UNL d   1       5.074   3.657   5.429  0.00  0.00    -0.206 F 
ATOM     19  C   UNL d   1       2.610   3.940   2.783  0.00  0.00     0.022 A 
ENDBRANCH  12  13
ENDBRANCH   2  12
BRANCH   3  20
ATOM     20  C   UNL d   1      -1.135   3.220  -0.032  0.00  0.00    -0.025 A 
ATOM     21  C   UNL d   1      -0.438   4.067  -0.899  0.00  0.00     0.012 A 
ATOM     22  C   UNL d   1      -0.600   5.453  -0.824  0.00  0.00     0.001 A 
ATOM     23  C   UNL d   1      -1.518   6.003   0.066  0.00  0.00     0.000 A 
ATOM     24  C   UNL d   1      -2.277   5.168   0.882  0.00  0.00     0.001 A 
ATOM     25  C   UNL d   1      -2.079   3.784   0.842  0.00  0.00     0.012 A 
ENDBRANCH   3  20
TORSDOF 3
