REMARK  7 active torsions:
REMARK  status: ('A' for Active; 'I' for Inactive)
REMARK    1  A    between atoms: C_2  and  S_1 
REMARK    2  A    between atoms: O_5  and  S_1 
REMARK    3  A    between atoms: O_14  and  C_13 
REMARK    4  A    between atoms: C_16  and  C_13 
REMARK    5  A    between atoms: C_17  and  O_14 
REMARK    6  A    between atoms: C_16  and  N_18 
REMARK    7  A    between atoms: C_19  and  C_17 
ROOT
ATOM      1  C   UNL d   1      -0.389  -0.720   1.644  0.00  0.00     0.072 A 
ATOM      2  C   UNL d   1      -0.670  -0.141   2.883  0.00  0.00     0.026 A 
ATOM      3  C   UNL d   1      -0.027  -2.065   1.547  0.00  0.00     0.026 A 
ATOM      4  C   UNL d   1      -0.657  -0.937   4.028  0.00  0.00     0.008 A 
ATOM      5  C   UNL d   1      -0.017  -2.856   2.697  0.00  0.00     0.008 A 
ATOM      6  C   UNL d   1      -0.356  -2.304   3.940  0.00  0.00    -0.062 A 
ATOM      7  C   UNL d   1      -0.466  -3.166   5.164  0.00  0.00     0.048 C 
ENDROOT
BRANCH   1   8
ATOM      8  S   UNL d   1      -0.555   0.251   0.171  0.00  0.00     0.129 S 
ATOM      9  O   UNL d   1       0.360  -0.269  -0.827  0.00  0.00    -0.598 OA
ATOM     10  O   UNL d   1      -0.576   1.649   0.539  0.00  0.00    -0.598 OA
BRANCH   8  11
ATOM     11  O   UNL d   1      -2.027  -0.126  -0.366  0.00  0.00    -0.292 OA
ATOM     12  H   UNL d   1      -1.967  -0.241  -1.336  0.00  0.00     0.232 HD
ENDBRANCH   8  11
ENDBRANCH   1   8
TORSDOF 7
