REMARK  8 active torsions:
REMARK  status: ('A' for Active; 'I' for Inactive)
REMARK    1  A    between atoms: C_7  and  N_1 
REMARK    2  A    between atoms: C_2  and  C_12 
REMARK    3  A    between atoms: C_4  and  N_17 
REMARK    4  A    between atoms: N_16  and  C_4 
REMARK    5  A    between atoms: C_14  and  C_6 
REMARK    6  A    between atoms: N_17  and  N_8 
REMARK    7  A    between atoms: C_23  and  N_16 
REMARK    8  A    between atoms: C_24  and  C_23 
ROOT
ATOM      1  N   UNL d   1      -2.767  -7.717  -5.568  0.00  0.00    -0.307 N 
ATOM      2  HN  UNL d   1      -2.934  -8.264  -4.723  1.00  0.00     0.186 HD
ATOM      3  C   UNL d   1      -2.280  -6.521  -5.490  0.00  0.00     0.144 C 
ENDROOT
BRANCH   3   4
ATOM      4  C   UNL d   1      -2.096  -5.972  -4.175  0.00  0.00     0.093 A 
ATOM      5  O   UNL d   1      -1.563  -4.722  -3.993  0.00  0.00    -0.309 OA
ATOM      6  C   UNL d   1      -1.556  -4.487  -2.638  0.00  0.00     0.086 A 
ATOM      7  C   UNL d   1      -2.088  -5.577  -1.976  0.00  0.00     0.041 A 
ATOM      8  C   UNL d   1      -2.427  -6.524  -2.956  0.00  0.00     0.041 A 
BRANCH   6   9
ATOM      9  C   UNL d   1      -1.029  -3.209  -2.156  0.00  0.00    -0.002 A 
ATOM     10  C   UNL d   1      -0.432  -2.264  -3.003  0.00  0.00     0.017 A 
ATOM     11  C   UNL d   1       0.075  -1.059  -2.491  0.00  0.00     0.037 A 
ATOM     12  C   UNL d   1      -0.015  -0.793  -1.117  0.00  0.00     0.102 A 
ATOM     13  C   UNL d   1      -0.610  -1.719  -0.259  0.00  0.00     0.037 A 
ATOM     14  C   UNL d   1      -1.110  -2.913  -0.782  0.00  0.00     0.017 A 
BRANCH  12  15
ATOM     15  N   UNL d   1       0.516   0.460  -0.567  0.00  0.00    -0.116 N 
ATOM     16  O   UNL d   1       0.412   0.645   0.653  0.00  0.00    -0.532 OA
ATOM     17  O   UNL d   1       1.035   1.262  -1.358  0.00  0.00    -0.532 OA
ENDBRANCH  12  15
ENDBRANCH   6   9
ENDBRANCH   3   4
BRANCH   1  18
ATOM     18  N   UNL d   1      -3.052  -8.232  -6.790  0.00  0.00    -0.277 N 
ATOM     19  H   UNL d   1      -2.914  -7.671  -7.621  0.00  0.00     0.189 HD
BRANCH  18  20
ATOM     20  C   UNL d   1      -3.497  -9.529  -6.910  0.00  0.00     0.186 C 
ATOM     21  S   UNL d   1      -3.351 -10.738  -5.762  0.00  0.00    -0.040 SA
BRANCH  20  22
ATOM     22  N   UNL d   1      -4.165  -9.829  -8.065  0.00  0.00    -0.364 N 
ATOM     23  H   UNL d   1      -4.485 -10.791  -8.075  0.00  0.00     0.162 HD
BRANCH  22  24
ATOM     24  C   UNL d   1      -4.942  -8.868  -8.841  0.00  0.00     0.154 C 
BRANCH  24  25
ATOM     25  C   UNL d   1      -5.724  -9.487 -10.004  0.00  0.00     0.139 C 
ATOM     26  O   UNL d   1      -4.830 -10.144 -10.921  0.00  0.00    -0.384 OA
ATOM     27  C   UNL d   1      -5.407 -11.403 -11.294  0.00  0.00     0.168 C 
ATOM     28  C   UNL d   1      -6.853 -11.367 -10.852  0.00  0.00     0.029 C 
ATOM     29  C   UNL d   1      -6.784 -10.508  -9.613  0.00  0.00     0.035 C 
ENDBRANCH  24  25
ENDBRANCH  22  24
ENDBRANCH  20  22
ENDBRANCH  18  20
ENDBRANCH   1  18
TORSDOF 8
