REMARK  7 active torsions:
REMARK  status: ('A' for Active; 'I' for Inactive)
REMARK       I    between atoms: N_3  and  C_1 
REMARK       I    between atoms: N_12  and  C_1 
REMARK    1  A    between atoms: C_2  and  N_3 
REMARK    2  A    between atoms: C_5  and  C_19 
REMARK    3  A    between atoms: O_18  and  C_7 
REMARK    4  A    between atoms: C_20  and  N_12 
REMARK    5  A    between atoms: S_17  and  C_21 
REMARK    6  A    between atoms: C_19  and  S_17 
REMARK    7  A    between atoms: C_21  and  C_20 
ROOT
ATOM      1  C   UNL d   1       1.220  -0.169   0.144  0.00  0.00     0.320 C 
ATOM      2  N   UNL d   1       0.557  -0.900  -0.799  0.00  0.00    -0.306 N 
ATOM      3  O   UNL d   1       0.723   0.497   1.045  0.00  0.00    -0.247 OA
ATOM      4  N   UNL d   1       2.584  -0.168   0.028  0.00  0.00    -0.342 N 
ATOM      5  H   UNL d   1       1.106  -1.342  -1.515  0.00  0.00     0.171 HD
ATOM      6  H   UNL d   1       3.035   0.371   0.759  0.00  0.00     0.164 HD
ENDROOT
BRANCH   2   7
ATOM      7  C   UNL d   1      -0.834  -1.089  -0.937  0.00  0.00     0.071 A 
ATOM      8  C   UNL d   1      -1.740  -0.792   0.085  0.00  0.00     0.056 A 
ATOM      9  C   UNL d   1      -3.095  -1.098  -0.068  0.00  0.00     0.036 A 
ATOM     10 CL   UNL d   1      -4.186  -0.807   1.231  0.00  0.00    -0.084 Cl
ATOM     11  C   UNL d   1      -3.567  -1.672  -1.245  0.00  0.00     0.026 A 
ATOM     12  C   UNL d   1      -2.676  -1.958  -2.281  0.00  0.00     0.041 A 
ATOM     13  C   UNL d   1      -1.317  -1.660  -2.131  0.00  0.00     0.095 A 
BRANCH  13  14
ATOM     14  O   UNL d   1      -0.496  -2.057  -3.161  0.00  0.00    -0.354 OA
ATOM     15  C   UNL d   1       0.155  -0.975  -3.829  0.00  0.00     0.210 C 
ENDBRANCH  13  14
ENDBRANCH   2   7
BRANCH   4  16
ATOM     16  C   UNL d   1       3.386  -0.915  -0.922  0.00  0.00     0.134 C 
BRANCH  16  17
ATOM     17  C   UNL d   1       4.888  -0.669  -0.805  0.00  0.00     0.094 C 
BRANCH  17  18
ATOM     18  S   UNL d   1       5.685  -1.661  -2.105  0.00  0.00    -0.161 SA
BRANCH  18  19
ATOM     19  C   UNL d   1       7.432  -1.252  -1.792  0.00  0.00     0.139 C 
BRANCH  19  20
ATOM     20  C   UNL d   1       8.287  -1.995  -2.754  0.00  0.00     0.061 A 
ATOM     21  O   UNL d   1       9.061  -1.247  -3.594  0.00  0.00    -0.326 OA
ATOM     22  C   UNL d   1       9.715  -2.115  -4.408  0.00  0.00     0.142 A 
ATOM     23  C   UNL d   1       9.383  -3.413  -4.098  0.00  0.00     0.027 A 
ATOM     24  C   UNL d   1       8.472  -3.338  -3.020  0.00  0.00     0.035 A 
ENDBRANCH  19  20
ENDBRANCH  18  19
ENDBRANCH  17  18
ENDBRANCH  16  17
ENDBRANCH   4  16
TORSDOF 7
