REMARK  4 active torsions:
REMARK  status: ('A' for Active; 'I' for Inactive)
REMARK    1  A    between atoms: C_3  and  N_1 
REMARK    2  A    between atoms: S_4  and  C_2 
REMARK    3  A    between atoms: C_5  and  S_4 
REMARK    4  A    between atoms: C_8  and  C_9 
ROOT
ATOM      1  C   UNL d   1      -0.482  -0.569  -2.338  0.00  0.00     0.151 A 
ATOM      2  N   UNL d   1      -0.932   0.510  -2.994  0.00  0.00    -0.334 N 
ATOM      3  HN  UNL d   1      -1.903   0.814  -2.924  1.00  0.00     0.168 HD
ATOM      4  C   UNL d   1      -0.033   1.175  -3.751  0.00  0.00     0.069 A 
ATOM      5  N   UNL d   1       0.776  -1.035  -2.394  0.00  0.00    -0.346 N 
ATOM      6  HN  UNL d   1       1.062  -1.874  -1.890  1.00  0.00     0.167 HD
ATOM      7  C   UNL d   1       1.288   0.792  -3.855  0.00  0.00     0.049 A 
ATOM      8  C   UNL d   1       1.639  -0.334  -3.153  0.00  0.00     0.092 A 
ENDROOT
BRANCH   1   9
ATOM      9  S   UNL d   1      -1.577  -1.369  -1.198  0.00  0.00    -0.034 SA
BRANCH   9  10
ATOM     10  C   UNL d   1      -2.432  -2.470  -2.295  0.00  0.00     0.110 A 
ATOM     11  C   UNL d   1      -2.071  -3.787  -2.558  0.00  0.00     0.136 A 
ATOM     12  C   UNL d   1      -2.857  -4.590  -3.396  0.00  0.00     0.040 A 
ATOM     13  C   UNL d   1      -4.009  -4.047  -3.950  0.00  0.00     0.020 A 
ATOM     14  C   UNL d   1      -4.317  -2.731  -3.648  0.00  0.00     0.089 A 
ATOM     15  N   UNL d   1      -3.564  -1.947  -2.842  0.00  0.00    -0.358 N 
ATOM     16  HN  UNL d   1      -3.839  -0.984  -2.648  1.00  0.00     0.166 HD
BRANCH  11  17
ATOM     17  N   UNL d   1      -0.905  -4.381  -1.960  0.00  0.00    -0.113 N 
ATOM     18  O   UNL d   1      -0.903  -4.517  -0.730  0.00  0.00    -0.532 OA
ATOM     19  O   UNL d   1      -0.032  -4.795  -2.733  0.00  0.00    -0.532 OA
ENDBRANCH  11  17
ENDBRANCH   9  10
ENDBRANCH   1   9
BRANCH   4  20
ATOM     20  C   UNL d   1      -0.567   2.337  -4.449  0.00  0.00     0.101 A 
ATOM     21  O   UNL d   1       0.325   3.108  -5.145  0.00  0.00    -0.321 OA
ATOM     22  C   UNL d   1      -0.377   4.125  -5.709  0.00  0.00     0.142 A 
ATOM     23  C   UNL d   1      -1.711   4.024  -5.394  0.00  0.00     0.027 A 
ATOM     24  C   UNL d   1      -1.835   2.873  -4.579  0.00  0.00     0.041 A 
ENDBRANCH   4  20
TORSDOF 4
