REMARK  8 active torsions:
REMARK  status: ('A' for Active; 'I' for Inactive)
REMARK       I    between atoms: N_6  and  C_1 
REMARK       I    between atoms: N_7  and  C_1 
REMARK    1  A    between atoms: N_2  and  N_7 
REMARK    2  A    between atoms: N_4  and  N_6 
REMARK    3  A    between atoms: C_11  and  C_9 
REMARK    4  A    between atoms: C_12  and  C_10 
REMARK    5  A    between atoms: O_23  and  C_13 
REMARK    6  A    between atoms: O_24  and  C_14 
REMARK    7  A    between atoms: C_25  and  O_23 
REMARK    8  A    between atoms: C_26  and  O_24 
ROOT
ATOM      1  C   UNL d   1       1.054  -0.032   0.012  0.00  0.00     0.353 C 
ATOM      2  N   UNL d   1       0.386   1.179  -0.200  0.00  0.00    -0.251 N 
ATOM      3  N   UNL d   1       0.157  -1.072   0.261  0.00  0.00    -0.251 N 
ATOM      4  O   UNL d   1       2.277  -0.164  -0.022  0.00  0.00    -0.244 OA
ATOM      5  H   UNL d   1      -0.621   1.219  -0.201  0.00  0.00     0.191 HD
ATOM      6  H   UNL d   1      -0.831  -0.883   0.349  0.00  0.00     0.191 HD
ENDROOT
BRANCH   2   7
ATOM      7  N   UNL d   1       1.102   2.309  -0.467  0.00  0.00    -0.307 N 
ATOM      8  C   UNL d   1       0.435   3.399  -0.668  0.00  0.00     0.118 C 
ATOM      9  HN  UNL d   1       2.121   2.295  -0.507  1.00  0.00     0.186 HD
BRANCH   8  10
ATOM     10  C   UNL d   1       1.133   4.670  -0.968  0.00  0.00    -0.019 A 
ATOM     11  C   UNL d   1       2.528   4.698  -1.048  0.00  0.00     0.015 A 
ATOM     12  C   UNL d   1       3.197   5.895  -1.326  0.00  0.00     0.037 A 
ATOM     13  C   UNL d   1       2.477   7.073  -1.524  0.00  0.00     0.068 A 
ATOM     14  C   UNL d   1       1.079   7.038  -1.446  0.00  0.00     0.037 A 
ATOM     15  C   UNL d   1       0.403   5.842  -1.169  0.00  0.00     0.015 A 
BRANCH  13  16
ATOM     16  O   UNL d   1       3.018   8.302  -1.796  0.00  0.00    -0.352 OA
BRANCH  16  17
ATOM     17  C   UNL d   1       4.444   8.369  -1.872  0.00  0.00     0.171 C 
ATOM     18  C   UNL d   1       4.855   9.802  -2.164  0.00  0.00     0.034 C 
ENDBRANCH  16  17
ENDBRANCH  13  16
ENDBRANCH   8  10
ENDBRANCH   2   7
BRANCH   3  19
ATOM     19  N   UNL d   1       0.620  -2.331   0.523  0.00  0.00    -0.307 N 
ATOM     20  C   UNL d   1      -0.277  -3.236   0.754  0.00  0.00     0.118 C 
ATOM     21  HN  UNL d   1       1.617  -2.545   0.537  1.00  0.00     0.186 HD
BRANCH  20  22
ATOM     22  C   UNL d   1       0.093  -4.633   1.067  0.00  0.00    -0.019 A 
ATOM     23  C   UNL d   1       1.435  -5.013   1.142  0.00  0.00     0.015 A 
ATOM     24  C   UNL d   1       1.774  -6.340   1.425  0.00  0.00     0.037 A 
ATOM     25  C   UNL d   1       0.775  -7.293   1.628  0.00  0.00     0.068 A 
ATOM     26  C   UNL d   1      -0.566  -6.902   1.586  0.00  0.00     0.037 A 
ATOM     27  C   UNL d   1      -0.912  -5.576   1.298  0.00  0.00     0.015 A 
BRANCH  25  28
ATOM     28  O   UNL d   1       0.999  -8.614   1.915  0.00  0.00    -0.352 OA
BRANCH  28  29
ATOM     29  C   UNL d   1       2.200  -9.164   1.369  0.00  0.00     0.171 C 
ATOM     30  C   UNL d   1       2.267 -10.639   1.724  0.00  0.00     0.034 C 
ENDBRANCH  28  29
ENDBRANCH  25  28
ENDBRANCH  20  22
ENDBRANCH   3  19
TORSDOF 8
