REMARK  5 active torsions:
REMARK  status: ('A' for Active; 'I' for Inactive)
REMARK    1  A    between atoms: C_5  and  N_1 
REMARK    2  A    between atoms: S_2  and  C_8 
REMARK    3  A    between atoms: N_6  and  S_2 
REMARK    4  A    between atoms: C_12  and  N_6 
REMARK    5  A    between atoms: O_23  and  C_19 
ROOT
ATOM      1  C   UNL d   1       3.103  -1.315  -0.160  0.00  0.00     0.067 C 
ATOM      2  C   UNL d   1       5.207  -3.150   0.063  0.00  0.00     0.081 C 
ATOM      3  C   UNL d   1       3.402  -2.195  -1.220  0.00  0.00     0.062 C 
ATOM      4  C   UNL d   1       4.466  -3.095  -1.115  0.00  0.00     0.051 C 
ATOM      5  C   UNL d   1       3.946  -1.304   0.965  0.00  0.00     0.033 C 
ATOM      6  C   UNL d   1       5.009  -2.206   1.072  0.00  0.00     0.027 C 
ATOM      7 CL   UNL d   1       2.382  -2.401  -2.604  0.00  0.00    -0.082 Cl
ENDROOT
BRANCH   2   8
ATOM      8  S   UNL d   1       6.454  -4.395   0.232  0.00  0.00     0.263 S 
ATOM      9  O   UNL d   1       7.144  -4.436  -1.037  0.00  0.00    -0.200 OA
ATOM     10  O   UNL d   1       7.171  -4.112   1.457  0.00  0.00    -0.200 OA
BRANCH   8  11
ATOM     11  N   UNL d   1       5.642  -5.835   0.535  0.00  0.00    -0.278 N 
ATOM     12  H   UNL d   1       5.566  -6.068   1.524  0.00  0.00     0.179 HD
BRANCH  11  13
ATOM     13  C   UNL d   1       4.797  -6.555  -0.366  0.00  0.00     0.075 A 
ATOM     14  C   UNL d   1       5.226  -7.591  -1.219  0.00  0.00     0.095 A 
ATOM     15  C   UNL d   1       4.267  -8.339  -1.932  0.00  0.00     0.039 A 
ATOM     16  C   UNL d   1       2.900  -8.136  -1.758  0.00  0.00     0.003 A 
ATOM     17  C   UNL d   1       2.474  -7.169  -0.864  0.00  0.00     0.002 A 
ATOM     18  C   UNL d   1       3.410  -6.378  -0.185  0.00  0.00     0.033 A 
BRANCH  14  19
ATOM     19  O   UNL d   1       6.465  -8.128  -1.421  0.00  0.00    -0.354 OA
ATOM     20  C   UNL d   1       7.619  -7.465  -0.959  0.00  0.00     0.210 C 
ENDBRANCH  14  19
ENDBRANCH  11  13
ENDBRANCH   8  11
ENDBRANCH   2   8
BRANCH   1  21
ATOM     21  N   UNL d   1       1.920  -0.534  -0.138  0.00  0.00    -0.250 N 
ATOM     22  C   UNL d   1       1.519   0.278  -1.173  0.00  0.00     0.232 C 
ATOM     23  C   UNL d   1       0.116   0.753  -0.895  0.00  0.00     0.123 C 
ATOM     24  O   UNL d   1       2.164   0.641  -2.139  0.00  0.00    -0.273 OA
ATOM     25  C   UNL d   1      -0.173   0.281   0.530  0.00  0.00     0.050 C 
ATOM     26  C   UNL d   1       1.050  -0.517   0.924  0.00  0.00     0.240 C 
ATOM     27  C   UNL d   1      -1.462  -0.542   0.631  0.00  0.00     0.020 C 
ATOM     28  C   UNL d   1      -0.459   1.429   1.500  0.00  0.00     0.020 C 
ATOM     29  O   UNL d   1       1.184  -1.076   2.007  0.00  0.00    -0.272 OA
ATOM     30  C   UNL d   1      -2.575   0.499   0.709  0.00  0.00     0.001 C 
ATOM     31  C   UNL d   1      -1.931   1.764   1.276  0.00  0.00     0.001 C 
ENDBRANCH   1  21
TORSDOF 5
