REMARK  3 active torsions:
REMARK  status: ('A' for Active; 'I' for Inactive)
REMARK       I    between atoms: N_2  and  C_1 
REMARK    1  A    between atoms: C_4  and  C_1 
REMARK    2  A    between atoms: C_5  and  N_2 
REMARK    3  A    between atoms: O_11  and  C_6 
ROOT
ATOM      1  C   UNL d   1       1.093  -0.115  -0.120  0.00  0.00     0.256 C 
ATOM      2  N   UNL d   1       0.348  -1.283  -0.171  0.00  0.00    -0.323 N 
ATOM      3  O   UNL d   1       2.282  -0.033   0.171  0.00  0.00    -0.267 OA
ATOM      4  H   UNL d   1      -0.649  -1.202  -0.313  0.00  0.00     0.169 HD
ENDROOT
BRANCH   2   5
ATOM      5  C   UNL d   1       0.848  -2.602  -0.048  0.00  0.00     0.035 A 
ATOM      6  C   UNL d   1       2.196  -2.903   0.157  0.00  0.00     0.032 A 
ATOM      7  C   UNL d   1       2.643  -4.228   0.186  0.00  0.00     0.039 A 
ATOM      8  C   UNL d   1       1.744  -5.273  -0.001  0.00  0.00     0.068 A 
ATOM      9  C   UNL d   1       0.387  -4.988  -0.142  0.00  0.00     0.039 A 
ATOM     10  C   UNL d   1      -0.060  -3.661  -0.173  0.00  0.00     0.032 A 
BRANCH   8  11
ATOM     11  O   UNL d   1       2.092  -6.596  -0.032  0.00  0.00    -0.356 OA
ATOM     12  C   UNL d   1       3.366  -6.853  -0.619  0.00  0.00     0.210 C 
ENDBRANCH   8  11
ENDBRANCH   2   5
BRANCH   1  13
ATOM     13  C   UNL d   1       0.380   1.159  -0.438  0.00  0.00     0.032 A 
ATOM     14  C   UNL d   1       0.944   2.351   0.043  0.00  0.00     0.017 A 
ATOM     15  C   UNL d   1       0.378   3.586  -0.273  0.00  0.00     0.001 A 
ATOM     16  C   UNL d   1      -0.758   3.642  -1.076  0.00  0.00     0.000 A 
ATOM     17  C   UNL d   1      -1.325   2.465  -1.564  0.00  0.00     0.001 A 
ATOM     18  C   UNL d   1      -0.758   1.223  -1.252  0.00  0.00     0.017 A 
ENDBRANCH   1  13
TORSDOF 3
