REMARK  6 active torsions:
REMARK  status: ('A' for Active; 'I' for Inactive)
REMARK    1  A    between atoms: C_5  and  C_1 
REMARK    2  A    between atoms: N_9  and  C_2 
REMARK    3  A    between atoms: C_24  and  C_6 
REMARK    4  A    between atoms: C_8  and  C_17 
REMARK       I    between atoms: C_10  and  N_9 
REMARK    5  A    between atoms: O_19  and  C_10 
REMARK    6  A    between atoms: N_11  and  O_19 
ROOT
ATOM      1  C   UNL d   1      -0.424  -1.288  -0.147  0.00  0.00     0.098 A 
ATOM      2  C   UNL d   1      -1.442  -0.349   0.247  0.00  0.00     0.098 A 
ATOM      3  N   UNL d   1       0.659  -0.650  -0.609  0.00  0.00    -0.258 N 
ATOM      4  HN  UNL d   1       1.514  -1.076  -0.968  1.00  0.00     0.195 HD
ATOM      5  C   UNL d   1      -0.867   0.883  -0.009  0.00  0.00     0.105 A 
ATOM      6  O   UNL d   1       0.388   0.690  -0.503  0.00  0.00    -0.239 OA
ENDROOT
BRANCH   2   7
ATOM      7  N   UNL d   1      -2.708  -0.692   0.714  0.00  0.00    -0.297 N 
ATOM      8  C   UNL d   1      -3.722   0.153   1.075  0.00  0.00     0.387 C 
ATOM      9  O   UNL d   1      -3.633   1.354   1.290  0.00  0.00    -0.236 OA
ATOM     10  H   UNL d   1      -2.974  -1.664   0.649  0.00  0.00     0.171 HD
BRANCH   8  11
ATOM     11  O   UNL d   1      -4.900  -0.562   1.159  0.00  0.00    -0.181 OA
BRANCH  11  12
ATOM     12  N   UNL d   1      -5.975   0.320   0.950  0.00  0.00    -0.267 N 
ATOM     13  C   UNL d   1      -7.102  -0.252   1.199  0.00  0.00     0.129 C 
ATOM     14  HN  UNL d   1      -5.876   1.288   0.642  1.00  0.00     0.194 HD
BRANCH  13  15
ATOM     15  C   UNL d   1      -8.357   0.483   0.974  0.00  0.00     0.025 A 
ATOM     16  C   UNL d   1      -8.619   1.100  -0.261  0.00  0.00     0.047 A 
ATOM     17 CL   UNL d   1      -7.590   0.923  -1.640  0.00  0.00    -0.083 Cl
ATOM     18  C   UNL d   1      -9.788   1.845  -0.436  0.00  0.00     0.025 A 
ATOM     19  C   UNL d   1     -10.703   1.974   0.608  0.00  0.00     0.003 A 
ATOM     20  C   UNL d   1     -10.457   1.344   1.827  0.00  0.00     0.025 A 
ATOM     21  C   UNL d   1      -9.289   0.595   2.012  0.00  0.00     0.047 A 
ATOM     22 CL   UNL d   1      -9.046  -0.140   3.557  0.00  0.00    -0.083 Cl
ENDBRANCH  13  15
ENDBRANCH  11  12
ENDBRANCH   8  11
ENDBRANCH   2   7
BRANCH   1  23
ATOM     23  C   UNL d   1      -0.446  -2.751  -0.106  0.00  0.00     0.038 A 
ATOM     24  C   UNL d   1      -1.381  -3.492  -0.853  0.00  0.00     0.048 A 
ATOM     25 CL   UNL d   1      -2.566  -2.751  -1.877  0.00  0.00    -0.083 Cl
ATOM     26  C   UNL d   1      -1.393  -4.893  -0.806  0.00  0.00     0.025 A 
ATOM     27  C   UNL d   1      -0.461  -5.579  -0.033  0.00  0.00     0.003 A 
ATOM     28  C   UNL d   1       0.482  -4.864   0.700  0.00  0.00     0.025 A 
ATOM     29  C   UNL d   1       0.489  -3.463   0.672  0.00  0.00     0.048 A 
ATOM     30 CL   UNL d   1       1.670  -2.684   1.674  0.00  0.00    -0.083 Cl
ENDBRANCH   1  23
BRANCH   5  31
ATOM     31  C   UNL d   1      -1.253   2.317   0.055  0.00  0.00     0.065 C 
ATOM     32  C   UNL d   1      -0.956   2.933   1.413  0.00  0.00     0.012 C 
ENDBRANCH   5  31
TORSDOF 6
