REMARK  4 active torsions:
REMARK  status: ('A' for Active; 'I' for Inactive)
REMARK    1  A    between atoms: S_10  and  C_3 
REMARK    2  A    between atoms: C_8  and  C_7 
REMARK    3  A    between atoms: C_11  and  C_8 
REMARK    4  A    between atoms: C_9  and  S_10 
ROOT
ATOM      1  N   UNL d   1      -1.718   1.456   0.020  0.00  0.00    -0.335 N 
ATOM      2  HN  UNL d   1      -1.827   2.470   0.036  1.00  0.00     0.168 HD
ATOM      3  C   UNL d   1      -2.666   0.550   0.004  0.00  0.00     0.149 A 
ATOM      4  N   UNL d   1      -2.156  -0.719  -0.021  0.00  0.00    -0.335 N 
ATOM      5  C   UNL d   1      -0.539   0.737   0.009  0.00  0.00     0.061 A 
ATOM      6  C   UNL d   1      -0.789  -0.631  -0.019  0.00  0.00     0.061 A 
ATOM      7  C   UNL d   1       0.793   1.184   0.023  0.00  0.00     0.038 A 
ATOM      8  C   UNL d   1       0.220  -1.598  -0.037  0.00  0.00     0.032 A 
ATOM      9  C   UNL d   1       1.837   0.241   0.006  0.00  0.00    -0.060 A 
ATOM     10  C   UNL d   1       1.541  -1.130  -0.024  0.00  0.00     0.009 A 
ATOM     11  C   UNL d   1       3.271   0.690   0.022  0.00  0.00     0.048 C 
ATOM     12  H   UNL d   1      -2.705  -1.564  -0.038  0.00  0.00     0.168 HD
ENDROOT
BRANCH   3  13
ATOM     13  S   UNL d   1      -4.385   0.742   0.004  0.00  0.00    -0.066 SA
BRANCH  13  14
ATOM     14  C   UNL d   1      -4.547   2.471   0.044  0.00  0.00     0.057 C 
ATOM     15  C   UNL d   1      -5.770   3.025  -0.003  0.00  0.00     0.063 C 
BRANCH  15  16
ATOM     16  C   UNL d   1      -5.950   4.502   0.035  0.00  0.00     0.182 C 
ATOM     17  O   UNL d   1      -5.078   5.251   0.459  0.00  0.00    -0.288 OA
BRANCH  16  18
ATOM     18  C   UNL d   1      -7.256   5.060  -0.428  0.00  0.00     0.014 A 
ATOM     19  C   UNL d   1      -7.693   6.282   0.108  0.00  0.00     0.017 A 
ATOM     20  C   UNL d   1      -8.887   6.864  -0.333  0.00  0.00     0.025 A 
ATOM     21  C   UNL d   1      -9.642   6.233  -1.320  0.00  0.00     0.034 A 
ATOM     22  C   UNL d   1      -9.216   5.021  -1.863  0.00  0.00     0.025 A 
ATOM     23 CL   UNL d   1     -11.096   6.958  -1.884  0.00  0.00    -0.084 Cl
ATOM     24  C   UNL d   1      -8.024   4.435  -1.421  0.00  0.00     0.017 A 
ENDBRANCH  16  18
ENDBRANCH  15  16
ENDBRANCH  13  14
ENDBRANCH   3  13
TORSDOF 4
