REMARK  7 active torsions:
REMARK  status: ('A' for Active; 'I' for Inactive)
REMARK    1  A    between atoms: C_4  and  C_3 
REMARK    2  A    between atoms: O_24  and  C_7 
REMARK    3  A    between atoms: C_9  and  O_23 
REMARK       I    between atoms: N_12  and  C_9 
REMARK    4  A    between atoms: C_10  and  C_18 
REMARK    5  A    between atoms: C_27  and  C_11 
REMARK    6  A    between atoms: C_14  and  N_12 
REMARK    7  A    between atoms: O_23  and  C_27 
ROOT
ATOM      1  N   UNL d   1       1.146   1.400  -0.003  0.00  0.00    -0.352 N 
ATOM      2  HN  UNL d   1       1.111   2.419   0.019  1.00  0.00     0.166 HD
ATOM      3  C   UNL d   1       2.342   0.752   0.004  0.00  0.00     0.119 A 
ATOM      4  C   UNL d   1      -0.000  -0.727  -0.059  0.00  0.00     0.025 A 
ATOM      5  C   UNL d   1       0.014   0.683  -0.041  0.00  0.00     0.045 A 
ATOM      6  C   UNL d   1       1.251  -1.387  -0.009  0.00  0.00     0.082 A 
ATOM      7  C   UNL d   1       2.426  -0.638   0.019  0.00  0.00     0.072 A 
ATOM      8  C   UNL d   1      -1.248  -1.398  -0.138  0.00  0.00     0.037 A 
ATOM      9  C   UNL d   1      -1.190   1.369  -0.084  0.00  0.00     0.032 A 
ATOM     10  C   UNL d   1      -2.448  -0.684  -0.207  0.00  0.00     0.018 A 
ATOM     11  C   UNL d   1      -2.416   0.703  -0.174  0.00  0.00     0.023 A 
ENDROOT
BRANCH  10  12
ATOM     12  C   UNL d   1      -3.707  -1.363  -0.283  0.00  0.00    -0.065 C 
ATOM     13  C   UNL d   1      -4.763  -1.942  -0.273  0.00  0.00    -0.074 C 
BRANCH  13  14
ATOM     14  C   UNL d   1      -5.992  -2.731  -0.125  0.00  0.00     0.274 C 
BRANCH  14  15
ATOM     15  O   UNL d   1      -7.041  -2.261  -0.986  0.00  0.00    -0.292 OA
BRANCH  15  16
ATOM     16  C   UNL d   1      -7.718  -3.232  -1.647  0.00  0.00     0.366 C 
ATOM     17  N   UNL d   1      -8.887  -2.861  -2.261  0.00  0.00    -0.303 N 
ATOM     18  H   UNL d   1      -9.302  -3.659  -2.727  0.00  0.00     0.171 HD
ATOM     19  O   UNL d   1      -7.372  -4.409  -1.699  0.00  0.00    -0.238 OA
BRANCH  17  20
ATOM     20  C   UNL d   1      -9.667  -1.692  -2.210  0.00  0.00     0.038 A 
ATOM     21  C   UNL d   1      -9.307  -0.520  -1.548  0.00  0.00     0.053 A 
ATOM     22  C   UNL d   1     -10.216   0.541  -1.465  0.00  0.00     0.036 A 
ATOM     23 CL   UNL d   1      -9.783   1.966  -0.600  0.00  0.00    -0.084 Cl
ATOM     24  C   UNL d   1     -11.476   0.456  -2.054  0.00  0.00     0.024 A 
ATOM     25  C   UNL d   1     -11.827  -0.693  -2.755  0.00  0.00     0.004 A 
ATOM     26  C   UNL d   1     -10.925  -1.757  -2.835  0.00  0.00     0.029 A 
ENDBRANCH  17  20
ENDBRANCH  15  16
ENDBRANCH  14  15
ENDBRANCH  13  14
ENDBRANCH  10  12
BRANCH   6  27
ATOM     27  O   UNL d   1       1.214  -2.760  -0.007  0.00  0.00    -0.355 OA
ATOM     28  C   UNL d   1       2.455  -3.458   0.023  0.00  0.00     0.210 C 
ENDBRANCH   6  27
BRANCH   3  29
ATOM     29  C   UNL d   1       3.629   1.564  -0.051  0.00  0.00     0.432 C 
ATOM     30  F   UNL d   1       3.449   2.914  -0.050  0.00  0.00    -0.165 F 
ATOM     31  F   UNL d   1       4.462   1.297   0.997  0.00  0.00    -0.165 F 
ATOM     32  F   UNL d   1       4.361   1.288  -1.172  0.00  0.00    -0.165 F 
ENDBRANCH   3  29
TORSDOF 7
