REMARK  8 active torsions:
REMARK  status: ('A' for Active; 'I' for Inactive)
REMARK    1  A    between atoms: C_2  and  N_1 
REMARK    2  A    between atoms: C_14  and  C_2 
REMARK    3  A    between atoms: C_15  and  C_2 
REMARK    4  A    between atoms: C_3  and  C_16 
REMARK       I    between atoms: N_9  and  C_3 
REMARK    5  A    between atoms: S_10  and  C_6 
REMARK    6  A    between atoms: N_7  and  N_9 
REMARK    7  A    between atoms: C_16  and  S_10 
REMARK    8  A    between atoms: C_18  and  C_17 
ROOT
ATOM      1  N   UNL d   1       0.298   0.933  -0.217  0.00  0.00     0.104 N 
ATOM      2  C   UNL d   1      -1.003   0.298   0.114  0.00  0.00     0.290 C 
ATOM      3  C   UNL d   1       0.984  -0.311   0.239  0.00  0.00     0.290 C 
ATOM      4  C   UNL d   1      -0.323  -1.080  -0.057  0.00  0.00     0.104 C 
ENDROOT
BRANCH   4   5
ATOM      5  S   UNL d   1      -0.416  -1.871  -1.735  0.00  0.00    -0.151 SA
BRANCH   5   6
ATOM      6  C   UNL d   1       0.034  -0.474  -2.802  0.00  0.00     0.178 C 
BRANCH   6   7
ATOM      7  C   UNL d   1       0.159  -0.775  -4.285  0.00  0.00     0.245 C 
ATOM      8  N   UNL d   1       0.126  -2.100  -4.682  0.00  0.00    -0.270 N 
ATOM      9  H   UNL d   1      -0.043  -2.838  -4.004  0.00  0.00     0.190 HD
ATOM     10  O   UNL d   1       0.316   0.168  -5.073  0.00  0.00    -0.271 OA
BRANCH   8  11
ATOM     11  N   UNL d   1       0.222  -2.366  -6.014  0.00  0.00    -0.308 N 
ATOM     12  C   UNL d   1       0.153  -3.591  -6.409  0.00  0.00     0.118 C 
ATOM     13  HN  UNL d   1       0.347  -1.610  -6.686  1.00  0.00     0.186 HD
BRANCH  12  14
ATOM     14  C   UNL d   1       0.218  -3.895  -7.859  0.00  0.00    -0.017 A 
ATOM     15  C   UNL d   1       0.398  -2.860  -8.779  0.00  0.00     0.030 A 
ATOM     16  C   UNL d   1       0.416  -3.182 -10.123  0.00  0.00     0.088 A 
ATOM     17  N   UNL d   1       0.270  -4.440 -10.591  0.00  0.00    -0.375 N 
ATOM     18  C   UNL d   1       0.102  -5.420  -9.677  0.00  0.00     0.088 A 
ATOM     19  HN  UNL d   1       0.287  -4.642 -11.591  1.00  0.00     0.164 HD
ATOM     20  C   UNL d   1       0.071  -5.204  -8.307  0.00  0.00     0.030 A 
ENDBRANCH  12  14
ENDBRANCH   8  11
ENDBRANCH   6   7
ENDBRANCH   5   6
ENDBRANCH   4   5
BRANCH   1  21
ATOM     21  C   UNL d   1       0.650   2.087   0.643  0.00  0.00     0.289 C 
BRANCH  21  22
ATOM     22  C   UNL d   1       2.021   2.643   0.230  0.00  0.00    -0.021 A 
ATOM     23  C   UNL d   1       2.253   3.086  -1.085  0.00  0.00     0.010 A 
ATOM     24  C   UNL d   1       3.478   3.648  -1.449  0.00  0.00     0.001 A 
ATOM     25  C   UNL d   1       4.494   3.766  -0.506  0.00  0.00     0.000 A 
ATOM     26  C   UNL d   1       4.290   3.316   0.797  0.00  0.00     0.001 A 
ATOM     27  C   UNL d   1       3.061   2.758   1.166  0.00  0.00     0.010 A 
ENDBRANCH  21  22
BRANCH  21  28
ATOM     28  C   UNL d   1      -0.389   3.218   0.645  0.00  0.00    -0.021 A 
ATOM     29  C   UNL d   1      -0.519   4.028   1.788  0.00  0.00     0.010 A 
ATOM     30  C   UNL d   1      -1.425   5.090   1.816  0.00  0.00     0.001 A 
ATOM     31  C   UNL d   1      -2.212   5.362   0.700  0.00  0.00     0.000 A 
ATOM     32  C   UNL d   1      -2.087   4.582  -0.447  0.00  0.00     0.001 A 
ATOM     33  C   UNL d   1      -1.177   3.523  -0.478  0.00  0.00     0.010 A 
ENDBRANCH  21  28
ENDBRANCH   1  21
TORSDOF 8
