REMARK  8 active torsions:
REMARK  status: ('A' for Active; 'I' for Inactive)
REMARK    1  A    between atoms: C_8  and  N_1 
REMARK    2  A    between atoms: S_9  and  C_2 
REMARK    3  A    between atoms: C_7  and  C_10 
REMARK    4  A    between atoms: C_19  and  S_9 
REMARK    5  A    between atoms: O_18  and  C_20 
REMARK    6  A    between atoms: C_22  and  O_18 
REMARK    7  A    between atoms: C_21  and  C_19 
REMARK    8  A    between atoms: C_25  and  C_22 
ROOT
ATOM      1  N   UNL d   1       0.938  -0.753  -0.086  0.00  0.00    -0.241 N 
ATOM      2  C   UNL d   1       0.891   0.605  -0.002  0.00  0.00     0.170 A 
ATOM      3  C   UNL d   1      -0.374  -1.155  -0.224  0.00  0.00     0.347 A 
ATOM      4  N   UNL d   1      -0.315   1.102  -0.046  0.00  0.00    -0.275 N 
ATOM      5  HN  UNL d   1      -0.589   2.083   0.014  1.00  0.00     0.189 HD
ATOM      6  N   UNL d   1      -1.124   0.015  -0.191  0.00  0.00    -0.249 N 
ATOM      7  O   UNL d   1      -0.836  -2.282  -0.305  0.00  0.00    -0.245 OA
ATOM      8  H   UNL d   1      -2.134   0.075  -0.199  0.00  0.00     0.192 HD
ENDROOT
BRANCH   1   9
ATOM      9  C   UNL d   1       2.012  -1.640   0.018  0.00  0.00     0.046 C 
ATOM     10  C   UNL d   1       2.249  -2.551  -1.016  0.00  0.00     0.033 C 
ATOM     11  C   UNL d   1       3.440  -3.275  -1.042  0.00  0.00     0.039 C 
ATOM     12  C   UNL d   1       4.378  -3.118  -0.020  0.00  0.00     0.069 C 
ATOM     13  C   UNL d   1       4.059  -2.339   1.096  0.00  0.00     0.039 C 
ATOM     14  C   UNL d   1       2.887  -1.581   1.104  0.00  0.00     0.033 C 
BRANCH  12  15
ATOM     15  O   UNL d   1       5.585  -3.735  -0.216  0.00  0.00    -0.347 OA
BRANCH  15  16
ATOM     16  C   UNL d   1       6.682  -3.137   0.481  0.00  0.00     0.214 C 
BRANCH  16  17
ATOM     17  C   UNL d   1       7.982  -3.416  -0.230  0.00  0.00    -0.034 A 
ATOM     18  C   UNL d   1       8.188  -2.959  -1.537  0.00  0.00     0.009 A 
ATOM     19  C   UNL d   1       9.418  -3.149  -2.175  0.00  0.00     0.001 A 
ATOM     20  C   UNL d   1      10.451  -3.796  -1.502  0.00  0.00     0.000 A 
ATOM     21  C   UNL d   1      10.257  -4.259  -0.204  0.00  0.00     0.001 A 
ATOM     22  C   UNL d   1       9.029  -4.069   0.433  0.00  0.00     0.009 A 
ENDBRANCH  16  17
ENDBRANCH  15  16
ENDBRANCH  12  15
ENDBRANCH   1   9
BRANCH   2  23
ATOM     23  S   UNL d   1       2.230   1.689   0.151  0.00  0.00    -0.087 SA
BRANCH  23  24
ATOM     24  C   UNL d   1       3.578   1.086  -0.869  0.00  0.00     0.121 C 
BRANCH  24  25
ATOM     25  C   UNL d   1       3.349   0.666  -2.300  0.00  0.00    -0.048 A 
ATOM     26  C   UNL d   1       4.168  -0.351  -2.833  0.00  0.00     0.024 A 
ATOM     27  C   UNL d   1       4.082  -0.746  -4.180  0.00  0.00     0.048 A 
ATOM     28  C   UNL d   1       3.178  -0.079  -5.016  0.00  0.00     0.016 A 
ATOM     29  C   UNL d   1       2.380   0.950  -4.512  0.00  0.00     0.001 A 
ATOM     30  C   UNL d   1       2.468   1.325  -3.165  0.00  0.00     0.008 A 
BRANCH  27  31
ATOM     31  C   UNL d   1       4.946  -1.856  -4.730  0.00  0.00     0.417 C 
ATOM     32  F   UNL d   1       5.756  -2.429  -3.793  0.00  0.00    -0.166 F 
ATOM     33  F   UNL d   1       4.214  -2.874  -5.258  0.00  0.00    -0.166 F 
ATOM     34  F   UNL d   1       5.771  -1.430  -5.725  0.00  0.00    -0.166 F 
ENDBRANCH  27  31
ENDBRANCH  24  25
ENDBRANCH  23  24
ENDBRANCH   2  23
TORSDOF 8
