REMARK  2 active torsions:
REMARK  status: ('A' for Active; 'I' for Inactive)
REMARK    1  A    between atoms: C_8  and  C_4 
REMARK    2  A    between atoms: C_9  and  C_5 
ROOT
ATOM      1  C   UNL d   1      -1.282  -0.053   0.136  0.00  0.00    -0.007 C 
ATOM      2  C   UNL d   1       1.274   0.038   0.180  0.00  0.00    -0.007 C 
ATOM      3  C   UNL d   1       0.026  -0.774  -0.008  0.00  0.00     0.184 C 
ATOM      4  C   UNL d   1      -2.371  -0.823   0.335  0.00  0.00     0.022 C 
ATOM      5  C   UNL d   1       2.431  -0.646   0.274  0.00  0.00     0.022 C 
ATOM      6  O   UNL d   1       0.071  -1.975  -0.256  0.00  0.00    -0.287 OA
ATOM      7  C   UNL d   1       1.163   1.535   0.246  0.00  0.00     0.043 C 
ATOM      8  C   UNL d   1      -1.315   1.448   0.059  0.00  0.00     0.043 C 
ATOM      9  C   UNL d   1      -0.043   2.041  -0.527  0.00  0.00     0.009 C 
ENDROOT
BRANCH   4  10
ATOM     10  C   UNL d   1      -3.712  -0.280   0.560  0.00  0.00    -0.034 A 
ATOM     11  C   UNL d   1      -4.572  -0.046  -0.517  0.00  0.00     0.037 A 
ATOM     12  C   UNL d   1      -5.831   0.526  -0.300  0.00  0.00     0.056 A 
ATOM     13 CL   UNL d   1      -6.833   0.806  -1.680  0.00  0.00    -0.083 Cl
ATOM     14  C   UNL d   1      -6.234   0.860   0.998  0.00  0.00     0.055 A 
ATOM     15  C   UNL d   1      -5.378   0.614   2.076  0.00  0.00     0.026 A 
ATOM     16 CL   UNL d   1      -7.764   1.586   1.337  0.00  0.00    -0.083 Cl
ATOM     17  C   UNL d   1      -4.121   0.046   1.858  0.00  0.00     0.013 A 
ENDBRANCH   4  10
BRANCH   5  18
ATOM     18  C   UNL d   1       3.729  -0.012   0.518  0.00  0.00    -0.034 A 
ATOM     19  C   UNL d   1       4.167   0.197   1.830  0.00  0.00     0.037 A 
ATOM     20  C   UNL d   1       5.376   0.857   2.074  0.00  0.00     0.056 A 
ATOM     21 CL   UNL d   1       5.845   1.091   3.720  0.00  0.00    -0.083 Cl
ATOM     22  C   UNL d   1       6.151   1.310   1.001  0.00  0.00     0.055 A 
ATOM     23  C   UNL d   1       5.718   1.092  -0.311  0.00  0.00     0.026 A 
ATOM     24 CL   UNL d   1       7.641   2.155   1.225  0.00  0.00    -0.083 Cl
ATOM     25  C   UNL d   1       4.512   0.430  -0.552  0.00  0.00     0.013 A 
ENDBRANCH   5  18
TORSDOF 2
