REMARK  2 active torsions:
REMARK  status: ('A' for Active; 'I' for Inactive)
REMARK    1  A    between atoms: C_8  and  N_2 
REMARK    2  A    between atoms: O_9  and  C_6 
ROOT
ATOM      1  C   UNL d   1       0.014   0.681   0.077  0.00  0.00     0.029 A 
ATOM      2  N   UNL d   1       1.225   1.407   0.074  0.00  0.00    -0.282 N 
ATOM      3  C   UNL d   1       2.467   0.761  -0.056  0.00  0.00     0.255 A 
ATOM      4  C   UNL d   1       0.021  -0.670   0.008  0.00  0.00    -0.002 A 
ATOM      5  C   UNL d   1       2.444  -0.719  -0.109  0.00  0.00     0.112 A 
ATOM      6  C   UNL d   1       1.284  -1.375  -0.071  0.00  0.00     0.079 A 
ATOM      7  O   UNL d   1       3.572   1.304  -0.096  0.00  0.00    -0.268 OA
ATOM      8  C   UNL d   1      -1.300   1.450   0.051  0.00  0.00     0.058 C 
ATOM      9  C   UNL d   1      -1.243  -1.503  -0.020  0.00  0.00     0.043 C 
ATOM     10  C   UNL d   1      -2.509   0.618  -0.376  0.00  0.00     0.006 C 
ATOM     11  C   UNL d   1      -2.502  -0.719   0.341  0.00  0.00     0.005 C 
ENDROOT
BRANCH   2  12
ATOM     12  C   UNL d   1       1.258   2.835   0.191  0.00  0.00     0.042 A 
ATOM     13  C   UNL d   1       1.834   3.613  -0.821  0.00  0.00     0.030 A 
ATOM     14  C   UNL d   1       1.804   5.007  -0.740  0.00  0.00     0.002 A 
ATOM     15  C   UNL d   1       1.223   5.632   0.362  0.00  0.00     0.000 A 
ATOM     16  C   UNL d   1       0.679   4.865   1.391  0.00  0.00     0.002 A 
ATOM     17  C   UNL d   1       0.696   3.471   1.306  0.00  0.00     0.030 A 
ENDBRANCH   2  12
BRANCH   6  18
ATOM     18  O   UNL d   1       1.205  -2.748  -0.121  0.00  0.00    -0.360 OA
ATOM     19  H   UNL d   1       2.104  -3.113  -0.170  0.00  0.00     0.217 HD
ENDBRANCH   6  18
TORSDOF 2
