REMARK  4 active torsions:
REMARK  status: ('A' for Active; 'I' for Inactive)
REMARK    1  A    between atoms: C_6  and  C_1 
REMARK    2  A    between atoms: C_7  and  C_2 
REMARK    3  A    between atoms: S_12  and  C_5 
REMARK    4  A    between atoms: O_16  and  C_7 
ROOT
ATOM      1  C   UNL d   1      -0.059  -1.413  -0.046  0.00  0.00     0.027 A 
ATOM      2  C   UNL d   1       1.331  -1.324  -0.020  0.00  0.00     0.094 A 
ATOM      3  C   UNL d   1      -0.672  -0.102  -0.061  0.00  0.00     0.081 A 
ATOM      4  S   UNL d   1       1.852   0.310   0.042  0.00  0.00    -0.075 SA
ATOM      5  C   UNL d   1       0.260   0.920  -0.033  0.00  0.00     0.063 A 
ATOM      6  C   UNL d   1      -2.081   0.164  -0.030  0.00  0.00     0.102 C 
ATOM      7  N   UNL d   1      -3.218   0.409  -0.013  0.00  0.00    -0.191 NA
ENDROOT
BRANCH   1   8
ATOM      8  C   UNL d   1      -0.814  -2.734  -0.046  0.00  0.00     0.018 A 
ATOM      9  S   UNL d   1      -2.346  -2.966  -0.780  0.00  0.00    -0.101 SA
ATOM     10  C   UNL d   1      -2.392  -4.618  -0.356  0.00  0.00     0.050 A 
ATOM     11  C   UNL d   1      -1.276  -4.995   0.351  0.00  0.00     0.008 A 
ATOM     12  C   UNL d   1      -0.375  -3.905   0.544  0.00  0.00     0.020 A 
ENDBRANCH   1   8
BRANCH   5  13
ATOM     13  S   UNL d   1      -0.011   2.665   0.043  0.00  0.00    -0.126 SA
ATOM     14  C   UNL d   1      -0.843   3.002  -1.528  0.00  0.00     0.096 C 
ENDBRANCH   5  13
BRANCH   2  15
ATOM     15  C   UNL d   1       2.325  -2.378  -0.147  0.00  0.00     0.300 C 
ATOM     16  O   UNL d   1       2.189  -3.401  -0.807  0.00  0.00    -0.259 OA
BRANCH  15  17
ATOM     17  O   UNL d   1       3.433  -2.113   0.609  0.00  0.00    -0.322 OA
ATOM     18  C   UNL d   1       4.407  -3.161   0.584  0.00  0.00     0.213 C 
ENDBRANCH  15  17
ENDBRANCH   2  15
TORSDOF 4
