REMARK  8 active torsions:
REMARK  status: ('A' for Active; 'I' for Inactive)
REMARK    1  A    between atoms: C_26  and  N_8 
REMARK    2  A    between atoms: C_10  and  C_20 
REMARK    3  A    between atoms: O_23  and  C_10 
REMARK    4  A    between atoms: C_11  and  O_22 
REMARK    5  A    between atoms: C_21  and  C_11 
REMARK    6  A    between atoms: C_20  and  C_21 
REMARK    7  A    between atoms: O_22  and  C_27 
REMARK    8  A    between atoms: C_27  and  C_26 
ROOT
ATOM      1  C   UNL d   1      -3.091   0.186   0.112  0.00  0.00     0.148 A 
ATOM      2  N   UNL d   1      -2.390   0.827  -0.800  0.00  0.00    -0.336 N 
ATOM      3  HN  UNL d   1      -2.799   1.363  -1.566  1.00  0.00     0.168 HD
ATOM      4  S   UNL d   1      -2.110  -0.615   1.294  0.00  0.00    -0.052 SA
ATOM      5  N   UNL d   1      -4.452   0.133   0.111  0.00  0.00    -0.358 N 
ATOM      6  C   UNL d   1      -0.682  -0.086   0.515  0.00  0.00     0.036 A 
ATOM      7  C   UNL d   1      -1.032   0.682  -0.591  0.00  0.00     0.051 A 
ATOM      8  N   UNL d   1      -7.232  -0.666  -0.435  0.00  0.00     0.093 N 
ATOM      9  C   UNL d   1       0.653  -0.335   0.867  0.00  0.00     0.045 A 
ATOM     10  C   UNL d   1      -5.250  -0.478   1.173  0.00  0.00     0.155 C 
ATOM     11  C   UNL d   1      -5.212   0.843  -0.924  0.00  0.00     0.155 C 
ATOM     12  C   UNL d   1      -0.004   1.232  -1.384  0.00  0.00     0.032 A 
ATOM     13  C   UNL d   1       1.650   0.224   0.067  0.00  0.00     0.035 A 
ATOM     14  C   UNL d   1      -6.370  -1.353   0.561  0.00  0.00     0.292 C 
ATOM     15  C   UNL d   1      -6.341  -0.069  -1.465  0.00  0.00     0.292 C 
ATOM     16  C   UNL d   1       1.334   0.998  -1.045  0.00  0.00     0.026 A 
ATOM     17 CL   UNL d   1       3.301  -0.052   0.471  0.00  0.00    -0.084 Cl
ENDROOT
BRANCH   8  18
ATOM     18  C   UNL d   1      -8.084   0.331   0.234  0.00  0.00     0.299 C 
BRANCH  18  19
ATOM     19  C   UNL d   1      -9.119   1.005  -0.676  0.00  0.00     0.209 C 
BRANCH  19  20
ATOM     20  O   UNL d   1      -9.873   1.974   0.074  0.00  0.00    -0.320 OA
BRANCH  20  21
ATOM     21  C   UNL d   1      -9.269   3.179   0.229  0.00  0.00     0.259 C 
ATOM     22  O   UNL d   1      -8.136   3.471  -0.146  0.00  0.00    -0.265 OA
BRANCH  21  23
ATOM     23  C   UNL d   1     -10.186   4.144   0.929  0.00  0.00     0.121 C 
BRANCH  23  24
ATOM     24  C   UNL d   1      -9.789   5.577   0.605  0.00  0.00     0.119 C 
BRANCH  24  25
ATOM     25  C   UNL d   1      -9.935   5.856  -0.869  0.00  0.00     0.139 C 
ATOM     26  O   UNL d   1     -10.970   6.260  -1.378  0.00  0.00    -0.650 OA
BRANCH  25  27
ATOM     27  O   UNL d   1      -8.833   5.571  -1.595  0.00  0.00    -0.776 OA
ATOM     28  H   UNL d   1      -8.130   5.100  -1.089  0.00  0.00     0.167 HD
ENDBRANCH  25  27
ENDBRANCH  24  25
ENDBRANCH  23  24
ENDBRANCH  21  23
ENDBRANCH  20  21
ENDBRANCH  19  20
ENDBRANCH  18  19
ENDBRANCH   8  18
TORSDOF 8
