REMARK  9 active torsions:
REMARK  status: ('A' for Active; 'I' for Inactive)
REMARK    1  A    between atoms: C_8  and  C_1 
REMARK    2  A    between atoms: C_9  and  N_6 
REMARK    3  A    between atoms: C_12  and  C_9 
REMARK    4  A    between atoms: C_10  and  N_19 
REMARK    5  A    between atoms: N_17  and  C_10 
REMARK    6  A    between atoms: O_13  and  C_11 
REMARK       I    between atoms: N_20  and  C_12 
REMARK    7  A    between atoms: C_14  and  O_13 
REMARK    8  A    between atoms: C_15  and  N_17 
REMARK    9  A    between atoms: N_19  and  N_20 
ROOT
ATOM      1  C   UNL d   1      -0.618  -1.257  -0.323  0.00  0.00     0.147 A 
ATOM      2  N   UNL d   1       0.665  -0.907  -0.562  0.00  0.00    -0.268 N 
ATOM      3  HN  UNL d   1       1.507  -1.482  -0.559  1.00  0.00     0.190 HD
ATOM      4  N   UNL d   1      -1.480  -0.198  -0.466  0.00  0.00    -0.266 N 
ATOM      5  HN  UNL d   1      -2.495  -0.225  -0.371  1.00  0.00     0.186 HD
ATOM      6  N   UNL d   1       0.523   0.414  -0.805  0.00  0.00    -0.207 N 
ATOM      7  N   UNL d   1      -0.740   0.867  -0.753  0.00  0.00    -0.002 NA
ENDROOT
BRANCH   6   8
ATOM      8  C   UNL d   1       1.668   1.293  -0.747  0.00  0.00     0.271 C 
BRANCH   8   9
ATOM      9  C   UNL d   1       1.813   2.143  -1.976  0.00  0.00     0.257 C 
ATOM     10  N   UNL d   1       2.643   1.720  -2.987  0.00  0.00    -0.266 N 
ATOM     11  H   UNL d   1       2.749   2.335  -3.792  0.00  0.00     0.190 HD
ATOM     12  O   UNL d   1       1.253   3.237  -2.083  0.00  0.00    -0.270 OA
BRANCH  10  13
ATOM     13  N   UNL d   1       3.122   0.415  -3.104  0.00  0.00    -0.273 N 
ATOM     14  H   UNL d   1       2.462  -0.338  -2.919  0.00  0.00     0.189 HD
BRANCH  13  15
ATOM     15  C   UNL d   1       4.195   0.134  -3.931  0.00  0.00     0.191 C 
ATOM     16  S   UNL d   1       5.450   1.181  -4.266  0.00  0.00    -0.039 SA
BRANCH  15  17
ATOM     17  N   UNL d   1       4.231  -1.151  -4.421  0.00  0.00    -0.332 N 
ATOM     18  H   UNL d   1       5.151  -1.488  -4.694  0.00  0.00     0.168 HD
BRANCH  17  19
ATOM     19  C   UNL d   1       3.126  -1.950  -4.782  0.00  0.00     0.037 A 
ATOM     20  C   UNL d   1       1.886  -1.389  -5.120  0.00  0.00     0.053 A 
ATOM     21  C   UNL d   1       0.813  -2.211  -5.458  0.00  0.00     0.037 A 
ATOM     22 CL   UNL d   1      -0.698  -1.500  -5.869  0.00  0.00    -0.084 Cl
ATOM     23  C   UNL d   1       0.959  -3.592  -5.473  0.00  0.00     0.048 A 
ATOM     24  C   UNL d   1       2.203  -4.145  -5.174  0.00  0.00     0.037 A 
ATOM     25  C   UNL d   1       3.292  -3.333  -4.851  0.00  0.00     0.053 A 
ATOM     26 CL   UNL d   1       2.393  -5.856  -5.185  0.00  0.00    -0.084 Cl
ENDBRANCH  17  19
ENDBRANCH  15  17
ENDBRANCH  13  15
ENDBRANCH  10  13
ENDBRANCH   8   9
ENDBRANCH   6   8
BRANCH   1  27
ATOM     27  C   UNL d   1      -1.009  -2.578   0.157  0.00  0.00     0.044 A 
ATOM     28  C   UNL d   1      -2.219  -3.205  -0.185  0.00  0.00     0.090 A 
ATOM     29  C   UNL d   1      -2.450  -4.534   0.223  0.00  0.00     0.038 A 
ATOM     30  C   UNL d   1      -1.554  -5.190   1.066  0.00  0.00     0.003 A 
ATOM     31  C   UNL d   1      -0.397  -4.544   1.480  0.00  0.00     0.001 A 
ATOM     32  C   UNL d   1      -0.117  -3.259   1.012  0.00  0.00     0.018 A 
BRANCH  28  33
ATOM     33  O   UNL d   1      -3.135  -2.524  -0.967  0.00  0.00    -0.308 OA
BRANCH  33  34
ATOM     34  C   UNL d   1      -4.479  -2.785  -0.787  0.00  0.00     0.098 A 
ATOM     35  C   UNL d   1      -5.295  -2.944  -1.915  0.00  0.00     0.069 A 
ATOM     36  C   UNL d   1      -6.652  -3.245  -1.772  0.00  0.00     0.050 A 
ATOM     37 CL   UNL d   1      -4.651  -2.805  -3.512  0.00  0.00    -0.081 Cl
ATOM     38  C   UNL d   1      -7.197  -3.380  -0.497  0.00  0.00     0.035 A 
ATOM     39  C   UNL d   1      -6.407  -3.185   0.635  0.00  0.00     0.026 A 
ATOM     40 CL   UNL d   1      -8.858  -3.793  -0.315  0.00  0.00    -0.084 Cl
ATOM     41  C   UNL d   1      -5.055  -2.865   0.492  0.00  0.00     0.041 A 
ENDBRANCH  33  34
ENDBRANCH  28  33
ENDBRANCH   1  27
TORSDOF 9
