REMARK  7 active torsions:
REMARK  status: ('A' for Active; 'I' for Inactive)
REMARK    1  A    between atoms: C_8  and  C_1 
REMARK    2  A    between atoms: S_2  and  N_5 
REMARK    3  A    between atoms: C_12  and  S_2 
REMARK    4  A    between atoms: N_5  and  C_3 
REMARK    5  A    between atoms: C_9  and  C_4 
REMARK    6  A    between atoms: O_15  and  C_8 
REMARK    7  A    between atoms: O_16  and  C_9 
ROOT
ATOM      1  C   UNL d   1       1.545   1.019  -0.034  0.00  0.00     0.090 A 
ATOM      2  C   UNL d   1       1.607  -0.425  -0.042  0.00  0.00     0.067 A 
ATOM      3  C   UNL d   1       0.224   1.464  -0.082  0.00  0.00     0.098 A 
ATOM      4  S   UNL d   1      -0.886   0.150  -0.117  0.00  0.00    -0.092 SA
ATOM      5  C   UNL d   1       0.359  -1.004  -0.034  0.00  0.00     0.081 A 
ENDROOT
BRANCH   2   6
ATOM      6  N   UNL d   1       2.815  -1.143  -0.027  0.00  0.00    -0.279 N 
ATOM      7  H   UNL d   1       2.999  -1.726   0.791  0.00  0.00     0.179 HD
BRANCH   6   8
ATOM      8  S   UNL d   1       3.339  -1.993  -1.402  0.00  0.00     0.263 S 
ATOM      9  O   UNL d   1       4.228  -3.030  -0.920  0.00  0.00    -0.200 OA
ATOM     10  O   UNL d   1       2.196  -2.310  -2.230  0.00  0.00    -0.200 OA
BRANCH   8  11
ATOM     11  C   UNL d   1       4.333  -0.785  -2.236  0.00  0.00     0.079 A 
ATOM     12  C   UNL d   1       5.418  -0.214  -1.566  0.00  0.00     0.025 A 
ATOM     13  C   UNL d   1       6.195   0.746  -2.211  0.00  0.00     0.002 A 
ATOM     14  C   UNL d   1       5.892   1.126  -3.520  0.00  0.00     0.000 A 
ATOM     15  C   UNL d   1       4.811   0.547  -4.188  0.00  0.00     0.002 A 
ATOM     16  C   UNL d   1       4.026  -0.411  -3.547  0.00  0.00     0.025 A 
ENDBRANCH   8  11
ENDBRANCH   6   8
ENDBRANCH   2   6
BRANCH   1  17
ATOM     17  C   UNL d   1       2.727   1.876   0.033  0.00  0.00     0.296 C 
ATOM     18  O   UNL d   1       3.717   1.589   0.697  0.00  0.00    -0.259 OA
BRANCH  17  19
ATOM     19  O   UNL d   1       2.634   2.994  -0.744  0.00  0.00    -0.322 OA
ATOM     20  C   UNL d   1       3.777   3.847  -0.652  0.00  0.00     0.213 C 
ENDBRANCH  17  19
ENDBRANCH   1  17
BRANCH   3  21
ATOM     21  C   UNL d   1      -0.351   2.799  -0.078  0.00  0.00     0.301 C 
ATOM     22  O   UNL d   1      -1.410   3.123  -0.597  0.00  0.00    -0.259 OA
BRANCH  21  23
ATOM     23  O   UNL d   1       0.440   3.655   0.633  0.00  0.00    -0.322 OA
ATOM     24  C   UNL d   1      -0.012   5.012   0.618  0.00  0.00     0.213 C 
ENDBRANCH  21  23
ENDBRANCH   3  21
TORSDOF 7
