REMARK  3 active torsions:
REMARK  status: ('A' for Active; 'I' for Inactive)
REMARK    1  A    between atoms: C_5  and  C_1 
REMARK    2  A    between atoms: C_8  and  C_6 
REMARK       I    between atoms: C_9  and  N_10 
REMARK    3  A    between atoms: N_10  and  C_14 
ROOT
ATOM      1  C   UNL d   1       0.328  -1.030   0.092  0.00  0.00     0.071 A 
ATOM      2  N   UNL d   1       0.621  -0.585  -1.141  0.00  0.00    -0.260 N 
ATOM      3  HN  UNL d   1       1.205  -1.052  -1.836  1.00  0.00     0.195 HD
ATOM      4  C   UNL d   1      -0.508  -0.098   0.753  0.00  0.00     0.072 A 
ATOM      5  C   UNL d   1      -0.689   0.934  -0.136  0.00  0.00     0.111 A 
ATOM      6  O   UNL d   1      -0.026   0.633  -1.284  0.00  0.00    -0.237 OA
ENDROOT
BRANCH   5   7
ATOM      7  C   UNL d   1      -1.405   2.200  -0.055  0.00  0.00     0.002 A 
ATOM      8  C   UNL d   1      -2.254   2.418   1.043  0.00  0.00     0.043 A 
ATOM      9  C   UNL d   1      -2.929   3.622   1.233  0.00  0.00     0.035 A 
ATOM     10  C   UNL d   1      -2.761   4.636   0.286  0.00  0.00     0.029 A 
ATOM     11  C   UNL d   1      -1.931   4.437  -0.824  0.00  0.00     0.003 A 
ATOM     12  C   UNL d   1      -1.255   3.224  -0.995  0.00  0.00     0.014 A 
BRANCH   9  13
ATOM     13  N   UNL d   1      -3.768   3.867   2.344  0.00  0.00    -0.327 N 
ATOM     14  C   UNL d   1      -4.030   3.006   3.395  0.00  0.00     0.218 C 
ATOM     15  O   UNL d   1      -3.576   1.873   3.555  0.00  0.00    -0.274 OA
ATOM     16  C   UNL d   1      -4.974   3.578   4.420  0.00  0.00     0.117 C 
ATOM     17  H   UNL d   1      -4.208   4.778   2.371  0.00  0.00     0.169 HD
ENDBRANCH   9  13
ENDBRANCH   5   7
BRANCH   1  18
ATOM     18  C   UNL d   1       0.834  -2.297   0.631  0.00  0.00     0.036 A 
ATOM     19  C   UNL d   1       1.391  -2.366   1.928  0.00  0.00     0.048 A 
ATOM     20 CL   UNL d   1       1.645  -0.977   2.938  0.00  0.00    -0.083 Cl
ATOM     21  C   UNL d   1       1.810  -3.588   2.475  0.00  0.00     0.025 A 
ATOM     22  C   UNL d   1       1.713  -4.760   1.735  0.00  0.00     0.003 A 
ATOM     23  C   UNL d   1       1.191  -4.712   0.447  0.00  0.00     0.025 A 
ATOM     24  C   UNL d   1       0.743  -3.499  -0.100  0.00  0.00     0.048 A 
ATOM     25 CL   UNL d   1       0.035  -3.606  -1.679  0.00  0.00    -0.083 Cl
ENDBRANCH   1  18
TORSDOF 3
