REMARK  7 active torsions:
REMARK  status: ('A' for Active; 'I' for Inactive)
REMARK    1  A    between atoms: C_12  and  N_1 
REMARK    2  A    between atoms: C_10  and  C_2 
REMARK    3  A    between atoms: S_8  and  C_5 
REMARK    4  A    between atoms: C_14  and  S_8 
REMARK    5  A    between atoms: C_9  and  C_14 
REMARK       I    between atoms: N_13  and  C_9 
REMARK    6  A    between atoms: C_15  and  C_12 
REMARK    7  A    between atoms: N_17  and  N_13 
ROOT
ATOM      1  N   UNL d   1      -0.287  -1.260   0.030  0.00  0.00    -0.307 N 
ATOM      2  C   UNL d   1       0.943  -0.629  -0.115  0.00  0.00     0.135 A 
ATOM      3  N   UNL d   1       0.726   0.677  -0.160  0.00  0.00    -0.283 N 
ATOM      4  HN  UNL d   1       1.449   1.393  -0.233  1.00  0.00     0.188 HD
ATOM      5  C   UNL d   1      -1.213  -0.246   0.027  0.00  0.00     0.163 A 
ATOM      6  N   UNL d   1      -0.620   0.914  -0.095  0.00  0.00    -0.278 N 
ATOM      7  HN  UNL d   1      -1.077   1.825  -0.133  1.00  0.00     0.189 HD
ENDROOT
BRANCH   5   8
ATOM      8  S   UNL d   1      -2.927  -0.463   0.125  0.00  0.00    -0.083 SA
BRANCH   8   9
ATOM      9  C   UNL d   1      -3.441   0.554  -1.291  0.00  0.00     0.186 C 
BRANCH   9  10
ATOM     10  C   UNL d   1      -2.933  -0.001  -2.613  0.00  0.00     0.241 C 
ATOM     11  O   UNL d   1      -2.530  -1.152  -2.791  0.00  0.00    -0.271 OA
ATOM     12  N   UNL d   1      -3.006   0.926  -3.654  0.00  0.00    -0.293 N 
ATOM     13  H   UNL d   1      -3.441   1.837  -3.516  0.00  0.00     0.183 HD
BRANCH  12  14
ATOM     14  N   UNL d   1      -2.665   0.528  -4.965  0.00  0.00    -0.247 NA
ATOM     15  H   UNL d   1      -2.601  -0.500  -4.959  0.00  0.00     0.143 HD
ATOM     16  H   UNL d   1      -1.702   0.829  -5.143  0.00  0.00     0.143 HD
ENDBRANCH  12  14
ENDBRANCH   9  10
ENDBRANCH   8   9
ENDBRANCH   5   8
BRANCH   1  17
ATOM     17  C   UNL d   1      -0.569  -2.684   0.091  0.00  0.00     0.159 C 
BRANCH  17  18
ATOM     18  C   UNL d   1      -0.004  -3.369   1.306  0.00  0.00    -0.017 C 
ATOM     19  C   UNL d   1      -0.733  -4.066   2.190  0.00  0.00     0.008 C 
ENDBRANCH  17  18
ENDBRANCH   1  17
BRANCH   2  20
ATOM     20  C   UNL d   1       2.285  -1.227  -0.149  0.00  0.00     0.009 A 
ATOM     21  C   UNL d   1       2.586  -2.418  -0.821  0.00  0.00     0.015 A 
ATOM     22  C   UNL d   1       3.882  -2.946  -0.805  0.00  0.00     0.001 A 
ATOM     23  C   UNL d   1       4.907  -2.269  -0.150  0.00  0.00     0.000 A 
ATOM     24  C   UNL d   1       4.639  -1.061   0.486  0.00  0.00     0.001 A 
ATOM     25  C   UNL d   1       3.339  -0.546   0.487  0.00  0.00     0.015 A 
ENDBRANCH   2  20
TORSDOF 7
