REMARK  9 active torsions:
REMARK  status: ('A' for Active; 'I' for Inactive)
REMARK    1  A    between atoms: N_4  and  S_1 
REMARK    2  A    between atoms: C_9  and  S_1 
REMARK    3  A    between atoms: C_6  and  C_2 
REMARK    4  A    between atoms: C_3  and  N_5 
REMARK    5  A    between atoms: C_8  and  N_4 
REMARK    6  A    between atoms: N_5  and  C_10 
REMARK    7  A    between atoms: O_24  and  C_6 
REMARK    8  A    between atoms: C_7  and  O_14 
REMARK    9  A    between atoms: O_14  and  C_23 
ROOT
ATOM      1  C   UNL d   1       0.735  -2.218  -1.420  0.00  0.00     0.064 A 
ATOM      2  C   UNL d   1       2.084  -2.231  -1.833  0.00  0.00     0.040 A 
ATOM      3  C   UNL d   1      -0.236  -2.897  -2.171  0.00  0.00     0.032 A 
ATOM      4  C   UNL d   1       2.410  -2.885  -3.031  0.00  0.00     0.026 A 
ATOM      5  C   UNL d   1       0.117  -3.567  -3.341  0.00  0.00     0.002 A 
ATOM      6  C   UNL d   1       1.440  -3.564  -3.772  0.00  0.00     0.002 A 
ENDROOT
BRANCH   1   7
ATOM      7  N   UNL d   1       0.300  -1.465  -0.288  0.00  0.00    -0.279 N 
ATOM      8  H   UNL d   1      -0.314  -1.935   0.380  0.00  0.00     0.179 HD
BRANCH   7   9
ATOM      9  S   UNL d   1      -0.054   0.169  -0.473  0.00  0.00     0.263 S 
ATOM     10  O   UNL d   1       1.062   0.834  -1.113  0.00  0.00    -0.200 OA
ATOM     11  O   UNL d   1      -0.575   0.626   0.802  0.00  0.00    -0.200 OA
BRANCH   9  12
ATOM     12  C   UNL d   1      -1.413   0.182  -1.621  0.00  0.00     0.080 A 
ATOM     13  C   UNL d   1      -2.724  -0.002  -1.164  0.00  0.00     0.028 A 
ATOM     14  C   UNL d   1      -3.791   0.054  -2.072  0.00  0.00     0.038 A 
ATOM     15  C   UNL d   1      -3.554   0.337  -3.416  0.00  0.00     0.078 A 
ATOM     16  C   UNL d   1      -2.238   0.507  -3.860  0.00  0.00     0.038 A 
ATOM     17  C   UNL d   1      -1.168   0.443  -2.969  0.00  0.00     0.028 A 
BRANCH  15  18
ATOM     18  O   UNL d   1      -4.484   0.443  -4.404  0.00  0.00    -0.255 OA
BRANCH  18  19
ATOM     19  C   UNL d   1      -5.811   0.836  -4.092  0.00  0.00     0.530 C 
ATOM     20  F   UNL d   1      -5.938   1.419  -2.882  0.00  0.00    -0.144 F 
ATOM     21  F   UNL d   1      -6.219   1.728  -5.023  0.00  0.00    -0.144 F 
ATOM     22  F   UNL d   1      -6.626  -0.238  -4.152  0.00  0.00    -0.144 F 
ENDBRANCH  18  19
ENDBRANCH  15  18
ENDBRANCH   9  12
ENDBRANCH   7   9
ENDBRANCH   1   7
BRANCH   2  23
ATOM     23  N   UNL d   1       3.125  -1.492  -1.201  0.00  0.00    -0.260 NA
ATOM     24  H   UNL d   1       3.092  -0.542  -1.586  0.00  0.00     0.133 HD
BRANCH  23  25
ATOM     25  C   UNL d   1       3.363  -1.463   0.171  0.00  0.00     0.012 C 
ATOM     26  C   UNL d   1       3.393  -2.464   1.077  0.00  0.00     0.044 C 
ATOM     27  C   UNL d   1       3.651  -2.091   2.503  0.00  0.00     0.120 C 
ATOM     28  S   UNL d   1       3.721  -0.287   2.558  0.00  0.00    -0.159 SA
ATOM     29  C   UNL d   1       3.676  -0.101   0.763  0.00  0.00     0.126 C 
BRANCH  26  30
ATOM     30  C   UNL d   1       3.200  -3.914   0.870  0.00  0.00     0.291 C 
ATOM     31  O   UNL d   1       2.770  -4.647   1.753  0.00  0.00    -0.260 OA
BRANCH  30  32
ATOM     32  O   UNL d   1       3.653  -4.327  -0.334  0.00  0.00    -0.323 OA
ATOM     33  C   UNL d   1       3.482  -5.723  -0.572  0.00  0.00     0.213 C 
ENDBRANCH  30  32
ENDBRANCH  26  30
ENDBRANCH  23  25
ENDBRANCH   2  23
TORSDOF 9
