REMARK  5 active torsions:
REMARK  status: ('A' for Active; 'I' for Inactive)
REMARK    1  A    between atoms: C_7  and  C_1 
REMARK    2  A    between atoms: C_2  and  S_3 
REMARK    3  A    between atoms: S_3  and  C_5 
REMARK    4  A    between atoms: C_8  and  C_6 
REMARK    5  A    between atoms: O_13  and  C_7 
REMARK       I    between atoms: N_12  and  C_8 
ROOT
ATOM      1  C   UNL d   1       3.061  -2.904   2.282  0.00  0.00     0.017 C 
ATOM      2  C   UNL d   1       4.218  -2.156   2.691  0.00  0.00     0.007 C 
ATOM      3  C   UNL d   1       4.306  -1.213   3.759  0.00  0.00     0.044 C 
ATOM      4  C   UNL d   1       5.407  -2.336   1.939  0.00  0.00    -0.024 C 
ATOM      5  C   UNL d   1       3.181  -3.929   1.330  0.00  0.00     0.020 C 
ATOM      6  C   UNL d   1       5.391  -0.332   3.897  0.00  0.00     0.018 C 
ATOM      7  C   UNL d   1       4.408  -4.195   0.733  0.00  0.00     0.002 C 
ATOM      8  C   UNL d   1       6.473  -0.434   3.041  0.00  0.00     0.002 C 
ATOM      9  C   UNL d   1       5.499  -3.376   1.004  0.00  0.00     0.012 C 
ATOM     10  C   UNL d   1       6.502  -1.467   2.108  0.00  0.00     0.012 C 
ENDROOT
BRANCH   1  11
ATOM     11  S   UNL d   1       1.411  -2.257   2.646  0.00  0.00    -0.089 SA
BRANCH  11  12
ATOM     12  C   UNL d   1       0.320  -3.663   2.709  0.00  0.00     0.021 A 
ATOM     13  C   UNL d   1      -0.814  -3.796   1.888  0.00  0.00     0.056 A 
ATOM     14  C   UNL d   1      -1.763  -4.802   2.126  0.00  0.00     0.019 A 
ATOM     15  C   UNL d   1      -1.571  -5.709   3.164  0.00  0.00     0.001 A 
ATOM     16  C   UNL d   1      -0.431  -5.615   3.958  0.00  0.00     0.001 A 
ATOM     17  C   UNL d   1       0.501  -4.597   3.741  0.00  0.00     0.020 A 
BRANCH  13  18
ATOM     18  C   UNL d   1      -1.085  -2.932   0.724  0.00  0.00     0.294 C 
ATOM     19  O   UNL d   1      -2.032  -2.175   0.637  0.00  0.00    -0.259 OA
BRANCH  18  20
ATOM     20  O   UNL d   1      -0.249  -3.327  -0.272  0.00  0.00    -0.322 OA
ATOM     21  C   UNL d   1      -0.595  -2.847  -1.573  0.00  0.00     0.213 C 
ENDBRANCH  18  20
ENDBRANCH  13  18
ENDBRANCH  11  12
ENDBRANCH   1  11
BRANCH   3  22
ATOM     22  C   UNL d   1       3.493  -1.316   4.995  0.00  0.00     0.252 C 
ATOM     23  O   UNL d   1       2.842  -0.360   5.397  0.00  0.00    -0.268 OA
ATOM     24  N   UNL d   1       3.749  -2.468   5.722  0.00  0.00    -0.361 N 
ATOM     25  C   UNL d   1       3.573  -2.507   7.154  0.00  0.00     0.149 C 
ATOM     26  H   UNL d   1       4.396  -3.139   5.324  0.00  0.00     0.162 HD
ENDBRANCH   3  22
TORSDOF 5
