REMARK  3 active torsions:
REMARK  status: ('A' for Active; 'I' for Inactive)
REMARK    1  A    between atoms: N_7  and  C_1 
REMARK    2  A    between atoms: C_9  and  C_6 
REMARK       I    between atoms: C_8  and  N_7 
REMARK       I    between atoms: N_10  and  C_8 
REMARK    3  A    between atoms: C_12  and  N_10 
ROOT
ATOM      1  N   UNL d   1      -0.492  -2.344  -0.150  0.00  0.00    -0.293 N 
ATOM      2  C   UNL d   1      -0.431  -3.267  -1.237  0.00  0.00     0.326 C 
ATOM      3  N   UNL d   1       0.522  -3.062  -2.188  0.00  0.00    -0.309 N 
ATOM      4  O   UNL d   1      -1.301  -4.115  -1.206  0.00  0.00    -0.247 OA
ATOM      5  H   UNL d   1      -1.316  -2.534   0.411  0.00  0.00     0.172 HD
ATOM      6  H   UNL d   1       1.210  -2.353  -2.022  0.00  0.00     0.170 HD
ENDROOT
BRANCH   1   7
ATOM      7  C   UNL d   1       0.248  -1.215   0.172  0.00  0.00     0.127 C 
ATOM      8  C   UNL d   1       1.506  -0.822  -0.234  0.00  0.00     0.077 C 
ATOM      9  C   UNL d   1       1.686   0.485   0.286  0.00  0.00     0.037 C 
ATOM     10  N   UNL d   1       0.677   0.817   1.097  0.00  0.00    -0.301 N 
ATOM     11  N   UNL d   1      -0.161  -0.223   1.036  0.00  0.00    -0.281 N 
ATOM     12  HN  UNL d   1       0.570   1.673   1.641  1.00  0.00     0.187 HD
ATOM     13  C   UNL d   1      -1.394  -0.145   1.789  0.00  0.00     0.179 C 
BRANCH   9  14
ATOM     14  C   UNL d   1       2.783   1.500   0.003  0.00  0.00    -0.007 C 
ATOM     15  C   UNL d   1       3.823   0.963  -1.002  0.00  0.00     0.021 C 
ATOM     16  C   UNL d   1       2.145   2.766  -0.615  0.00  0.00     0.021 C 
ATOM     17  C   UNL d   1       3.518   1.883   1.301  0.00  0.00     0.021 C 
ENDBRANCH   9  14
ENDBRANCH   1   7
BRANCH   3  18
ATOM     18  C   UNL d   1       0.575  -3.631  -3.478  0.00  0.00     0.036 A 
ATOM     19  C   UNL d   1      -0.446  -4.419  -4.019  0.00  0.00     0.032 A 
ATOM     20  C   UNL d   1      -0.416  -4.775  -5.372  0.00  0.00     0.044 A 
ATOM     21  C   UNL d   1       0.649  -4.377  -6.169  0.00  0.00     0.116 A 
ATOM     22  C   UNL d   1       1.710  -3.664  -5.630  0.00  0.00     0.044 A 
ATOM     23  F   UNL d   1       0.644  -4.670  -7.475  0.00  0.00    -0.206 F 
ATOM     24  C   UNL d   1       1.675  -3.293  -4.283  0.00  0.00     0.032 A 
ENDBRANCH   3  18
TORSDOF 3
