REMARK  10 active torsions:
REMARK  status: ('A' for Active; 'I' for Inactive)
REMARK    1  A    between atoms: C_15  and  C_1 
REMARK    2  A    between atoms: C_7  and  N_9 
REMARK    3  A    between atoms: N_13  and  C_7 
REMARK    4  A    between atoms: C_8  and  C_16 
REMARK       I    between atoms: N_10  and  C_8 
REMARK    5  A    between atoms: N_9  and  N_10 
REMARK    6  A    between atoms: C_22  and  N_13 
REMARK    7  A    between atoms: S_14  and  C_15 
REMARK    8  A    between atoms: C_16  and  S_14 
REMARK    9  A    between atoms: C_24  and  C_22 
REMARK   10  A    between atoms: C_23  and  C_24 
ROOT
ATOM      1  C   UNL d   1      -3.088   5.923   0.195  0.00  0.00     0.245 C 
ATOM      2  N   UNL d   1      -2.439   6.526  -0.864  0.00  0.00    -0.267 N 
ATOM      3  O   UNL d   1      -3.368   6.545   1.223  0.00  0.00    -0.271 OA
ATOM      4  H   UNL d   1      -2.333   6.073  -1.771  0.00  0.00     0.190 HD
ENDROOT
BRANCH   1   5
ATOM      5  C   UNL d   1      -3.511   4.478  -0.005  0.00  0.00     0.178 C 
BRANCH   5   6
ATOM      6  S   UNL d   1      -2.334   3.448  -0.938  0.00  0.00    -0.155 SA
BRANCH   6   7
ATOM      7  C   UNL d   1      -0.825   3.620   0.099  0.00  0.00     0.114 C 
BRANCH   7   8
ATOM      8  C   UNL d   1       0.372   2.806  -0.415  0.00  0.00    -0.036 C 
ATOM      9  C   UNL d   1       0.862   3.005  -1.737  0.00  0.00    -0.048 C 
ATOM     10  C   UNL d   1       1.855   2.135  -2.259  0.00  0.00    -0.049 C 
ATOM     11  C   UNL d   1       0.350   4.127  -2.607  0.00  0.00     0.049 C 
ATOM     12  C   UNL d   1       2.195   2.165  -3.734  0.00  0.00     0.049 C 
ATOM     13  C   UNL d   1       2.563   1.268  -1.394  0.00  0.00    -0.049 C 
ATOM     14  C   UNL d   1       2.197   1.178  -0.025  0.00  0.00    -0.049 C 
ATOM     15  C   UNL d   1       3.721   0.471  -1.962  0.00  0.00     0.049 C 
ATOM     16  C   UNL d   1       1.055   1.892   0.450  0.00  0.00    -0.048 C 
ATOM     17  C   UNL d   1       3.052   0.314   0.879  0.00  0.00     0.049 C 
ATOM     18  C   UNL d   1       0.566   1.731   1.872  0.00  0.00     0.049 C 
ENDBRANCH   7   8
ENDBRANCH   6   7
ENDBRANCH   5   6
ENDBRANCH   1   5
BRANCH   2  19
ATOM     19  N   UNL d   1      -2.086   7.886  -0.757  0.00  0.00    -0.274 N 
ATOM     20  H   UNL d   1      -2.322   8.294   0.148  0.00  0.00     0.189 HD
BRANCH  19  21
ATOM     21  C   UNL d   1      -2.163   8.725  -1.865  0.00  0.00     0.186 C 
ATOM     22  S   UNL d   1      -2.459   8.193  -3.423  0.00  0.00    -0.040 SA
BRANCH  21  23
ATOM     23  N   UNL d   1      -1.949  10.042  -1.492  0.00  0.00    -0.366 N 
ATOM     24  H   UNL d   1      -1.356  10.164  -0.680  0.00  0.00     0.161 HD
BRANCH  23  25
ATOM     25  C   UNL d   1      -2.158  11.239  -2.313  0.00  0.00     0.126 C 
BRANCH  25  26
ATOM     26  C   UNL d   1      -3.647  11.566  -2.477  0.00  0.00     0.058 C 
BRANCH  26  27
ATOM     27  C   UNL d   1      -3.913  12.822  -3.268  0.00  0.00    -0.057 A 
ATOM     28  C   UNL d   1      -4.030  12.769  -4.664  0.00  0.00     0.007 A 
ATOM     29  C   UNL d   1      -4.337  13.920  -5.393  0.00  0.00     0.001 A 
ATOM     30  C   UNL d   1      -4.522  15.134  -4.737  0.00  0.00     0.000 A 
ATOM     31  C   UNL d   1      -4.391  15.203  -3.351  0.00  0.00     0.001 A 
ATOM     32  C   UNL d   1      -4.083  14.053  -2.620  0.00  0.00     0.007 A 
ENDBRANCH  26  27
ENDBRANCH  25  26
ENDBRANCH  23  25
ENDBRANCH  21  23
ENDBRANCH  19  21
ENDBRANCH   2  19
TORSDOF 10
