REMARK  3 active torsions:
REMARK  status: ('A' for Active; 'I' for Inactive)
REMARK    1  A    between atoms: N_2  and  S_1 
REMARK    2  A    between atoms: C_7  and  S_1 
REMARK    3  A    between atoms: C_3  and  N_2 
ROOT
ATOM      1  N   UNL d   1       0.405  -0.769  -1.339  0.00  0.00    -0.202 NA
ATOM      2  H   UNL d   1      -0.554  -1.104  -1.457  0.00  0.00     0.141 HD
ENDROOT
BRANCH   1   3
ATOM      3  S   UNL d   1       0.523   0.093   0.128  0.00  0.00     0.242 S 
ATOM      4  O   UNL d   1       1.399   1.225  -0.084  0.00  0.00    -0.206 OA
ATOM      5  O   UNL d   1       0.775  -0.881   1.168  0.00  0.00    -0.206 OA
BRANCH   3   6
ATOM      6  C   UNL d   1      -1.128   0.690   0.401  0.00  0.00     0.074 A 
ATOM      7  C   UNL d   1      -2.176  -0.234   0.501  0.00  0.00     0.025 A 
ATOM      8  C   UNL d   1      -3.484   0.226   0.647  0.00  0.00     0.002 A 
ATOM      9  C   UNL d   1      -3.737   1.597   0.714  0.00  0.00     0.000 A 
ATOM     10  C   UNL d   1      -2.685   2.513   0.646  0.00  0.00     0.002 A 
ATOM     11  C   UNL d   1      -1.373   2.062   0.491  0.00  0.00     0.025 A 
ENDBRANCH   3   6
ENDBRANCH   1   3
BRANCH   1  12
ATOM     12  C   UNL d   1       0.822  -0.029  -2.571  0.00  0.00     0.163 C 
ATOM     13  C   UNL d   1      -0.189   1.056  -2.925  0.00  0.00     0.236 C 
ATOM     14  N   UNL d   1       0.182   2.019  -3.814  0.00  0.00    -0.360 N 
ATOM     15  O   UNL d   1      -1.344   1.048  -2.499  0.00  0.00    -0.272 OA
ATOM     16  C   UNL d   1       1.337   1.949  -4.680  0.00  0.00     0.122 C 
ATOM     17  H   UNL d   1      -0.557   2.676  -4.038  0.00  0.00     0.162 HD
ATOM     18  C   UNL d   1       1.273   0.727  -5.593  0.00  0.00     0.020 C 
ATOM     19  C   UNL d   1       1.726  -0.570  -4.918  0.00  0.00     0.004 C 
ATOM     20  C   UNL d   1       0.879  -1.035  -3.731  0.00  0.00     0.030 C 
ENDBRANCH   1  12
TORSDOF 3
