REMARK  3 active torsions:
REMARK  status: ('A' for Active; 'I' for Inactive)
REMARK    1  A    between atoms: N_2  and  S_1 
REMARK    2  A    between atoms: C_7  and  S_1 
REMARK       I    between atoms: C_3  and  N_2 
REMARK       I    between atoms: N_4  and  C_3 
REMARK    3  A    between atoms: C_5  and  N_6 
ROOT
ATOM      1  N   UNL d   1       1.143   2.025   1.491  0.00  0.00    -0.232 N 
ATOM      2  C   UNL d   1       0.773   1.065   2.416  0.00  0.00     0.332 C 
ATOM      3  N   UNL d   1       1.804   0.411   3.097  0.00  0.00    -0.332 N 
ATOM      4  N   UNL d   1       3.566  -1.332   4.862  0.00  0.00    -0.376 N 
ATOM      5  O   UNL d   1      -0.411   0.853   2.668  0.00  0.00    -0.246 OA
ATOM      6  C   UNL d   1       1.316  -0.501   4.129  0.00  0.00     0.147 C 
ATOM      7  C   UNL d   1       2.250  -0.827   5.291  0.00  0.00     0.143 C 
ATOM      8  C   UNL d   1       4.325   0.292   3.103  0.00  0.00     0.040 C 
ATOM      9  C   UNL d   1       3.012  -0.023   2.389  0.00  0.00     0.129 C 
ATOM     10  C   UNL d   1       4.522  -0.267   4.518  0.00  0.00     0.125 C 
ATOM     11  H   UNL d   1       2.092   2.363   1.427  0.00  0.00     0.183 HD
ENDROOT
BRANCH   1  12
ATOM     12  S   UNL d   1       0.057   2.855   0.546  0.00  0.00     0.266 S 
ATOM     13  O   UNL d   1      -0.751   1.913  -0.195  0.00  0.00    -0.200 OA
ATOM     14  O   UNL d   1       0.845   3.853  -0.152  0.00  0.00    -0.200 OA
BRANCH  12  15
ATOM     15  C   UNL d   1      -0.974   3.723   1.707  0.00  0.00     0.080 A 
ATOM     16  C   UNL d   1      -0.572   4.970   2.193  0.00  0.00     0.026 A 
ATOM     17  C   UNL d   1      -1.449   5.717   2.985  0.00  0.00     0.008 A 
ATOM     18  C   UNL d   1      -2.729   5.229   3.283  0.00  0.00    -0.062 A 
ATOM     19  C   UNL d   1      -3.108   3.965   2.814  0.00  0.00     0.008 A 
ATOM     20  C   UNL d   1      -3.696   6.075   4.059  0.00  0.00     0.048 C 
ATOM     21  C   UNL d   1      -2.237   3.215   2.023  0.00  0.00     0.026 A 
ENDBRANCH  12  15
ENDBRANCH   1  12
BRANCH   4  22
ATOM     22  C   UNL d   1       4.047  -2.587   5.288  0.00  0.00     0.077 A 
ATOM     23  C   UNL d   1       4.924  -3.355   4.471  0.00  0.00     0.077 A 
ATOM     24 CL   UNL d   1       5.560  -2.828   2.948  0.00  0.00    -0.080 Cl
ATOM     25  C   UNL d   1       5.292  -4.652   4.843  0.00  0.00     0.113 A 
ATOM     26  N   UNL d   1       4.873  -5.277   5.959  0.00  0.00    -0.372 N 
ATOM     27  C   UNL d   1       4.079  -4.544   6.761  0.00  0.00     0.113 A 
ATOM     28  HN  UNL d   1       5.139  -6.236   6.181  1.00  0.00     0.164 HD
ATOM     29  C   UNL d   1       3.672  -3.230   6.501  0.00  0.00     0.077 A 
ATOM     30 CL   UNL d   1       2.829  -2.478   7.820  0.00  0.00    -0.080 Cl
ENDBRANCH   4  22
TORSDOF 3
