REMARK  5 active torsions:
REMARK  status: ('A' for Active; 'I' for Inactive)
REMARK    1  A    between atoms: C_6  and  N_1 
REMARK    2  A    between atoms: C_8  and  C_6 
REMARK    3  A    between atoms: N_7  and  C_9 
REMARK    4  A    between atoms: C_9  and  C_8 
REMARK    5  A    between atoms: O_10  and  C_8 
ROOT
ATOM      1  N   UNL d   1       0.167  -1.788  -0.476  0.00  0.00    -0.343 N 
ATOM      2  C   UNL d   1       0.944  -1.158  -1.430  0.00  0.00     0.046 A 
ATOM      3  C   UNL d   1      -0.489  -0.865   0.314  0.00  0.00     0.046 A 
ATOM      4  C   UNL d   1       0.914   0.206  -1.130  0.00  0.00     0.003 A 
ATOM      5  C   UNL d   1       0.024   0.388  -0.025  0.00  0.00     0.003 A 
ATOM      6  C   UNL d   1      -1.438  -1.024   1.342  0.00  0.00     0.030 A 
ATOM      7  C   UNL d   1       1.721  -1.672  -2.480  0.00  0.00     0.030 A 
ATOM      8  C   UNL d   1       1.713   1.084  -1.891  0.00  0.00     0.014 A 
ATOM      9  C   UNL d   1      -0.372   1.512   0.729  0.00  0.00     0.014 A 
ATOM     10  C   UNL d   1       2.517  -0.783  -3.207  0.00  0.00     0.002 A 
ATOM     11  C   UNL d   1      -1.814   0.106   2.073  0.00  0.00     0.002 A 
ATOM     12  C   UNL d   1       2.521   0.577  -2.914  0.00  0.00     0.001 A 
ATOM     13  C   UNL d   1      -1.276   1.355   1.786  0.00  0.00     0.001 A 
ENDROOT
BRANCH   1  14
ATOM     14  C   UNL d   1       0.213  -3.215  -0.208  0.00  0.00     0.163 C 
BRANCH  14  15
ATOM     15  C   UNL d   1       1.570  -3.713   0.345  0.00  0.00     0.164 C 
BRANCH  15  16
ATOM     16  C   UNL d   1       2.049  -2.922   1.603  0.00  0.00     0.305 C 
BRANCH  16  17
ATOM     17  N   UNL d   1       3.363  -3.268   2.192  0.00  0.00     0.090 N 
ATOM     18  C   UNL d   1       3.429  -4.589   2.800  0.00  0.00     0.272 C 
ATOM     19  C   UNL d   1       4.299  -4.581   4.065  0.00  0.00     0.030 C 
ATOM     20  C   UNL d   1       5.803  -4.627   3.832  0.00  0.00     0.002 C 
ATOM     21  C   UNL d   1       6.354  -3.485   2.987  0.00  0.00     0.002 C 
ATOM     22  C   UNL d   1       5.849  -3.528   1.551  0.00  0.00     0.030 C 
ATOM     23  C   UNL d   1       4.480  -2.874   1.331  0.00  0.00     0.272 C 
ENDBRANCH  16  17
ENDBRANCH  15  16
BRANCH  15  24
ATOM     24  O   UNL d   1       1.430  -5.112   0.628  0.00  0.00    -0.392 OA
ATOM     25  H   UNL d   1       0.914  -5.196   1.451  0.00  0.00     0.210 HD
ENDBRANCH  15  24
ENDBRANCH  14  15
ENDBRANCH   1  14
TORSDOF 5
