REMARK  6 active torsions:
REMARK  status: ('A' for Active; 'I' for Inactive)
REMARK    1  A    between atoms: C_12  and  C_1 
REMARK    2  A    between atoms: S_13  and  C_5 
REMARK    3  A    between atoms: C_8  and  C_9 
REMARK    4  A    between atoms: C_18  and  S_13 
REMARK    5  A    between atoms: C_15  and  C_18 
REMARK    6  A    between atoms: C_16  and  C_15 
ROOT
ATOM      1  C   UNL d   1      -0.260  -1.065   0.038  0.00  0.00     0.192 A 
ATOM      2  O   UNL d   1      -1.136  -0.023   0.193  0.00  0.00    -0.266 OA
ATOM      3  N   UNL d   1       0.995  -0.660  -0.024  0.00  0.00    -0.275 N 
ATOM      4  HN  UNL d   1       1.822  -1.247  -0.139  1.00  0.00     0.189 HD
ATOM      5  C   UNL d   1      -0.299   1.058   0.229  0.00  0.00     0.204 A 
ATOM      6  N   UNL d   1       0.968   0.716   0.097  0.00  0.00    -0.272 N 
ATOM      7  HN  UNL d   1       1.771   1.345   0.086  1.00  0.00     0.189 HD
ENDROOT
BRANCH   1   8
ATOM      8  C   UNL d   1      -0.815  -2.415   0.003  0.00  0.00     0.085 A 
ATOM      9  N   UNL d   1      -2.170  -2.522   0.016  0.00  0.00    -0.362 N 
ATOM     10  C   UNL d   1      -2.704  -3.767   0.010  0.00  0.00     0.104 A 
ATOM     11  HN  UNL d   1      -2.764  -1.693   0.030  1.00  0.00     0.165 HD
ATOM     12  C   UNL d   1      -1.955  -4.933  -0.006  0.00  0.00     0.063 A 
ATOM     13  C   UNL d   1      -0.562  -4.802  -0.027  0.00  0.00     0.020 A 
ATOM     14  C   UNL d   1       0.015  -3.532  -0.025  0.00  0.00     0.035 A 
BRANCH  12  15
ATOM     15  C   UNL d   1      -2.619  -6.277   0.009  0.00  0.00     0.418 C 
ATOM     16  F   UNL d   1      -3.978  -6.215   0.019  0.00  0.00    -0.166 F 
ATOM     17  F   UNL d   1      -2.287  -7.033  -1.073  0.00  0.00    -0.166 F 
ATOM     18  F   UNL d   1      -2.271  -7.014   1.100  0.00  0.00    -0.166 F 
ENDBRANCH  12  15
ENDBRANCH   1   8
BRANCH   5  19
ATOM     19  S   UNL d   1      -0.877   2.679   0.448  0.00  0.00    -0.077 SA
BRANCH  19  20
ATOM     20  C   UNL d   1       0.688   3.599   0.503  0.00  0.00     0.166 C 
BRANCH  20  21
ATOM     21  C   UNL d   1       0.466   5.072   0.816  0.00  0.00     0.169 C 
ATOM     22  O   UNL d   1      -0.628   5.553   1.107  0.00  0.00    -0.291 OA
BRANCH  21  23
ATOM     23  C   UNL d   1       1.648   5.993   0.772  0.00  0.00     0.011 A 
ATOM     24  C   UNL d   1       2.955   5.536   0.559  0.00  0.00     0.017 A 
ATOM     25  C   UNL d   1       4.019   6.446   0.506  0.00  0.00     0.025 A 
ATOM     26  C   UNL d   1       3.781   7.811   0.668  0.00  0.00     0.034 A 
ATOM     27  C   UNL d   1       2.491   8.276   0.896  0.00  0.00     0.025 A 
ATOM     28 CL   UNL d   1       5.091   8.922   0.583  0.00  0.00    -0.084 Cl
ATOM     29  C   UNL d   1       1.427   7.369   0.949  0.00  0.00     0.017 A 
ENDBRANCH  21  23
ENDBRANCH  20  21
ENDBRANCH  19  20
ENDBRANCH   5  19
TORSDOF 6
