REMARK  5 active torsions:
REMARK  status: ('A' for Active; 'I' for Inactive)
REMARK    1  A    between atoms: S_14  and  C_2 
REMARK    2  A    between atoms: N_7  and  C_3 
REMARK    3  A    between atoms: C_18  and  N_11 
REMARK    4  A    between atoms: C_16  and  S_14 
REMARK    5  A    between atoms: C_15  and  C_16 
ROOT
ATOM      1  C   UNL d   1       0.826   0.269   0.202  0.00  0.00     0.086 A 
ATOM      2  C   UNL d   1      -0.063   1.337   0.347  0.00  0.00     0.091 A 
ATOM      3  C   UNL d   1      -1.080  -1.229  -0.086  0.00  0.00     0.077 A 
ATOM      4  N   UNL d   1      -1.404   1.166   0.287  0.00  0.00    -0.351 N 
ATOM      5  HN  UNL d   1      -2.037   1.958   0.400  1.00  0.00     0.166 HD
ATOM      6  C   UNL d   1       0.315  -1.041   0.023  0.00  0.00    -0.008 A 
ATOM      7  C   UNL d   1      -1.893  -0.093   0.073  0.00  0.00     0.035 A 
ATOM      8  C   UNL d   1       2.242   0.487   0.233  0.00  0.00     0.103 C 
ATOM      9  N   UNL d   1       3.397   0.614   0.246  0.00  0.00    -0.191 NA
ATOM     10  C   UNL d   1       1.272  -2.207  -0.058  0.00  0.00     0.052 C 
ATOM     11  C   UNL d   1      -3.392  -0.171  -0.014  0.00  0.00     0.070 C 
ENDROOT
BRANCH   2  12
ATOM     12  S   UNL d   1       0.516   3.021   0.566  0.00  0.00    -0.106 SA
BRANCH  12  13
ATOM     13  C   UNL d   1      -0.808   3.712   1.612  0.00  0.00     0.121 C 
BRANCH  13  14
ATOM     14  C   UNL d   1      -0.469   5.109   2.091  0.00  0.00    -0.027 A 
ATOM     15  C   UNL d   1       0.073   5.379   3.359  0.00  0.00     0.041 A 
ATOM     16 CL   UNL d   1       0.432   4.124   4.491  0.00  0.00    -0.084 Cl
ATOM     17  C   UNL d   1       0.344   6.696   3.756  0.00  0.00     0.024 A 
ATOM     18  C   UNL d   1       0.094   7.760   2.890  0.00  0.00     0.002 A 
ATOM     19  C   UNL d   1      -0.420   7.509   1.622  0.00  0.00     0.001 A 
ATOM     20  C   UNL d   1      -0.697   6.198   1.226  0.00  0.00     0.009 A 
ENDBRANCH  13  14
ENDBRANCH  12  13
ENDBRANCH   2  12
BRANCH   3  21
ATOM     21  N   UNL d   1      -1.650  -2.513  -0.264  0.00  0.00    -0.298 N 
ATOM     22  N   UNL d   1      -1.381  -2.970  -1.399  0.00  0.00    -0.300 N 
ATOM     23  HN  UNL d   1      -0.869  -2.450  -2.111  1.00  0.00     0.187 HD
ATOM     24  HN  UNL d   1      -2.207  -3.000   0.438  1.00  0.00     0.187 HD
BRANCH  22  25
ATOM     25  C   UNL d   1      -1.865  -4.287  -1.585  0.00  0.00     0.048 A 
ATOM     26  C   UNL d   1      -3.131  -4.707  -1.156  0.00  0.00     0.031 A 
ATOM     27  C   UNL d   1      -3.596  -5.997  -1.440  0.00  0.00     0.002 A 
ATOM     28  C   UNL d   1      -2.801  -6.885  -2.163  0.00  0.00     0.000 A 
ATOM     29  C   UNL d   1      -1.534  -6.490  -2.584  0.00  0.00     0.002 A 
ATOM     30  C   UNL d   1      -1.072  -5.200  -2.296  0.00  0.00     0.031 A 
ENDBRANCH  22  25
ENDBRANCH   3  21
TORSDOF 5
