REMARK  5 active torsions:
REMARK  status: ('A' for Active; 'I' for Inactive)
REMARK    1  A    between atoms: N_13  and  C_1 
REMARK    2  A    between atoms: C_2  and  C_15 
REMARK    3  A    between atoms: C_17  and  C_3 
REMARK    4  A    between atoms: C_18  and  C_6 
REMARK       I    between atoms: C_14  and  N_13 
REMARK       I    between atoms: N_16  and  C_14 
REMARK    5  A    between atoms: C_15  and  N_16 
ROOT
ATOM      1  N   UNL d   1       1.704  -4.289   0.088  0.00  0.00    -0.305 N 
ATOM      2  C   UNL d   1       1.685  -2.986  -0.276  0.00  0.00     0.321 C 
ATOM      3  N   UNL d   1       2.841  -2.258  -0.200  0.00  0.00    -0.338 N 
ATOM      4  O   UNL d   1       0.585  -2.469  -0.474  0.00  0.00    -0.247 OA
ATOM      5  H   UNL d   1       0.773  -4.591   0.366  0.00  0.00     0.171 HD
ATOM      6  H   UNL d   1       3.616  -2.738   0.233  0.00  0.00     0.164 HD
ENDROOT
BRANCH   1   7
ATOM      7  C   UNL d   1       2.671  -5.272   0.164  0.00  0.00     0.097 A 
ATOM      8  C   UNL d   1       2.556  -6.356   1.014  0.00  0.00     0.137 A 
ATOM      9  O   UNL d   1       3.592  -7.209   0.807  0.00  0.00    -0.235 OA
ATOM     10  N   UNL d   1       4.418  -6.700  -0.170  0.00  0.00    -0.263 N 
ATOM     11  C   UNL d   1       3.862  -5.544  -0.563  0.00  0.00     0.058 A 
ATOM     12  HN  UNL d   1       5.279  -7.118  -0.524  1.00  0.00     0.194 HD
ATOM     13  C   UNL d   1       4.476  -4.830  -1.698  0.00  0.00     0.072 C 
BRANCH   8  14
ATOM     14  C   UNL d   1       1.670  -6.706   2.116  0.00  0.00     0.002 A 
ATOM     15  C   UNL d   1       1.189  -8.011   2.282  0.00  0.00     0.014 A 
ATOM     16  C   UNL d   1       0.383  -8.334   3.378  0.00  0.00     0.001 A 
ATOM     17  C   UNL d   1       0.057  -7.358   4.319  0.00  0.00     0.000 A 
ATOM     18  C   UNL d   1       0.524  -6.056   4.161  0.00  0.00     0.001 A 
ATOM     19  C   UNL d   1       1.322  -5.731   3.064  0.00  0.00     0.014 A 
ENDBRANCH   8  14
ENDBRANCH   1   7
BRANCH   3  20
ATOM     20  C   UNL d   1       2.699  -0.845   0.151  0.00  0.00     0.168 C 
BRANCH  20  21
ATOM     21  C   UNL d   1       3.555   0.103  -0.611  0.00  0.00     0.020 A 
ATOM     22  C   UNL d   1       3.327   1.525  -0.807  0.00  0.00     0.075 A 
ATOM     23  N   UNL d   1       4.319   2.044  -1.550  0.00  0.00    -0.260 N 
ATOM     24  O   UNL d   1       5.191   1.031  -1.823  0.00  0.00    -0.242 OA
ATOM     25  HN  UNL d   1       4.405   3.014  -1.854  1.00  0.00     0.195 HD
ATOM     26  C   UNL d   1       4.758  -0.116  -1.255  0.00  0.00     0.082 A 
ATOM     27  C   UNL d   1       5.645  -1.270  -1.464  0.00  0.00     0.079 C 
BRANCH  22  28
ATOM     28  C   UNL d   1       2.259   2.432  -0.336  0.00  0.00    -0.007 A 
ATOM     29  C   UNL d   1       2.043   3.652  -1.008  0.00  0.00     0.014 A 
ATOM     30  C   UNL d   1       1.082   4.570  -0.572  0.00  0.00     0.001 A 
ATOM     31  C   UNL d   1       0.307   4.282   0.544  0.00  0.00     0.000 A 
ATOM     32  C   UNL d   1       0.500   3.082   1.225  0.00  0.00     0.001 A 
ATOM     33  C   UNL d   1       1.474   2.169   0.795  0.00  0.00     0.014 A 
ENDBRANCH  22  28
ENDBRANCH  20  21
ENDBRANCH   3  20
TORSDOF 5
