REMARK  2 active torsions:
REMARK  status: ('A' for Active; 'I' for Inactive)
REMARK    1  A    between atoms: C_7  and  N_1 
REMARK    2  A    between atoms: C_8  and  C_10 
ROOT
ATOM      1  N   UNL d   1       0.932  -0.692  -0.024  0.00  0.00    -0.269 N 
ATOM      2  C   UNL d   1       0.904   0.687  -0.026  0.00  0.00     0.164 A 
ATOM      3  N   UNL d   1      -0.295   1.206   0.057  0.00  0.00    -0.281 N 
ATOM      4  HN  UNL d   1      -0.547   2.193   0.102  1.00  0.00     0.188 HD
ATOM      5  C   UNL d   1      -0.406  -1.056   0.033  0.00  0.00     0.199 A 
ATOM      6  N   UNL d   1      -1.127   0.133   0.069  0.00  0.00    -0.274 N 
ATOM      7  C   UNL d   1       2.054   1.545  -0.150  0.00  0.00     0.120 A 
ATOM      8  S   UNL d   1      -1.185  -2.519   0.152  0.00  0.00    -0.039 SA
ATOM      9  O   UNL d   1       3.114   1.150  -0.923  0.00  0.00    -0.319 OA
ATOM     10  C   UNL d   1       2.316   2.800   0.370  0.00  0.00     0.043 A 
ATOM     11  C   UNL d   1       4.061   2.117  -0.840  0.00  0.00     0.142 A 
ATOM     12  C   UNL d   1       3.623   3.151  -0.049  0.00  0.00     0.027 A 
ATOM     13  H   UNL d   1      -2.133   0.227   0.155  0.00  0.00     0.189 HD
ENDROOT
BRANCH   1  14
ATOM     14  C   UNL d   1       2.068  -1.548   0.055  0.00  0.00     0.044 A 
ATOM     15  C   UNL d   1       3.219  -1.158   0.760  0.00  0.00     0.046 A 
ATOM     16  C   UNL d   1       4.381  -1.950   0.794  0.00  0.00     0.050 A 
ATOM     17  C   UNL d   1       4.366  -3.196   0.161  0.00  0.00     0.016 A 
ATOM     18  C   UNL d   1       3.223  -3.624  -0.507  0.00  0.00     0.003 A 
ATOM     19  C   UNL d   1       2.091  -2.801  -0.570  0.00  0.00     0.030 A 
BRANCH  16  20
ATOM     20  C   UNL d   1       5.630  -1.462   1.485  0.00  0.00     0.417 C 
ATOM     21  F   UNL d   1       5.518  -0.202   1.992  0.00  0.00    -0.166 F 
ATOM     22  F   UNL d   1       5.989  -2.254   2.532  0.00  0.00    -0.166 F 
ATOM     23  F   UNL d   1       6.707  -1.430   0.652  0.00  0.00    -0.166 F 
ENDBRANCH  16  20
ENDBRANCH   1  14
TORSDOF 2
