REMARK  5 active torsions:
REMARK  status: ('A' for Active; 'I' for Inactive)
REMARK    1  A    between atoms: C_8  and  N_5 
REMARK    2  A    between atoms: C_11  and  C_6 
REMARK    3  A    between atoms: O_9  and  C_11 
REMARK    4  A    between atoms: C_10  and  O_9 
REMARK    5  A    between atoms: O_22  and  C_12 
ROOT
ATOM      1  C   UNL d   1      -0.307  -1.155   0.114  0.00  0.00     0.141 C 
ATOM      2  N   UNL d   1      -1.467  -0.601   0.065  0.00  0.00    -0.369 N 
ATOM      3  HN  UNL d   1      -2.346  -1.096   0.221  1.00  0.00     0.161 HD
ATOM      4  S   UNL d   1       1.065  -0.086  -0.128  0.00  0.00    -0.086 SA
ATOM      5  N   UNL d   1       0.006  -2.462   0.352  0.00  0.00    -0.337 N 
ATOM      6  C   UNL d   1      -0.000   1.356   0.177  0.00  0.00     0.097 C 
ATOM      7  C   UNL d   1      -1.369   0.834  -0.242  0.00  0.00     0.139 C 
ATOM      8  H   UNL d   1       0.975  -2.718   0.242  0.00  0.00     0.168 HD
ENDROOT
BRANCH   6   9
ATOM      9  C   UNL d   1       0.041   1.779   1.650  0.00  0.00     0.193 C 
BRANCH   9  10
ATOM     10  O   UNL d   1      -0.831   2.904   1.824  0.00  0.00    -0.350 OA
BRANCH  10  11
ATOM     11  C   UNL d   1      -0.904   3.456   3.073  0.00  0.00     0.069 A 
ATOM     12  C   UNL d   1      -0.204   3.031   4.202  0.00  0.00     0.039 A 
ATOM     13  C   UNL d   1      -0.352   3.704   5.423  0.00  0.00     0.039 A 
ATOM     14  C   UNL d   1      -1.206   4.803   5.523  0.00  0.00     0.068 A 
ATOM     15  C   UNL d   1      -1.900   5.231   4.393  0.00  0.00     0.039 A 
ATOM     16  C   UNL d   1      -1.758   4.555   3.178  0.00  0.00     0.039 A 
BRANCH  14  17
ATOM     17  O   UNL d   1      -1.403   5.554   6.649  0.00  0.00    -0.356 OA
ATOM     18  C   UNL d   1      -1.208   4.879   7.886  0.00  0.00     0.210 C 
ENDBRANCH  14  17
ENDBRANCH  10  11
ENDBRANCH   9  10
ENDBRANCH   6   9
BRANCH   5  19
ATOM     19  C   UNL d   1      -0.818  -3.426   0.960  0.00  0.00     0.034 A 
ATOM     20  C   UNL d   1      -2.033  -3.109   1.575  0.00  0.00     0.030 A 
ATOM     21  C   UNL d   1      -2.861  -4.092   2.117  0.00  0.00     0.009 A 
ATOM     22  C   UNL d   1      -2.498  -5.437   2.050  0.00  0.00    -0.062 A 
ATOM     23  C   UNL d   1      -1.291  -5.777   1.432  0.00  0.00     0.009 A 
ATOM     24  C   UNL d   1      -3.419  -6.475   2.615  0.00  0.00     0.048 C 
ATOM     25  C   UNL d   1      -0.463  -4.782   0.890  0.00  0.00     0.030 A 
ENDBRANCH   5  19
TORSDOF 5
