REMARK  6 active torsions:
REMARK  status: ('A' for Active; 'I' for Inactive)
REMARK    1  A    between atoms: S_8  and  C_1 
REMARK    2  A    between atoms: C_6  and  C_3 
REMARK    3  A    between atoms: C_12  and  C_7 
REMARK    4  A    between atoms: C_15  and  S_8 
REMARK       I    between atoms: C_9  and  N_11 
REMARK    5  A    between atoms: C_18  and  C_9 
REMARK    6  A    between atoms: N_11  and  C_16 
ROOT
ATOM      1  C   UNL d   1      -0.015  -2.985  -1.945  0.00  0.00     0.097 A 
ATOM      2  C   UNL d   1      -1.386  -2.873  -2.216  0.00  0.00     0.093 A 
ATOM      3  C   UNL d   1      -2.006  -3.911  -2.928  0.00  0.00     0.073 A 
ATOM      4  N   UNL d   1       0.721  -4.062  -2.321  0.00  0.00    -0.348 N 
ATOM      5  HN  UNL d   1       1.718  -4.106  -2.113  1.00  0.00     0.166 HD
ATOM      6  C   UNL d   1       0.112  -5.077  -2.974  0.00  0.00     0.051 A 
ATOM      7  C   UNL d   1      -1.239  -5.034  -3.286  0.00  0.00     0.048 A 
ATOM      8  C   UNL d   1      -2.112  -1.713  -1.791  0.00  0.00     0.103 C 
ATOM      9  N   UNL d   1      -2.708  -0.772  -1.451  0.00  0.00    -0.191 NA
ENDROOT
BRANCH   1  10
ATOM     10  S   UNL d   1       0.882  -1.587  -1.276  0.00  0.00    -0.069 SA
BRANCH  10  11
ATOM     11  C   UNL d   1       2.248  -2.283  -0.339  0.00  0.00     0.033 C 
ATOM     12  C   UNL d   1       2.476  -1.917   1.003  0.00  0.00     0.052 C 
ATOM     13  C   UNL d   1       3.792  -1.942   1.496  0.00  0.00     0.031 C 
ATOM     14  C   UNL d   1       4.838  -2.462   0.732  0.00  0.00     0.002 C 
ATOM     15  C   UNL d   1       4.582  -2.965  -0.537  0.00  0.00     0.002 C 
ATOM     16  C   UNL d   1       3.303  -2.847  -1.080  0.00  0.00     0.021 C 
BRANCH  12  17
ATOM     17  N   UNL d   1       1.492  -1.474   1.921  0.00  0.00    -0.322 N 
ATOM     18  C   UNL d   1       0.168  -1.889   1.974  0.00  0.00     0.256 C 
ATOM     19  O   UNL d   1      -0.370  -2.719   1.254  0.00  0.00    -0.267 OA
ATOM     20  H   UNL d   1       1.844  -0.956   2.712  0.00  0.00     0.169 HD
BRANCH  18  21
ATOM     21  C   UNL d   1      -0.650  -1.243   3.047  0.00  0.00     0.032 A 
ATOM     22  C   UNL d   1      -1.998  -0.969   2.771  0.00  0.00     0.018 A 
ATOM     23  C   UNL d   1      -2.772  -0.252   3.688  0.00  0.00     0.025 A 
ATOM     24  C   UNL d   1      -2.204   0.180   4.885  0.00  0.00     0.034 A 
ATOM     25  C   UNL d   1      -0.887  -0.150   5.200  0.00  0.00     0.025 A 
ATOM     26 CL   UNL d   1      -3.125   1.145   5.972  0.00  0.00    -0.084 Cl
ATOM     27  C   UNL d   1      -0.112  -0.873   4.288  0.00  0.00     0.018 A 
ENDBRANCH  18  21
ENDBRANCH  12  17
ENDBRANCH  10  11
ENDBRANCH   1  10
BRANCH   3  28
ATOM     28  C   UNL d   1      -3.442  -3.882  -3.384  0.00  0.00     0.419 C 
ATOM     29  F   UNL d   1      -4.113  -2.731  -3.136  0.00  0.00    -0.166 F 
ATOM     30  F   UNL d   1      -3.537  -4.074  -4.730  0.00  0.00    -0.166 F 
ATOM     31  F   UNL d   1      -4.177  -4.877  -2.817  0.00  0.00    -0.166 F 
ENDBRANCH   3  28
BRANCH   6  32
ATOM     32  C   UNL d   1       1.013  -6.176  -3.356  0.00  0.00     0.031 A 
ATOM     33  S   UNL d   1       0.651  -7.213  -4.681  0.00  0.00    -0.100 SA
ATOM     34  C   UNL d   1       2.108  -8.085  -4.502  0.00  0.00     0.050 A 
ATOM     35  C   UNL d   1       2.864  -7.614  -3.454  0.00  0.00     0.008 A 
ATOM     36  C   UNL d   1       2.234  -6.518  -2.796  0.00  0.00     0.021 A 
ENDBRANCH   6  32
TORSDOF 6
