REMARK  3 active torsions:
REMARK  status: ('A' for Active; 'I' for Inactive)
REMARK    1  A    between atoms: C_3  and  N_1 
REMARK    2  A    between atoms: N_4  and  C_5 
REMARK       I    between atoms: C_7  and  N_4 
REMARK    3  A    between atoms: C_18  and  C_11 
ROOT
ATOM      1  C   UNL d   1       0.375   1.185  -0.293  0.00  0.00     0.059 A 
ATOM      2  C   UNL d   1      -0.628   1.294   0.686  0.00  0.00     0.061 A 
ATOM      3  C   UNL d   1       0.586   2.275  -1.166  0.00  0.00     0.038 A 
ATOM      4  C   UNL d   1      -1.395   2.475   0.745  0.00  0.00     0.032 A 
ATOM      5  C   UNL d   1      -0.114   3.478  -1.045  0.00  0.00    -0.060 A 
ATOM      6  C   UNL d   1      -1.122   3.563  -0.088  0.00  0.00     0.009 A 
ATOM      7  C   UNL d   1       0.223   4.650  -1.916  0.00  0.00     0.048 C 
ENDROOT
BRANCH   1   8
ATOM      8  N   UNL d   1       1.171   0.035  -0.511  0.00  0.00    -0.363 N 
ATOM      9  C   UNL d   1       2.431   0.249  -0.277  0.00  0.00     0.100 C 
ATOM     10  HN  UNL d   1       0.797  -0.863  -0.818  1.00  0.00     0.165 HD
BRANCH   9  11
ATOM     11  C   UNL d   1       3.513  -0.683  -0.603  0.00  0.00    -0.018 A 
ATOM     12  C   UNL d   1       4.724  -0.096  -0.989  0.00  0.00     0.052 A 
ATOM     13  C   UNL d   1       5.762  -0.936  -1.310  0.00  0.00     0.105 A 
ATOM     14  O   UNL d   1       6.995  -0.541  -1.719  0.00  0.00    -0.323 OA
ATOM     15  C   UNL d   1       5.634  -2.303  -1.243  0.00  0.00     0.105 A 
ATOM     16  C   UNL d   1       7.638  -1.818  -1.902  0.00  0.00     0.352 A 
ATOM     17  O   UNL d   1       6.785  -2.941  -1.589  0.00  0.00    -0.323 OA
ATOM     18  C   UNL d   1       4.448  -2.905  -0.864  0.00  0.00     0.040 A 
ATOM     19  C   UNL d   1       3.360  -2.078  -0.550  0.00  0.00     0.016 A 
ENDBRANCH   9  11
ENDBRANCH   1   8
BRANCH   2  20
ATOM     20  N   UNL d   1      -0.981   0.294   1.621  0.00  0.00    -0.326 N 
ATOM     21  C   UNL d   1      -0.131  -0.610   2.227  0.00  0.00     0.218 C 
ATOM     22  O   UNL d   1       1.096  -0.609   2.206  0.00  0.00    -0.274 OA
ATOM     23  C   UNL d   1      -0.875  -1.633   3.053  0.00  0.00     0.117 C 
ATOM     24  H   UNL d   1      -1.882   0.409   2.064  0.00  0.00     0.169 HD
ENDBRANCH   2  20
TORSDOF 3
