REMARK  3 active torsions:
REMARK  status: ('A' for Active; 'I' for Inactive)
REMARK    1  A    between atoms: C_2  and  S_1 
REMARK    2  A    between atoms: N_5  and  S_1 
REMARK    3  A    between atoms: C_10  and  N_7 
ROOT
ATOM      1  N   UNL d   1       0.243  -1.427   0.094  0.00  0.00    -0.202 NA
ATOM      2  N   UNL d   1       0.529  -3.701  -1.660  0.00  0.00    -0.365 N 
ATOM      3  C   UNL d   1       1.025  -2.635   0.530  0.00  0.00     0.127 C 
ATOM      4  C   UNL d   1      -0.752  -1.771  -0.965  0.00  0.00     0.127 C 
ATOM      5  C   UNL d   1       1.573  -3.484  -0.649  0.00  0.00     0.140 C 
ATOM      6  C   UNL d   1      -0.080  -2.461  -2.160  0.00  0.00     0.140 C 
ENDROOT
BRANCH   1   7
ATOM      7  S   UNL d   1       1.129  -0.005  -0.180  0.00  0.00     0.260 S 
ATOM      8  O   UNL d   1       2.351  -0.351  -0.883  0.00  0.00    -0.204 OA
ATOM      9  O   UNL d   1       0.234   1.013  -0.684  0.00  0.00    -0.204 OA
BRANCH   7  10
ATOM     10  C   UNL d   1       1.679   0.639   1.346  0.00  0.00     0.160 A 
ATOM     11  N   UNL d   1       1.446   0.018   2.565  0.00  0.00    -0.341 N 
ATOM     12  C   UNL d   1       1.967   0.823   3.463  0.00  0.00     0.183 A 
ATOM     13  HN  UNL d   1       0.974  -0.871   2.728  1.00  0.00     0.167 HD
ATOM     14  N   UNL d   1       2.545   1.917   2.882  0.00  0.00    -0.354 N 
ATOM     15  C   UNL d   1       2.372   1.823   1.532  0.00  0.00     0.134 A 
ATOM     16  C   UNL d   1       3.212   2.974   3.600  0.00  0.00     0.156 C 
ENDBRANCH   7  10
ENDBRANCH   1   7
BRANCH   2  17
ATOM     17  C   UNL d   1       0.376  -4.851  -2.401  0.00  0.00     0.102 A 
ATOM     18  N   UNL d   1      -0.164  -4.750  -3.638  0.00  0.00    -0.352 N 
ATOM     19  C   UNL d   1      -0.425  -5.874  -4.343  0.00  0.00     0.089 A 
ATOM     20  HN  UNL d   1      -0.373  -3.834  -4.034  1.00  0.00     0.166 HD
ATOM     21  C   UNL d   1      -0.184  -7.147  -3.873  0.00  0.00     0.017 A 
ATOM     22  C   UNL d   1       0.372  -7.265  -2.611  0.00  0.00     0.005 A 
ATOM     23  C   UNL d   1       0.659  -6.111  -1.876  0.00  0.00     0.048 A 
ENDBRANCH   2  17
TORSDOF 3
