REMARK  2 active torsions:
REMARK  status: ('A' for Active; 'I' for Inactive)
REMARK    1  A    between atoms: C_7  and  C_1 
REMARK    2  A    between atoms: C_12  and  C_7 
ROOT
ATOM      1  C   UNL d   1       2.123   0.697  -0.355  0.00  0.00     0.004 C 
ATOM      2  C   UNL d   1       0.825   1.362  -0.054  0.00  0.00     0.190 C 
ATOM      3  C   UNL d   1      -0.426   0.568  -0.056  0.00  0.00     0.032 A 
ATOM      4  C   UNL d   1       2.274  -0.634  -0.324  0.00  0.00     0.061 C 
ATOM      5  S   UNL d   1       1.070  -1.799   0.043  0.00  0.00    -0.101 SA
ATOM      6  C   UNL d   1      -0.411  -0.828  -0.043  0.00  0.00     0.019 A 
ATOM      7  O   UNL d   1       0.782   2.572   0.157  0.00  0.00    -0.287 OA
ATOM      8  C   UNL d   1      -1.650   1.256  -0.082  0.00  0.00     0.017 A 
ATOM      9  C   UNL d   1      -1.634  -1.521  -0.069  0.00  0.00     0.020 A 
ATOM     10  C   UNL d   1      -2.857   0.557  -0.112  0.00  0.00     0.001 A 
ATOM     11  C   UNL d   1      -2.849  -0.835  -0.109  0.00  0.00     0.001 A 
ENDROOT
BRANCH   1  12
ATOM     12  C   UNL d   1       3.292   1.610  -0.660  0.00  0.00     0.082 C 
BRANCH  12  13
ATOM     13  C   UNL d   1       3.401   1.935  -2.137  0.00  0.00    -0.052 A 
ATOM     14  C   UNL d   1       2.763   3.069  -2.664  0.00  0.00     0.033 A 
ATOM     15  C   UNL d   1       2.787   3.326  -4.041  0.00  0.00     0.056 A 
ATOM     16 CL   UNL d   1       1.956   4.730  -4.612  0.00  0.00    -0.083 Cl
ATOM     17  C   UNL d   1       3.456   2.451  -4.902  0.00  0.00     0.055 A 
ATOM     18  C   UNL d   1       4.117   1.335  -4.382  0.00  0.00     0.026 A 
ATOM     19 CL   UNL d   1       3.489   2.676  -6.615  0.00  0.00    -0.083 Cl
ATOM     20  C   UNL d   1       4.089   1.079  -3.008  0.00  0.00     0.009 A 
ENDBRANCH  12  13
ENDBRANCH   1  12
TORSDOF 2
