REMARK  8 active torsions:
REMARK  status: ('A' for Active; 'I' for Inactive)
REMARK    1  A    between atoms: C_7  and  C_1 
REMARK    2  A    between atoms: C_12  and  C_2 
REMARK    3  A    between atoms: S_3  and  N_9 
REMARK    4  A    between atoms: C_13  and  S_3 
REMARK    5  A    between atoms: C_20  and  N_4 
REMARK    6  A    between atoms: N_9  and  N_16 
REMARK    7  A    between atoms: C_10  and  C_14 
REMARK    8  A    between atoms: C_11  and  C_15 
REMARK       I    between atoms: N_16  and  C_12 
ROOT
ATOM      1  C   UNL d   1      -0.641  -2.631   0.027  0.00  0.00     0.274 C 
ATOM      2  N   UNL d   1       0.076  -3.810  -0.013  0.00  0.00    -0.256 N 
ATOM      3  O   UNL d   1      -0.171  -1.595  -0.453  0.00  0.00    -0.266 OA
ATOM      4  H   UNL d   1      -0.287  -4.704   0.315  0.00  0.00     0.191 HD
ENDROOT
BRANCH   2   5
ATOM      5  N   UNL d   1       1.410  -3.845  -0.632  0.00  0.00    -0.220 N 
ATOM      6  H   UNL d   1       1.828  -2.979  -0.977  0.00  0.00     0.200 HD
BRANCH   5   7
ATOM      7  S   UNL d   1       2.254  -5.307  -0.589  0.00  0.00     0.276 S 
ATOM      8  O   UNL d   1       2.587  -5.563   0.800  0.00  0.00    -0.199 OA
ATOM      9  O   UNL d   1       1.482  -6.265  -1.346  0.00  0.00    -0.199 OA
BRANCH   7  10
ATOM     10  C   UNL d   1       3.787  -5.021  -1.457  0.00  0.00     0.082 A 
ATOM     11  C   UNL d   1       4.890  -4.527  -0.748  0.00  0.00     0.041 A 
ATOM     12  C   UNL d   1       6.168  -4.523  -1.333  0.00  0.00     0.050 A 
ATOM     13  C   UNL d   1       6.320  -5.012  -2.642  0.00  0.00     0.032 A 
ATOM     14  C   UNL d   1       5.226  -5.526  -3.361  0.00  0.00     0.050 A 
ATOM     15  C   UNL d   1       3.954  -5.522  -2.759  0.00  0.00     0.041 A 
BRANCH  12  16
ATOM     16  C   UNL d   1       7.389  -4.072  -0.558  0.00  0.00     0.417 C 
ATOM     17  F   UNL d   1       7.106  -3.670   0.711  0.00  0.00    -0.166 F 
ATOM     18  F   UNL d   1       8.317  -5.060  -0.442  0.00  0.00    -0.166 F 
ATOM     19  F   UNL d   1       8.023  -3.026  -1.153  0.00  0.00    -0.166 F 
ENDBRANCH  12  16
BRANCH  14  20
ATOM     20  C   UNL d   1       5.458  -6.133  -4.729  0.00  0.00     0.417 C 
ATOM     21  F   UNL d   1       4.334  -6.647  -5.298  0.00  0.00    -0.166 F 
ATOM     22  F   UNL d   1       5.953  -5.230  -5.620  0.00  0.00    -0.166 F 
ATOM     23  F   UNL d   1       6.361  -7.152  -4.691  0.00  0.00    -0.166 F 
ENDBRANCH  14  20
ENDBRANCH   7  10
ENDBRANCH   5   7
ENDBRANCH   2   5
BRANCH   1  24
ATOM     24  C   UNL d   1      -1.974  -2.634   0.642  0.00  0.00     0.084 C 
ATOM     25  C   UNL d   1      -2.715  -3.590   1.346  0.00  0.00     0.157 C 
ATOM     26  N   UNL d   1      -3.911  -2.984   1.721  0.00  0.00    -0.251 N 
ATOM     27  N   UNL d   1      -4.047  -1.775   1.127  0.00  0.00    -0.303 N 
ATOM     28  C   UNL d   1      -2.867  -1.539   0.563  0.00  0.00     0.127 C 
ATOM     29  HN  UNL d   1      -4.874  -1.177   1.115  1.00  0.00     0.186 HD
BRANCH  25  30
ATOM     30  C   UNL d   1      -2.496  -5.020   1.609  0.00  0.00     0.435 C 
ATOM     31  F   UNL d   1      -1.470  -5.512   0.868  0.00  0.00    -0.165 F 
ATOM     32  F   UNL d   1      -2.166  -5.271   2.896  0.00  0.00    -0.165 F 
ATOM     33  F   UNL d   1      -3.574  -5.775   1.297  0.00  0.00    -0.165 F 
ENDBRANCH  25  30
BRANCH  26  34
ATOM     34  C   UNL d   1      -4.973  -3.467   2.546  0.00  0.00     0.057 A 
ATOM     35  C   UNL d   1      -4.727  -4.270   3.667  0.00  0.00     0.033 A 
ATOM     36  C   UNL d   1      -5.789  -4.837   4.380  0.00  0.00     0.026 A 
ATOM     37  C   UNL d   1      -7.101  -4.577   3.996  0.00  0.00     0.034 A 
ATOM     38  C   UNL d   1      -7.362  -3.710   2.937  0.00  0.00     0.026 A 
ATOM     39 CL   UNL d   1      -8.400  -5.327   4.837  0.00  0.00    -0.084 Cl
ATOM     40  C   UNL d   1      -6.300  -3.139   2.223  0.00  0.00     0.033 A 
ENDBRANCH  26  34
ENDBRANCH   1  24
TORSDOF 8
