REMARK  5 active torsions:
REMARK  status: ('A' for Active; 'I' for Inactive)
REMARK    1  A    between atoms: N_15  and  C_1 
REMARK    2  A    between atoms: C_7  and  C_2 
REMARK    3  A    between atoms: C_12  and  N_3 
REMARK       I    between atoms: N_16  and  C_7 
REMARK    4  A    between atoms: N_9  and  N_16 
REMARK    5  A    between atoms: C_22  and  C_21 
ROOT
ATOM      1  C   UNL d   1      -0.626  -2.667  -0.192  0.00  0.00     0.274 C 
ATOM      2  N   UNL d   1       0.359  -3.623   0.014  0.00  0.00    -0.266 N 
ATOM      3  O   UNL d   1      -1.801  -2.923  -0.446  0.00  0.00    -0.266 OA
ATOM      4  H   UNL d   1       1.329  -3.339   0.113  0.00  0.00     0.190 HD
ENDROOT
BRANCH   1   5
ATOM      5  C   UNL d   1      -0.176  -1.290  -0.087  0.00  0.00     0.090 A 
ATOM      6  C   UNL d   1       0.895  -0.756   0.616  0.00  0.00     0.118 A 
ATOM      7  N   UNL d   1       0.834   0.636   0.416  0.00  0.00    -0.245 N 
ATOM      8  N   UNL d   1      -0.284   0.988  -0.274  0.00  0.00    -0.303 N 
ATOM      9  C   UNL d   1      -0.855  -0.168  -0.597  0.00  0.00     0.128 A 
ATOM     10  HN  UNL d   1      -0.611   1.928  -0.494  1.00  0.00     0.186 HD
BRANCH   6  11
ATOM     11  N   UNL d   1       1.761  -1.381   1.475  0.00  0.00    -0.286 NA
ATOM     12  H   UNL d   1       1.408  -2.214   1.952  0.00  0.00     0.125 HD
ATOM     13  H   UNL d   1       2.219  -0.794   2.178  0.00  0.00     0.125 HD
ENDBRANCH   6  11
BRANCH   7  14
ATOM     14  C   UNL d   1       1.700   1.651   0.914  0.00  0.00     0.058 A 
ATOM     15  C   UNL d   1       3.054   1.398   1.165  0.00  0.00     0.031 A 
ATOM     16  C   UNL d   1       3.858   2.394   1.726  0.00  0.00     0.002 A 
ATOM     17  C   UNL d   1       3.317   3.641   2.038  0.00  0.00     0.000 A 
ATOM     18  C   UNL d   1       1.980   3.911   1.753  0.00  0.00     0.002 A 
ATOM     19  C   UNL d   1       1.176   2.928   1.174  0.00  0.00     0.031 A 
ENDBRANCH   7  14
ENDBRANCH   1   5
BRANCH   2  20
ATOM     20  N   UNL d   1      -0.011  -4.923   0.180  0.00  0.00    -0.308 N 
ATOM     21  C   UNL d   1       0.928  -5.805   0.290  0.00  0.00     0.118 C 
ATOM     22  HN  UNL d   1      -0.994  -5.192   0.217  1.00  0.00     0.186 HD
BRANCH  21  23
ATOM     23  C   UNL d   1       0.593  -7.222   0.559  0.00  0.00    -0.017 A 
ATOM     24  C   UNL d   1       1.621  -8.167   0.645  0.00  0.00     0.052 A 
ATOM     25  C   UNL d   1       1.262  -9.463   0.964  0.00  0.00     0.105 A 
ATOM     26  O   UNL d   1       2.118 -10.510   1.114  0.00  0.00    -0.323 OA
ATOM     27  C   UNL d   1      -0.048  -9.827   1.183  0.00  0.00     0.105 A 
ATOM     28  C   UNL d   1       1.202 -11.563   1.484  0.00  0.00     0.352 A 
ATOM     29  O   UNL d   1      -0.177 -11.142   1.501  0.00  0.00    -0.323 OA
ATOM     30  C   UNL d   1      -1.080  -8.920   1.088  0.00  0.00     0.040 A 
ATOM     31  C   UNL d   1      -0.752  -7.599   0.771  0.00  0.00     0.016 A 
ENDBRANCH  21  23
ENDBRANCH   2  20
TORSDOF 5
