REMARK  5 active torsions:
REMARK  status: ('A' for Active; 'I' for Inactive)
REMARK    1  A    between atoms: C_8  and  C_3 
REMARK    2  A    between atoms: C_12  and  C_6 
REMARK    3  A    between atoms: C_9  and  C_10 
REMARK    4  A    between atoms: S_11  and  C_12 
REMARK    5  A    between atoms: C_17  and  S_11 
ROOT
ATOM      1  N   UNL d   1       0.647   0.254  -1.030  0.00  0.00    -0.322 N 
ATOM      2  HN  UNL d   1       1.138   0.514  -1.885  1.00  0.00     0.169 HD
ATOM      3  C   UNL d   1       0.188   1.070  -0.024  0.00  0.00     0.137 A 
ATOM      4  N   UNL d   1      -0.482   0.415   0.941  0.00  0.00    -0.242 N 
ATOM      5  HN  UNL d   1      -0.938   0.804   1.766  1.00  0.00     0.196 HD
ATOM      6  C   UNL d   1       0.296  -0.943  -0.620  0.00  0.00     0.158 A 
ATOM      7  O   UNL d   1      -0.409  -0.921   0.547  0.00  0.00    -0.222 OA
ENDROOT
BRANCH   3   8
ATOM      8  C   UNL d   1       0.452   2.503  -0.026  0.00  0.00     0.010 A 
ATOM      9  C   UNL d   1       1.218   3.072  -1.052  0.00  0.00     0.016 A 
ATOM     10  C   UNL d   1       1.503   4.443  -1.058  0.00  0.00     0.009 A 
ATOM     11  C   UNL d   1       1.038   5.290  -0.036  0.00  0.00    -0.051 A 
ATOM     12  C   UNL d   1       0.265   4.706   0.981  0.00  0.00     0.009 A 
ATOM     13  C   UNL d   1      -0.023   3.334   0.988  0.00  0.00     0.016 A 
BRANCH  11  14
ATOM     14  C   UNL d   1       1.397   6.786  -0.049  0.00  0.00    -0.024 C 
ATOM     15  C   UNL d   1       0.821   7.565   1.155  0.00  0.00     0.019 C 
ATOM     16  C   UNL d   1       2.932   6.950  -0.009  0.00  0.00     0.019 C 
ATOM     17  C   UNL d   1       0.851   7.452  -1.330  0.00  0.00     0.019 C 
ENDBRANCH  11  14
ENDBRANCH   3   8
BRANCH   6  18
ATOM     18  C   UNL d   1       0.570  -2.273  -1.220  0.00  0.00     0.166 C 
BRANCH  18  19
ATOM     19  S   UNL d   1       2.256  -2.296  -1.939  0.00  0.00    -0.122 SA
BRANCH  19  20
ATOM     20  C   UNL d   1       2.308  -3.852  -2.801  0.00  0.00     0.001 A 
ATOM     21  C   UNL d   1       3.071  -3.910  -3.977  0.00  0.00     0.020 A 
ATOM     22  C   UNL d   1       3.234  -5.114  -4.665  0.00  0.00     0.025 A 
ATOM     23  C   UNL d   1       2.636  -6.271  -4.176  0.00  0.00     0.034 A 
ATOM     24  C   UNL d   1       1.871  -6.229  -3.012  0.00  0.00     0.025 A 
ATOM     25 CL   UNL d   1       2.861  -7.764  -4.998  0.00  0.00    -0.084 Cl
ATOM     26  C   UNL d   1       1.709  -5.022  -2.324  0.00  0.00     0.020 A 
ENDBRANCH  19  20
ENDBRANCH  18  19
ENDBRANCH   6  18
TORSDOF 5
