REMARK  3 active torsions:
REMARK  status: ('A' for Active; 'I' for Inactive)
REMARK    1  A    between atoms: N_2  and  C_1 
REMARK    2  A    between atoms: O_4  and  C_1 
REMARK    3  A    between atoms: C_5  and  N_2 
ROOT
ATOM      1  C   UNL d   1       1.129   1.084   2.338  0.00  0.00     0.034 A 
ATOM      2  C   UNL d   1       2.127   2.061   2.322  0.00  0.00     0.029 A 
ATOM      3  C   UNL d   1       0.531   0.751   3.560  0.00  0.00     0.029 A 
ATOM      4  C   UNL d   1       0.957   1.351   4.749  0.00  0.00     0.002 A 
ATOM      5  C   UNL d   1       2.545   2.669   3.510  0.00  0.00     0.002 A 
ATOM      6  C   UNL d   1       1.966   2.307   4.722  0.00  0.00     0.000 A 
ENDROOT
BRANCH   1   7
ATOM      7  N   UNL d   1       0.633   0.453   1.180  0.00  0.00    -0.328 N 
ATOM      8  H   UNL d   1      -0.248  -0.033   1.285  0.00  0.00     0.169 HD
BRANCH   7   9
ATOM      9  C   UNL d   1       1.202   0.292  -0.059  0.00  0.00     0.214 C 
ATOM     10  S   UNL d   1       2.785   0.383  -0.554  0.00  0.00    -0.033 SA
BRANCH   9  11
ATOM     11  O   UNL d   1       0.333  -0.168  -0.996  0.00  0.00    -0.332 OA
ATOM     12  C   UNL d   1      -0.830   0.633  -1.255  0.00  0.00     0.212 C 
ENDBRANCH   9  11
ENDBRANCH   7   9
ENDBRANCH   1   7
TORSDOF 3
