REMARK  4 active torsions:
REMARK  status: ('A' for Active; 'I' for Inactive)
REMARK    1  A    between atoms: N_8  and  C_2 
REMARK    2  A    between atoms: C_7  and  N_8 
REMARK    3  A    between atoms: N_13  and  C_7 
REMARK    4  A    between atoms: N_14  and  N_13 
ROOT
ATOM      1  C   UNL d   1       1.835   0.694  -0.787  0.00  0.00     0.017 C 
ATOM      2  C   UNL d   1       2.656   1.941  -0.356  0.00  0.00     0.089 C 
ATOM      3  C   UNL d   1       0.329   2.335  -0.914  0.00  0.00    -0.007 C 
ATOM      4  C   UNL d   1       0.847   0.349   0.354  0.00  0.00     0.018 A 
ATOM      5  C   UNL d   1       0.915   1.287  -1.861  0.00  0.00     0.012 C 
ATOM      6  C   UNL d   1      -0.195   1.496   0.273  0.00  0.00     0.001 A 
ATOM      7  C   UNL d   1       1.599   3.070  -0.447  0.00  0.00     0.030 C 
ATOM      8  C   UNL d   1       0.026  -0.886   0.140  0.00  0.00    -0.025 A 
ATOM      9  C   UNL d   1      -1.274  -0.615  -0.021  0.00  0.00    -0.030 A 
ATOM     10  C   UNL d   1      -1.565   0.849   0.030  0.00  0.00     0.032 A 
ENDROOT
BRANCH   2  11
ATOM     11  N   UNL d   1       3.761   2.246  -1.263  0.00  0.00    -0.361 N 
ATOM     12  H   UNL d   1       3.922   3.231  -1.452  0.00  0.00     0.162 HD
BRANCH  11  13
ATOM     13  C   UNL d   1       4.935   1.561  -1.446  0.00  0.00     0.182 C 
ATOM     14  S   UNL d   1       5.448   0.194  -0.652  0.00  0.00    -0.040 SA
BRANCH  13  15
ATOM     15  N   UNL d   1       5.718   2.121  -2.444  0.00  0.00    -0.300 N 
ATOM     16  H   UNL d   1       6.614   1.675  -2.642  0.00  0.00     0.183 HD
BRANCH  15  17
ATOM     17  N   UNL d   1       5.205   3.121  -3.307  0.00  0.00    -0.248 NA
ATOM     18  H   UNL d   1       4.192   2.971  -3.377  0.00  0.00     0.143 HD
ATOM     19  H   UNL d   1       5.539   2.922  -4.254  0.00  0.00     0.143 HD
ENDBRANCH  15  17
ENDBRANCH  13  15
ENDBRANCH  11  13
ENDBRANCH   2  11
TORSDOF 4
