REMARK  4 active torsions:
REMARK  status: ('A' for Active; 'I' for Inactive)
REMARK    1  A    between atoms: C_3  and  C_1 
REMARK    2  A    between atoms: C_15  and  N_2 
REMARK    3  A    between atoms: C_16  and  C_10 
REMARK    4  A    between atoms: C_17  and  C_11 
ROOT
ATOM      1  C   UNL d   1      -0.368  -2.759  -0.108  0.00  0.00     0.054 A 
ATOM      2  N   UNL d   1      -0.202  -4.868   1.025  0.00  0.00    -0.340 N 
ATOM      3  HN  UNL d   1       0.065  -5.415   1.843  1.00  0.00     0.167 HD
ATOM      4  C   UNL d   1      -0.002  -3.520   1.000  0.00  0.00     0.059 A 
ATOM      5  C   UNL d   1      -0.757  -5.467  -0.046  0.00  0.00     0.116 A 
ATOM      6  N   UNL d   1      -1.147  -4.808  -1.145  0.00  0.00    -0.351 N 
ATOM      7  HN  UNL d   1      -1.589  -5.286  -1.931  1.00  0.00     0.166 HD
ATOM      8  C   UNL d   1      -0.923  -3.482  -1.155  0.00  0.00     0.107 A 
ENDROOT
BRANCH   1   9
ATOM      9  C   UNL d   1      -0.133  -1.328  -0.270  0.00  0.00     0.152 A 
ATOM     10  N   UNL d   1      -1.005  -0.390  -0.822  0.00  0.00    -0.224 N 
ATOM     11  N   UNL d   1      -0.306   0.745  -1.060  0.00  0.00     0.001 NA
ATOM     12  N   UNL d   1       0.887   0.558  -0.524  0.00  0.00    -0.007 NA
ATOM     13  N   UNL d   1       1.016  -0.714  -0.045  0.00  0.00    -0.269 N 
ATOM     14  HN  UNL d   1       1.841  -1.114   0.400  1.00  0.00     0.185 HD
BRANCH  10  15
ATOM     15  C   UNL d   1      -2.385  -0.472  -1.137  0.00  0.00     0.056 A 
ATOM     16  C   UNL d   1      -3.245  -1.323  -0.427  0.00  0.00     0.034 A 
ATOM     17  C   UNL d   1      -4.595  -1.398  -0.782  0.00  0.00     0.044 A 
ATOM     18  C   UNL d   1      -5.075  -0.632  -1.838  0.00  0.00     0.116 A 
ATOM     19  C   UNL d   1      -4.237   0.225  -2.540  0.00  0.00     0.044 A 
ATOM     20  F   UNL d   1      -6.367  -0.718  -2.179  0.00  0.00    -0.206 F 
ATOM     21  C   UNL d   1      -2.891   0.321  -2.181  0.00  0.00     0.034 A 
ENDBRANCH  10  15
ENDBRANCH   1   9
BRANCH   4  22
ATOM     22  C   UNL d   1       0.630  -3.010   2.247  0.00  0.00    -0.008 A 
ATOM     23  C   UNL d   1       1.574  -3.801   2.934  0.00  0.00     0.014 A 
ATOM     24  C   UNL d   1       2.190  -3.364   4.112  0.00  0.00     0.001 A 
ATOM     25  C   UNL d   1       1.882  -2.112   4.630  0.00  0.00     0.000 A 
ATOM     26  C   UNL d   1       0.946  -1.312   3.985  0.00  0.00     0.001 A 
ATOM     27  C   UNL d   1       0.315  -1.764   2.820  0.00  0.00     0.014 A 
ENDBRANCH   4  22
BRANCH   5  28
ATOM     28  C   UNL d   1      -0.903  -6.937  -0.033  0.00  0.00     0.008 A 
ATOM     29  C   UNL d   1      -1.524  -7.622  -1.094  0.00  0.00     0.015 A 
ATOM     30  C   UNL d   1      -1.637  -9.016  -1.099  0.00  0.00     0.001 A 
ATOM     31  C   UNL d   1      -1.128  -9.758  -0.040  0.00  0.00     0.000 A 
ATOM     32  C   UNL d   1      -0.513  -9.110   1.027  0.00  0.00     0.001 A 
ATOM     33  C   UNL d   1      -0.405  -7.714   1.030  0.00  0.00     0.015 A 
ENDBRANCH   5  28
TORSDOF 4
