REMARK  2 active torsions:
REMARK  status: ('A' for Active; 'I' for Inactive)
REMARK    1  A    between atoms: N_4  and  C_1 
REMARK       I    between atoms: C_2  and  N_3 
REMARK    2  A    between atoms: C_10  and  C_2 
ROOT
ATOM      1  C   UNL d   1       0.221  -1.251   0.060  0.00  0.00     0.120 A 
ATOM      2  C   UNL d   1       1.569  -0.951   0.352  0.00  0.00     0.152 A 
ATOM      3  C   UNL d   1       2.603  -1.935   0.215  0.00  0.00     0.121 C 
ATOM      4  N   UNL d   1       3.425  -2.757   0.131  0.00  0.00    -0.190 NA
ATOM      5  N   UNL d   1      -0.704  -0.257   0.120  0.00  0.00    -0.353 N 
ATOM      6  HN  UNL d   1      -1.686  -0.431  -0.096  1.00  0.00     0.166 HD
ATOM      7  N   UNL d   1       2.005   0.287   0.727  0.00  0.00    -0.353 N 
ATOM      8  HN  UNL d   1       2.982   0.477   0.951  1.00  0.00     0.166 HD
ATOM      9  C   UNL d   1      -0.267   0.976   0.480  0.00  0.00     0.106 A 
ATOM     10  C   UNL d   1       1.055   1.240   0.781  0.00  0.00     0.106 A 
ENDROOT
BRANCH   1  11
ATOM     11  N   UNL d   1      -0.188  -2.528  -0.350  0.00  0.00    -0.264 NA
ATOM     12  C   UNL d   1      -1.462  -2.564  -1.109  0.00  0.00     0.117 C 
ATOM     13  C   UNL d   1      -1.651  -3.968  -1.727  0.00  0.00     0.141 C 
ATOM     14  N   UNL d   1      -1.547  -5.019  -0.702  0.00  0.00    -0.346 N 
ATOM     15  C   UNL d   1      -2.512  -6.021  -0.676  0.00  0.00     0.253 C 
ATOM     16  C   UNL d   1      -0.297  -4.949   0.072  0.00  0.00     0.141 C 
ATOM     17  O   UNL d   1      -3.390  -6.099  -1.536  0.00  0.00    -0.267 OA
ATOM     18  C   UNL d   1      -0.155  -3.555   0.720  0.00  0.00     0.117 C 
BRANCH  15  19
ATOM     19  C   UNL d   1      -2.544  -7.039   0.410  0.00  0.00     0.032 A 
ATOM     20  C   UNL d   1      -2.286  -6.728   1.748  0.00  0.00     0.017 A 
ATOM     21  C   UNL d   1      -2.347  -7.723   2.729  0.00  0.00     0.007 A 
ATOM     22  C   UNL d   1      -2.739  -9.025   2.398  0.00  0.00    -0.062 A 
ATOM     23  C   UNL d   1      -3.059  -9.322   1.069  0.00  0.00     0.007 A 
ATOM     24  C   UNL d   1      -2.815 -10.077   3.465  0.00  0.00     0.048 C 
ATOM     25  C   UNL d   1      -2.961  -8.336   0.083  0.00  0.00     0.017 A 
ENDBRANCH  15  19
ENDBRANCH   1  11
TORSDOF 2
