REMARK  5 active torsions:
REMARK  status: ('A' for Active; 'I' for Inactive)
REMARK    1  A    between atoms: O_10  and  C_1 
REMARK    2  A    between atoms: C_12  and  N_2 
REMARK    3  A    between atoms: O_11  and  C_4 
REMARK    4  A    between atoms: C_7  and  C_8 
REMARK    5  A    between atoms: C_13  and  C_12 
ROOT
ATOM      1  C   UNL d   1       0.856   0.113   0.064  0.00  0.00     0.102 A 
ATOM      2  C   UNL d   1       0.150   1.321  -0.046  0.00  0.00     0.099 A 
ATOM      3  C   UNL d   1       0.120  -1.089   0.081  0.00  0.00     0.052 A 
ATOM      4  C   UNL d   1      -1.243   1.325  -0.122  0.00  0.00     0.040 A 
ATOM      5  C   UNL d   1      -1.274  -1.079   0.002  0.00  0.00    -0.018 A 
ATOM      6  C   UNL d   1      -1.956   0.131  -0.091  0.00  0.00     0.015 A 
ENDROOT
BRANCH   5   7
ATOM      7  C   UNL d   1      -2.035  -2.348  -0.011  0.00  0.00     0.094 C 
ATOM      8  N   UNL d   1      -3.320  -2.328  -0.020  0.00  0.00    -0.394 N 
ATOM      9  HN  UNL d   1      -3.836  -1.449   0.024  1.00  0.00     0.159 HD
BRANCH   8  10
ATOM     10  C   UNL d   1      -4.018  -3.614  -0.096  0.00  0.00     0.157 C 
BRANCH  10  11
ATOM     11  C   UNL d   1      -4.858  -3.749  -1.350  0.00  0.00    -0.041 A 
ATOM     12  C   UNL d   1      -5.191  -5.021  -1.838  0.00  0.00     0.009 A 
ATOM     13  C   UNL d   1      -6.000  -5.163  -2.972  0.00  0.00     0.001 A 
ATOM     14  C   UNL d   1      -6.492  -4.034  -3.622  0.00  0.00     0.000 A 
ATOM     15  C   UNL d   1      -6.184  -2.764  -3.140  0.00  0.00     0.001 A 
ATOM     16  C   UNL d   1      -5.379  -2.623  -2.008  0.00  0.00     0.009 A 
ENDBRANCH  10  11
ENDBRANCH   8  10
ENDBRANCH   5   7
BRANCH   1  17
ATOM     17  O   UNL d   1       2.201  -0.111   0.143  0.00  0.00    -0.353 OA
ATOM     18  C   UNL d   1       3.118   0.966   0.098  0.00  0.00     0.210 C 
ENDBRANCH   1  17
BRANCH   2  19
ATOM     19  O   UNL d   1       0.707   2.565  -0.104  0.00  0.00    -0.358 OA
ATOM     20  H   UNL d   1       1.468   2.596   0.489  0.00  0.00     0.217 HD
ENDBRANCH   2  19
TORSDOF 5
