REMARK  9 active torsions:
REMARK  status: ('A' for Active; 'I' for Inactive)
REMARK    1  A    between atoms: S_12  and  C_3 
REMARK    2  A    between atoms: C_6  and  C_10 
REMARK    3  A    between atoms: C_13  and  C_7 
REMARK    4  A    between atoms: O_23  and  C_9 
REMARK    5  A    between atoms: C_11  and  C_21 
REMARK       I    between atoms: N_14  and  C_11 
REMARK    6  A    between atoms: C_21  and  S_12 
REMARK    7  A    between atoms: O_26  and  C_13 
REMARK    8  A    between atoms: O_27  and  C_13 
REMARK    9  A    between atoms: C_22  and  N_14 
ROOT
ATOM      1  S   UNL d   1       2.095  -2.475   1.189  0.00  0.00    -0.085 SA
ENDROOT
BRANCH   1   2
ATOM      2  C   UNL d   1       1.115  -1.160   0.526  0.00  0.00     0.146 A 
ATOM      3  N   UNL d   1       1.221  -0.870  -0.779  0.00  0.00    -0.318 N 
ATOM      4  C   UNL d   1       0.375   0.061  -1.231  0.00  0.00     0.143 A 
ATOM      5  HN  UNL d   1       1.901  -1.329  -1.386  1.00  0.00     0.170 HD
ATOM      6  C   UNL d   1      -0.533   0.741  -0.454  0.00  0.00     0.086 A 
ATOM      7  C   UNL d   1      -0.527   0.416   0.889  0.00  0.00     0.070 A 
ATOM      8  N   UNL d   1       0.281  -0.553   1.377  0.00  0.00    -0.336 N 
ATOM      9  HN  UNL d   1       0.256  -0.812   2.363  1.00  0.00     0.168 HD
BRANCH   4  10
ATOM     10  O   UNL d   1       0.489   0.317  -2.567  0.00  0.00    -0.346 OA
ATOM     11  H   UNL d   1      -0.282   0.834  -2.847  0.00  0.00     0.219 HD
ENDBRANCH   4  10
BRANCH   7  12
ATOM     12  C   UNL d   1      -1.437   1.161   1.867  0.00  0.00     0.309 C 
BRANCH  12  13
ATOM     13  O   UNL d   1      -2.630   0.381   2.003  0.00  0.00    -0.360 OA
ATOM     14  C   UNL d   1      -3.592   0.998   2.844  0.00  0.00     0.205 C 
ENDBRANCH  12  13
BRANCH  12  15
ATOM     15  O   UNL d   1      -0.816   1.366   3.140  0.00  0.00    -0.360 OA
ATOM     16  C   UNL d   1       0.299   2.245   3.091  0.00  0.00     0.205 C 
ENDBRANCH  12  15
ENDBRANCH   7  12
ENDBRANCH   1   2
BRANCH   1  17
ATOM     17  C   UNL d   1       3.504  -2.408   0.055  0.00  0.00     0.185 C 
BRANCH  17  18
ATOM     18  C   UNL d   1       4.324  -1.144   0.269  0.00  0.00     0.231 C 
ATOM     19  N   UNL d   1       4.384  -0.326  -0.851  0.00  0.00    -0.327 N 
ATOM     20  H   UNL d   1       3.687  -0.492  -1.571  0.00  0.00     0.169 HD
ATOM     21  O   UNL d   1       4.895  -0.935   1.337  0.00  0.00    -0.272 OA
BRANCH  19  22
ATOM     22  C   UNL d   1       5.269   0.756  -1.057  0.00  0.00     0.034 A 
ATOM     23  C   UNL d   1       6.298   1.091  -0.175  0.00  0.00     0.030 A 
ATOM     24  C   UNL d   1       7.179   2.140  -0.463  0.00  0.00     0.018 A 
ATOM     25  C   UNL d   1       7.051   2.876  -1.646  0.00  0.00     0.048 A 
ATOM     26  C   UNL d   1       6.013   2.547  -2.529  0.00  0.00     0.018 A 
ATOM     27  C   UNL d   1       5.131   1.497  -2.237  0.00  0.00     0.030 A 
BRANCH  25  28
ATOM     28  C   UNL d   1       8.015   3.990  -1.974  0.00  0.00     0.417 C 
ATOM     29  F   UNL d   1       8.972   4.185  -1.024  0.00  0.00    -0.166 F 
ATOM     30  F   UNL d   1       8.687   3.770  -3.138  0.00  0.00    -0.166 F 
ATOM     31  F   UNL d   1       7.392   5.192  -2.126  0.00  0.00    -0.166 F 
ENDBRANCH  25  28
ENDBRANCH  19  22
ENDBRANCH  17  18
ENDBRANCH   1  17
TORSDOF 9
