REMARK  5 active torsions:
REMARK  status: ('A' for Active; 'I' for Inactive)
REMARK       I    between atoms: N_2  and  C_1 
REMARK       I    between atoms: N_5  and  C_1 
REMARK    1  A    between atoms: C_3  and  N_2 
REMARK    2  A    between atoms: C_8  and  N_5 
REMARK    3  A    between atoms: O_9  and  C_10 
REMARK    4  A    between atoms: C_11  and  O_9 
REMARK    5  A    between atoms: C_16  and  C_11 
ROOT
ATOM      1  C   UNL d   1       1.004  -0.015   0.093  0.00  0.00     0.321 C 
ATOM      2  N   UNL d   1       2.331  -0.361   0.218  0.00  0.00    -0.334 N 
ATOM      3  N   UNL d   1       0.233  -1.073  -0.317  0.00  0.00    -0.309 N 
ATOM      4  O   UNL d   1       0.609   1.121   0.336  0.00  0.00    -0.247 OA
ATOM      5  H   UNL d   1       2.661  -1.244  -0.137  0.00  0.00     0.165 HD
ATOM      6  H   UNL d   1       0.716  -1.948  -0.445  0.00  0.00     0.170 HD
ENDROOT
BRANCH   3   7
ATOM      7  C   UNL d   1      -1.160  -1.088  -0.528  0.00  0.00     0.036 A 
ATOM      8  C   UNL d   1      -2.002   0.009  -0.329  0.00  0.00     0.032 A 
ATOM      9  C   UNL d   1      -3.385  -0.116  -0.504  0.00  0.00     0.039 A 
ATOM     10  C   UNL d   1      -3.942  -1.338  -0.873  0.00  0.00     0.069 A 
ATOM     11  C   UNL d   1      -3.100  -2.416  -1.144  0.00  0.00     0.039 A 
ATOM     12  C   UNL d   1      -1.721  -2.295  -0.957  0.00  0.00     0.032 A 
BRANCH  10  13
ATOM     13  O   UNL d   1      -5.309  -1.382  -0.932  0.00  0.00    -0.347 OA
BRANCH  13  14
ATOM     14  C   UNL d   1      -5.868  -2.688  -0.769  0.00  0.00     0.214 C 
BRANCH  14  15
ATOM     15  C   UNL d   1      -7.288  -2.590  -0.275  0.00  0.00    -0.034 A 
ATOM     16  C   UNL d   1      -8.326  -3.238  -0.957  0.00  0.00     0.009 A 
ATOM     17  C   UNL d   1      -9.627  -3.211  -0.452  0.00  0.00     0.001 A 
ATOM     18  C   UNL d   1      -9.899  -2.539   0.739  0.00  0.00     0.000 A 
ATOM     19  C   UNL d   1      -8.874  -1.891   1.425  0.00  0.00     0.001 A 
ATOM     20  C   UNL d   1      -7.574  -1.917   0.922  0.00  0.00     0.009 A 
ENDBRANCH  14  15
ENDBRANCH  13  14
ENDBRANCH  10  13
ENDBRANCH   3   7
BRANCH   2  21
ATOM     21  C   UNL d   1       3.322   0.646   0.561  0.00  0.00     0.120 C 
ATOM     22  C   UNL d   1       4.514   0.001   1.244  0.00  0.00    -0.029 A 
ATOM     23  C   UNL d   1       5.809   0.058   0.696  0.00  0.00    -0.050 A 
ATOM     24  C   UNL d   1       4.322  -0.657   2.472  0.00  0.00     0.010 A 
ATOM     25  C   UNL d   1       6.886  -0.494   1.406  0.00  0.00     0.007 A 
ATOM     26  C   UNL d   1       6.079   0.763  -0.610  0.00  0.00     0.039 C 
ATOM     27  C   UNL d   1       6.680  -1.133   2.628  0.00  0.00     0.001 A 
ATOM     28  C   UNL d   1       5.397  -1.223   3.157  0.00  0.00     0.001 A 
ATOM     29  C   UNL d   1       4.828   0.872  -1.475  0.00  0.00     0.007 C 
ATOM     30  C   UNL d   1       3.692   1.493  -0.671  0.00  0.00     0.030 C 
ENDBRANCH   2  21
TORSDOF 5
