REMARK  7 active torsions:
REMARK  status: ('A' for Active; 'I' for Inactive)
REMARK    1  A    between atoms: N_2  and  C_1 
REMARK    2  A    between atoms: N_6  and  C_1 
REMARK    3  A    between atoms: C_3  and  N_2 
REMARK    4  A    between atoms: C_12  and  N_6 
REMARK    5  A    between atoms: C_13  and  C_12 
REMARK    6  A    between atoms: C_15  and  C_13 
REMARK    7  A    between atoms: O_14  and  C_15 
ROOT
ATOM      1  C   UNL d   1       1.056  -0.025   0.020  0.00  0.00     0.168 C 
ATOM      2  S   UNL d   1       2.625   0.546   0.090  0.00  0.00    -0.041 SA
ENDROOT
BRANCH   1   3
ATOM      3  N   UNL d   1       0.525  -0.779  -0.977  0.00  0.00    -0.362 N 
ATOM      4  H   UNL d   1      -0.480  -0.769  -1.046  0.00  0.00     0.162 HD
BRANCH   3   5
ATOM      5  C   UNL d   1       1.209  -1.215  -2.193  0.00  0.00     0.092 C 
ATOM      6  C   UNL d   1       0.517  -2.404  -2.918  0.00  0.00     0.031 C 
ATOM      7  C   UNL d   1      -0.901  -2.023  -3.297  0.00  0.00    -0.024 C 
ATOM      8  C   UNL d   1       1.163  -2.286  -4.303  0.00  0.00     0.019 C 
ATOM      9  C   UNL d   1      -0.815  -1.090  -4.256  0.00  0.00    -0.026 C 
ATOM     10  C   UNL d   1       0.655  -0.858  -4.525  0.00  0.00     0.010 C 
ATOM     11  C   UNL d   1       1.251  -0.122  -3.305  0.00  0.00     0.034 C 
ENDBRANCH   3   5
ENDBRANCH   1   3
BRANCH   1  12
ATOM     12  N   UNL d   1       0.266   0.240   1.091  0.00  0.00    -0.359 N 
ATOM     13  H   UNL d   1       0.753   0.831   1.758  0.00  0.00     0.162 HD
BRANCH  12  14
ATOM     14  C   UNL d   1      -1.115  -0.136   1.469  0.00  0.00     0.027 C 
ATOM     15  C   UNL d   1      -1.325   0.311   2.934  0.00  0.00     0.038 C 
ATOM     16  C   UNL d   1      -2.131   0.639   0.610  0.00  0.00     0.038 C 
BRANCH  14  17
ATOM     17  C   UNL d   1      -1.389  -1.656   1.358  0.00  0.00     0.056 C 
BRANCH  17  18
ATOM     18  C   UNL d   1      -0.384  -2.545   2.082  0.00  0.00     0.166 C 
BRANCH  18  19
ATOM     19  O   UNL d   1      -0.758  -3.905   1.880  0.00  0.00    -0.401 OA
ATOM     20  H   UNL d   1      -0.054  -4.451   2.272  0.00  0.00     0.209 HD
ENDBRANCH  18  19
ENDBRANCH  17  18
ENDBRANCH  14  17
ENDBRANCH  12  14
ENDBRANCH   1  12
TORSDOF 7
