REMARK  2 active torsions:
REMARK  status: ('A' for Active; 'I' for Inactive)
REMARK       I    between atoms: N_3  and  C_1 
REMARK    1  A    between atoms: C_6  and  C_1 
REMARK    2  A    between atoms: C_5  and  N_4 
ROOT
ATOM      1  C   UNL d   1       0.935  -0.108   0.039  0.00  0.00     0.254 C 
ATOM      2  N   UNL d   1       0.369   0.858  -0.791  0.00  0.00    -0.345 N 
ATOM      3  N   UNL d   1      -0.201   3.160  -2.435  0.00  0.00    -0.377 N 
ATOM      4  C   UNL d   1       0.794   0.886  -2.194  0.00  0.00     0.146 C 
ATOM      5  C   UNL d   1      -0.761   1.747  -0.476  0.00  0.00     0.146 C 
ATOM      6  C   UNL d   1       0.952   2.304  -2.765  0.00  0.00     0.143 C 
ATOM      7  C   UNL d   1      -0.549   3.178  -1.005  0.00  0.00     0.143 C 
ATOM      8  O   UNL d   1       1.964  -0.712  -0.260  0.00  0.00    -0.267 OA
ENDROOT
BRANCH   3   9
ATOM      9  C   UNL d   1      -0.923   3.884  -3.380  0.00  0.00     0.044 A 
ATOM     10  C   UNL d   1      -0.344   4.522  -4.525  0.00  0.00     0.017 A 
ATOM     11  C   UNL d   1      -1.224   5.134  -5.462  0.00  0.00     0.046 A 
ATOM     12  C   UNL d   1       1.044   4.627  -4.793  0.00  0.00     0.018 A 
ATOM     13  C   UNL d   1      -0.717   5.706  -6.618  0.00  0.00     0.054 A 
ATOM     14  N   UNL d   1      -2.546   5.201  -5.293  0.00  0.00    -0.365 N 
ATOM     15  C   UNL d   1       0.645   5.715  -6.889  0.00  0.00     0.036 A 
ATOM     16  C   UNL d   1       1.537   5.188  -5.971  0.00  0.00     0.025 A 
ATOM     17 CL   UNL d   1       1.230   6.401  -8.353  0.00  0.00    -0.084 Cl
ATOM     18  C   UNL d   1      -3.067   4.646  -4.190  0.00  0.00     0.090 A 
ATOM     19  HN  UNL d   1      -3.142   5.661  -5.982  1.00  0.00     0.165 HD
ATOM     20  C   UNL d   1      -2.314   3.981  -3.239  0.00  0.00     0.047 A 
ENDBRANCH   3   9
BRANCH   1  21
ATOM     21  C   UNL d   1       0.305  -0.457   1.339  0.00  0.00     0.035 A 
ATOM     22  C   UNL d   1      -1.081  -0.602   1.464  0.00  0.00     0.056 A 
ATOM     23  C   UNL d   1      -1.583  -0.929   2.702  0.00  0.00     0.106 A 
ATOM     24  O   UNL d   1      -2.901  -1.049   3.010  0.00  0.00    -0.323 OA
ATOM     25  C   UNL d   1      -0.764  -1.177   3.780  0.00  0.00     0.105 A 
ATOM     26  C   UNL d   1      -2.820  -1.427   4.401  0.00  0.00     0.352 A 
ATOM     27  O   UNL d   1      -1.467  -1.497   4.897  0.00  0.00    -0.323 OA
ATOM     28  C   UNL d   1       0.608  -1.109   3.677  0.00  0.00     0.041 A 
ATOM     29  C   UNL d   1       1.148  -0.741   2.439  0.00  0.00     0.020 A 
ENDBRANCH   1  21
TORSDOF 2
