REMARK  5 active torsions:
REMARK  status: ('A' for Active; 'I' for Inactive)
REMARK    1  A    between atoms: C_6  and  C_1 
REMARK    2  A    between atoms: N_5  and  C_4 
REMARK       I    between atoms: N_10  and  C_6 
REMARK    3  A    between atoms: C_9  and  S_11 
REMARK    4  A    between atoms: C_13  and  N_10 
REMARK    5  A    between atoms: S_11  and  C_14 
ROOT
ATOM      1  C   UNL d   1       4.004  -2.569  -0.287  0.00  0.00     0.052 A 
ATOM      2  C   UNL d   1       4.484  -3.534   0.623  0.00  0.00     0.032 A 
ATOM      3  C   UNL d   1       2.900  -2.850  -1.097  0.00  0.00     0.031 A 
ATOM      4  C   UNL d   1       3.806  -4.759   0.719  0.00  0.00     0.021 A 
ATOM      5  C   UNL d   1       2.719  -5.043  -0.110  0.00  0.00     0.002 A 
ATOM      6  C   UNL d   1       2.275  -4.095  -1.025  0.00  0.00     0.002 A 
ENDROOT
BRANCH   1   7
ATOM      7  N   UNL d   1       4.517  -1.261  -0.314  0.00  0.00    -0.321 N 
ATOM      8  C   UNL d   1       5.614  -0.917  -1.098  0.00  0.00     0.264 C 
ATOM      9  O   UNL d   1       6.240  -1.760  -1.740  0.00  0.00    -0.267 OA
ATOM     10  H   UNL d   1       3.840  -0.511  -0.229  0.00  0.00     0.169 HD
BRANCH   8  11
ATOM     11  C   UNL d   1       5.949   0.508  -1.082  0.00  0.00     0.096 C 
ATOM     12  S   UNL d   1       5.049   1.611  -0.124  0.00  0.00    -0.082 SA
ATOM     13  C   UNL d   1       6.180   2.879  -0.350  0.00  0.00     0.017 A 
ATOM     14  C   UNL d   1       6.158   4.148   0.264  0.00  0.00     0.020 A 
ATOM     15  C   UNL d   1       7.187   2.509  -1.243  0.00  0.00     0.004 A 
ATOM     16  C   UNL d   1       7.195   5.044   0.004  0.00  0.00     0.001 A 
ATOM     17  C   UNL d   1       8.217   4.702  -0.868  0.00  0.00     0.001 A 
ATOM     18  C   UNL d   1       8.212   3.457  -1.505  0.00  0.00     0.014 A 
ATOM     19  C   UNL d   1       6.989   1.159  -1.719  0.00  0.00     0.068 C 
ATOM     20 CL   UNL d   1       8.047   0.460  -2.883  0.00  0.00    -0.082 Cl
ENDBRANCH   8  11
ENDBRANCH   1   7
BRANCH   2  21
ATOM     21  S   UNL d   1       5.814  -3.224   1.788  0.00  0.00    -0.086 SA
BRANCH  21  22
ATOM     22  C   UNL d   1       7.252  -3.806   0.893  0.00  0.00     0.038 A 
ATOM     23  C   UNL d   1       8.428  -3.053   0.730  0.00  0.00     0.121 A 
ATOM     24  C   UNL d   1       9.546  -3.547   0.041  0.00  0.00     0.061 A 
ATOM     25  C   UNL d   1       9.503  -4.835  -0.481  0.00  0.00     0.036 A 
ATOM     26  C   UNL d   1       8.371  -5.624  -0.300  0.00  0.00     0.025 A 
ATOM     27 CL   UNL d   1      10.862  -5.465  -1.321  0.00  0.00    -0.084 Cl
ATOM     28  C   UNL d   1       7.262  -5.116   0.383  0.00  0.00     0.023 A 
BRANCH  23  29
ATOM     29  N   UNL d   1       8.572  -1.757   1.359  0.00  0.00    -0.114 N 
ATOM     30  O   UNL d   1       7.872  -0.826   0.952  0.00  0.00    -0.532 OA
ATOM     31  O   UNL d   1       9.451  -1.669   2.237  0.00  0.00    -0.532 OA
ENDBRANCH  23  29
ENDBRANCH  21  22
ENDBRANCH   2  21
TORSDOF 5
