REMARK  2 active torsions:
REMARK  status: ('A' for Active; 'I' for Inactive)
REMARK    1  A    between atoms: N_2  and  C_1 
REMARK    2  A    between atoms: C_6  and  C_9 
REMARK       I    between atoms: N_15  and  C_6 
ROOT
ATOM      1  C   UNL d   1      -0.266  -1.262   0.009  0.00  0.00     0.124 A 
ATOM      2  C   UNL d   1      -1.097  -0.541   0.884  0.00  0.00     0.088 A 
ATOM      3  C   UNL d   1      -1.443  -1.020   2.191  0.00  0.00     0.103 C 
ATOM      4  N   UNL d   1      -1.726  -1.358   3.264  0.00  0.00    -0.191 NA
ATOM      5  N   UNL d   1      -0.021  -0.789  -1.242  0.00  0.00    -0.351 N 
ATOM      6  HN  UNL d   1       0.591  -1.303  -1.876  1.00  0.00     0.166 HD
ATOM      7  C   UNL d   1      -1.679   0.658   0.448  0.00  0.00     0.028 A 
ATOM      8  C   UNL d   1      -0.596   0.369  -1.636  0.00  0.00     0.090 A 
ATOM      9  C   UNL d   1      -1.433   1.119  -0.837  0.00  0.00     0.019 A 
ENDROOT
BRANCH   1  10
ATOM     10  N   UNL d   1       0.218  -2.533   0.330  0.00  0.00    -0.366 N 
ATOM     11  C   UNL d   1       0.609  -3.364  -0.814  0.00  0.00     0.125 C 
ATOM     12  C   UNL d   1       0.517  -4.828  -0.377  0.00  0.00     0.034 C 
ATOM     13  C   UNL d   1       1.345  -5.114   0.887  0.00  0.00     0.081 C 
ATOM     14  C   UNL d   1       1.073  -4.069   1.985  0.00  0.00     0.034 C 
ATOM     15  C   UNL d   1       1.168  -2.638   1.446  0.00  0.00     0.125 C 
BRANCH  13  16
ATOM     16  C   UNL d   1       2.834  -5.210   0.579  0.00  0.00     0.219 C 
ATOM     17  O   UNL d   1       3.698  -4.517   1.103  0.00  0.00    -0.273 OA
ATOM     18  N   UNL d   1       3.181  -6.171  -0.325  0.00  0.00    -0.370 N 
ATOM     19  H   UNL d   1       2.544  -6.897  -0.621  0.00  0.00     0.159 HD
ATOM     20  H   UNL d   1       4.171  -6.306  -0.487  0.00  0.00     0.159 HD
ENDBRANCH  13  16
ENDBRANCH   1  10
TORSDOF 2
