REMARK  3 active torsions:
REMARK  status: ('A' for Active; 'I' for Inactive)
REMARK    1  A    between atoms: C_9  and  C_3 
REMARK    2  A    between atoms: C_15  and  C_8 
REMARK    3  A    between atoms: C_18  and  C_10 
ROOT
ATOM      1  N   UNL d   1      -1.471   1.298  -0.048  0.00  0.00    -0.334 N 
ATOM      2  HN  UNL d   1      -1.783   2.269  -0.072  1.00  0.00     0.168 HD
ATOM      3  C   UNL d   1      -2.212   0.203  -0.015  0.00  0.00     0.159 A 
ATOM      4  O   UNL d   1      -1.496  -0.967   0.036  0.00  0.00    -0.291 OA
ATOM      5  C   UNL d   1      -0.198  -0.560   0.015  0.00  0.00     0.105 A 
ATOM      6  C   UNL d   1      -0.186   0.821  -0.042  0.00  0.00     0.068 A 
ATOM      7  C   UNL d   1       0.934  -1.366   0.041  0.00  0.00     0.052 A 
ATOM      8  C   UNL d   1       2.187  -0.718  -0.008  0.00  0.00    -0.023 A 
ATOM      9  C   UNL d   1       1.043   1.480  -0.089  0.00  0.00     0.033 A 
ATOM     10  C   UNL d   1       2.212   0.695  -0.082  0.00  0.00     0.014 A 
ENDROOT
BRANCH   3  11
ATOM     11  C   UNL d   1      -3.665   0.075  -0.055  0.00  0.00     0.015 A 
ATOM     12  C   UNL d   1      -4.465   1.221  -0.062  0.00  0.00     0.016 A 
ATOM     13  C   UNL d   1      -5.861   1.122  -0.129  0.00  0.00     0.013 A 
ATOM     14  C   UNL d   1      -6.509  -0.123  -0.209  0.00  0.00    -0.026 A 
ATOM     15  C   UNL d   1      -5.692  -1.268  -0.196  0.00  0.00     0.013 A 
ATOM     16  C   UNL d   1      -4.297  -1.173  -0.112  0.00  0.00     0.016 A 
BRANCH  14  17
ATOM     17  C   UNL d   1      -7.985  -0.227  -0.308  0.00  0.00    -0.026 A 
ATOM     18  C   UNL d   1      -8.688  -1.303   0.265  0.00  0.00     0.012 A 
ATOM     19  C   UNL d   1     -10.080  -1.406   0.163  0.00  0.00     0.001 A 
ATOM     20  C   UNL d   1     -10.806  -0.425  -0.505  0.00  0.00     0.000 A 
ATOM     21  C   UNL d   1     -10.139   0.653  -1.077  0.00  0.00     0.001 A 
ATOM     22  C   UNL d   1      -8.746   0.746  -0.985  0.00  0.00     0.012 A 
ENDBRANCH  14  17
ENDBRANCH   3  11
BRANCH   8  23
ATOM     23  C   UNL d   1       3.443  -1.508   0.031  0.00  0.00    -0.026 A 
ATOM     24  C   UNL d   1       4.588  -1.028   0.694  0.00  0.00     0.012 A 
ATOM     25  C   UNL d   1       5.767  -1.778   0.751  0.00  0.00     0.001 A 
ATOM     26  C   UNL d   1       5.825  -3.034   0.158  0.00  0.00     0.000 A 
ATOM     27  C   UNL d   1       4.709  -3.535  -0.503  0.00  0.00     0.001 A 
ATOM     28  C   UNL d   1       3.536  -2.777  -0.572  0.00  0.00     0.012 A 
ENDBRANCH   8  23
TORSDOF 3
