REMARK  4 active torsions:
REMARK  status: ('A' for Active; 'I' for Inactive)
REMARK    1  A    between atoms: S_2  and  N_1 
REMARK    2  A    between atoms: S_3  and  N_1 
REMARK    3  A    between atoms: C_4  and  N_1 
REMARK    4  A    between atoms: N_5  and  C_7 
ROOT
ATOM      1  C   UNL d   1       2.316   0.052  -0.065  0.00  0.00     0.070 A 
ATOM      2  C   UNL d   1       3.006  -1.168  -0.063  0.00  0.00     0.068 A 
ATOM      3  C   UNL d   1       4.409  -1.176  -0.097  0.00  0.00     0.105 A 
ATOM      4  C   UNL d   1       3.034   1.266  -0.106  0.00  0.00    -0.033 A 
ATOM      5  C   UNL d   1       5.130   0.021  -0.131  0.00  0.00     0.037 A 
ATOM      6  C   UNL d   1       4.441   1.232  -0.139  0.00  0.00     0.011 A 
ATOM      7  C   UNL d   1       2.389   2.624  -0.099  0.00  0.00     0.050 C 
ENDROOT
BRANCH   1   8
ATOM      8  N   UNL d   1       0.883   0.033   0.020  0.00  0.00    -0.166 N 
BRANCH   8   9
ATOM      9  S   UNL d   1       0.004  -0.056  -1.388  0.00  0.00     0.242 S 
ATOM     10  O   UNL d   1      -0.866   1.103  -1.439  0.00  0.00    -0.205 OA
ATOM     11  O   UNL d   1       0.897  -0.332  -2.498  0.00  0.00    -0.205 OA
ATOM     12  C   UNL d   1      -1.044  -1.493  -1.213  0.00  0.00     0.187 C 
ENDBRANCH   8   9
BRANCH   8  13
ATOM     13  S   UNL d   1       0.211  -0.095   1.536  0.00  0.00     0.242 S 
ATOM     14  O   UNL d   1      -0.429  -1.390   1.640  0.00  0.00    -0.205 OA
ATOM     15  O   UNL d   1       1.191   0.300   2.531  0.00  0.00    -0.205 OA
ATOM     16  C   UNL d   1      -1.062   1.153   1.562  0.00  0.00     0.187 C 
ENDBRANCH   8  13
ENDBRANCH   1   8
BRANCH   3  17
ATOM     17  N   UNL d   1       5.133  -2.452  -0.084  0.00  0.00    -0.116 N 
ATOM     18  O   UNL d   1       4.460  -3.494  -0.076  0.00  0.00    -0.532 OA
ATOM     19  O   UNL d   1       6.370  -2.413  -0.075  0.00  0.00    -0.532 OA
ENDBRANCH   3  17
TORSDOF 4
