REMARK  3 active torsions:
REMARK  status: ('A' for Active; 'I' for Inactive)
REMARK    1  A    between atoms: C_6  and  C_1 
REMARK    2  A    between atoms: N_17  and  C_2 
REMARK       I    between atoms: N_10  and  C_6 
REMARK    3  A    between atoms: C_14  and  N_10 
ROOT
ATOM      1  C   UNL d   1       2.450   0.085   0.290  0.00  0.00     0.102 A 
ATOM      2  C   UNL d   1       1.590   1.167   0.158  0.00  0.00     0.062 A 
ATOM      3  C   UNL d   1       0.191   0.800   0.140  0.00  0.00     0.032 A 
ATOM      4  S   UNL d   1       1.582  -1.377   0.426  0.00  0.00    -0.064 SA
ATOM      5  C   UNL d   1       0.086  -0.586   0.261  0.00  0.00     0.088 A 
ATOM      6  N   UNL d   1      -1.038  -1.331   0.255  0.00  0.00    -0.354 N 
ATOM      7  HN  UNL d   1      -1.024  -2.346   0.353  1.00  0.00     0.166 HD
ATOM      8  C   UNL d   1      -1.040   1.513   0.029  0.00  0.00    -0.045 A 
ATOM      9  C   UNL d   1      -2.223   0.749   0.009  0.00  0.00     0.032 A 
ATOM     10  C   UNL d   1      -2.177  -0.634   0.111  0.00  0.00     0.006 A 
ATOM     11  C   UNL d   1      -1.215   3.005  -0.074  0.00  0.00     0.049 C 
ATOM     12  C   UNL d   1      -3.454  -1.421   0.064  0.00  0.00     0.068 C 
ENDROOT
BRANCH   1  13
ATOM     13  C   UNL d   1       3.917   0.114   0.289  0.00  0.00     0.265 C 
ATOM     14  N   UNL d   1       4.541  -1.125   0.245  0.00  0.00    -0.322 N 
ATOM     15  H   UNL d   1       3.918  -1.924   0.203  0.00  0.00     0.169 HD
ATOM     16  O   UNL d   1       4.529   1.181   0.274  0.00  0.00    -0.267 OA
BRANCH  14  17
ATOM     17  C   UNL d   1       5.924  -1.384   0.113  0.00  0.00     0.036 A 
ATOM     18  C   UNL d   1       6.915  -0.402   0.186  0.00  0.00     0.055 A 
ATOM     19  C   UNL d   1       8.263  -0.725  -0.019  0.00  0.00     0.058 A 
ATOM     20 CL   UNL d   1       9.421   0.557   0.075  0.00  0.00    -0.082 Cl
ATOM     21  C   UNL d   1       8.632  -2.044  -0.293  0.00  0.00     0.055 A 
ATOM     22  C   UNL d   1       7.651  -3.036  -0.338  0.00  0.00     0.028 A 
ATOM     23 CL   UNL d   1      10.268  -2.510  -0.590  0.00  0.00    -0.083 Cl
ATOM     24  C   UNL d   1       6.307  -2.709  -0.129  0.00  0.00     0.031 A 
ENDBRANCH  14  17
ENDBRANCH   1  13
BRANCH   2  25
ATOM     25  N   UNL d   1       2.068   2.427   0.035  0.00  0.00    -0.397 N 
ATOM     26  H   UNL d   1       3.080   2.580  -0.028  0.00  0.00     0.156 HD
ATOM     27  H   UNL d   1       1.540   3.199  -0.348  0.00  0.00     0.156 HD
ENDBRANCH   2  25
TORSDOF 3
