REMARK  4 active torsions:
REMARK  status: ('A' for Active; 'I' for Inactive)
REMARK    1  A    between atoms: C_6  and  C_1 
REMARK    2  A    between atoms: N_11  and  C_3 
REMARK       I    between atoms: N_10  and  C_6 
REMARK    3  A    between atoms: N_8  and  N_10 
REMARK    4  A    between atoms: C_15  and  C_14 
ROOT
ATOM      1  C   UNL d   1      -0.443  -2.692  -0.025  0.00  0.00     0.280 C 
ATOM      2  N   UNL d   1      -1.702  -3.273   0.014  0.00  0.00    -0.266 N 
ATOM      3  O   UNL d   1      -0.244  -1.482  -0.147  0.00  0.00    -0.265 OA
ATOM      4  H   UNL d   1      -1.815  -4.279   0.095  0.00  0.00     0.190 HD
ENDROOT
BRANCH   1   5
ATOM      5  C   UNL d   1       0.711  -3.631   0.064  0.00  0.00     0.115 A 
ATOM      6  C   UNL d   1       2.003  -3.236   0.098  0.00  0.00     0.104 A 
ATOM      7  N   UNL d   1       2.880  -4.319   0.110  0.00  0.00    -0.326 N 
ATOM      8  C   UNL d   1       4.327  -4.154   0.152  0.00  0.00     0.159 C 
ATOM      9  C   UNL d   1       2.270  -5.576   0.128  0.00  0.00     0.146 A 
ATOM     10  S   UNL d   1       0.516  -5.348   0.074  0.00  0.00    -0.051 SA
ATOM     11  S   UNL d   1       2.990  -7.077   0.190  0.00  0.00    -0.052 SA
BRANCH   6  12
ATOM     12  N   UNL d   1       2.432  -1.926   0.127  0.00  0.00    -0.287 NA
ATOM     13  H   UNL d   1       3.193  -1.739  -0.516  0.00  0.00     0.125 HD
ATOM     14  H   UNL d   1       1.653  -1.273  -0.042  0.00  0.00     0.125 HD
ENDBRANCH   6  12
ENDBRANCH   1   5
BRANCH   2  15
ATOM     15  N   UNL d   1      -2.788  -2.458  -0.072  0.00  0.00    -0.308 N 
ATOM     16  C   UNL d   1      -3.961  -3.002  -0.061  0.00  0.00     0.118 C 
ATOM     17  HN  UNL d   1      -2.680  -1.447  -0.144  1.00  0.00     0.186 HD
BRANCH  16  18
ATOM     18  C   UNL d   1      -5.172  -2.154  -0.150  0.00  0.00    -0.019 A 
ATOM     19  C   UNL d   1      -5.049  -0.761  -0.222  0.00  0.00     0.013 A 
ATOM     20  C   UNL d   1      -6.188   0.040  -0.308  0.00  0.00     0.001 A 
ATOM     21  C   UNL d   1      -7.451  -0.549  -0.324  0.00  0.00     0.000 A 
ATOM     22  C   UNL d   1      -7.577  -1.938  -0.251  0.00  0.00     0.001 A 
ATOM     23  C   UNL d   1      -6.438  -2.745  -0.163  0.00  0.00     0.013 A 
ENDBRANCH  16  18
ENDBRANCH   2  15
TORSDOF 4
