REMARK  5 active torsions:
REMARK  status: ('A' for Active; 'I' for Inactive)
REMARK    1  A    between atoms: O_12  and  C_2 
REMARK    2  A    between atoms: C_11  and  C_14 
REMARK    3  A    between atoms: C_13  and  C_11 
REMARK    4  A    between atoms: C_14  and  O_12 
REMARK    5  A    between atoms: O_24  and  C_20 
ROOT
ATOM      1  C   UNL d   1      -0.030   0.750  -0.137  0.00  0.00     0.042 A 
ATOM      2  C   UNL d   1       1.190   1.424  -0.081  0.00  0.00     0.156 A 
ATOM      3  C   UNL d   1       0.069  -0.644  -0.195  0.00  0.00     0.049 A 
ATOM      4  N   UNL d   1       2.392   0.821  -0.085  0.00  0.00    -0.332 N 
ATOM      5  HN  UNL d   1       3.267   1.342  -0.034  1.00  0.00     0.168 HD
ATOM      6  N   UNL d   1       1.248  -1.277  -0.206  0.00  0.00    -0.351 N 
ATOM      7  HN  UNL d   1       1.305  -2.294  -0.246  1.00  0.00     0.166 HD
ATOM      8  C   UNL d   1      -1.296   1.381  -0.145  0.00  0.00     0.020 A 
ATOM      9  C   UNL d   1      -1.107  -1.385  -0.243  0.00  0.00     0.054 A 
ATOM     10  C   UNL d   1       2.353  -0.515  -0.162  0.00  0.00     0.182 A 
ATOM     11  C   UNL d   1      -2.357  -0.763  -0.255  0.00  0.00     0.036 A 
ATOM     12  C   UNL d   1      -2.459   0.621  -0.208  0.00  0.00     0.025 A 
ATOM     13 CL   UNL d   1      -3.786  -1.718  -0.335  0.00  0.00    -0.084 Cl
ENDROOT
BRANCH   2  14
ATOM     14  O   UNL d   1       1.133   2.803   0.016  0.00  0.00    -0.327 OA
BRANCH  14  15
ATOM     15  C   UNL d   1       2.401   3.441  -0.026  0.00  0.00     0.261 C 
BRANCH  15  16
ATOM     16  C   UNL d   1       2.164   4.940   0.047  0.00  0.00     0.183 C 
ATOM     17  O   UNL d   1       2.085   5.642  -0.960  0.00  0.00    -0.290 OA
BRANCH  16  18
ATOM     18  C   UNL d   1       2.068   5.576   1.390  0.00  0.00     0.012 A 
ATOM     19  C   UNL d   1       2.482   6.904   1.535  0.00  0.00     0.018 A 
ATOM     20  C   UNL d   1       2.492   7.497   2.800  0.00  0.00     0.037 A 
ATOM     21  C   UNL d   1       2.075   6.782   3.926  0.00  0.00     0.068 A 
ATOM     22  C   UNL d   1       1.604   5.478   3.770  0.00  0.00     0.037 A 
ATOM     23  C   UNL d   1       1.604   4.873   2.507  0.00  0.00     0.018 A 
BRANCH  21  24
ATOM     24  O   UNL d   1       2.178   7.459   5.109  0.00  0.00    -0.356 OA
ATOM     25  C   UNL d   1       1.870   6.732   6.293  0.00  0.00     0.210 C 
ENDBRANCH  21  24
ENDBRANCH  16  18
ENDBRANCH  15  16
ENDBRANCH  14  15
ENDBRANCH   2  14
TORSDOF 5
