REMARK  5 active torsions:
REMARK  status: ('A' for Active; 'I' for Inactive)
REMARK    1  A    between atoms: C_8  and  N_1 
REMARK    2  A    between atoms: S_12  and  C_5 
REMARK    3  A    between atoms: C_20  and  S_12 
REMARK    4  A    between atoms: C_13  and  C_20 
REMARK    5  A    between atoms: C_15  and  C_13 
ROOT
ATOM      1  N   UNL d   1      -0.302  -1.317   0.066  0.00  0.00    -0.273 N 
ATOM      2  C   UNL d   1       0.947  -0.694   0.043  0.00  0.00     0.163 A 
ATOM      3  N   UNL d   1       0.795   0.617   0.035  0.00  0.00    -0.281 N 
ATOM      4  HN  UNL d   1       1.548   1.305   0.039  1.00  0.00     0.188 HD
ATOM      5  C   UNL d   1      -1.194  -0.245   0.057  0.00  0.00     0.168 A 
ATOM      6  N   UNL d   1      -0.544   0.896   0.023  0.00  0.00    -0.278 N 
ATOM      7  HN  UNL d   1      -0.964   1.826  -0.008  1.00  0.00     0.189 HD
ATOM      8  C   UNL d   1       2.234  -1.321  -0.036  0.00  0.00     0.120 A 
ATOM      9  O   UNL d   1       2.471  -2.495  -0.709  0.00  0.00    -0.319 OA
ATOM     10  C   UNL d   1       3.429  -0.896   0.525  0.00  0.00     0.043 A 
ATOM     11  C   UNL d   1       3.773  -2.829  -0.527  0.00  0.00     0.142 A 
ATOM     12  C   UNL d   1       4.408  -1.878   0.232  0.00  0.00     0.027 A 
ENDROOT
BRANCH   5  13
ATOM     13  S   UNL d   1      -2.905  -0.367   0.319  0.00  0.00    -0.084 SA
BRANCH  13  14
ATOM     14  C   UNL d   1      -3.480   1.354   0.110  0.00  0.00     0.166 C 
BRANCH  14  15
ATOM     15  C   UNL d   1      -4.981   1.449   0.384  0.00  0.00     0.169 C 
ATOM     16  O   UNL d   1      -5.678   0.480   0.684  0.00  0.00    -0.291 OA
BRANCH  15  17
ATOM     17  C   UNL d   1      -5.665   2.779   0.287  0.00  0.00     0.013 A 
ATOM     18  C   UNL d   1      -5.006   3.954  -0.080  0.00  0.00     0.057 A 
ATOM     19  C   UNL d   1      -5.726   5.149  -0.146  0.00  0.00     0.117 A 
ATOM     20  F   UNL d   1      -5.092   6.275  -0.501  0.00  0.00    -0.206 F 
ATOM     21  C   UNL d   1      -7.085   5.200   0.146  0.00  0.00     0.042 A 
ATOM     22  C   UNL d   1      -7.753   4.034   0.512  0.00  0.00     0.004 A 
ATOM     23  C   UNL d   1      -7.042   2.832   0.581  0.00  0.00     0.015 A 
ENDBRANCH  15  17
ENDBRANCH  14  15
ENDBRANCH  13  14
ENDBRANCH   5  13
BRANCH   1  24
ATOM     24  C   UNL d   1      -0.577  -2.720   0.123  0.00  0.00     0.046 A 
ATOM     25  C   UNL d   1      -1.667  -3.268  -0.567  0.00  0.00     0.069 A 
ATOM     26  C   UNL d   1      -1.892  -4.647  -0.541  0.00  0.00     0.104 A 
ATOM     27  O   UNL d   1      -2.990  -5.104  -1.225  0.00  0.00    -0.346 OA
ATOM     28  C   UNL d   1      -1.012  -5.496   0.135  0.00  0.00     0.102 A 
ATOM     29  C   UNL d   1      -3.314  -6.447  -0.844  0.00  0.00     0.202 C 
ATOM     30  C   UNL d   1      -2.065  -7.312  -0.845  0.00  0.00     0.202 C 
ATOM     31  O   UNL d   1      -1.140  -6.861   0.151  0.00  0.00    -0.346 OA
ATOM     32  C   UNL d   1       0.055  -4.960   0.845  0.00  0.00     0.042 A 
ATOM     33  C   UNL d   1       0.265  -3.578   0.851  0.00  0.00     0.033 A 
ENDBRANCH   1  24
TORSDOF 5
