REMARK  3 active torsions:
REMARK  status: ('A' for Active; 'I' for Inactive)
REMARK    1  A    between atoms: C_3  and  C_1 
REMARK    2  A    between atoms: N_2  and  C_4 
REMARK    3  A    between atoms: C_7  and  C_9 
REMARK       I    between atoms: N_20  and  C_7 
ROOT
ATOM      1  N   UNL d   1      -0.475  -4.147   3.708  0.00  0.00    -0.367 N 
ATOM      2  C   UNL d   1      -0.763  -5.135   6.394  0.00  0.00     0.081 C 
ATOM      3  C   UNL d   1       0.626  -4.928   4.268  0.00  0.00     0.125 C 
ATOM      4  C   UNL d   1      -1.813  -4.456   4.184  0.00  0.00     0.125 C 
ATOM      5  C   UNL d   1      -1.849  -4.297   5.705  0.00  0.00     0.034 C 
ATOM      6  C   UNL d   1       0.616  -4.822   5.794  0.00  0.00     0.034 C 
ENDROOT
BRANCH   1   7
ATOM      7  C   UNL d   1      -0.209  -3.204   2.742  0.00  0.00     0.102 A 
ATOM      8  C   UNL d   1      -1.146  -2.855   1.770  0.00  0.00     0.049 A 
ATOM      9  C   UNL d   1      -0.841  -1.893   0.805  0.00  0.00     0.021 A 
ATOM     10  C   UNL d   1       0.407  -1.276   0.817  0.00  0.00     0.063 A 
ATOM     11  C   UNL d   1       1.284  -1.665   1.811  0.00  0.00     0.106 A 
ATOM     12  N   UNL d   1       1.003  -2.604   2.747  0.00  0.00    -0.352 N 
ATOM     13  HN  UNL d   1       1.699  -2.856   3.448  1.00  0.00     0.166 HD
BRANCH  10  14
ATOM     14  C   UNL d   1       0.791  -0.259  -0.207  0.00  0.00     0.418 C 
ATOM     15  F   UNL d   1       2.047   0.240  -0.044  0.00  0.00    -0.166 F 
ATOM     16  F   UNL d   1      -0.041   0.820  -0.209  0.00  0.00    -0.166 F 
ATOM     17  F   UNL d   1       0.751  -0.757  -1.474  0.00  0.00    -0.166 F 
ENDBRANCH  10  14
ENDBRANCH   1   7
BRANCH   2  18
ATOM     18  C   UNL d   1      -1.082  -6.625   6.338  0.00  0.00     0.219 C 
ATOM     19  O   UNL d   1      -0.351  -7.477   5.844  0.00  0.00    -0.273 OA
ATOM     20  N   UNL d   1      -2.265  -6.990   6.909  0.00  0.00    -0.370 N 
ATOM     21  H   UNL d   1      -2.760  -6.385   7.550  0.00  0.00     0.159 HD
ATOM     22  H   UNL d   1      -2.452  -7.984   6.960  0.00  0.00     0.159 HD
ENDBRANCH   2  18
TORSDOF 3
