REMARK  5 active torsions:
REMARK  status: ('A' for Active; 'I' for Inactive)
REMARK    1  A    between atoms: C_6  and  C_2 
REMARK    2  A    between atoms: C_9  and  C_6 
REMARK    3  A    between atoms: C_11  and  C_9 
REMARK    4  A    between atoms: N_10  and  C_11 
REMARK    5  A    between atoms: C_12  and  N_10 
ROOT
ATOM      1  C   UNL d   1      -4.669   0.370  -0.011  0.00  0.00     0.104 C 
ENDROOT
BRANCH   1   2
ATOM      2  C   UNL d   1      -3.506  -0.575   0.249  0.00  0.00     0.168 C 
ATOM      3  O   UNL d   1      -3.716  -1.765   0.489  0.00  0.00    -0.292 OA
BRANCH   2   4
ATOM      4  C   UNL d   1      -2.170   0.009   0.203  0.00  0.00     0.052 A 
ATOM      5  S   UNL d   1      -0.805  -1.001   0.490  0.00  0.00    -0.074 SA
ATOM      6  C   UNL d   1       0.267   0.288   0.293  0.00  0.00     0.075 A 
ATOM      7  C   UNL d   1      -0.356   1.477   0.011  0.00  0.00     0.033 A 
ATOM      8 CL   UNL d   1       1.956   0.030   0.452  0.00  0.00    -0.076 Cl
ATOM      9  C   UNL d   1      -1.774   1.315  -0.044  0.00  0.00     0.025 A 
ENDBRANCH   2   4
ENDBRANCH   1   2
BRANCH   1  10
ATOM     10  C   UNL d   1      -6.004  -0.363   0.081  0.00  0.00     0.127 C 
BRANCH  10  11
ATOM     11  N   UNL d   1      -7.097   0.556  -0.230  0.00  0.00    -0.390 N 
ATOM     12  H   UNL d   1      -7.002   1.486   0.173  0.00  0.00     0.159 HD
BRANCH  11  13
ATOM     13  C   UNL d   1      -8.424   0.116  -0.159  0.00  0.00     0.027 A 
ATOM     14  C   UNL d   1      -8.800  -1.215   0.058  0.00  0.00     0.029 A 
ATOM     15  C   UNL d   1     -10.146  -1.599   0.045  0.00  0.00     0.002 A 
ATOM     16  C   UNL d   1     -11.140  -0.662  -0.220  0.00  0.00     0.000 A 
ATOM     17  C   UNL d   1     -10.786   0.660  -0.469  0.00  0.00     0.002 A 
ATOM     18  C   UNL d   1      -9.441   1.040  -0.441  0.00  0.00     0.029 A 
ENDBRANCH  11  13
ENDBRANCH  10  11
ENDBRANCH   1  10
TORSDOF 5
