REMARK  2 active torsions:
REMARK  status: ('A' for Active; 'I' for Inactive)
REMARK    1  A    between atoms: C_2  and  S_1 
REMARK    2  A    between atoms: N_8  and  S_1 
ROOT
ATOM      1  C   UNL d   1       0.302  -1.581  -0.263  0.00  0.00     0.096 A 
ATOM      2  C   UNL d   1      -0.732  -1.839  -1.172  0.00  0.00     0.031 A 
ATOM      3  C   UNL d   1       0.936  -2.655   0.391  0.00  0.00     0.028 A 
ATOM      4  C   UNL d   1      -1.098  -3.170  -1.438  0.00  0.00     0.038 A 
ATOM      5  C   UNL d   1      -0.449  -4.224  -0.796  0.00  0.00     0.012 A 
ATOM      6  I   UNL d   1      -1.841  -0.391  -2.216  0.00  0.00    -0.043 I 
ATOM      7  C   UNL d   1       0.561  -3.973   0.125  0.00  0.00     0.020 A 
ATOM      8 BR   UNL d   1      -0.946  -6.008  -1.178  0.00  0.00    -0.051 Br
ENDROOT
BRANCH   1   9
ATOM      9  S   UNL d   1       0.852   0.053   0.170  0.00  0.00     0.259 S 
ATOM     10  O   UNL d   1       2.002  -0.065   1.038  0.00  0.00    -0.201 OA
ATOM     11  O   UNL d   1      -0.307   0.816   0.581  0.00  0.00    -0.201 OA
BRANCH   9  12
ATOM     12  N   UNL d   1       1.385   0.706  -1.280  0.00  0.00    -0.320 N 
ATOM     13  C   UNL d   1       2.745   0.443  -1.734  0.00  0.00     0.159 C 
ATOM     14  H   UNL d   1       0.980   1.623  -1.465  0.00  0.00     0.171 HD
ENDBRANCH   9  12
ENDBRANCH   1   9
TORSDOF 2
