REMARK  9 active torsions:
REMARK  status: ('A' for Active; 'I' for Inactive)
REMARK    1  A    between atoms: N_2  and  S_1 
REMARK    2  A    between atoms: C_3  and  S_1 
REMARK    3  A    between atoms: C_7  and  N_2 
REMARK    4  A    between atoms: C_8  and  C_7 
REMARK    5  A    between atoms: C_12  and  C_8 
REMARK    6  A    between atoms: O_19  and  C_8 
REMARK    7  A    between atoms: O_9  and  C_12 
REMARK    8  A    between atoms: C_11  and  O_9 
REMARK    9  A    between atoms: O_20  and  C_13 
ROOT
ATOM      1  C   UNL d   1       0.880  -2.232  -1.197  0.00  0.00     0.166 C 
ENDROOT
BRANCH   1   2
ATOM      2  N   UNL d   1       0.505  -1.401  -0.038  0.00  0.00    -0.313 N 
ATOM      3  H   UNL d   1      -0.473  -1.416   0.247  0.00  0.00     0.172 HD
BRANCH   2   4
ATOM      4  S   UNL d   1       1.103   0.180   0.007  0.00  0.00     0.258 S 
ATOM      5  O   UNL d   1       2.506   0.142  -0.325  0.00  0.00    -0.201 OA
ATOM      6  O   UNL d   1       0.608   0.774   1.228  0.00  0.00    -0.201 OA
BRANCH   4   7
ATOM      7  C   UNL d   1       0.225   0.949  -1.333  0.00  0.00     0.081 A 
ATOM      8  C   UNL d   1      -1.167   1.058  -1.246  0.00  0.00     0.049 A 
ATOM      9  C   UNL d   1      -1.865   1.652  -2.293  0.00  0.00     0.035 A 
ATOM     10 CL   UNL d   1      -3.578   1.773  -2.211  0.00  0.00    -0.084 Cl
ATOM     11  C   UNL d   1      -1.186   2.147  -3.407  0.00  0.00     0.024 A 
ATOM     12  C   UNL d   1       0.206   2.047  -3.479  0.00  0.00     0.003 A 
ATOM     13  C   UNL d   1       0.918   1.444  -2.441  0.00  0.00     0.025 A 
ENDBRANCH   4   7
ENDBRANCH   2   4
ENDBRANCH   1   2
BRANCH   1  14
ATOM     14  C   UNL d   1       0.343  -3.669  -1.067  0.00  0.00     0.161 C 
BRANCH  14  15
ATOM     15  C   UNL d   1      -1.191  -3.752  -1.064  0.00  0.00     0.209 C 
BRANCH  15  16
ATOM     16  O   UNL d   1      -1.692  -3.086  -2.230  0.00  0.00    -0.349 OA
BRANCH  16  17
ATOM     17  C   UNL d   1      -3.051  -3.012  -2.363  0.00  0.00     0.069 A 
ATOM     18  C   UNL d   1      -3.991  -3.531  -1.473  0.00  0.00     0.039 A 
ATOM     19  C   UNL d   1      -5.362  -3.385  -1.722  0.00  0.00     0.039 A 
ATOM     20  C   UNL d   1      -5.805  -2.724  -2.867  0.00  0.00     0.068 A 
ATOM     21  C   UNL d   1      -4.864  -2.208  -3.758  0.00  0.00     0.039 A 
ATOM     22  C   UNL d   1      -3.496  -2.350  -3.508  0.00  0.00     0.039 A 
BRANCH  20  23
ATOM     23  O   UNL d   1      -7.109  -2.526  -3.227  0.00  0.00    -0.356 OA
ATOM     24  C   UNL d   1      -8.104  -3.010  -2.332  0.00  0.00     0.210 C 
ENDBRANCH  20  23
ENDBRANCH  16  17
ENDBRANCH  15  16
ENDBRANCH  14  15
BRANCH  14  25
ATOM     25  O   UNL d   1       0.846  -4.450  -2.160  0.00  0.00    -0.392 OA
ATOM     26  H   UNL d   1       0.373  -4.158  -2.962  0.00  0.00     0.210 HD
ENDBRANCH  14  25
ENDBRANCH   1  14
TORSDOF 9
