REMARK  3 active torsions:
REMARK  status: ('A' for Active; 'I' for Inactive)
REMARK    1  A    between atoms: N_4  and  C_11 
REMARK    2  A    between atoms: N_5  and  C_10 
REMARK    3  A    between atoms: N_22  and  N_14 
ROOT
ATOM      1  C   UNL d   1       1.135   0.888   0.021  0.00  0.00     0.006 A 
ATOM      2  C   UNL d   1      -1.245   0.890   0.059  0.00  0.00     0.006 A 
ATOM      3  C   UNL d   1      -0.047   1.779   0.065  0.00  0.00     0.065 A 
ATOM      4  C   UNL d   1      -0.767  -0.439   0.019  0.00  0.00    -0.012 A 
ATOM      5  C   UNL d   1       0.679  -0.436   0.005  0.00  0.00    -0.012 A 
ATOM      6  C   UNL d   1       2.481   1.224   0.010  0.00  0.00     0.050 A 
ATOM      7  C   UNL d   1      -2.600   1.174   0.080  0.00  0.00     0.050 A 
ATOM      8  C   UNL d   1      -3.490   0.088   0.043  0.00  0.00     0.103 A 
ATOM      9  C   UNL d   1       3.394   0.163  -0.007  0.00  0.00     0.103 A 
ATOM     10  C   UNL d   1       1.586  -1.485  -0.012  0.00  0.00     0.015 A 
ATOM     11  C   UNL d   1      -1.650  -1.509  -0.004  0.00  0.00     0.015 A 
ATOM     12  N   UNL d   1       0.094   3.066   0.108  0.00  0.00    -0.322 N 
ATOM     13  HN  UNL d   1       1.021   3.492   0.101  1.00  0.00     0.180 HD
ATOM     14  C   UNL d   1       2.955  -1.182  -0.017  0.00  0.00     0.037 A 
ATOM     15  C   UNL d   1      -3.023  -1.243   0.006  0.00  0.00     0.037 A 
ENDROOT
BRANCH  12  16
ATOM     16  N   UNL d   1      -1.015   3.824   0.162  0.00  0.00    -0.249 NA
ATOM     17  H   UNL d   1      -0.741   4.810   0.206  0.00  0.00     0.143 HD
ATOM     18  H   UNL d   1      -1.565   3.746  -0.695  0.00  0.00     0.143 HD
ENDBRANCH  12  16
BRANCH   8  19
ATOM     19  N   UNL d   1      -4.936   0.338   0.036  0.00  0.00    -0.116 N 
ATOM     20  O   UNL d   1      -5.318   1.516   0.000  0.00  0.00    -0.532 OA
ATOM     21  O   UNL d   1      -5.692  -0.644   0.052  0.00  0.00    -0.532 OA
ENDBRANCH   8  19
BRANCH   9  22
ATOM     22  N   UNL d   1       4.837   0.445  -0.011  0.00  0.00    -0.116 N 
ATOM     23  O   UNL d   1       5.191   1.631  -0.032  0.00  0.00    -0.532 OA
ATOM     24  O   UNL d   1       5.611  -0.521   0.002  0.00  0.00    -0.532 OA
ENDBRANCH   9  22
TORSDOF 3
