REMARK  3 active torsions:
REMARK  status: ('A' for Active; 'I' for Inactive)
REMARK    1  A    between atoms: O_7  and  C_6 
REMARK    2  A    between atoms: C_9  and  O_7 
REMARK    3  A    between atoms: C_10  and  C_9 
ROOT
ATOM      1  C   UNL d   1      -0.396   0.005   0.032  0.00  0.00     0.046 A 
ATOM      2  C   UNL d   1       0.283  -1.229   0.033  0.00  0.00    -0.037 A 
ATOM      3  C   UNL d   1       0.327   1.215   0.006  0.00  0.00    -0.037 A 
ATOM      4  C   UNL d   1       1.690  -1.235  -0.001  0.00  0.00     0.045 A 
ATOM      5  C   UNL d   1       1.734   1.166  -0.040  0.00  0.00     0.045 A 
ATOM      6  C   UNL d   1       2.414  -0.048  -0.074  0.00  0.00     0.070 A 
ATOM      7 CL   UNL d   1      -2.130   0.032   0.056  0.00  0.00    -0.083 Cl
ATOM      8  C   UNL d   1      -0.309   2.579   0.011  0.00  0.00     0.050 C 
ATOM      9  C   UNL d   1      -0.393  -2.575   0.050  0.00  0.00     0.050 C 
ENDROOT
BRANCH   6  10
ATOM     10  O   UNL d   1       3.777   0.035  -0.183  0.00  0.00    -0.347 OA
BRANCH  10  11
ATOM     11  C   UNL d   1       4.410  -1.130  -0.722  0.00  0.00     0.214 C 
BRANCH  11  12
ATOM     12  C   UNL d   1       5.779  -0.820  -1.285  0.00  0.00    -0.034 A 
ATOM     13  C   UNL d   1       6.726  -1.851  -1.390  0.00  0.00     0.009 A 
ATOM     14  C   UNL d   1       7.963  -1.624  -1.992  0.00  0.00     0.001 A 
ATOM     15  C   UNL d   1       8.267  -0.363  -2.502  0.00  0.00     0.000 A 
ATOM     16  C   UNL d   1       7.335   0.668  -2.409  0.00  0.00     0.001 A 
ATOM     17  C   UNL d   1       6.094   0.441  -1.809  0.00  0.00     0.009 A 
ENDBRANCH  11  12
ENDBRANCH  10  11
ENDBRANCH   6  10
TORSDOF 3
