REMARK  5 active torsions:
REMARK  status: ('A' for Active; 'I' for Inactive)
REMARK    1  A    between atoms: C_4  and  N_1 
REMARK    2  A    between atoms: C_2  and  C_10 
REMARK       I    between atoms: N_5  and  C_2 
REMARK    3  A    between atoms: C_10  and  N_3 
REMARK    4  A    between atoms: C_19  and  N_5 
REMARK    5  A    between atoms: C_7  and  C_6 
ROOT
ATOM      1  N   UNL d   1      -1.860   0.405  -0.202  0.00  0.00    -0.378 N 
ATOM      2  N   UNL d   1       1.032  -0.347  -0.179  0.00  0.00     0.100 N 
ATOM      3  C   UNL d   1      -1.425  -0.921  -0.662  0.00  0.00     0.153 C 
ATOM      4  C   UNL d   1      -0.831   1.457  -0.297  0.00  0.00     0.153 C 
ATOM      5  C   UNL d   1       0.526   0.977   0.298  0.00  0.00     0.292 C 
ATOM      6  C   UNL d   1      -0.079  -1.325  -0.026  0.00  0.00     0.292 C 
ENDROOT
BRANCH   2   7
ATOM      7  C   UNL d   1       1.497  -0.216  -1.587  0.00  0.00     0.375 C 
BRANCH   7   8
ATOM      8  C   UNL d   1       2.038  -1.524  -2.183  0.00  0.00     0.250 C 
ATOM      9  N   UNL d   1       2.675  -2.338  -1.266  0.00  0.00    -0.326 N 
ATOM     10  H   UNL d   1       2.632  -2.002  -0.308  0.00  0.00     0.169 HD
ATOM     11  O   UNL d   1       1.908  -1.742  -3.386  0.00  0.00    -0.271 OA
BRANCH   9  12
ATOM     12  C   UNL d   1       3.213  -3.623  -1.491  0.00  0.00     0.034 A 
ATOM     13  C   UNL d   1       3.330  -4.204  -2.756  0.00  0.00     0.029 A 
ATOM     14  C   UNL d   1       3.847  -5.497  -2.902  0.00  0.00     0.002 A 
ATOM     15  C   UNL d   1       4.251  -6.220  -1.786  0.00  0.00     0.000 A 
ATOM     16  C   UNL d   1       4.147  -5.649  -0.521  0.00  0.00     0.002 A 
ATOM     17  C   UNL d   1       3.635  -4.354  -0.374  0.00  0.00     0.029 A 
ENDBRANCH   9  12
ENDBRANCH   7   8
ENDBRANCH   2   7
BRANCH   1  18
ATOM     18  C   UNL d   1      -2.825   0.524   0.789  0.00  0.00     0.030 A 
ATOM     19  C   UNL d   1      -3.026  -0.438   1.786  0.00  0.00     0.030 A 
ATOM     20  C   UNL d   1      -4.059  -0.327   2.730  0.00  0.00     0.017 A 
ATOM     21  C   UNL d   1      -4.935   0.758   2.694  0.00  0.00     0.009 A 
ATOM     22  C   UNL d   1      -4.739   1.737   1.713  0.00  0.00     0.017 A 
ATOM     23  C   UNL d   1      -3.696   1.622   0.783  0.00  0.00     0.030 A 
BRANCH  21  24
ATOM     24  C   UNL d   1      -6.088   0.923   3.634  0.00  0.00     0.155 C 
ATOM     25  O   UNL d   1      -6.822   1.905   3.518  0.00  0.00    -0.293 OA
ATOM     26  C   UNL d   1      -6.382  -0.110   4.693  0.00  0.00     0.096 C 
ENDBRANCH  21  24
ENDBRANCH   1  18
TORSDOF 5
