REMARK  6 active torsions:
REMARK  status: ('A' for Active; 'I' for Inactive)
REMARK    1  A    between atoms: C_7  and  C_2 
REMARK    2  A    between atoms: C_8  and  C_3 
REMARK    3  A    between atoms: C_11  and  C_5 
REMARK    4  A    between atoms: C_12  and  C_6 
REMARK    5  A    between atoms: O_16  and  C_7 
REMARK    6  A    between atoms: O_15  and  C_8 
ROOT
ATOM      1  S   UNL d   1       0.786   0.030   0.106  0.00  0.00     0.176 S 
ATOM      2  C   UNL d   1      -0.252  -1.250   0.745  0.00  0.00     0.246 C 
ATOM      3  C   UNL d   1      -0.188   1.480   0.334  0.00  0.00     0.246 C 
ATOM      4  N   UNL d   1      -2.299   0.070   0.147  0.00  0.00     0.105 N 
ATOM      5  C   UNL d   1      -1.586   1.294  -0.266  0.00  0.00     0.282 C 
ATOM      6  C   UNL d   1      -1.570  -1.192  -0.028  0.00  0.00     0.282 C 
ATOM      7  O   UNL d   1       1.966   0.114   0.945  0.00  0.00    -0.226 OA
ATOM      8  O   UNL d   1       0.951  -0.219  -1.321  0.00  0.00    -0.226 OA
ATOM      9  H   UNL d   1      -3.191   0.023  -0.354  0.00  0.00     0.317 HD
ENDROOT
BRANCH   5  10
ATOM     10  C   UNL d   1      -2.451   2.483   0.152  0.00  0.00    -0.024 A 
ATOM     11  C   UNL d   1      -2.817   2.671   1.498  0.00  0.00     0.009 A 
ATOM     12  C   UNL d   1      -3.534   3.799   1.891  0.00  0.00     0.001 A 
ATOM     13  C   UNL d   1      -3.907   4.747   0.945  0.00  0.00     0.000 A 
ATOM     14  C   UNL d   1      -3.574   4.562  -0.396  0.00  0.00     0.001 A 
ATOM     15  C   UNL d   1      -2.851   3.435  -0.793  0.00  0.00     0.009 A 
ENDBRANCH   5  10
BRANCH   3  16
ATOM     16  C   UNL d   1       0.542   2.631  -0.292  0.00  0.00     0.279 C 
ATOM     17  O   UNL d   1       0.433   2.989  -1.458  0.00  0.00    -0.264 OA
BRANCH  16  18
ATOM     18  O   UNL d   1       1.302   3.264   0.647  0.00  0.00    -0.325 OA
ATOM     19  C   UNL d   1       1.977   4.440   0.197  0.00  0.00     0.213 C 
ENDBRANCH  16  18
ENDBRANCH   3  16
BRANCH   6  20
ATOM     20  C   UNL d   1      -2.476  -2.379   0.289  0.00  0.00    -0.024 A 
ATOM     21  C   UNL d   1      -3.386  -2.348   1.358  0.00  0.00     0.009 A 
ATOM     22  C   UNL d   1      -4.258  -3.415   1.584  0.00  0.00     0.001 A 
ATOM     23  C   UNL d   1      -4.225  -4.532   0.754  0.00  0.00     0.000 A 
ATOM     24  C   UNL d   1      -3.310  -4.591  -0.294  0.00  0.00     0.001 A 
ATOM     25  C   UNL d   1      -2.437  -3.525  -0.523  0.00  0.00     0.009 A 
ENDBRANCH   6  20
BRANCH   2  26
ATOM     26  C   UNL d   1      -0.389  -1.031   2.228  0.00  0.00     0.279 C 
ATOM     27  O   UNL d   1      -0.974  -0.090   2.754  0.00  0.00    -0.264 OA
BRANCH  26  28
ATOM     28  O   UNL d   1       0.251  -2.001   2.940  0.00  0.00    -0.325 OA
ATOM     29  C   UNL d   1       0.234  -1.778   4.355  0.00  0.00     0.213 C 
ENDBRANCH  26  28
ENDBRANCH   2  26
TORSDOF 6
