REMARK  5 active torsions:
REMARK  status: ('A' for Active; 'I' for Inactive)
REMARK    1  A    between atoms: S_10  and  C_1 
REMARK    2  A    between atoms: S_9  and  C_2 
REMARK    3  A    between atoms: S_13  and  C_8 
REMARK    4  A    between atoms: C_15  and  S_9 
REMARK    5  A    between atoms: C_14  and  S_10 
ROOT
ATOM      1  C   UNL d   1       0.174  -1.133  -0.046  0.00  0.00     0.100 A 
ATOM      2  C   UNL d   1       0.195   1.202   0.163  0.00  0.00     0.100 A 
ATOM      3  N   UNL d   1       1.512  -1.172   0.107  0.00  0.00    -0.330 N 
ATOM      4  HN  UNL d   1       2.020  -2.057   0.107  1.00  0.00     0.168 HD
ATOM      5  N   UNL d   1       1.537   1.183   0.306  0.00  0.00    -0.330 N 
ATOM      6  HN  UNL d   1       2.066   2.044   0.446  1.00  0.00     0.168 HD
ATOM      7  C   UNL d   1      -0.545   0.050  -0.054  0.00  0.00     0.112 A 
ATOM      8  C   UNL d   1       2.147  -0.007   0.257  0.00  0.00     0.145 A 
ATOM      9  C   UNL d   1      -1.945   0.080  -0.324  0.00  0.00     0.105 C 
ATOM     10  N   UNL d   1      -3.077   0.102  -0.579  0.00  0.00    -0.191 NA
ENDROOT
BRANCH   2  11
ATOM     11  S   UNL d   1      -0.561   2.826   0.101  0.00  0.00    -0.071 SA
BRANCH  11  12
ATOM     12  C   UNL d   1      -0.174   3.597   1.664  0.00  0.00     0.007 A 
ATOM     13  C   UNL d   1       1.139   3.856   2.068  0.00  0.00     0.019 A 
ATOM     14  C   UNL d   1       1.397   4.623   3.213  0.00  0.00     0.008 A 
ATOM     15  C   UNL d   1       0.346   5.163   3.964  0.00  0.00    -0.062 A 
ATOM     16  C   UNL d   1      -0.969   4.881   3.581  0.00  0.00     0.008 A 
ATOM     17  C   UNL d   1       0.638   6.045   5.143  0.00  0.00     0.048 C 
ATOM     18  C   UNL d   1      -1.224   4.109   2.439  0.00  0.00     0.019 A 
ENDBRANCH  11  12
ENDBRANCH   2  11
BRANCH   1  19
ATOM     19  S   UNL d   1      -0.619  -2.732  -0.125  0.00  0.00    -0.071 SA
BRANCH  19  20
ATOM     20  C   UNL d   1       0.033  -3.510  -1.589  0.00  0.00     0.007 A 
ATOM     21  C   UNL d   1       0.158  -4.910  -1.583  0.00  0.00     0.019 A 
ATOM     22  C   UNL d   1       0.513  -5.608  -2.739  0.00  0.00     0.008 A 
ATOM     23  C   UNL d   1       0.743  -4.922  -3.935  0.00  0.00    -0.062 A 
ATOM     24  C   UNL d   1       0.671  -3.524  -3.936  0.00  0.00     0.008 A 
ATOM     25  C   UNL d   1       1.062  -5.683  -5.189  0.00  0.00     0.048 C 
ATOM     26  C   UNL d   1       0.311  -2.825  -2.776  0.00  0.00     0.019 A 
ENDBRANCH  19  20
ENDBRANCH   1  19
BRANCH   8  27
ATOM     27  S   UNL d   1       3.918  -0.001   0.350  0.00  0.00    -0.098 SA
ATOM     28  C   UNL d   1       4.262  -1.748   0.010  0.00  0.00     0.099 C 
ENDBRANCH   8  27
TORSDOF 5
