REMARK  6 active torsions:
REMARK  status: ('A' for Active; 'I' for Inactive)
REMARK       I    between atoms: N_16  and  C_1 
REMARK       I    between atoms: N_17  and  C_1 
REMARK    1  A    between atoms: C_2  and  C_21 
REMARK    2  A    between atoms: C_3  and  C_22 
REMARK    3  A    between atoms: O_25  and  C_6 
REMARK    4  A    between atoms: O_26  and  C_7 
REMARK    5  A    between atoms: N_10  and  N_16 
REMARK    6  A    between atoms: N_12  and  N_17 
ROOT
ATOM      1  C   UNL d   1       0.875  -0.005  -0.020  0.00  0.00     0.353 C 
ATOM      2  N   UNL d   1       0.211   1.159  -0.425  0.00  0.00    -0.251 N 
ATOM      3  N   UNL d   1      -0.025  -0.992   0.379  0.00  0.00    -0.251 N 
ATOM      4  O   UNL d   1       2.098  -0.140  -0.021  0.00  0.00    -0.244 OA
ATOM      5  H   UNL d   1      -0.794   1.228  -0.366  0.00  0.00     0.191 HD
ATOM      6  H   UNL d   1      -1.020  -0.815   0.357  0.00  0.00     0.191 HD
ENDROOT
BRANCH   2   7
ATOM      7  N   UNL d   1       0.935   2.240  -0.831  0.00  0.00    -0.307 N 
ATOM      8  C   UNL d   1       0.272   3.295  -1.183  0.00  0.00     0.121 C 
ATOM      9  HN  UNL d   1       1.954   2.218  -0.856  1.00  0.00     0.186 HD
BRANCH   8  10
ATOM     10  C   UNL d   1       0.988   4.516  -1.616  0.00  0.00     0.017 A 
ATOM     11  C   UNL d   1       0.287   5.666  -1.993  0.00  0.00     0.099 A 
ATOM     12  C   UNL d   1       0.994   6.813  -2.377  0.00  0.00     0.069 A 
ATOM     13 CL   UNL d   1       0.146   8.246  -2.835  0.00  0.00    -0.081 Cl
ATOM     14  C   UNL d   1       2.388   6.820  -2.391  0.00  0.00     0.050 A 
ATOM     15  C   UNL d   1       3.079   5.669  -2.021  0.00  0.00     0.036 A 
ATOM     16  C   UNL d   1       2.390   4.521  -1.633  0.00  0.00     0.039 A 
ATOM     17 CL   UNL d   1       4.798   5.669  -2.037  0.00  0.00    -0.084 Cl
BRANCH  11  18
ATOM     18  O   UNL d   1      -1.084   5.665  -1.982  0.00  0.00    -0.358 OA
ATOM     19  H   UNL d   1      -1.380   6.550  -2.274  0.00  0.00     0.217 HD
ENDBRANCH  11  18
ENDBRANCH   8  10
ENDBRANCH   2   7
BRANCH   3  20
ATOM     20  N   UNL d   1       0.427  -2.206   0.813  0.00  0.00    -0.307 N 
ATOM     21  C   UNL d   1      -0.486  -3.059   1.151  0.00  0.00     0.121 C 
ATOM     22  HN  UNL d   1       1.421  -2.426   0.868  1.00  0.00     0.186 HD
BRANCH  21  23
ATOM     23  C   UNL d   1      -0.142  -4.414   1.634  0.00  0.00     0.017 A 
ATOM     24  C   UNL d   1      -1.153  -5.317   1.974  0.00  0.00     0.099 A 
ATOM     25  C   UNL d   1      -0.817  -6.609   2.400  0.00  0.00     0.069 A 
ATOM     26 CL   UNL d   1      -2.056  -7.740   2.807  0.00  0.00    -0.081 Cl
ATOM     27  C   UNL d   1       0.517  -6.999   2.496  0.00  0.00     0.050 A 
ATOM     28  C   UNL d   1       1.519  -6.088   2.167  0.00  0.00     0.036 A 
ATOM     29  C   UNL d   1       1.200  -4.800   1.738  0.00  0.00     0.039 A 
ATOM     30 CL   UNL d   1       3.168  -6.566   2.288  0.00  0.00    -0.084 Cl
BRANCH  24  31
ATOM     31  O   UNL d   1      -2.468  -4.935   1.885  0.00  0.00    -0.358 OA
ATOM     32  H   UNL d   1      -3.016  -5.694   2.165  0.00  0.00     0.217 HD
ENDBRANCH  24  31
ENDBRANCH  21  23
ENDBRANCH   3  20
TORSDOF 6
