REMARK  6 active torsions:
REMARK  status: ('A' for Active; 'I' for Inactive)
REMARK    1  A    between atoms: N_3  and  S_1 
REMARK    2  A    between atoms: C_10  and  S_1 
REMARK    3  A    between atoms: S_2  and  N_5 
REMARK    4  A    between atoms: C_11  and  S_2 
REMARK    5  A    between atoms: C_4  and  N_3 
REMARK    6  A    between atoms: N_5  and  C_23 
ROOT
ATOM      1  C   UNL d   1       0.399  -1.527   0.214  0.00  0.00     0.075 A 
ATOM      2  C   UNL d   1       1.247  -2.573  -0.170  0.00  0.00     0.027 A 
ATOM      3  C   UNL d   1      -0.803  -1.798   0.873  0.00  0.00     0.027 A 
ATOM      4  C   UNL d   1      -0.361  -4.168   0.670  0.00  0.00     0.042 A 
ATOM      5  C   UNL d   1       0.860  -3.900   0.054  0.00  0.00     0.031 A 
ATOM      6  C   UNL d   1      -1.185  -3.123   1.089  0.00  0.00     0.031 A 
ENDROOT
BRANCH   1   7
ATOM      7  S   UNL d   1       0.936   0.160   0.015  0.00  0.00     0.248 S 
ATOM      8  O   UNL d   1       0.101   0.970   0.887  0.00  0.00    -0.205 OA
ATOM      9  O   UNL d   1       2.374   0.182   0.161  0.00  0.00    -0.205 OA
BRANCH   7  10
ATOM     10  N   UNL d   1       0.476   0.578  -1.548  0.00  0.00    -0.151 NA
ATOM     11  H   UNL d   1       0.280   1.572  -1.571  0.00  0.00     0.149 HD
BRANCH  10  12
ATOM     12  C   UNL d   1       1.416   0.224  -2.512  0.00  0.00     0.171 A 
ATOM     13  N   UNL d   1       1.312  -0.999  -3.034  0.00  0.00    -0.336 N 
ATOM     14  C   UNL d   1       2.290  -1.351  -3.891  0.00  0.00     0.009 A 
ATOM     15  HN  UNL d   1       0.542  -1.627  -2.800  1.00  0.00     0.168 HD
ATOM     16  C   UNL d   1       2.192  -2.700  -4.536  0.00  0.00     0.068 C 
ATOM     17  C   UNL d   1       3.370  -0.528  -4.159  0.00  0.00     0.049 A 
ATOM     18  C   UNL d   1       3.380   0.709  -3.539  0.00  0.00     0.009 A 
ATOM     19  N   UNL d   1       2.381   1.118  -2.733  0.00  0.00    -0.336 N 
ATOM     20  C   UNL d   1       4.554   1.626  -3.713  0.00  0.00     0.068 C 
ATOM     21  HN  UNL d   1       2.363   2.051  -2.320  1.00  0.00     0.168 HD
ENDBRANCH  10  12
ENDBRANCH   7  10
ENDBRANCH   1   7
BRANCH   4  22
ATOM     22  N   UNL d   1      -0.839  -5.492   0.793  0.00  0.00    -0.281 N 
ATOM     23  H   UNL d   1      -1.182  -5.982  -0.032  0.00  0.00     0.179 HD
BRANCH  22  24
ATOM     24  S   UNL d   1      -0.415  -6.470   2.082  0.00  0.00     0.263 S 
ATOM     25  O   UNL d   1      -1.067  -7.742   1.847  0.00  0.00    -0.200 OA
ATOM     26  O   UNL d   1       1.012  -6.389   2.300  0.00  0.00    -0.200 OA
BRANCH  24  27
ATOM     27  C   UNL d   1      -1.241  -5.697   3.458  0.00  0.00     0.080 A 
ATOM     28  C   UNL d   1      -2.560  -6.049   3.777  0.00  0.00     0.028 A 
ATOM     29  C   UNL d   1      -3.173  -5.465   4.886  0.00  0.00     0.044 A 
ATOM     30  C   UNL d   1      -2.465  -4.552   5.665  0.00  0.00     0.116 A 
ATOM     31  C   UNL d   1      -1.153  -4.206   5.354  0.00  0.00     0.044 A 
ATOM     32  F   UNL d   1      -3.054  -4.001   6.734  0.00  0.00    -0.206 F 
ATOM     33  C   UNL d   1      -0.533  -4.784   4.249  0.00  0.00     0.028 A 
ENDBRANCH  24  27
ENDBRANCH  22  24
ENDBRANCH   4  22
TORSDOF 6
