REMARK  2 active torsions:
REMARK  status: ('A' for Active; 'I' for Inactive)
REMARK    1  A    between atoms: N_7  and  C_1 
REMARK    2  A    between atoms: C_12  and  N_7 
ROOT
ATOM      1  C   UNL d   1       0.173   1.399   0.147  0.00  0.00     0.136 A 
ATOM      2  C   UNL d   1       0.497   0.333   0.917  0.00  0.00     0.156 A 
ATOM      3  N   UNL d   1      -0.745   1.228  -0.861  0.00  0.00    -0.293 N 
ATOM      4  N   UNL d   1      -1.013  -1.017  -0.417  0.00  0.00    -0.274 N 
ATOM      5  C   UNL d   1      -0.129  -0.980   0.624  0.00  0.00     0.274 A 
ATOM      6  C   UNL d   1      -1.351   0.051  -1.185  0.00  0.00     0.328 A 
ATOM      7  C   UNL d   1       1.375   0.414   2.034  0.00  0.00     0.109 C 
ATOM      8  N   UNL d   1       2.083   0.485   2.950  0.00  0.00    -0.191 NA
ATOM      9  O   UNL d   1       0.120  -1.991   1.272  0.00  0.00    -0.266 OA
ATOM     10  O   UNL d   1      -2.148  -0.031  -2.111  0.00  0.00    -0.247 OA
ATOM     11  H   UNL d   1      -0.988   2.009  -1.455  0.00  0.00     0.172 HD
ATOM     12  H   UNL d   1      -1.450  -1.901  -0.627  0.00  0.00     0.173 HD
ENDROOT
BRANCH   1  13
ATOM     13  N   UNL d   1       0.671   2.676   0.349  0.00  0.00    -0.341 N 
ATOM     14  H   UNL d   1       0.094   3.411  -0.052  0.00  0.00     0.167 HD
BRANCH  13  15
ATOM     15  C   UNL d   1       2.037   3.039   0.246  0.00  0.00     0.033 A 
ATOM     16  C   UNL d   1       2.978   2.289  -0.473  0.00  0.00     0.029 A 
ATOM     17  C   UNL d   1       4.317   2.684  -0.520  0.00  0.00     0.002 A 
ATOM     18  C   UNL d   1       4.731   3.833   0.151  0.00  0.00     0.000 A 
ATOM     19  C   UNL d   1       3.804   4.598   0.854  0.00  0.00     0.002 A 
ATOM     20  C   UNL d   1       2.463   4.208   0.891  0.00  0.00     0.029 A 
ENDBRANCH  13  15
ENDBRANCH   1  13
TORSDOF 2
