REMARK  5 active torsions:
REMARK  status: ('A' for Active; 'I' for Inactive)
REMARK    1  A    between atoms: N_2  and  S_1 
REMARK    2  A    between atoms: C_4  and  S_1 
REMARK    3  A    between atoms: C_3  and  N_2 
REMARK    4  A    between atoms: O_8  and  C_5 
REMARK    5  A    between atoms: C_11  and  O_8 
ROOT
ATOM      1  C   UNL d   1       0.724   2.557  -0.552  0.00  0.00     0.076 A 
ATOM      2  C   UNL d   1       2.062   2.863  -0.254  0.00  0.00     0.103 A 
ATOM      3  C   UNL d   1      -0.221   3.590  -0.598  0.00  0.00     0.033 A 
ATOM      4  C   UNL d   1       2.443   4.207  -0.114  0.00  0.00     0.039 A 
ATOM      5  C   UNL d   1       0.166   4.921  -0.448  0.00  0.00     0.002 A 
ATOM      6  C   UNL d   1       1.502   5.231  -0.216  0.00  0.00     0.003 A 
ENDROOT
BRANCH   1   7
ATOM      7  N   UNL d   1       0.240   1.239  -0.762  0.00  0.00    -0.278 N 
ATOM      8  H   UNL d   1      -0.130   0.691   0.010  0.00  0.00     0.179 HD
BRANCH   7   9
ATOM      9  S   UNL d   1       0.146   0.553  -2.280  0.00  0.00     0.263 S 
ATOM     10  O   UNL d   1      -0.549  -0.706  -2.110  0.00  0.00    -0.200 OA
ATOM     11  O   UNL d   1       1.443   0.614  -2.923  0.00  0.00    -0.200 OA
BRANCH   9  12
ATOM     12  C   UNL d   1      -0.950   1.646  -3.158  0.00  0.00     0.079 A 
ATOM     13  C   UNL d   1      -0.405   2.733  -3.852  0.00  0.00     0.026 A 
ATOM     14  C   UNL d   1      -1.251   3.620  -4.513  0.00  0.00     0.008 A 
ATOM     15  C   UNL d   1      -2.637   3.414  -4.517  0.00  0.00    -0.062 A 
ATOM     16  C   UNL d   1      -3.169   2.309  -3.836  0.00  0.00     0.008 A 
ATOM     17  C   UNL d   1      -3.530   4.397  -5.216  0.00  0.00     0.048 C 
ATOM     18  C   UNL d   1      -2.328   1.419  -3.160  0.00  0.00     0.026 A 
ENDBRANCH   9  12
ENDBRANCH   7   9
ENDBRANCH   1   7
BRANCH   2  19
ATOM     19  O   UNL d   1       3.109   1.977  -0.154  0.00  0.00    -0.309 OA
BRANCH  19  20
ATOM     20  C   UNL d   1       2.978   0.802   0.544  0.00  0.00     0.076 A 
ATOM     21  C   UNL d   1       3.867  -0.209   0.174  0.00  0.00     0.037 A 
ATOM     22  C   UNL d   1       3.775  -1.474   0.752  0.00  0.00     0.003 A 
ATOM     23  C   UNL d   1       2.789  -1.730   1.704  0.00  0.00     0.000 A 
ATOM     24  C   UNL d   1       1.946  -0.703   2.128  0.00  0.00     0.003 A 
ATOM     25  C   UNL d   1       2.068   0.574   1.578  0.00  0.00     0.037 A 
ENDBRANCH  19  20
ENDBRANCH   2  19
TORSDOF 5
