REMARK  5 active torsions:
REMARK  status: ('A' for Active; 'I' for Inactive)
REMARK    1  A    between atoms: C_2  and  C_1 
REMARK    2  A    between atoms: C_4  and  C_2 
REMARK    3  A    between atoms: N_7  and  C_3 
REMARK    4  A    between atoms: C_10  and  N_7 
REMARK    5  A    between atoms: C_19  and  C_14 
ROOT
ATOM      1  C   UNL d   1       1.105  -0.003  -0.086  0.00  0.00     0.072 C 
ATOM      2  C   UNL d   1       0.628   0.847   0.830  0.00  0.00     0.092 C 
ENDROOT
BRANCH   1   3
ATOM      3  C   UNL d   1       0.299  -0.352  -1.294  0.00  0.00     0.183 C 
ATOM      4  O   UNL d   1      -0.914  -0.204  -1.340  0.00  0.00    -0.288 OA
BRANCH   3   5
ATOM      5  C   UNL d   1       1.047  -0.935  -2.446  0.00  0.00     0.014 A 
ATOM      6  C   UNL d   1       0.397  -1.837  -3.296  0.00  0.00     0.016 A 
ATOM      7  C   UNL d   1       1.093  -2.431  -4.356  0.00  0.00     0.008 A 
ATOM      8  C   UNL d   1       2.438  -2.112  -4.593  0.00  0.00    -0.059 A 
ATOM      9  C   UNL d   1       3.068  -1.175  -3.766  0.00  0.00     0.008 A 
ATOM     10  C   UNL d   1       2.377  -0.582  -2.707  0.00  0.00     0.016 A 
BRANCH   8  11
ATOM     11  C   UNL d   1       3.210  -2.765  -5.713  0.00  0.00     0.034 C 
ATOM     12  C   UNL d   1       3.928  -4.030  -5.262  0.00  0.00     0.010 C 
ENDBRANCH   8  11
ENDBRANCH   3   5
ENDBRANCH   1   3
BRANCH   2  13
ATOM     13  N   UNL d   1       1.305   1.309   1.934  0.00  0.00    -0.366 N 
ATOM     14  H   UNL d   1       2.284   1.054   2.010  0.00  0.00     0.165 HD
BRANCH  13  15
ATOM     15  C   UNL d   1       0.832   2.198   2.917  0.00  0.00     0.033 A 
ATOM     16  C   UNL d   1      -0.527   2.319   3.230  0.00  0.00     0.053 A 
ATOM     17  C   UNL d   1      -0.960   3.269   4.157  0.00  0.00     0.036 A 
ATOM     18 CL   UNL d   1      -2.633   3.382   4.546  0.00  0.00    -0.084 Cl
ATOM     19  C   UNL d   1      -0.052   4.129   4.770  0.00  0.00     0.024 A 
ATOM     20  C   UNL d   1       1.302   4.028   4.462  0.00  0.00     0.004 A 
ATOM     21  C   UNL d   1       1.738   3.066   3.546  0.00  0.00     0.029 A 
ENDBRANCH  13  15
ENDBRANCH   2  13
TORSDOF 5
