REMARK  2 active torsions:
REMARK  status: ('A' for Active; 'I' for Inactive)
REMARK    1  A    between atoms: C_12  and  C_4 
REMARK    2  A    between atoms: O_13  and  C_12 
ROOT
ATOM      1  C   UNL d   1      -2.066   0.015  -0.165  0.00  0.00    -0.038 A 
ATOM      2  C   UNL d   1      -0.899   0.790   0.446  0.00  0.00     0.009 A 
ATOM      3  C   UNL d   1      -0.920  -0.727   0.530  0.00  0.00     0.003 A 
ATOM      4  C   UNL d   1       0.420   1.299  -0.161  0.00  0.00    -0.014 C 
ATOM      5  C   UNL d   1       0.405  -1.298   0.052  0.00  0.00    -0.009 C 
ATOM      6  C   UNL d   1       1.542   0.833   0.821  0.00  0.00     0.012 C 
ATOM      7  C   UNL d   1       0.733   0.635  -1.523  0.00  0.00     0.012 C 
ATOM      8  C   UNL d   1       1.488  -0.705   0.993  0.00  0.00     0.006 C 
ATOM      9  C   UNL d   1       0.798  -0.891  -1.371  0.00  0.00     0.006 C 
ATOM     10  C   UNL d   1      -3.366   0.104   0.624  0.00  0.00     0.015 C 
ATOM     11  C   UNL d   1      -2.353  -0.066  -1.638  0.00  0.00     0.015 C 
ENDROOT
BRANCH   4  12
ATOM     12  C   UNL d   1       0.413   2.829  -0.332  0.00  0.00     0.173 C 
BRANCH  12  13
ATOM     13  O   UNL d   1       0.304   3.514   0.912  0.00  0.00    -0.400 OA
ATOM     14  H   UNL d   1      -0.618   3.421   1.209  0.00  0.00     0.209 HD
ENDBRANCH  12  13
ENDBRANCH   4  12
TORSDOF 2
