REMARK  5 active torsions:
REMARK  status: ('A' for Active; 'I' for Inactive)
REMARK    1  A    between atoms: C_3  and  C_1 
REMARK       I    between atoms: C_2  and  N_5 
REMARK       I    between atoms: N_7  and  C_2 
REMARK       I    between atoms: N_8  and  C_3 
REMARK    2  A    between atoms: N_5  and  C_4 
REMARK    3  A    between atoms: C_6  and  N_7 
REMARK    4  A    between atoms: C_19  and  N_8 
REMARK    5  A    between atoms: C_9  and  C_19 
ROOT
ATOM      1  C   UNL d   1       1.430  -0.735   0.347  0.00  0.00     0.058 C 
ATOM      2  C   UNL d   1       0.625  -1.864   0.081  0.00  0.00     0.052 C 
ATOM      3  C   UNL d   1       0.793   0.512   0.424  0.00  0.00     0.019 C 
ATOM      4  C   UNL d   1      -0.769  -1.787   0.246  0.00  0.00     0.030 C 
ATOM      5  C   UNL d   1      -0.605   0.601   0.381  0.00  0.00     0.001 C 
ATOM      6  C   UNL d   1      -1.385  -0.551   0.368  0.00  0.00     0.002 C 
ENDROOT
BRANCH   2   7
ATOM      7  N   UNL d   1       1.181  -3.032  -0.506  0.00  0.00    -0.308 N 
ATOM      8  C   UNL d   1       0.835  -3.559  -1.751  0.00  0.00     0.325 C 
ATOM      9  N   UNL d   1      -0.286  -3.021  -2.337  0.00  0.00    -0.309 N 
ATOM     10  O   UNL d   1       1.556  -4.411  -2.262  0.00  0.00    -0.247 OA
ATOM     11  H   UNL d   1      -0.764  -2.319  -1.809  0.00  0.00     0.170 HD
ATOM     12  H   UNL d   1       2.172  -3.192  -0.308  0.00  0.00     0.170 HD
BRANCH   9  13
ATOM     13  C   UNL d   1      -0.862  -3.247  -3.598  0.00  0.00     0.039 A 
ATOM     14  C   UNL d   1      -0.283  -4.010  -4.606  0.00  0.00     0.053 A 
ATOM     15  C   UNL d   1      -0.931  -4.122  -5.845  0.00  0.00     0.037 A 
ATOM     16 CL   UNL d   1      -0.200  -5.029  -7.110  0.00  0.00    -0.084 Cl
ATOM     17  C   UNL d   1      -2.155  -3.498  -6.074  0.00  0.00     0.048 A 
ATOM     18  C   UNL d   1      -2.737  -2.749  -5.062  0.00  0.00     0.037 A 
ATOM     19  C   UNL d   1      -2.092  -2.613  -3.829  0.00  0.00     0.053 A 
ATOM     20 CL   UNL d   1      -4.252  -1.975  -5.315  0.00  0.00    -0.084 Cl
ENDBRANCH   9  13
ENDBRANCH   2   7
BRANCH   1  21
ATOM     21  C   UNL d   1       2.893  -0.917   0.626  0.00  0.00     0.253 C 
ATOM     22  N   UNL d   1       3.692   0.198   0.849  0.00  0.00    -0.356 N 
ATOM     23  H   UNL d   1       3.314   1.127   0.784  0.00  0.00     0.162 HD
ATOM     24  O   UNL d   1       3.330  -2.062   0.738  0.00  0.00    -0.268 OA
BRANCH  22  25
ATOM     25  C   UNL d   1       4.917   0.056   1.616  0.00  0.00     0.127 C 
BRANCH  25  26
ATOM     26  C   UNL d   1       6.058   0.913   1.163  0.00  0.00     0.003 A 
ATOM     27  C   UNL d   1       6.009   2.417   1.265  0.00  0.00     0.007 A 
ATOM     28  C   UNL d   1       6.061   1.762  -0.086  0.00  0.00     0.007 A 
ENDBRANCH  25  26
ENDBRANCH  22  25
ENDBRANCH   1  21
TORSDOF 5
