REMARK  7 active torsions:
REMARK  status: ('A' for Active; 'I' for Inactive)
REMARK    1  A    between atoms: C_2  and  C_1 
REMARK       I    between atoms: N_3  and  C_1 
REMARK    2  A    between atoms: C_11  and  N_3 
REMARK    3  A    between atoms: C_4  and  C_7 
REMARK    4  A    between atoms: O_21  and  C_4 
REMARK    5  A    between atoms: N_5  and  C_14 
REMARK    6  A    between atoms: C_14  and  C_15 
REMARK    7  A    between atoms: C_25  and  O_21 
ROOT
ATOM      1  C   UNL d   1      -6.178   1.877  -0.147  0.00  0.00     0.035 A 
ATOM      2  C   UNL d   1      -4.995   0.403  -1.711  0.00  0.00    -0.028 A 
ATOM      3  C   UNL d   1      -5.124   1.006  -0.448  0.00  0.00     0.038 A 
ATOM      4  C   UNL d   1      -7.054   1.494  -2.374  0.00  0.00     0.003 A 
ATOM      5  C   UNL d   1      -7.166   2.089  -1.111  0.00  0.00     0.029 A 
ATOM      6  C   UNL d   1      -5.968   0.668  -2.678  0.00  0.00     0.009 A 
ENDROOT
BRANCH   2   7
ATOM      7  C   UNL d   1      -3.849  -0.555  -1.971  0.00  0.00     0.311 C 
BRANCH   7   8
ATOM      8  N   UNL d   1      -2.897  -0.148  -3.034  0.00  0.00     0.092 N 
ATOM      9  C   UNL d   1      -2.171   1.073  -2.646  0.00  0.00     0.273 C 
ATOM     10  C   UNL d   1      -1.050   1.445  -3.624  0.00  0.00     0.045 C 
ATOM     11  C   UNL d   1      -0.068   0.299  -3.877  0.00  0.00     0.089 C 
ATOM     12  C   UNL d   1      -0.871  -0.939  -4.291  0.00  0.00     0.045 C 
ATOM     13  C   UNL d   1      -1.978  -1.273  -3.288  0.00  0.00     0.273 C 
BRANCH  11  14
ATOM     14  C   UNL d   1       0.883  -0.020  -2.721  0.00  0.00     0.263 C 
ATOM     15  O   UNL d   1       1.284  -1.152  -2.464  0.00  0.00    -0.265 OA
BRANCH  14  16
ATOM     16  O   UNL d   1       1.308   1.101  -2.078  0.00  0.00    -0.322 OA
BRANCH  16  17
ATOM     17  C   UNL d   1       2.197   0.898  -0.963  0.00  0.00     0.174 C 
ATOM     18  C   UNL d   1       3.653   0.966  -1.396  0.00  0.00     0.034 C 
ENDBRANCH  16  17
ENDBRANCH  14  16
ENDBRANCH  11  14
ENDBRANCH   7   8
ENDBRANCH   2   7
BRANCH   1  19
ATOM     19  N   UNL d   1      -6.282   2.547   1.098  0.00  0.00    -0.323 N 
ATOM     20  C   UNL d   1      -5.255   2.718   2.010  0.00  0.00     0.263 C 
ATOM     21  O   UNL d   1      -4.098   2.348   1.807  0.00  0.00    -0.267 OA
ATOM     22  H   UNL d   1      -7.146   3.044   1.290  0.00  0.00     0.169 HD
BRANCH  20  23
ATOM     23  C   UNL d   1      -5.576   3.404   3.259  0.00  0.00     0.072 A 
ATOM     24  S   UNL d   1      -7.136   3.975   3.658  0.00  0.00    -0.097 SA
ATOM     25  C   UNL d   1      -6.605   4.557   5.179  0.00  0.00     0.050 A 
ATOM     26  C   UNL d   1      -5.262   4.330   5.383  0.00  0.00     0.009 A 
ATOM     27  C   UNL d   1      -4.672   3.672   4.272  0.00  0.00     0.025 A 
ENDBRANCH  20  23
ENDBRANCH   1  19
TORSDOF 7
