REMARK  8 active torsions:
REMARK  status: ('A' for Active; 'I' for Inactive)
REMARK    1  A    between atoms: C_3  and  C_1 
REMARK    2  A    between atoms: C_2  and  N_4 
REMARK    3  A    between atoms: N_11  and  C_2 
REMARK    4  A    between atoms: N_4  and  C_7 
REMARK    5  A    between atoms: C_16  and  N_11 
REMARK    6  A    between atoms: C_12  and  C_16 
REMARK    7  A    between atoms: C_18  and  C_12 
REMARK    8  A    between atoms: O_15  and  C_18 
ROOT
ATOM      1  N   UNL d   1      -0.312  -2.291   3.984  0.00  0.00    -0.333 N 
ATOM      2  H   UNL d   1      -0.328  -2.163   4.994  0.00  0.00     0.168 HD
ENDROOT
BRANCH   1   3
ATOM      3  C   UNL d   1       0.034  -3.565   3.605  0.00  0.00     0.172 C 
ATOM      4  S   UNL d   1       0.829  -4.070   2.229  0.00  0.00    -0.041 SA
BRANCH   3   5
ATOM      5  N   UNL d   1      -0.303  -4.536   4.517  0.00  0.00    -0.367 N 
ATOM      6  H   UNL d   1      -0.050  -5.474   4.222  0.00  0.00     0.161 HD
BRANCH   5   7
ATOM      7  C   UNL d   1      -1.290  -4.413   5.579  0.00  0.00     0.124 C 
BRANCH   7   8
ATOM      8  C   UNL d   1      -0.678  -4.440   6.975  0.00  0.00     0.046 C 
BRANCH   8   9
ATOM      9  C   UNL d   1       0.416  -3.403   7.213  0.00  0.00     0.168 C 
BRANCH   9  10
ATOM     10  O   UNL d   1      -0.066  -2.090   6.920  0.00  0.00    -0.396 OA
ATOM     11  C   UNL d   1       0.949  -1.113   7.163  0.00  0.00     0.201 C 
ENDBRANCH   9  10
ENDBRANCH   8   9
ENDBRANCH   7   8
ENDBRANCH   5   7
ENDBRANCH   3   5
ENDBRANCH   1   3
BRANCH   1  12
ATOM     12  C   UNL d   1      -0.550  -1.119   3.242  0.00  0.00     0.035 A 
ATOM     13  C   UNL d   1      -0.758  -1.092   1.865  0.00  0.00     0.045 A 
ATOM     14  C   UNL d   1      -1.040   0.116   1.200  0.00  0.00     0.050 A 
ATOM     15  C   UNL d   1      -1.131   1.301   1.939  0.00  0.00     0.016 A 
ATOM     16  C   UNL d   1      -0.955   1.284   3.320  0.00  0.00     0.003 A 
ATOM     17  C   UNL d   1      -0.675   0.077   3.962  0.00  0.00     0.029 A 
BRANCH  14  18
ATOM     18  C   UNL d   1      -1.260   0.135  -0.292  0.00  0.00     0.417 C 
ATOM     19  F   UNL d   1      -1.125  -1.083  -0.887  0.00  0.00    -0.166 F 
ATOM     20  F   UNL d   1      -0.388   0.962  -0.933  0.00  0.00    -0.166 F 
ATOM     21  F   UNL d   1      -2.505   0.575  -0.626  0.00  0.00    -0.166 F 
ENDBRANCH  14  18
ENDBRANCH   1  12
TORSDOF 8
