REMARK  3 active torsions:
REMARK  status: ('A' for Active; 'I' for Inactive)
REMARK    1  A    between atoms: N_2  and  C_1 
REMARK    2  A    between atoms: N_3  and  C_1 
REMARK    3  A    between atoms: C_6  and  N_3 
ROOT
ATOM      1  C   UNL d   1       0.783  -0.043  -0.037  0.00  0.00     0.174 C 
ATOM      2  S   UNL d   1       0.791  -0.373  -1.688  0.00  0.00    -0.041 SA
ENDROOT
BRANCH   1   3
ATOM      3  N   UNL d   1       0.082  -0.803   0.921  0.00  0.00    -0.354 N 
ATOM      4  C   UNL d   1       0.512  -0.849   2.338  0.00  0.00     0.082 C 
ATOM      5  C   UNL d   1      -0.497  -0.161   3.257  0.00  0.00     0.032 C 
ATOM      6  C   UNL d   1       0.806  -2.297   2.772  0.00  0.00     0.025 C 
ATOM      7  C   UNL d   1      -0.330  -3.260   2.436  0.00  0.00     0.004 C 
ATOM      8  C   UNL d   1      -0.679  -3.170   0.955  0.00  0.00     0.020 C 
ATOM      9  C   UNL d   1      -1.005  -1.733   0.562  0.00  0.00     0.125 C 
ENDBRANCH   1   3
BRANCH   1  10
ATOM     10  N   UNL d   1       1.394   1.072   0.522  0.00  0.00    -0.333 N 
ATOM     11  H   UNL d   1       0.795   1.581   1.158  0.00  0.00     0.168 HD
BRANCH  10  12
ATOM     12  C   UNL d   1       2.558   1.746   0.094  0.00  0.00     0.034 A 
ATOM     13  C   UNL d   1       3.628   1.067  -0.497  0.00  0.00     0.036 A 
ATOM     14  C   UNL d   1       4.805   1.746  -0.840  0.00  0.00    -0.060 A 
ATOM     15  C   UNL d   1       5.971   1.004  -1.423  0.00  0.00     0.048 C 
ATOM     16  C   UNL d   1       4.897   3.120  -0.592  0.00  0.00     0.007 A 
ATOM     17  C   UNL d   1       3.837   3.800   0.006  0.00  0.00     0.003 A 
ATOM     18  C   UNL d   1       2.677   3.110   0.367  0.00  0.00     0.029 A 
ENDBRANCH  10  12
ENDBRANCH   1  10
TORSDOF 3
