REMARK  11 active torsions:
REMARK  status: ('A' for Active; 'I' for Inactive)
REMARK    1  A    between atoms: C_6  and  N_1 
REMARK    2  A    between atoms: C_7  and  C_6 
REMARK    3  A    between atoms: C_9  and  C_7 
REMARK    4  A    between atoms: O_12  and  C_7 
REMARK    5  A    between atoms: N_8  and  C_9 
REMARK    6  A    between atoms: C_10  and  N_8 
REMARK    7  A    between atoms: C_11  and  N_8 
REMARK    8  A    between atoms: C_17  and  C_10 
REMARK    9  A    between atoms: C_18  and  C_11 
REMARK   10  A    between atoms: C_19  and  C_17 
REMARK   11  A    between atoms: C_20  and  C_18 
ROOT
ATOM      1  C   UNL d   1       2.349  -5.244   0.500  0.00  0.00     0.153 C 
ENDROOT
BRANCH   1   2
ATOM      2  C   UNL d   1       3.198  -5.084  -0.772  0.00  0.00     0.162 C 
BRANCH   2   3
ATOM      3  N   UNL d   1       4.450  -5.832  -0.753  0.00  0.00    -0.343 N 
ATOM      4  C   UNL d   1       4.585  -7.167  -1.116  0.00  0.00     0.046 A 
ATOM      5  C   UNL d   1       5.926  -7.508  -0.935  0.00  0.00     0.003 A 
ATOM      6  C   UNL d   1       3.651  -8.102  -1.599  0.00  0.00     0.030 A 
ATOM      7  C   UNL d   1       6.348  -8.828  -1.214  0.00  0.00     0.014 A 
ATOM      8  C   UNL d   1       6.618  -6.332  -0.522  0.00  0.00     0.003 A 
ATOM      9  C   UNL d   1       5.430  -9.758  -1.705  0.00  0.00     0.001 A 
ATOM     10  C   UNL d   1       4.102  -9.393  -1.903  0.00  0.00     0.002 A 
ATOM     11  C   UNL d   1       5.691  -5.290  -0.466  0.00  0.00     0.046 A 
ATOM     12  C   UNL d   1       7.975  -6.056  -0.235  0.00  0.00     0.014 A 
ATOM     13  C   UNL d   1       6.080  -3.974  -0.172  0.00  0.00     0.030 A 
ATOM     14  C   UNL d   1       7.432  -3.724   0.089  0.00  0.00     0.002 A 
ATOM     15  C   UNL d   1       8.367  -4.753   0.070  0.00  0.00     0.001 A 
ENDBRANCH   2   3
ENDBRANCH   1   2
BRANCH   1  16
ATOM     16  C   UNL d   1       2.691  -4.278   1.678  0.00  0.00     0.150 C 
BRANCH  16  17
ATOM     17  N   UNL d   1       2.645  -2.817   1.514  0.00  0.00    -0.410 N 
BRANCH  17  18
ATOM     18  C   UNL d   1       1.513  -2.231   0.767  0.00  0.00     0.117 C 
BRANCH  18  19
ATOM     19  C   UNL d   1       0.230  -1.697   1.463  0.00  0.00     0.023 C 
BRANCH  19  20
ATOM     20  C   UNL d   1      -0.880  -2.699   1.847  0.00  0.00    -0.021 C 
ATOM     21  C   UNL d   1      -0.632  -3.421   3.168  0.00  0.00     0.009 C 
ATOM     22  C   UNL d   1      -2.223  -1.959   1.967  0.00  0.00     0.009 C 
ENDBRANCH  19  20
ENDBRANCH  18  19
ENDBRANCH  17  18
BRANCH  17  23
ATOM     23  C   UNL d   1       2.946  -2.036   2.729  0.00  0.00     0.117 C 
BRANCH  23  24
ATOM     24  C   UNL d   1       4.037  -2.501   3.711  0.00  0.00     0.023 C 
BRANCH  24  25
ATOM     25  C   UNL d   1       5.485  -2.571   3.207  0.00  0.00    -0.021 C 
ATOM     26  C   UNL d   1       5.996  -1.243   2.652  0.00  0.00     0.009 C 
ATOM     27  C   UNL d   1       6.394  -3.032   4.353  0.00  0.00     0.009 C 
ENDBRANCH  24  25
ENDBRANCH  23  24
ENDBRANCH  17  23
ENDBRANCH  16  17
ENDBRANCH   1  16
BRANCH   1  28
ATOM     28  O   UNL d   1       0.958  -5.166   0.148  0.00  0.00    -0.392 OA
ATOM     29  H   UNL d   1       0.448  -5.199   0.976  0.00  0.00     0.210 HD
ENDBRANCH   1  28
TORSDOF 11
