REMARK  5 active torsions:
REMARK  status: ('A' for Active; 'I' for Inactive)
REMARK    1  A    between atoms: N_3  and  C_1 
REMARK    2  A    between atoms: N_10  and  C_1 
REMARK    3  A    between atoms: C_2  and  N_3 
REMARK    4  A    between atoms: N_5  and  N_10 
REMARK    5  A    between atoms: C_7  and  C_12 
ROOT
ATOM      1  C   UNL d   1       1.241  -0.075   0.044  0.00  0.00     0.191 C 
ATOM      2  S   UNL d   1       0.640   0.305   1.560  0.00  0.00    -0.039 SA
ENDROOT
BRANCH   1   3
ATOM      3  N   UNL d   1       0.555  -0.540  -1.056  0.00  0.00    -0.331 N 
ATOM      4  H   UNL d   1       0.981  -0.239  -1.930  0.00  0.00     0.168 HD
BRANCH   3   5
ATOM      5  C   UNL d   1      -0.758  -1.066  -1.115  0.00  0.00     0.057 A 
ATOM      6  C   UNL d   1      -1.238  -1.906  -0.102  0.00  0.00     0.055 A 
ATOM      7  C   UNL d   1      -2.534  -2.415  -0.163  0.00  0.00     0.036 A 
ATOM      8 CL   UNL d   1      -3.103  -3.451   1.088  0.00  0.00    -0.084 Cl
ATOM      9  C   UNL d   1      -3.367  -2.102  -1.234  0.00  0.00     0.026 A 
ATOM     10  C   UNL d   1      -2.884  -1.305  -2.273  0.00  0.00     0.028 A 
ATOM     11  C   UNL d   1      -1.575  -0.809  -2.226  0.00  0.00     0.060 A 
ATOM     12 CL   UNL d   1      -1.025   0.169  -3.541  0.00  0.00    -0.082 Cl
ENDBRANCH   3   5
ENDBRANCH   1   3
BRANCH   1  13
ATOM     13  N   UNL d   1       2.586   0.128  -0.171  0.00  0.00    -0.276 N 
ATOM     14  H   UNL d   1       3.130   0.451   0.627  0.00  0.00     0.189 HD
BRANCH  13  15
ATOM     15  N   UNL d   1       3.207  -0.220  -1.333  0.00  0.00    -0.309 N 
ATOM     16  C   UNL d   1       4.503  -0.146  -1.277  0.00  0.00     0.120 C 
ATOM     17  HN  UNL d   1       2.701  -0.510  -2.170  1.00  0.00     0.186 HD
BRANCH  16  18
ATOM     18  C   UNL d   1       5.365  -0.489  -2.428  0.00  0.00     0.002 A 
ATOM     19  C   UNL d   1       6.763  -0.416  -2.348  0.00  0.00     0.045 A 
ATOM     20 CL   UNL d   1       7.602   0.054  -0.911  0.00  0.00    -0.083 Cl
ATOM     21  C   UNL d   1       7.543  -0.734  -3.465  0.00  0.00     0.024 A 
ATOM     22  C   UNL d   1       6.936  -1.129  -4.659  0.00  0.00     0.002 A 
ATOM     23  C   UNL d   1       5.548  -1.211  -4.738  0.00  0.00     0.001 A 
ATOM     24  C   UNL d   1       4.763  -0.894  -3.629  0.00  0.00     0.014 A 
ENDBRANCH  16  18
ENDBRANCH  13  15
ENDBRANCH   1  13
TORSDOF 5
