REMARK  5 active torsions:
REMARK  status: ('A' for Active; 'I' for Inactive)
REMARK    1  A    between atoms: C_7  and  C_1 
REMARK    2  A    between atoms: C_5  and  O_8 
REMARK    3  A    between atoms: O_17  and  C_7 
REMARK    4  A    between atoms: O_8  and  C_10 
REMARK    5  A    between atoms: C_18  and  O_17 
ROOT
ATOM      1  C   UNL d   1      -2.434  -0.155  -0.112  0.00  0.00     0.109 A 
ATOM      2  N   UNL d   1      -1.647   0.974  -0.115  0.00  0.00    -0.351 N 
ATOM      3  C   UNL d   1      -1.579  -1.242  -0.105  0.00  0.00     0.049 A 
ATOM      4  C   UNL d   1      -0.249  -0.757  -0.077  0.00  0.00    -0.004 A 
ATOM      5  C   UNL d   1      -0.315   0.633  -0.094  0.00  0.00     0.043 A 
ATOM      6  C   UNL d   1       1.010  -1.377  -0.026  0.00  0.00     0.051 A 
ATOM      7  C   UNL d   1       2.174  -0.599   0.009  0.00  0.00     0.079 A 
ATOM      8  C   UNL d   1       0.833   1.434  -0.087  0.00  0.00     0.033 A 
ATOM      9  C   UNL d   1       2.080   0.790  -0.055  0.00  0.00     0.039 A 
ATOM     10  H   UNL d   1      -2.011   1.916  -0.106  0.00  0.00     0.166 HD
ENDROOT
BRANCH   1  11
ATOM     11  C   UNL d   1      -3.879  -0.105  -0.061  0.00  0.00     0.310 C 
ATOM     12  O   UNL d   1      -4.531   0.924   0.005  0.00  0.00    -0.258 OA
BRANCH  11  13
ATOM     13  O   UNL d   1      -4.365  -1.373   0.004  0.00  0.00    -0.317 OA
BRANCH  13  14
ATOM     14  C   UNL d   1      -5.702  -1.495   0.502  0.00  0.00     0.175 C 
ATOM     15  C   UNL d   1      -5.637  -1.565   2.016  0.00  0.00     0.034 C 
ENDBRANCH  13  14
ENDBRANCH  11  13
ENDBRANCH   1  11
BRANCH   7  16
ATOM     16  O   UNL d   1       3.316  -1.338   0.066  0.00  0.00    -0.255 OA
BRANCH  16  17
ATOM     17  C   UNL d   1       4.500  -0.781   0.615  0.00  0.00     0.530 C 
ATOM     18  F   UNL d   1       4.297   0.340   1.341  0.00  0.00    -0.144 F 
ATOM     19  F   UNL d   1       5.061  -1.700   1.430  0.00  0.00    -0.144 F 
ATOM     20  F   UNL d   1       5.373  -0.510  -0.377  0.00  0.00    -0.144 F 
ENDBRANCH  16  17
ENDBRANCH   7  16
TORSDOF 5
