REMARK  10 active torsions:
REMARK  status: ('A' for Active; 'I' for Inactive)
REMARK    1  A    between atoms: S_8  and  C_2 
REMARK    2  A    between atoms: C_22  and  C_7 
REMARK    3  A    between atoms: C_16  and  S_8 
REMARK    4  A    between atoms: C_9  and  C_16 
REMARK       I    between atoms: N_11  and  C_9 
REMARK    5  A    between atoms: C_10  and  C_27 
REMARK       I    between atoms: N_12  and  C_10 
REMARK    6  A    between atoms: C_21  and  N_11 
REMARK    7  A    between atoms: C_23  and  N_12 
REMARK    8  A    between atoms: C_24  and  C_13 
REMARK    9  A    between atoms: S_19  and  C_22 
REMARK   10  A    between atoms: C_27  and  S_19 
ROOT
ATOM      1  N   UNL d   1       0.589  -0.102  -0.514  0.00  0.00    -0.319 N 
ATOM      2  C   UNL d   1      -0.233   0.983  -0.634  0.00  0.00     0.162 C 
ATOM      3  N   UNL d   1      -1.430   0.670  -0.186  0.00  0.00    -0.278 N 
ATOM      4  HN  UNL d   1      -2.214   1.312  -0.070  1.00  0.00     0.189 HD
ATOM      5  N   UNL d   1      -1.433  -0.671   0.097  0.00  0.00    -0.286 N 
ATOM      6  HN  UNL d   1      -2.231  -1.207   0.438  1.00  0.00     0.188 HD
ATOM      7  C   UNL d   1      -0.225  -1.151  -0.146  0.00  0.00     0.109 C 
ATOM      8  C   UNL d   1       2.017  -0.146  -0.718  0.00  0.00     0.159 C 
ENDROOT
BRANCH   2   9
ATOM      9  S   UNL d   1       0.234   2.450  -1.417  0.00  0.00    -0.083 SA
BRANCH   9  10
ATOM     10  C   UNL d   1      -1.053   3.639  -0.949  0.00  0.00     0.185 C 
BRANCH  10  11
ATOM     11  C   UNL d   1      -2.330   3.538  -1.771  0.00  0.00     0.231 C 
ATOM     12  N   UNL d   1      -2.994   2.336  -1.664  0.00  0.00    -0.327 N 
ATOM     13  H   UNL d   1      -2.677   1.690  -0.941  0.00  0.00     0.169 HD
ATOM     14  O   UNL d   1      -2.754   4.519  -2.381  0.00  0.00    -0.272 OA
BRANCH  12  15
ATOM     15  C   UNL d   1      -4.122   1.925  -2.393  0.00  0.00     0.034 A 
ATOM     16  C   UNL d   1      -4.465   2.454  -3.636  0.00  0.00     0.030 A 
ATOM     17  C   UNL d   1      -5.546   1.925  -4.349  0.00  0.00     0.010 A 
ATOM     18  C   UNL d   1      -6.319   0.882  -3.817  0.00  0.00    -0.055 A 
ATOM     19  C   UNL d   1      -5.991   0.389  -2.547  0.00  0.00     0.010 A 
ATOM     20  C   UNL d   1      -4.887   0.889  -1.854  0.00  0.00     0.030 A 
BRANCH  18  21
ATOM     21  C   UNL d   1      -7.448   0.240  -4.601  0.00  0.00     0.010 C 
ATOM     22  C   UNL d   1      -8.519   1.248  -5.020  0.00  0.00     0.015 C 
ATOM     23  C   UNL d   1      -6.898  -0.513  -5.816  0.00  0.00     0.015 C 
ENDBRANCH  18  21
ENDBRANCH  12  15
ENDBRANCH  10  11
ENDBRANCH   9  10
ENDBRANCH   2   9
BRANCH   7  24
ATOM     24  C   UNL d   1       0.176  -2.587  -0.114  0.00  0.00     0.152 C 
BRANCH  24  25
ATOM     25  S   UNL d   1       1.059  -3.058   1.415  0.00  0.00    -0.152 SA
BRANCH  25  26
ATOM     26  C   UNL d   1      -0.332  -2.930   2.585  0.00  0.00     0.177 C 
BRANCH  26  27
ATOM     27  C   UNL d   1       0.030  -3.190   4.036  0.00  0.00     0.231 C 
ATOM     28  N   UNL d   1       1.265  -3.750   4.277  0.00  0.00    -0.327 N 
ATOM     29  H   UNL d   1       1.849  -3.894   3.464  0.00  0.00     0.169 HD
ATOM     30  O   UNL d   1      -0.807  -2.915   4.901  0.00  0.00    -0.272 OA
BRANCH  28  31
ATOM     31  C   UNL d   1       1.825  -4.102   5.535  0.00  0.00     0.034 A 
ATOM     32  C   UNL d   1       1.148  -3.967   6.753  0.00  0.00     0.029 A 
ATOM     33  C   UNL d   1       1.763  -4.328   7.958  0.00  0.00     0.002 A 
ATOM     34  C   UNL d   1       3.054  -4.842   7.958  0.00  0.00     0.000 A 
ATOM     35  C   UNL d   1       3.737  -4.989   6.753  0.00  0.00     0.002 A 
ATOM     36  C   UNL d   1       3.122  -4.624   5.548  0.00  0.00     0.029 A 
ENDBRANCH  28  31
ENDBRANCH  26  27
ENDBRANCH  25  26
ENDBRANCH  24  25
ENDBRANCH   7  24
TORSDOF 10
