REMARK  4 active torsions:
REMARK  status: ('A' for Active; 'I' for Inactive)
REMARK    1  A    between atoms: N_2  and  C_1 
REMARK    2  A    between atoms: S_6  and  C_3 
REMARK    3  A    between atoms: C_9  and  C_5 
REMARK    4  A    between atoms: C_13  and  S_6 
ROOT
ATOM      1  C   UNL d   1       1.418  -0.147  -0.127  0.00  0.00     0.120 A 
ATOM      2  C   UNL d   1       0.653  -1.317  -0.072  0.00  0.00     0.038 A 
ATOM      3  C   UNL d   1       0.844   1.129  -0.020  0.00  0.00     0.052 A 
ATOM      4  C   UNL d   1      -0.544   1.261   0.118  0.00  0.00     0.012 A 
ATOM      5  C   UNL d   1      -0.736  -1.168   0.051  0.00  0.00     0.022 A 
ATOM      6  C   UNL d   1      -1.330   0.103   0.146  0.00  0.00     0.016 A 
ENDROOT
BRANCH   2   7
ATOM      7  S   UNL d   1       1.314  -2.974  -0.170  0.00  0.00    -0.088 SA
BRANCH   7   8
ATOM      8  C   UNL d   1       1.418  -3.416   1.556  0.00  0.00     0.005 A 
ATOM      9  C   UNL d   1       0.597  -4.431   2.061  0.00  0.00     0.019 A 
ATOM     10  C   UNL d   1       0.691  -4.813   3.403  0.00  0.00     0.001 A 
ATOM     11  C   UNL d   1       1.607  -4.185   4.246  0.00  0.00     0.000 A 
ATOM     12  C   UNL d   1       2.434  -3.182   3.747  0.00  0.00     0.001 A 
ATOM     13  C   UNL d   1       2.346  -2.805   2.405  0.00  0.00     0.019 A 
ENDBRANCH   7   8
ENDBRANCH   2   7
BRANCH   1  14
ATOM     14  N   UNL d   1       2.853  -0.205  -0.303  0.00  0.00    -0.114 N 
ATOM     15  O   UNL d   1       3.274  -0.584  -1.403  0.00  0.00    -0.532 OA
ATOM     16  O   UNL d   1       3.547   0.172   0.650  0.00  0.00    -0.532 OA
ENDBRANCH   1  14
BRANCH   4  17
ATOM     17  C   UNL d   1      -1.099   2.646   0.224  0.00  0.00     0.155 C 
ATOM     18  O   UNL d   1      -0.322   3.600   0.173  0.00  0.00    -0.293 OA
ATOM     19  C   UNL d   1      -2.574   2.886   0.423  0.00  0.00     0.096 C 
ENDBRANCH   4  17
TORSDOF 4
