REMARK  5 active torsions:
REMARK  status: ('A' for Active; 'I' for Inactive)
REMARK    1  A    between atoms: S_14  and  C_3 
REMARK    2  A    between atoms: C_4  and  C_5 
REMARK    3  A    between atoms: C_7  and  C_12 
REMARK    4  A    between atoms: C_12  and  C_19 
REMARK    5  A    between atoms: C_19  and  S_14 
ROOT
ATOM      1  S   UNL d   1      -2.971   2.983   0.195  0.00  0.00    -0.086 SA
ENDROOT
BRANCH   1   2
ATOM      2  C   UNL d   1      -2.576   1.256   0.245  0.00  0.00     0.144 A 
ATOM      3  N   UNL d   1      -1.296   0.877   0.117  0.00  0.00    -0.336 N 
ATOM      4  C   UNL d   1      -1.047  -0.451   0.173  0.00  0.00     0.052 A 
ATOM      5  HN  UNL d   1      -0.547   1.557  -0.017  1.00  0.00     0.168 HD
ATOM      6  C   UNL d   1      -2.038  -1.388   0.382  0.00  0.00     0.048 A 
ATOM      7  C   UNL d   1      -3.313  -0.894   0.495  0.00  0.00     0.092 A 
ATOM      8  N   UNL d   1      -3.606   0.415   0.427  0.00  0.00    -0.347 N 
ATOM      9  HN  UNL d   1      -4.565   0.754   0.510  1.00  0.00     0.167 HD
BRANCH   4  10
ATOM     10  C   UNL d   1       0.372  -0.795   0.007  0.00  0.00     0.031 A 
ATOM     11  S   UNL d   1       0.854  -2.316  -0.636  0.00  0.00    -0.100 SA
ATOM     12  C   UNL d   1       2.512  -1.921  -0.538  0.00  0.00     0.050 A 
ATOM     13  C   UNL d   1       2.712  -0.658  -0.031  0.00  0.00     0.008 A 
ATOM     14  C   UNL d   1       1.482  -0.010   0.277  0.00  0.00     0.021 A 
ENDBRANCH   4  10
ENDBRANCH   1   2
BRANCH   1  15
ATOM     15  C   UNL d   1      -1.302   3.701   0.054  0.00  0.00     0.166 C 
BRANCH  15  16
ATOM     16  C   UNL d   1      -1.335   5.223   0.095  0.00  0.00     0.169 C 
ATOM     17  O   UNL d   1      -2.371   5.884   0.163  0.00  0.00    -0.291 OA
BRANCH  16  18
ATOM     18  C   UNL d   1      -0.033   5.965   0.060  0.00  0.00     0.013 A 
ATOM     19  C   UNL d   1      -0.068   7.370   0.094  0.00  0.00     0.054 A 
ATOM     20  C   UNL d   1       1.114   8.119   0.094  0.00  0.00     0.102 A 
ATOM     21  O   UNL d   1       0.942   9.481   0.065  0.00  0.00    -0.348 OA
ATOM     22  C   UNL d   1       2.349   7.463   0.134  0.00  0.00     0.102 A 
ATOM     23  C   UNL d   1       1.933  10.156  -0.714  0.00  0.00     0.178 C 
ATOM     24  C   UNL d   1       3.165  10.463   0.120  0.00  0.00     0.053 C 
ATOM     25  C   UNL d   1       3.551   9.288   0.999  0.00  0.00     0.178 C 
ATOM     26  O   UNL d   1       3.575   8.071   0.246  0.00  0.00    -0.348 OA
ATOM     27  C   UNL d   1       2.389   6.069   0.046  0.00  0.00     0.040 A 
ATOM     28  C   UNL d   1       1.206   5.320   0.003  0.00  0.00     0.018 A 
ENDBRANCH  16  18
ENDBRANCH  15  16
ENDBRANCH   1  15
TORSDOF 5
