REMARK  9 active torsions:
REMARK  status: ('A' for Active; 'I' for Inactive)
REMARK    1  A    between atoms: C_11  and  N_1 
REMARK    2  A    between atoms: C_8  and  C_2 
REMARK    3  A    between atoms: S_15  and  C_5 
REMARK    4  A    between atoms: C_8  and  N_10 
REMARK    5  A    between atoms: C_13  and  C_8 
REMARK       I    between atoms: C_9  and  N_10 
REMARK    6  A    between atoms: O_12  and  C_9 
REMARK    7  A    between atoms: C_18  and  C_11 
REMARK    8  A    between atoms: C_17  and  O_12 
REMARK    9  A    between atoms: C_19  and  C_13 
ROOT
ATOM      1  C   UNL d   1       2.084  -1.552   0.736  0.00  0.00     0.160 C 
ENDROOT
BRANCH   1   2
ATOM      2  C   UNL d   1       0.600  -1.225   0.917  0.00  0.00     0.123 C 
ATOM      3  N   UNL d   1      -0.375  -1.854   1.701  0.00  0.00    -0.311 N 
ATOM      4  C   UNL d   1      -1.565  -1.391   1.184  0.00  0.00     0.160 C 
ATOM      5  N   UNL d   1      -1.342  -0.371   0.393  0.00  0.00    -0.278 N 
ATOM      6  N   UNL d   1       0.010  -0.245   0.249  0.00  0.00    -0.285 N 
ATOM      7  HN  UNL d   1      -2.050   0.223  -0.037  1.00  0.00     0.189 HD
ATOM      8  HN  UNL d   1       0.486   0.482  -0.285  1.00  0.00     0.188 HD
BRANCH   3   9
ATOM      9  C   UNL d   1      -0.216  -2.936   2.660  0.00  0.00     0.164 C 
BRANCH   9  10
ATOM     10  C   UNL d   1      -0.706  -2.723   4.112  0.00  0.00     0.140 C 
ATOM     11  O   UNL d   1      -2.120  -2.525   4.184  0.00  0.00    -0.384 OA
ATOM     12  C   UNL d   1      -2.735  -3.533   4.989  0.00  0.00     0.168 C 
ATOM     13  C   UNL d   1      -1.651  -4.285   5.715  0.00  0.00     0.029 C 
ATOM     14  C   UNL d   1      -0.383  -3.948   4.972  0.00  0.00     0.035 C 
ENDBRANCH   9  10
ENDBRANCH   3   9
BRANCH   4  15
ATOM     15  S   UNL d   1      -3.121  -2.124   1.372  0.00  0.00    -0.105 SA
ATOM     16  H   UNL d   1      -3.099  -2.265   2.707  0.00  0.00     0.110 HD
ENDBRANCH   4  15
ENDBRANCH   1   2
BRANCH   1  17
ATOM     17  N   UNL d   1       2.759  -0.725   1.738  0.00  0.00    -0.325 N 
ATOM     18  C   UNL d   1       4.013  -0.843   2.229  0.00  0.00     0.362 C 
ATOM     19  O   UNL d   1       4.596  -1.893   2.417  0.00  0.00    -0.238 OA
ATOM     20  H   UNL d   1       2.510   0.259   1.667  0.00  0.00     0.165 HD
BRANCH  18  21
ATOM     21  O   UNL d   1       4.535   0.378   2.531  0.00  0.00    -0.294 OA
BRANCH  21  22
ATOM     22  C   UNL d   1       5.920   0.474   3.006  0.00  0.00     0.061 C 
ATOM     23  C   UNL d   1       6.906  -0.128   1.990  0.00  0.00     0.046 C 
ATOM     24  C   UNL d   1       6.238   1.980   3.152  0.00  0.00     0.046 C 
ATOM     25  C   UNL d   1       6.066  -0.188   4.387  0.00  0.00     0.046 C 
ENDBRANCH  21  22
ENDBRANCH  18  21
ENDBRANCH   1  17
BRANCH   1  26
ATOM     26  C   UNL d   1       2.248  -3.086   0.469  0.00  0.00     0.071 C 
BRANCH  26  27
ATOM     27  C   UNL d   1       3.495  -3.830   0.030  0.00  0.00    -0.056 A 
ATOM     28  C   UNL d   1       4.434  -4.254   0.979  0.00  0.00     0.007 A 
ATOM     29  C   UNL d   1       5.485  -5.112   0.652  0.00  0.00     0.001 A 
ATOM     30  C   UNL d   1       5.568  -5.645  -0.626  0.00  0.00     0.000 A 
ATOM     31  C   UNL d   1       4.618  -5.287  -1.579  0.00  0.00     0.001 A 
ATOM     32  C   UNL d   1       3.602  -4.371  -1.262  0.00  0.00     0.007 A 
ENDBRANCH  26  27
ENDBRANCH   1  26
TORSDOF 9
