REMARK  3 active torsions:
REMARK  status: ('A' for Active; 'I' for Inactive)
REMARK    1  A    between atoms: C_9  and  N_1 
REMARK    2  A    between atoms: N_7  and  C_2 
REMARK    3  A    between atoms: N_18  and  C_11 
ROOT
ATOM      1  N   UNL d   1      -0.067  -1.292   0.014  0.00  0.00    -0.221 N 
ATOM      2  C   UNL d   1       1.192  -0.675   0.161  0.00  0.00     0.166 A 
ATOM      3  N   UNL d   1      -1.021  -0.341  -0.198  0.00  0.00    -0.012 NA
ATOM      4  C   UNL d   1       0.871   0.673   0.054  0.00  0.00     0.173 A 
ATOM      5  N   UNL d   1      -0.455   0.852  -0.170  0.00  0.00    -0.271 N 
ATOM      6  HN  UNL d   1      -0.929   1.747  -0.294  1.00  0.00     0.185 HD
ATOM      7  C   UNL d   1       1.739   1.800   0.131  0.00  0.00     0.122 C 
ATOM      8  N   UNL d   1       2.477   2.695   0.166  0.00  0.00    -0.190 NA
ENDROOT
BRANCH   2   9
ATOM      9  N   UNL d   1       2.343  -1.371   0.395  0.00  0.00    -0.335 N 
ATOM     10  C   UNL d   1       3.439  -0.945  -0.145  0.00  0.00     0.179 C 
ATOM     11  HN  UNL d   1       2.339  -2.206   0.982  1.00  0.00     0.168 HD
BRANCH  10  12
ATOM     12  N   UNL d   1       4.685  -1.502  -0.002  0.00  0.00    -0.386 N 
ATOM     13  C   UNL d   1       5.875  -0.875  -0.554  0.00  0.00     0.149 C 
ATOM     14  C   UNL d   1       4.897  -2.765   0.686  0.00  0.00     0.149 C 
ENDBRANCH  10  12
ENDBRANCH   2   9
BRANCH   1  15
ATOM     15  C   UNL d   1      -0.438  -2.673   0.003  0.00  0.00     0.060 A 
ATOM     16  C   UNL d   1       0.482  -3.697   0.248  0.00  0.00     0.055 A 
ATOM     17  C   UNL d   1       0.089  -5.035   0.146  0.00  0.00     0.037 A 
ATOM     18 CL   UNL d   1       1.246  -6.281   0.420  0.00  0.00    -0.084 Cl
ATOM     19  C   UNL d   1      -1.218  -5.374  -0.187  0.00  0.00     0.048 A 
ATOM     20  C   UNL d   1      -2.145  -4.360  -0.398  0.00  0.00     0.037 A 
ATOM     21  C   UNL d   1      -1.770  -3.018  -0.298  0.00  0.00     0.055 A 
ATOM     22 CL   UNL d   1      -3.767  -4.764  -0.809  0.00  0.00    -0.084 Cl
ENDBRANCH   1  15
TORSDOF 3
