REMARK  6 active torsions:
REMARK  status: ('A' for Active; 'I' for Inactive)
REMARK    1  A    between atoms: N_2  and  C_1 
REMARK    2  A    between atoms: N_8  and  C_4 
REMARK    3  A    between atoms: O_12  and  C_6 
REMARK    4  A    between atoms: O_13  and  C_7 
REMARK    5  A    between atoms: C_19  and  O_12 
REMARK    6  A    between atoms: C_18  and  O_13 
ROOT
ATOM      1  C   UNL d   1       1.365  -0.239   0.038  0.00  0.00     0.139 A 
ATOM      2  C   UNL d   1       0.492  -1.331   0.154  0.00  0.00     0.078 A 
ATOM      3  C   UNL d   1      -1.411   0.181  -0.071  0.00  0.00     0.067 A 
ATOM      4  C   UNL d   1      -0.482   1.243  -0.165  0.00  0.00     0.071 A 
ATOM      5  C   UNL d   1       0.901   1.058  -0.165  0.00  0.00     0.104 A 
ATOM      6  C   UNL d   1      -0.892  -1.131   0.069  0.00  0.00     0.097 A 
ENDROOT
BRANCH   3   7
ATOM      7  N   UNL d   1      -2.757   0.511  -0.105  0.00  0.00    -0.374 N 
ATOM      8  C   UNL d   1      -3.806  -0.239   0.598  0.00  0.00     0.149 C 
ATOM      9  C   UNL d   1      -4.758  -0.898  -0.410  0.00  0.00     0.187 C 
ATOM     10  O   UNL d   1      -5.309   0.072  -1.320  0.00  0.00    -0.388 OA
ATOM     11  C   UNL d   1      -4.256   0.715  -2.055  0.00  0.00     0.187 C 
ATOM     12  C   UNL d   1      -3.273   1.443  -1.125  0.00  0.00     0.149 C 
ENDBRANCH   3   7
BRANCH   6  13
ATOM     13  O   UNL d   1      -1.798  -2.165   0.071  0.00  0.00    -0.349 OA
BRANCH  13  14
ATOM     14  C   UNL d   1      -1.305  -3.502   0.143  0.00  0.00     0.171 C 
ATOM     15  C   UNL d   1      -2.495  -4.445   0.118  0.00  0.00     0.034 C 
ENDBRANCH  13  14
ENDBRANCH   6  13
BRANCH   5  16
ATOM     16  O   UNL d   1       1.796   2.081  -0.326  0.00  0.00    -0.349 OA
BRANCH  16  17
ATOM     17  C   UNL d   1       1.286   3.239  -1.001  0.00  0.00     0.171 C 
ATOM     18  C   UNL d   1       2.439   4.062  -1.539  0.00  0.00     0.034 C 
ENDBRANCH  16  17
ENDBRANCH   5  16
BRANCH   1  19
ATOM     19  N   UNL d   1       2.784  -0.500   0.141  0.00  0.00    -0.113 N 
ATOM     20  O   UNL d   1       3.182  -1.016   1.194  0.00  0.00    -0.532 OA
ATOM     21  O   UNL d   1       3.486  -0.265  -0.853  0.00  0.00    -0.532 OA
ENDBRANCH   1  19
TORSDOF 6
