REMARK  1 active torsions:
REMARK  status: ('A' for Active; 'I' for Inactive)
REMARK    1  A    between atoms: C_7  and  C_1 
ROOT
ATOM      1  C   UNL d   1      -1.931  -0.879  -0.038  0.00  0.00     0.118 A 
ATOM      2  N   UNL d   1      -0.867  -1.669  -0.008  0.00  0.00    -0.340 N 
ATOM      3  HN  UNL d   1      -0.866  -2.689   0.010  1.00  0.00     0.167 HD
ATOM      4  N   UNL d   1      -1.527   0.445   0.009  0.00  0.00    -0.335 N 
ATOM      5  C   UNL d   1      -0.148   0.484  -0.011  0.00  0.00     0.062 A 
ATOM      6  C   UNL d   1       0.232  -0.848  -0.004  0.00  0.00     0.060 A 
ATOM      7  C   UNL d   1      -2.348   1.626   0.131  0.00  0.00     0.158 C 
ATOM      8  C   UNL d   1       0.779   1.535  -0.016  0.00  0.00     0.032 A 
ATOM      9  C   UNL d   1       1.594  -1.181   0.010  0.00  0.00     0.032 A 
ATOM     10  C   UNL d   1       2.135   1.188  -0.011  0.00  0.00     0.002 A 
ATOM     11  C   UNL d   1       2.539  -0.148   0.005  0.00  0.00     0.002 A 
ENDROOT
BRANCH   1  12
ATOM     12  C   UNL d   1      -3.316  -1.379  -0.061  0.00  0.00     0.008 A 
ATOM     13  C   UNL d   1      -3.618  -2.574   0.612  0.00  0.00     0.015 A 
ATOM     14  C   UNL d   1      -4.921  -3.078   0.636  0.00  0.00     0.001 A 
ATOM     15  C   UNL d   1      -5.943  -2.395  -0.017  0.00  0.00     0.000 A 
ATOM     16  C   UNL d   1      -5.656  -1.227  -0.720  0.00  0.00     0.001 A 
ATOM     17  C   UNL d   1      -4.347  -0.735  -0.758  0.00  0.00     0.015 A 
ENDBRANCH   1  12
TORSDOF 1
