REMARK  1 active torsions:
REMARK  status: ('A' for Active; 'I' for Inactive)
REMARK    1  A    between atoms: C_3  and  N_1 
ROOT
ATOM      1  N   UNL d   1       0.343  -1.043  -0.016  0.00  0.00    -0.266 N 
ATOM      2  C   UNL d   1      -0.729  -0.167  -0.085  0.00  0.00     0.148 A 
ATOM      3  C   UNL d   1       1.610  -0.475   0.069  0.00  0.00     0.239 A 
ATOM      4  S   UNL d   1      -0.155   1.492  -0.181  0.00  0.00    -0.090 SA
ATOM      5  S   UNL d   1      -2.372  -0.475   0.012  0.00  0.00    -0.052 SA
ATOM      6  C   UNL d   1       1.568   1.026  -0.020  0.00  0.00     0.185 A 
ATOM      7  O   UNL d   1       2.680  -1.069   0.173  0.00  0.00    -0.272 OA
ENDROOT
BRANCH   1   8
ATOM      8  C   UNL d   1       0.208  -2.465  -0.008  0.00  0.00     0.044 A 
ATOM      9  C   UNL d   1       0.861  -3.237   0.965  0.00  0.00     0.037 A 
ATOM     10  C   UNL d   1       0.715  -4.631   0.999  0.00  0.00    -0.060 A 
ATOM     11  C   UNL d   1       1.364  -5.450   2.076  0.00  0.00     0.048 C 
ATOM     12  C   UNL d   1      -0.052  -5.261   0.013  0.00  0.00     0.007 A 
ATOM     13  C   UNL d   1      -0.678  -4.509  -0.979  0.00  0.00     0.003 A 
ATOM     14  C   UNL d   1      -0.556  -3.118  -0.985  0.00  0.00     0.030 A 
ENDBRANCH   1   8
TORSDOF 1
