REMARK  1 active torsions:
REMARK  status: ('A' for Active; 'I' for Inactive)
REMARK    1  A    between atoms: O_11  and  C_5 
ROOT
ATOM      1  C   UNL d   1      -0.009  -0.791   0.007  0.00  0.00     0.025 A 
ATOM      2  N   UNL d   1       1.169   1.326  -0.050  0.00  0.00    -0.359 N 
ATOM      3  HN  UNL d   1       1.147   2.345  -0.071  1.00  0.00     0.166 HD
ATOM      4  C   UNL d   1       0.026   0.621  -0.029  0.00  0.00     0.045 A 
ATOM      5  C   UNL d   1       1.242  -1.440   0.018  0.00  0.00     0.080 A 
ATOM      6  C   UNL d   1       2.427  -0.715  -0.003  0.00  0.00     0.062 A 
ATOM      7  C   UNL d   1       2.350   0.665  -0.043  0.00  0.00     0.008 A 
ATOM      8  C   UNL d   1      -1.266  -1.446   0.027  0.00  0.00     0.040 A 
ATOM      9  C   UNL d   1      -1.172   1.323  -0.051  0.00  0.00     0.032 A 
ATOM     10  C   UNL d   1      -2.450  -0.710  -0.009  0.00  0.00     0.035 A 
ATOM     11  C   UNL d   1      -2.409   0.674  -0.049  0.00  0.00     0.026 A 
ATOM     12 CL   UNL d   1      -3.964  -1.527  -0.013  0.00  0.00    -0.084 Cl
ATOM     13  C   UNL d   1       3.590   1.505  -0.087  0.00  0.00     0.068 C 
ENDROOT
BRANCH   5  14
ATOM     14  O   UNL d   1       1.397  -2.800   0.039  0.00  0.00    -0.360 OA
ATOM     15  H   UNL d   1       0.542  -3.236  -0.087  0.00  0.00     0.217 HD
ENDBRANCH   5  14
TORSDOF 1
