REMARK  5 active torsions:
REMARK  status: ('A' for Active; 'I' for Inactive)
REMARK    1  A    between atoms: C_3  and  C_1 
REMARK       I    between atoms: N_5  and  C_3 
REMARK    2  A    between atoms: C_8  and  N_5 
REMARK    3  A    between atoms: C_13  and  C_9 
REMARK    4  A    between atoms: C_18  and  C_13 
REMARK    5  A    between atoms: C_19  and  C_14 
ROOT
ATOM      1  C   UNL d   1      -3.658  -0.091  -0.650  0.00  0.00     0.272 C 
ATOM      2  N   UNL d   1      -4.406  -1.243  -0.417  0.00  0.00    -0.321 N 
ATOM      3  O   UNL d   1      -2.446  -0.003  -0.498  0.00  0.00    -0.266 OA
ATOM      4  H   UNL d   1      -5.189  -1.302  -1.054  0.00  0.00     0.169 HD
ENDROOT
BRANCH   1   5
ATOM      5  C   UNL d   1      -4.448   1.017  -1.164  0.00  0.00     0.102 C 
ATOM      6  N   UNL d   1      -3.871   2.187  -1.620  0.00  0.00    -0.351 N 
ATOM      7  C   UNL d   1      -4.818   3.020  -2.173  0.00  0.00     0.043 A 
ATOM      8  H   UNL d   1      -2.875   2.362  -1.607  0.00  0.00     0.166 HD
ATOM      9  C   UNL d   1      -4.684   4.256  -2.817  0.00  0.00     0.031 A 
ATOM     10  C   UNL d   1      -6.052   2.398  -2.006  0.00  0.00    -0.007 A 
ATOM     11  C   UNL d   1      -5.840   4.836  -3.356  0.00  0.00     0.009 A 
ATOM     12  C   UNL d   1      -7.093   4.223  -3.233  0.00  0.00    -0.058 A 
ATOM     13  C   UNL d   1      -7.206   3.014  -2.527  0.00  0.00     0.021 A 
ATOM     14  C   UNL d   1      -5.816   1.180  -1.313  0.00  0.00     0.049 C 
BRANCH  12  15
ATOM     15  C   UNL d   1      -8.308   4.813  -3.909  0.00  0.00     0.034 C 
ATOM     16  C   UNL d   1      -8.495   4.251  -5.312  0.00  0.00     0.010 C 
ENDBRANCH  12  15
ENDBRANCH   1   5
BRANCH   2  17
ATOM     17  C   UNL d   1      -3.780  -2.477  -0.157  0.00  0.00     0.041 A 
ATOM     18  C   UNL d   1      -3.405  -2.905   1.131  0.00  0.00    -0.028 A 
ATOM     19  C   UNL d   1      -2.864  -4.211   1.239  0.00  0.00     0.010 A 
ATOM     20  C   UNL d   1      -2.700  -5.046   0.133  0.00  0.00     0.001 A 
ATOM     21  C   UNL d   1      -3.097  -4.610  -1.121  0.00  0.00     0.002 A 
ATOM     22  C   UNL d   1      -3.649  -3.339  -1.262  0.00  0.00     0.030 A 
BRANCH  18  23
ATOM     23  C   UNL d   1      -3.616  -2.164   2.455  0.00  0.00     0.016 C 
ATOM     24  C   UNL d   1      -4.463  -0.887   2.460  0.00  0.00     0.015 C 
BRANCH  23  25
ATOM     25  C   UNL d   1      -2.301  -1.939   3.243  0.00  0.00     0.004 C 
ATOM     26  C   UNL d   1      -1.272  -1.065   2.541  0.00  0.00     0.006 C 
ENDBRANCH  23  25
ENDBRANCH  18  23
ENDBRANCH   2  17
TORSDOF 5
