REMARK  5 active torsions:
REMARK  status: ('A' for Active; 'I' for Inactive)
REMARK    1  A    between atoms: C_2  and  S_1 
REMARK    2  A    between atoms: N_7  and  S_1 
REMARK       I    between atoms: C_3  and  N_6 
REMARK       I    between atoms: N_10  and  C_3 
REMARK    3  A    between atoms: N_6  and  C_4 
REMARK    4  A    between atoms: C_19  and  N_10 
REMARK    5  A    between atoms: C_11  and  C_12 
ROOT
ATOM      1  C   UNL d   1       1.367   6.689   0.804  0.00  0.00     0.325 C 
ATOM      2  N   UNL d   1       1.699   5.389   0.422  0.00  0.00    -0.308 N 
ATOM      3  N   UNL d   1       0.113   6.752   1.394  0.00  0.00    -0.309 N 
ATOM      4  O   UNL d   1       2.111   7.651   0.668  0.00  0.00    -0.247 OA
ATOM      5  H   UNL d   1       1.072   4.662   0.725  0.00  0.00     0.170 HD
ATOM      6  H   UNL d   1      -0.317   5.881   1.664  0.00  0.00     0.170 HD
ENDROOT
BRANCH   2   7
ATOM      7  C   UNL d   1       2.969   4.977  -0.071  0.00  0.00     0.043 C 
ATOM      8  C   UNL d   1       3.894   5.893  -0.594  0.00  0.00     0.055 C 
ATOM      9  C   UNL d   1       5.209   5.502  -0.866  0.00  0.00     0.081 C 
ATOM     10  C   UNL d   1       5.623   4.197  -0.616  0.00  0.00     0.026 C 
ATOM     11  C   UNL d   1       4.682   3.253  -0.218  0.00  0.00     0.010 C 
ATOM     12  C   UNL d   1       3.338   3.615  -0.004  0.00  0.00    -0.035 C 
ATOM     13  C   UNL d   1       2.343   2.498   0.173  0.00  0.00     0.050 C 
BRANCH   9  14
ATOM     14  S   UNL d   1       6.328   6.621  -1.683  0.00  0.00     0.260 S 
ATOM     15  O   UNL d   1       5.547   7.463  -2.557  0.00  0.00    -0.200 OA
ATOM     16  O   UNL d   1       7.417   5.817  -2.212  0.00  0.00    -0.200 OA
BRANCH  14  17
ATOM     17  N   UNL d   1       6.960   7.568  -0.425  0.00  0.00    -0.315 N 
ATOM     18  C   UNL d   1       6.084   8.610   0.133  0.00  0.00     0.162 C 
ATOM     19  C   UNL d   1       7.772   6.872   0.586  0.00  0.00     0.162 C 
ENDBRANCH  14  17
ENDBRANCH   9  14
ENDBRANCH   2   7
BRANCH   3  20
ATOM     20  C   UNL d   1      -0.606   7.929   1.733  0.00  0.00     0.036 A 
ATOM     21  C   UNL d   1      -0.224   9.213   1.351  0.00  0.00     0.030 A 
ATOM     22  C   UNL d   1      -1.058  10.320   1.585  0.00  0.00     0.010 A 
ATOM     23  C   UNL d   1      -2.300  10.189   2.224  0.00  0.00    -0.051 A 
ATOM     24  C   UNL d   1      -2.641   8.898   2.665  0.00  0.00     0.010 A 
ATOM     25  C   UNL d   1      -1.810   7.788   2.428  0.00  0.00     0.030 A 
BRANCH  23  26
ATOM     26  C   UNL d   1      -3.289  11.370   2.323  0.00  0.00    -0.024 C 
ATOM     27  C   UNL d   1      -4.197  11.290   3.572  0.00  0.00     0.019 C 
ATOM     28  C   UNL d   1      -2.598  12.753   2.378  0.00  0.00     0.019 C 
ATOM     29  C   UNL d   1      -4.187  11.343   1.067  0.00  0.00     0.019 C 
ENDBRANCH  23  26
ENDBRANCH   3  20
TORSDOF 5
