REMARK  4 active torsions:
REMARK  status: ('A' for Active; 'I' for Inactive)
REMARK    1  A    between atoms: C_5  and  C_1 
REMARK    2  A    between atoms: C_11  and  C_6 
REMARK    3  A    between atoms: C_7  and  C_8 
REMARK       I    between atoms: C_8  and  N_10 
REMARK    4  A    between atoms: N_10  and  C_14 
ROOT
ATOM      1  C   UNL d   1       0.156  -1.037  -0.104  0.00  0.00     0.071 A 
ATOM      2  N   UNL d   1       0.212  -0.726  -1.411  0.00  0.00    -0.260 N 
ATOM      3  HN  UNL d   1       0.595  -1.303  -2.160  1.00  0.00     0.195 HD
ATOM      4  C   UNL d   1      -0.448   0.020   0.617  0.00  0.00     0.072 A 
ATOM      5  C   UNL d   1      -0.780   0.964  -0.323  0.00  0.00     0.111 A 
ATOM      6  O   UNL d   1      -0.356   0.536  -1.541  0.00  0.00    -0.237 OA
ENDROOT
BRANCH   5   7
ATOM      7  C   UNL d   1      -1.474   2.236  -0.223  0.00  0.00     0.002 A 
ATOM      8  C   UNL d   1      -2.392   2.395   0.829  0.00  0.00     0.043 A 
ATOM      9  C   UNL d   1      -2.974   3.624   1.123  0.00  0.00     0.035 A 
ATOM     10  C   UNL d   1      -2.690   4.708   0.285  0.00  0.00     0.029 A 
ATOM     11  C   UNL d   1      -1.822   4.554  -0.806  0.00  0.00     0.003 A 
ATOM     12  C   UNL d   1      -1.212   3.322  -1.059  0.00  0.00     0.014 A 
BRANCH   9  13
ATOM     13  N   UNL d   1      -3.789   3.841   2.253  0.00  0.00    -0.323 N 
ATOM     14  C   UNL d   1      -4.105   2.929   3.264  0.00  0.00     0.277 C 
ATOM     15  O   UNL d   1      -3.807   1.732   3.216  0.00  0.00    -0.268 OA
ATOM     16  H   UNL d   1      -4.113   4.800   2.385  0.00  0.00     0.169 HD
BRANCH  14  17
ATOM     17  C   UNL d   1      -4.872   3.500   4.483  0.00  0.00     0.269 C 
ATOM     18 CL   UNL d   1      -5.009   5.282   4.409  0.00  0.00    -0.073 Cl
ATOM     19 CL   UNL d   1      -6.502   2.784   4.500  0.00  0.00    -0.073 Cl
ATOM     20 CL   UNL d   1      -3.982   3.055   5.966  0.00  0.00    -0.073 Cl
ENDBRANCH  14  17
ENDBRANCH   9  13
ENDBRANCH   5   7
BRANCH   1  21
ATOM     21  C   UNL d   1       0.653  -2.300   0.446  0.00  0.00     0.036 A 
ATOM     22  C   UNL d   1       1.952  -2.766   0.160  0.00  0.00     0.048 A 
ATOM     23 CL   UNL d   1       3.076  -1.899  -0.834  0.00  0.00    -0.083 Cl
ATOM     24  C   UNL d   1       2.429  -3.960   0.725  0.00  0.00     0.025 A 
ATOM     25  C   UNL d   1       1.637  -4.697   1.598  0.00  0.00     0.003 A 
ATOM     26  C   UNL d   1       0.357  -4.250   1.903  0.00  0.00     0.025 A 
ATOM     27  C   UNL d   1      -0.138  -3.072   1.326  0.00  0.00     0.048 A 
ATOM     28 CL   UNL d   1      -1.772  -2.665   1.750  0.00  0.00    -0.083 Cl
ENDBRANCH   1  21
TORSDOF 4
