REMARK  4 active torsions:
REMARK  status: ('A' for Active; 'I' for Inactive)
REMARK    1  A    between atoms: C_7  and  N_1 
REMARK    2  A    between atoms: S_8  and  C_2 
REMARK    3  A    between atoms: C_11  and  S_8 
REMARK    4  A    between atoms: C_13  and  C_11 
ROOT
ATOM      1  N   UNL d   1      -0.096  -1.325   0.058  0.00  0.00    -0.218 N 
ATOM      2  C   UNL d   1       1.084  -0.633  -0.191  0.00  0.00     0.177 A 
ATOM      3  N   UNL d   1       0.882   0.650   0.015  0.00  0.00    -0.264 N 
ATOM      4  HN  UNL d   1       1.567   1.401  -0.076  1.00  0.00     0.186 HD
ATOM      5  N   UNL d   1      -1.035  -0.401   0.394  0.00  0.00     0.001 NA
ATOM      6  N   UNL d   1      -0.429   0.776   0.374  0.00  0.00    -0.006 NA
ENDROOT
BRANCH   2   7
ATOM      7  S   UNL d   1       2.554  -1.297  -0.833  0.00  0.00    -0.087 SA
BRANCH   7   8
ATOM      8  C   UNL d   1       3.711   0.050  -0.424  0.00  0.00     0.121 C 
BRANCH   8   9
ATOM      9  C   UNL d   1       5.157  -0.364  -0.591  0.00  0.00    -0.048 A 
ATOM     10  C   UNL d   1       5.736  -0.439  -1.868  0.00  0.00     0.009 A 
ATOM     11  C   UNL d   1       7.076  -0.801  -2.023  0.00  0.00     0.019 A 
ATOM     12  C   UNL d   1       7.848  -1.095  -0.898  0.00  0.00     0.011 A 
ATOM     13  C   UNL d   1       7.289  -1.025   0.377  0.00  0.00     0.019 A 
ATOM     14 BR   UNL d   1       9.662  -1.580  -1.107  0.00  0.00    -0.051 Br
ATOM     15  C   UNL d   1       5.946  -0.666   0.528  0.00  0.00     0.009 A 
ENDBRANCH   8   9
ENDBRANCH   7   8
ENDBRANCH   2   7
BRANCH   1  16
ATOM     16  C   UNL d   1      -0.412  -2.712   0.042  0.00  0.00     0.068 A 
ATOM     17  C   UNL d   1       0.430  -3.656   0.683  0.00  0.00    -0.033 A 
ATOM     18  C   UNL d   1       0.130  -5.028   0.572  0.00  0.00     0.009 A 
ATOM     19  C   UNL d   1       1.584  -3.322   1.594  0.00  0.00     0.050 C 
ATOM     20  C   UNL d   1      -1.015  -5.464  -0.080  0.00  0.00     0.001 A 
ATOM     21  C   UNL d   1      -1.887  -4.534  -0.630  0.00  0.00     0.009 A 
ATOM     22  C   UNL d   1      -1.607  -3.155  -0.591  0.00  0.00    -0.033 A 
ATOM     23  C   UNL d   1      -2.641  -2.272  -1.247  0.00  0.00     0.050 C 
ENDBRANCH   1  16
TORSDOF 4
