REMARK  4 active torsions:
REMARK  status: ('A' for Active; 'I' for Inactive)
REMARK    1  A    between atoms: C_4  and  C_1 
REMARK    2  A    between atoms: N_7  and  C_2 
REMARK    3  A    between atoms: C_17  and  C_3 
REMARK    4  A    between atoms: O_16  and  C_4 
REMARK       I    between atoms: C_10  and  N_7 
ROOT
ATOM      1  C   UNL d   1       0.785   0.806   1.122  0.00  0.00     0.049 C 
ATOM      2  C   UNL d   1      -1.516   0.369   0.069  0.00  0.00     0.035 C 
ATOM      3  C   UNL d   1       0.225  -1.497   0.190  0.00  0.00    -0.037 C 
ATOM      4  C   UNL d   1      -0.739   1.103   1.196  0.00  0.00     0.051 C 
ATOM      5  C   UNL d   1       0.978  -0.716   1.291  0.00  0.00     0.030 C 
ATOM      6  C   UNL d   1       1.301   1.250  -0.261  0.00  0.00     0.025 C 
ATOM      7  C   UNL d   1       0.563   0.492  -1.369  0.00  0.00    -0.010 C 
ATOM      8  C   UNL d   1      -1.281  -1.148   0.261  0.00  0.00     0.040 C 
ATOM      9  C   UNL d   1      -0.932   0.814  -1.292  0.00  0.00     0.035 C 
ATOM     10  C   UNL d   1       0.765  -1.022  -1.186  0.00  0.00     0.014 C 
ENDROOT
BRANCH   2  11
ATOM     11  N   UNL d   1      -2.944   0.698   0.159  0.00  0.00    -0.352 N 
ATOM     12  C   UNL d   1      -3.899   0.218  -0.713  0.00  0.00     0.214 C 
ATOM     13  O   UNL d   1      -3.667  -0.534  -1.654  0.00  0.00    -0.274 OA
ATOM     14  C   UNL d   1      -5.300   0.695  -0.439  0.00  0.00     0.117 C 
ATOM     15  H   UNL d   1      -3.249   1.290   0.923  0.00  0.00     0.163 HD
ENDBRANCH   2  11
BRANCH   1  16
ATOM     16  C   UNL d   1       1.522   1.552   2.233  0.00  0.00     0.148 C 
ATOM     17  O   UNL d   1       0.972   2.253   3.070  0.00  0.00    -0.649 OA
BRANCH  16  18
ATOM     18  O   UNL d   1       2.862   1.371   2.240  0.00  0.00    -0.776 OA
ATOM     19  H   UNL d   1       3.212   0.786   1.546  0.00  0.00     0.167 HD
ENDBRANCH  16  18
ENDBRANCH   1  16
BRANCH   3  20
ATOM     20  C   UNL d   1       0.459  -3.021   0.323  0.00  0.00     0.005 C 
ATOM     21  C   UNL d   1       0.011  -3.645   1.640  0.00  0.00     0.006 C 
ENDBRANCH   3  20
TORSDOF 4
