REMARK  5 active torsions:
REMARK  status: ('A' for Active; 'I' for Inactive)
REMARK    1  A    between atoms: C_3  and  C_1 
REMARK    2  A    between atoms: C_5  and  CA_2 
REMARK       I    between atoms: N_4  and  C_3 
REMARK    3  A    between atoms: C_7  and  N_4 
REMARK    4  A    between atoms: OXT_16  and  C_5 
REMARK    5  A    between atoms: N_6  and  C_8 
ROOT
ATOM      1  C   UNL d   1      -1.417  -3.547  -1.613  0.00  0.00     0.275 C 
ATOM      2  N   UNL d   1      -0.939  -3.656  -0.318  0.00  0.00    -0.320 N 
ATOM      3  O   UNL d   1      -0.669  -3.608  -2.596  0.00  0.00    -0.266 OA
ATOM      4  H   UNL d   1      -1.516  -3.435   0.493  0.00  0.00     0.169 HD
ENDROOT
BRANCH   1   5
ATOM      5  C   UNL d   1      -2.871  -3.256  -1.908  0.00  0.00     0.134 A 
ATOM      6  CA  UNL d   1      -3.979  -3.284  -1.075  0.00  0.00     0.139 A 
ATOM      7  N   UNL d   1      -5.266  -3.021  -1.531  0.00  0.00    -0.357 N 
ATOM      8  C   UNL d   1      -5.391  -2.732  -2.846  0.00  0.00     0.105 A 
ATOM      9  HN  UNL d   1      -6.072  -3.045  -0.907  1.00  0.00     0.165 HD
ATOM     10  C   UNL d   1      -4.302  -2.686  -3.681  0.00  0.00     0.105 A 
ATOM     11  N   UNL d   1      -3.056  -2.940  -3.234  0.00  0.00    -0.358 N 
ATOM     12  HN  UNL d   1      -2.260  -2.899  -3.871  1.00  0.00     0.165 HD
BRANCH   6  13
ATOM     13  C   UNL d   1      -3.984  -3.564   0.386  0.00  0.00     0.196 C 
ATOM     14  O   UNL d   1      -3.019  -3.781   1.088  0.00  0.00    -0.645 OA
BRANCH  13  15
ATOM     15  OXT UNL d   1      -5.250  -3.497   0.879  0.00  0.00    -0.772 OA
ATOM     16  HXT UNL d   1      -5.876  -3.286   0.145  0.00  0.00     0.167 HD
ENDBRANCH  13  15
ENDBRANCH   6  13
ENDBRANCH   1   5
BRANCH   2  17
ATOM     17  C   UNL d   1       0.431  -3.861   0.006  0.00  0.00     0.061 A 
ATOM     18  C   UNL d   1       0.955  -3.304   1.205  0.00  0.00     0.057 A 
ATOM     19  C   UNL d   1       2.307  -3.575   1.495  0.00  0.00     0.031 A 
ATOM     20  C   UNL d   1       3.098  -4.383   0.670  0.00  0.00     0.002 A 
ATOM     21  C   UNL d   1       2.556  -4.944  -0.476  0.00  0.00     0.002 A 
ATOM     22  C   UNL d   1       1.232  -4.675  -0.809  0.00  0.00     0.032 A 
BRANCH  18  23
ATOM     23  N   UNL d   1       0.155  -2.538   2.067  0.00  0.00    -0.375 N 
ATOM     24  C   UNL d   1       0.573  -2.375   3.476  0.00  0.00     0.149 C 
ATOM     25  C   UNL d   1      -0.643  -1.925   4.305  0.00  0.00     0.187 C 
ATOM     26  O   UNL d   1      -1.210  -0.704   3.793  0.00  0.00    -0.388 OA
ATOM     27  C   UNL d   1      -1.603  -0.878   2.420  0.00  0.00     0.187 C 
ATOM     28  C   UNL d   1      -0.399  -1.270   1.541  0.00  0.00     0.149 C 
ENDBRANCH  18  23
ENDBRANCH   2  17
TORSDOF 5
