REMARK  5 active torsions:
REMARK  status: ('A' for Active; 'I' for Inactive)
REMARK    1  A    between atoms: C_5  and  C_1 
REMARK    2  A    between atoms: C_12  and  C_3 
REMARK    3  A    between atoms: C_6  and  C_5 
REMARK    4  A    between atoms: N_11  and  C_8 
REMARK    5  A    between atoms: C_14  and  N_11 
ROOT
ATOM      1  C   UNL d   1      -3.996  -0.624   0.021  0.00  0.00     0.106 C 
ATOM      2  C   UNL d   1      -5.056  -1.323  -0.440  0.00  0.00     0.089 C 
ATOM      3  C   UNL d   1      -2.918  -1.295   0.658  0.00  0.00     0.104 C 
ATOM      4  N   UNL d   1      -2.024  -1.845   1.150  0.00  0.00    -0.191 NA
ENDROOT
BRANCH   1   5
ATOM      5  C   UNL d   1      -4.032   0.868  -0.101  0.00  0.00     0.206 C 
ATOM      6  O   UNL d   1      -5.108   1.448  -0.237  0.00  0.00    -0.286 OA
BRANCH   5   7
ATOM      7  C   UNL d   1      -2.781   1.625   0.003  0.00  0.00     0.047 A 
ATOM      8  C   UNL d   1      -2.657   2.935   0.589  0.00  0.00     0.051 A 
ATOM      9  C   UNL d   1      -1.346   3.345   0.424  0.00  0.00     0.061 A 
ATOM     10  O   UNL d   1      -0.662   2.363  -0.221  0.00  0.00    -0.318 OA
ATOM     11  C   UNL d   1      -1.524   1.355  -0.519  0.00  0.00     0.063 A 
ATOM     12  C   UNL d   1      -0.915   0.300  -1.361  0.00  0.00     0.077 C 
BRANCH   9  13
ATOM     13  C   UNL d   1      -0.546   4.586   0.743  0.00  0.00    -0.002 C 
ATOM     14  C   UNL d   1      -1.432   5.715   1.295  0.00  0.00     0.021 C 
ATOM     15  C   UNL d   1       0.537   4.254   1.786  0.00  0.00     0.021 C 
ATOM     16  C   UNL d   1       0.140   5.096  -0.542  0.00  0.00     0.021 C 
ENDBRANCH   9  13
ENDBRANCH   5   7
ENDBRANCH   1   5
BRANCH   2  17
ATOM     17  N   UNL d   1      -5.261  -2.697  -0.421  0.00  0.00    -0.268 NA
ATOM     18  H   UNL d   1      -5.742  -3.021  -1.264  0.00  0.00     0.133 HD
BRANCH  17  19
ATOM     19  C   UNL d   1      -5.857  -3.399   0.674  0.00  0.00     0.018 A 
ATOM     20  C   UNL d   1      -5.952  -4.810   0.634  0.00  0.00    -0.041 A 
ATOM     21  C   UNL d   1      -5.432  -5.638  -0.511  0.00  0.00     0.050 C 
ATOM     22  C   UNL d   1      -6.571  -5.499   1.696  0.00  0.00     0.008 A 
ATOM     23  C   UNL d   1      -7.058  -4.813   2.805  0.00  0.00     0.001 A 
ATOM     24  C   UNL d   1      -6.931  -3.431   2.868  0.00  0.00     0.002 A 
ATOM     25  C   UNL d   1      -6.333  -2.732   1.815  0.00  0.00     0.024 A 
ENDBRANCH  17  19
ENDBRANCH   2  17
TORSDOF 5
