REMARK  3 active torsions:
REMARK  status: ('A' for Active; 'I' for Inactive)
REMARK    1  A    between atoms: C_5  and  C_1 
REMARK    2  A    between atoms: C_3  and  C_5 
REMARK    3  A    between atoms: N_14  and  C_8 
ROOT
ATOM      1  C   UNL d   1       4.533  -1.322  -0.635  0.00  0.00     0.111 C 
ATOM      2  C   UNL d   1       5.817  -1.089  -0.290  0.00  0.00     0.111 C 
ATOM      3  C   UNL d   1       3.892  -0.614  -1.683  0.00  0.00     0.105 C 
ATOM      4  N   UNL d   1       3.360  -0.025  -2.531  0.00  0.00    -0.191 NA
ENDROOT
BRANCH   1   5
ATOM      5  C   UNL d   1       3.820  -2.450   0.056  0.00  0.00     0.211 C 
ATOM      6  O   UNL d   1       4.496  -3.293   0.655  0.00  0.00    -0.285 OA
BRANCH   5   7
ATOM      7  C   UNL d   1       2.359  -2.549  -0.003  0.00  0.00     0.064 A 
ATOM      8  S   UNL d   1       1.712  -4.124  -0.206  0.00  0.00    -0.085 SA
ATOM      9  C   UNL d   1       0.092  -3.574  -0.160  0.00  0.00     0.016 A 
ATOM     10  C   UNL d   1      -1.070  -4.367  -0.251  0.00  0.00     0.021 A 
ATOM     11  C   UNL d   1       0.032  -2.188  -0.012  0.00  0.00    -0.010 A 
ATOM     12  C   UNL d   1      -2.320  -3.747  -0.214  0.00  0.00     0.025 A 
ATOM     13  C   UNL d   1      -2.408  -2.369  -0.099  0.00  0.00     0.035 A 
ATOM     14  C   UNL d   1      -1.255  -1.585   0.005  0.00  0.00     0.037 A 
ATOM     15 CL   UNL d   1      -3.953  -1.611  -0.074  0.00  0.00    -0.084 Cl
ATOM     16  C   UNL d   1       1.354  -1.599   0.144  0.00  0.00    -0.029 A 
ATOM     17  C   UNL d   1       1.543  -0.146   0.466  0.00  0.00     0.050 C 
ENDBRANCH   5   7
ENDBRANCH   1   5
BRANCH   2  18
ATOM     18  N   UNL d   1       6.741  -0.126  -0.690  0.00  0.00    -0.397 N 
ATOM     19  C   UNL d   1       6.389   1.219  -1.147  0.00  0.00     0.148 C 
ATOM     20  C   UNL d   1       8.183  -0.388  -0.647  0.00  0.00     0.148 C 
ENDBRANCH   2  18
TORSDOF 3
