REMARK  3 active torsions:
REMARK  status: ('A' for Active; 'I' for Inactive)
REMARK    1  A    between atoms: N_16  and  C_5 
REMARK    2  A    between atoms: S_17  and  C_11 
REMARK    3  A    between atoms: C_13  and  C_12 
ROOT
ATOM      1  N   UNL d   1      -0.217  -0.560   0.093  0.00  0.00    -0.070 N 
ATOM      2  C   UNL d   1      -0.196   0.801  -0.004  0.00  0.00     0.149 A 
ATOM      3  N   UNL d   1       0.986   1.462  -0.043  0.00  0.00    -0.321 N 
ATOM      4  HN  UNL d   1       1.027   2.479  -0.102  1.00  0.00     0.169 HD
ATOM      5  C   UNL d   1       0.979  -1.289   0.140  0.00  0.00     0.701 A 
ATOM      6  N   UNL d   1      -1.453  -1.111   0.082  0.00  0.00    -0.282 N 
ATOM      7  HN  UNL d   1      -1.717  -2.096   0.116  1.00  0.00     0.188 HD
ATOM      8  N   UNL d   1       2.110  -0.645   0.078  0.00  0.00    -0.169 N 
ATOM      9  HN  UNL d   1       2.999  -1.144   0.087  1.00  0.00     0.186 HD
ATOM     10  C   UNL d   1      -1.515   1.181  -0.042  0.00  0.00     0.078 A 
ATOM     11  C   UNL d   1       2.069   0.738  -0.002  0.00  0.00     0.160 A 
ATOM     12  C   UNL d   1      -2.243  -0.029   0.015  0.00  0.00     0.035 A 
ENDROOT
BRANCH   5  13
ATOM     13  N   UNL d   1       0.919  -2.657   0.230  0.00  0.00    -0.233 N 
ATOM     14  H   UNL d   1       0.021  -3.067  -0.025  0.00  0.00     0.174 HD
ATOM     15  H   UNL d   1       1.735  -3.153  -0.105  0.00  0.00     0.174 HD
ENDBRANCH   5  13
BRANCH  11  16
ATOM     16  S   UNL d   1       3.581   1.634  -0.054  0.00  0.00    -0.098 SA
ATOM     17  C   UNL d   1       4.793   0.310   0.053  0.00  0.00     0.099 C 
ENDBRANCH  11  16
BRANCH  12  18
ATOM     18  C   UNL d   1      -3.764  -0.064  -0.007  0.00  0.00     0.037 A 
ATOM     19  C   UNL d   1      -4.489  -1.151   0.758  0.00  0.00     0.011 A 
ATOM     20  C   UNL d   1      -4.463  -1.196  -0.731  0.00  0.00     0.011 A 
ENDBRANCH  12  18
TORSDOF 3
