REMARK  4 active torsions:
REMARK  status: ('A' for Active; 'I' for Inactive)
REMARK    1  A    between atoms: N_4  and  S_1 
REMARK    2  A    between atoms: C_6  and  S_1 
REMARK    3  A    between atoms: N_2  and  C_3 
REMARK    4  A    between atoms: C_5  and  N_4 
ROOT
ATOM      1  C   UNL d   1      -0.403  -0.825  -1.225  0.00  0.00     0.100 A 
ATOM      2  N   UNL d   1      -2.566   0.182   1.382  0.00  0.00    -0.191 NA
ATOM      3  C   UNL d   1      -2.230  -0.201   0.339  0.00  0.00     0.101 C 
ATOM      4  C   UNL d   1      -1.764  -0.781  -0.887  0.00  0.00     0.068 A 
ATOM      5  C   UNL d   1       0.017  -1.448  -2.409  0.00  0.00     0.027 A 
ATOM      6  C   UNL d   1      -2.694  -1.397  -1.736  0.00  0.00     0.024 A 
ATOM      7  C   UNL d   1      -0.922  -2.052  -3.246  0.00  0.00     0.002 A 
ATOM      8  C   UNL d   1      -2.274  -2.031  -2.909  0.00  0.00     0.002 A 
ENDROOT
BRANCH   1   9
ATOM      9  S   UNL d   1       0.817  -0.059  -0.180  0.00  0.00     0.264 S 
ATOM     10  O   UNL d   1       2.117  -0.349  -0.744  0.00  0.00    -0.200 OA
ATOM     11  O   UNL d   1       0.376   1.298   0.044  0.00  0.00    -0.200 OA
BRANCH   9  12
ATOM     12  N   UNL d   1       0.694  -0.889   1.279  0.00  0.00    -0.278 N 
ATOM     13  H   UNL d   1       0.045  -0.479   1.956  0.00  0.00     0.179 HD
BRANCH  12  14
ATOM     14  C   UNL d   1       0.994  -2.282   1.341  0.00  0.00     0.075 A 
ATOM     15  C   UNL d   1       2.289  -2.802   1.461  0.00  0.00     0.130 A 
ATOM     16  C   UNL d   1       2.525  -4.186   1.482  0.00  0.00     0.038 A 
ATOM     17  C   UNL d   1       1.449  -5.065   1.378  0.00  0.00     0.003 A 
ATOM     18  C   UNL d   1       0.154  -4.563   1.262  0.00  0.00     0.002 A 
ATOM     19  C   UNL d   1      -0.073  -3.183   1.249  0.00  0.00     0.032 A 
BRANCH  15  20
ATOM     20  N   UNL d   1       3.428  -1.936   1.693  0.00  0.00    -0.113 N 
ATOM     21  O   UNL d   1       3.392  -1.214   2.698  0.00  0.00    -0.532 OA
ATOM     22  O   UNL d   1       4.395  -2.062   0.928  0.00  0.00    -0.532 OA
ENDBRANCH  15  20
ENDBRANCH  12  14
ENDBRANCH   9  12
ENDBRANCH   1   9
TORSDOF 4
