REMARK  4 active torsions:
REMARK  status: ('A' for Active; 'I' for Inactive)
REMARK    1  A    between atoms: C_3  and  C_12 
REMARK    2  A    between atoms: N_16  and  C_5 
REMARK    3  A    between atoms: N_13  and  N_16 
REMARK    4  A    between atoms: C_23  and  C_22 
ROOT
ATOM      1  N   UNL d   1      -1.053  -2.895  -0.100  0.00  0.00    -0.285 N 
ATOM      2  H   UNL d   1      -0.327  -3.277   0.479  0.00  0.00     0.188 HD
ENDROOT
BRANCH   1   3
ATOM      3  N   UNL d   1      -2.264  -3.488  -0.199  0.00  0.00    -0.309 N 
ATOM      4  C   UNL d   1      -2.275  -4.758   0.046  0.00  0.00     0.118 C 
ATOM      5  HN  UNL d   1      -3.107  -2.971  -0.450  1.00  0.00     0.186 HD
BRANCH   4   6
ATOM      6  C   UNL d   1      -3.525  -5.536  -0.029  0.00  0.00    -0.019 A 
ATOM      7  C   UNL d   1      -4.742  -4.892  -0.268  0.00  0.00     0.013 A 
ATOM      8  C   UNL d   1      -5.917  -5.637  -0.360  0.00  0.00     0.017 A 
ATOM      9  C   UNL d   1      -5.887  -7.032  -0.220  0.00  0.00     0.048 A 
ATOM     10  C   UNL d   1      -4.657  -7.668   0.027  0.00  0.00     0.017 A 
ATOM     11  C   UNL d   1      -3.477  -6.924   0.124  0.00  0.00     0.013 A 
BRANCH   9  12
ATOM     12  C   UNL d   1      -7.151  -7.850  -0.341  0.00  0.00     0.417 C 
ATOM     13  F   UNL d   1      -8.264  -7.104  -0.583  0.00  0.00    -0.166 F 
ATOM     14  F   UNL d   1      -7.084  -8.759  -1.352  0.00  0.00    -0.166 F 
ATOM     15  F   UNL d   1      -7.417  -8.564   0.787  0.00  0.00    -0.166 F 
ENDBRANCH   9  12
ENDBRANCH   4   6
ENDBRANCH   1   3
BRANCH   1  16
ATOM     16  C   UNL d   1      -0.812  -1.690  -0.775  0.00  0.00     0.134 A 
ATOM     17  C   UNL d   1       0.424  -0.988  -0.718  0.00  0.00     0.050 A 
ATOM     18  C   UNL d   1       0.476   0.160  -1.507  0.00  0.00     0.089 A 
ATOM     19  C   UNL d   1       1.700  -1.174  -0.024  0.00  0.00    -0.039 A 
ATOM     20  S   UNL d   1       1.970   0.969  -1.442  0.00  0.00    -0.083 SA
ATOM     21  N   UNL d   1      -0.492   0.666  -2.286  0.00  0.00    -0.346 N 
ATOM     22  C   UNL d   1       2.600  -0.172  -0.355  0.00  0.00     0.059 A 
ATOM     23  C   UNL d   1      -1.601  -0.063  -2.254  0.00  0.00     0.182 A 
ATOM     24  HN  UNL d   1      -0.387   1.515  -2.841  1.00  0.00     0.167 HD
ATOM     25  N   UNL d   1      -1.802  -1.183  -1.559  0.00  0.00    -0.337 N 
ATOM     26  HN  UNL d   1      -2.702  -1.661  -1.615  1.00  0.00     0.168 HD
ATOM     27  C   UNL d   1       2.104  -2.248   0.933  0.00  0.00     0.050 C 
ENDBRANCH   1  16
TORSDOF 4
