REMARK  5 active torsions:
REMARK  status: ('A' for Active; 'I' for Inactive)
REMARK    1  A    between atoms: C_9  and  N_1 
REMARK    2  A    between atoms: C_12  and  N_5 
REMARK    3  A    between atoms: C_10  and  C_8 
REMARK    4  A    between atoms: C_17  and  C_9 
REMARK    5  A    between atoms: O_20  and  C_16 
ROOT
ATOM      1  N   UNL d   1      -1.662   0.098   0.813  0.00  0.00    -0.281 N 
ATOM      2  C   UNL d   1      -0.013  -0.642  -0.674  0.00  0.00     0.149 C 
ATOM      3  C   UNL d   1       0.120   0.850  -0.486  0.00  0.00     0.260 C 
ATOM      4  C   UNL d   1      -1.277  -0.972   0.063  0.00  0.00     0.236 C 
ATOM      5  N   UNL d   1       1.872  -0.057   0.616  0.00  0.00    -0.247 N 
ATOM      6  C   UNL d   1      -0.908   1.210   0.564  0.00  0.00     0.259 C 
ATOM      7  O   UNL d   1       1.410   1.136   0.033  0.00  0.00    -0.261 OA
ATOM      8  C   UNL d   1       1.151  -1.227   0.102  0.00  0.00     0.164 C 
ATOM      9  O   UNL d   1      -1.799  -2.078   0.050  0.00  0.00    -0.272 OA
ATOM     10  O   UNL d   1      -1.009   2.297   1.114  0.00  0.00    -0.270 OA
ENDROOT
BRANCH   8  11
ATOM     11  C   UNL d   1       2.068  -2.097  -0.741  0.00  0.00    -0.032 A 
ATOM     12  C   UNL d   1       3.180  -1.570  -1.418  0.00  0.00     0.012 A 
ATOM     13  C   UNL d   1       4.072  -2.405  -2.095  0.00  0.00     0.037 A 
ATOM     14  C   UNL d   1       3.858  -3.782  -2.122  0.00  0.00     0.068 A 
ATOM     15  C   UNL d   1       2.745  -4.313  -1.470  0.00  0.00     0.037 A 
ATOM     16  C   UNL d   1       1.848  -3.481  -0.796  0.00  0.00     0.012 A 
BRANCH  14  17
ATOM     17  O   UNL d   1       4.674  -4.702  -2.720  0.00  0.00    -0.356 OA
ATOM     18  C   UNL d   1       5.563  -4.195  -3.709  0.00  0.00     0.210 C 
ENDBRANCH  14  17
ENDBRANCH   8  11
BRANCH   5  19
ATOM     19  C   UNL d   1       2.376  -0.055   1.926  0.00  0.00     0.058 A 
ATOM     20  C   UNL d   1       2.509   1.149   2.635  0.00  0.00     0.031 A 
ATOM     21  C   UNL d   1       3.007   1.177   3.940  0.00  0.00     0.002 A 
ATOM     22  C   UNL d   1       3.396  -0.005   4.564  0.00  0.00     0.000 A 
ATOM     23  C   UNL d   1       3.294  -1.209   3.877  0.00  0.00     0.002 A 
ATOM     24  C   UNL d   1       2.795  -1.230   2.571  0.00  0.00     0.031 A 
ENDBRANCH   5  19
BRANCH   1  25
ATOM     25  C   UNL d   1      -2.649   0.029   1.867  0.00  0.00     0.173 C 
BRANCH  25  26
ATOM     26  C   UNL d   1      -3.986   0.586   1.460  0.00  0.00    -0.040 A 
ATOM     27  C   UNL d   1      -4.974  -0.253   0.927  0.00  0.00     0.009 A 
ATOM     28  C   UNL d   1      -6.223   0.264   0.580  0.00  0.00     0.001 A 
ATOM     29  C   UNL d   1      -6.490   1.622   0.750  0.00  0.00     0.000 A 
ATOM     30  C   UNL d   1      -5.508   2.468   1.262  0.00  0.00     0.001 A 
ATOM     31  C   UNL d   1      -4.262   1.953   1.614  0.00  0.00     0.009 A 
ENDBRANCH  25  26
ENDBRANCH   1  25
TORSDOF 5
