REMARK  9 active torsions:
REMARK  status: ('A' for Active; 'I' for Inactive)
REMARK    1  A    between atoms: C_7  and  C_1 
REMARK    2  A    between atoms: C_14  and  N_4 
REMARK    3  A    between atoms: S_17  and  C_5 
REMARK    4  A    between atoms: N_21  and  C_7 
REMARK    5  A    between atoms: C_8  and  O_15 
REMARK    6  A    between atoms: O_13  and  N_9 
REMARK    7  A    between atoms: C_11  and  O_13 
REMARK       I    between atoms: N_12  and  C_11 
REMARK    8  A    between atoms: C_22  and  N_12 
REMARK    9  A    between atoms: O_15  and  C_23 
ROOT
ATOM      1  C   UNL d   1      -0.827   2.636  -0.348  0.00  0.00     0.113 C 
ATOM      2  N   UNL d   1       0.086   3.491  -0.677  0.00  0.00    -0.244 N 
ATOM      3  HN  UNL d   1      -0.085   4.370  -1.165  1.00  0.00     0.196 HD
ENDROOT
BRANCH   1   4
ATOM      4  C   UNL d   1      -2.225   3.012  -0.512  0.00  0.00     0.056 A 
ATOM      5  C   UNL d   1      -3.441   2.313  -0.299  0.00  0.00     0.099 A 
ATOM      6  N   UNL d   1      -4.518   3.061  -0.524  0.00  0.00    -0.287 N 
ATOM      7  N   UNL d   1      -4.034   4.270  -0.896  0.00  0.00    -0.266 N 
ATOM      8  HN  UNL d   1      -5.495   2.784  -0.436  1.00  0.00     0.188 HD
ATOM      9  C   UNL d   1      -2.661   4.264  -0.922  0.00  0.00     0.134 A 
BRANCH   5  10
ATOM     10  S   UNL d   1      -3.625   0.628   0.155  0.00  0.00    -0.114 SA
ATOM     11  C   UNL d   1      -5.397   0.505   0.496  0.00  0.00     0.097 C 
ENDBRANCH   5  10
BRANCH   7  12
ATOM     12  C   UNL d   1      -4.928   5.338  -1.193  0.00  0.00     0.056 A 
ATOM     13  C   UNL d   1      -4.462   6.599  -1.580  0.00  0.00     0.031 A 
ATOM     14  C   UNL d   1      -5.369   7.627  -1.855  0.00  0.00     0.002 A 
ATOM     15  C   UNL d   1      -6.742   7.404  -1.747  0.00  0.00     0.000 A 
ATOM     16  C   UNL d   1      -7.215   6.151  -1.365  0.00  0.00     0.002 A 
ATOM     17  C   UNL d   1      -6.314   5.121  -1.090  0.00  0.00     0.031 A 
ENDBRANCH   7  12
ENDBRANCH   1   4
BRANCH   1  18
ATOM     18  N   UNL d   1      -0.604   1.390   0.166  0.00  0.00    -0.286 NA
ATOM     19  H   UNL d   1      -1.319   0.696  -0.025  0.00  0.00     0.125 HD
ATOM     20  H   UNL d   1       0.330   1.050  -0.029  0.00  0.00     0.125 HD
ENDBRANCH   1  18
BRANCH   2  21
ATOM     21  O   UNL d   1       1.355   3.026  -0.261  0.00  0.00    -0.179 OA
BRANCH  21  22
ATOM     22  C   UNL d   1       2.331   3.566  -1.047  0.00  0.00     0.387 C 
ATOM     23  N   UNL d   1       3.332   4.240  -0.392  0.00  0.00    -0.301 N 
ATOM     24  H   UNL d   1       3.957   4.682  -1.054  0.00  0.00     0.171 HD
ATOM     25  O   UNL d   1       2.344   3.475  -2.277  0.00  0.00    -0.236 OA
BRANCH  23  26
ATOM     26  C   UNL d   1       3.415   4.650   0.951  0.00  0.00     0.037 A 
ATOM     27  C   UNL d   1       2.710   4.073   2.008  0.00  0.00     0.032 A 
ATOM     28  C   UNL d   1       2.770   4.619   3.301  0.00  0.00     0.039 A 
ATOM     29  C   UNL d   1       3.569   5.728   3.561  0.00  0.00     0.078 A 
ATOM     30  C   UNL d   1       4.299   6.287   2.510  0.00  0.00     0.039 A 
ATOM     31  C   UNL d   1       4.239   5.745   1.222  0.00  0.00     0.032 A 
BRANCH  29  32
ATOM     32  O   UNL d   1       3.751   6.359   4.753  0.00  0.00    -0.255 OA
BRANCH  32  33
ATOM     33  C   UNL d   1       3.219   5.807   5.943  0.00  0.00     0.530 C 
ATOM     34  F   UNL d   1       3.268   4.458   5.968  0.00  0.00    -0.144 F 
ATOM     35  F   UNL d   1       3.957   6.260   6.983  0.00  0.00    -0.144 F 
ATOM     36  F   UNL d   1       1.945   6.214   6.123  0.00  0.00    -0.144 F 
ENDBRANCH  32  33
ENDBRANCH  29  32
ENDBRANCH  23  26
ENDBRANCH  21  22
ENDBRANCH   2  21
TORSDOF 9
