REMARK  1 active torsions:
REMARK  status: ('A' for Active; 'I' for Inactive)
REMARK       I    between atoms: C_5  and  N_7 
REMARK       I    between atoms: N_10  and  C_5 
REMARK    1  A    between atoms: C_18  and  N_10 
ROOT
ATOM      1  C   UNL d   1      -3.092   0.115   0.223  0.00  0.00     0.148 A 
ATOM      2  N   UNL d   1      -2.367   1.085  -0.288  0.00  0.00    -0.336 N 
ATOM      3  HN  UNL d   1      -2.751   1.933  -0.707  1.00  0.00     0.168 HD
ATOM      4  S   UNL d   1      -2.159  -1.202   0.848  0.00  0.00    -0.052 SA
ATOM      5  C   UNL d   1      -8.539  -0.723  -0.461  0.00  0.00     0.323 C 
ATOM      6  N   UNL d   1      -4.449   0.092   0.185  0.00  0.00    -0.358 N 
ATOM      7  N   UNL d   1      -7.170  -0.515  -0.405  0.00  0.00    -0.331 N 
ATOM      8  C   UNL d   1      -0.704  -0.425   0.383  0.00  0.00     0.036 A 
ATOM      9  C   UNL d   1      -1.017   0.808  -0.184  0.00  0.00     0.051 A 
ATOM     10  N   UNL d   1      -9.221  -0.034  -1.433  0.00  0.00    -0.309 N 
ATOM     11  C   UNL d   1       0.619  -0.876   0.515  0.00  0.00     0.045 A 
ATOM     12  O   UNL d   1      -9.089  -1.468   0.351  0.00  0.00    -0.247 OA
ATOM     13  C   UNL d   1      -5.269  -0.524   1.228  0.00  0.00     0.145 C 
ATOM     14  C   UNL d   1      -5.180   1.009  -0.688  0.00  0.00     0.145 C 
ATOM     15  C   UNL d   1      -6.407  -1.316   0.568  0.00  0.00     0.147 C 
ATOM     16  C   UNL d   1      -6.344   0.247  -1.365  0.00  0.00     0.147 C 
ATOM     17  C   UNL d   1       0.036   1.645  -0.609  0.00  0.00     0.032 A 
ATOM     18  C   UNL d   1       1.641  -0.030   0.078  0.00  0.00     0.035 A 
ATOM     19  C   UNL d   1       1.362   1.218  -0.469  0.00  0.00     0.026 A 
ATOM     20 CL   UNL d   1       3.277  -0.545   0.225  0.00  0.00    -0.084 Cl
ATOM     21  H   UNL d   1      -8.700   0.231  -2.253  0.00  0.00     0.170 HD
ENDROOT
BRANCH  10  22
ATOM     22  C   UNL d   1     -10.612   0.205  -1.476  0.00  0.00     0.036 A 
ATOM     23  C   UNL d   1     -11.473  -0.073  -0.408  0.00  0.00     0.031 A 
ATOM     24  C   UNL d   1     -12.823   0.289  -0.463  0.00  0.00     0.026 A 
ATOM     25  C   UNL d   1     -13.321   0.932  -1.590  0.00  0.00     0.034 A 
ATOM     26  C   UNL d   1     -12.486   1.186  -2.675  0.00  0.00     0.026 A 
ATOM     27 CL   UNL d   1     -14.964   1.437  -1.630  0.00  0.00    -0.084 Cl
ATOM     28  C   UNL d   1     -11.136   0.822  -2.619  0.00  0.00     0.031 A 
ENDBRANCH  10  22
TORSDOF 1
