REMARK  8 active torsions:
REMARK  status: ('A' for Active; 'I' for Inactive)
REMARK    1  A    between atoms: C_2  and  C_1 
REMARK    2  A    between atoms: C_6  and  C_1 
REMARK       I    between atoms: N_3  and  C_2 
REMARK       I    between atoms: C_5  and  N_3 
REMARK    3  A    between atoms: N_7  and  C_4 
REMARK    4  A    between atoms: O_11  and  C_5 
REMARK    5  A    between atoms: O_12  and  C_6 
REMARK    6  A    between atoms: C_13  and  N_7 
REMARK    7  A    between atoms: C_14  and  O_11 
REMARK    8  A    between atoms: C_15  and  O_12 
ROOT
ATOM      1  C   UNL d   1       0.995   0.032   0.083  0.00  0.00     0.122 C 
ATOM      2  C   UNL d   1       0.200  -0.671  -0.752  0.00  0.00     0.106 C 
ENDROOT
BRANCH   1   3
ATOM      3  C   UNL d   1       2.480  -0.113  -0.144  0.00  0.00     0.267 C 
ATOM      4  N   UNL d   1       3.295   0.650   0.666  0.00  0.00    -0.269 N 
ATOM      5  C   UNL d   1       4.626   0.890   0.422  0.00  0.00     0.367 C 
ATOM      6  H   UNL d   1       2.858   1.411   1.177  0.00  0.00     0.174 HD
ATOM      7  O   UNL d   1       5.131   1.981   0.653  0.00  0.00    -0.238 OA
ATOM      8  O   UNL d   1       2.897  -0.900  -0.992  0.00  0.00    -0.267 OA
BRANCH   5   9
ATOM      9  O   UNL d   1       5.279  -0.165  -0.128  0.00  0.00    -0.304 OA
BRANCH   9  10
ATOM     10  C   UNL d   1       6.543   0.105  -0.747  0.00  0.00     0.176 C 
ATOM     11  C   UNL d   1       7.682   0.145   0.254  0.00  0.00     0.034 C 
ENDBRANCH   9  10
ENDBRANCH   5   9
ENDBRANCH   1   3
BRANCH   1  12
ATOM     12  C   UNL d   1       0.470   0.851   1.202  0.00  0.00     0.300 C 
ATOM     13  O   UNL d   1       1.161   1.676   1.791  0.00  0.00    -0.259 OA
BRANCH  12  14
ATOM     14  O   UNL d   1      -0.770   0.454   1.577  0.00  0.00    -0.318 OA
BRANCH  14  15
ATOM     15  C   UNL d   1      -1.127   0.717   2.940  0.00  0.00     0.174 C 
ATOM     16  C   UNL d   1      -0.520  -0.369   3.812  0.00  0.00     0.034 C 
ENDBRANCH  14  15
ENDBRANCH  12  14
ENDBRANCH   1  12
BRANCH   2  17
ATOM     17  N   UNL d   1      -1.173  -0.767  -0.830  0.00  0.00    -0.394 N 
ATOM     18  H   UNL d   1      -1.709  -0.194  -0.178  0.00  0.00     0.159 HD
BRANCH  17  19
ATOM     19  C   UNL d   1      -1.914  -1.666  -1.704  0.00  0.00     0.072 C 
ATOM     20  C   UNL d   1      -3.238  -2.046  -1.046  0.00  0.00     0.031 C 
ATOM     21  C   UNL d   1      -2.150  -0.994  -3.052  0.00  0.00     0.031 C 
ENDBRANCH  17  19
ENDBRANCH   2  17
TORSDOF 8
