REMARK  7 active torsions:
REMARK  status: ('A' for Active; 'I' for Inactive)
REMARK    1  A    between atoms: N_2  and  C_1 
REMARK    2  A    between atoms: N_3  and  C_1 
REMARK    3  A    between atoms: C_7  and  N_2 
REMARK    4  A    between atoms: C_11  and  N_2 
REMARK    5  A    between atoms: C_8  and  N_3 
REMARK    6  A    between atoms: C_9  and  C_11 
REMARK    7  A    between atoms: O_16  and  C_10 
ROOT
ATOM      1  N   UNL d   1       2.406  -4.817   2.469  0.00  0.00    -0.197 NA
ATOM      2  C   UNL d   1       1.745  -3.881   2.275  0.00  0.00     0.060 C 
ATOM      3  C   UNL d   1       0.921  -2.696   2.017  0.00  0.00     0.143 C 
ENDROOT
BRANCH   3   4
ATOM      4  C   UNL d   1       0.647  -2.547   0.517  0.00  0.00     0.139 C 
BRANCH   4   5
ATOM      5  N   UNL d   1      -0.152  -1.351   0.204  0.00  0.00    -0.352 N 
BRANCH   5   6
ATOM      6  C   UNL d   1       0.439  -0.083   0.278  0.00  0.00     0.174 C 
ATOM      7  S   UNL d   1       0.027   0.976   1.520  0.00  0.00    -0.041 SA
BRANCH   6   8
ATOM      8  N   UNL d   1       1.359   0.136  -0.740  0.00  0.00    -0.333 N 
ATOM      9  H   UNL d   1       1.842  -0.682  -1.082  0.00  0.00     0.168 HD
BRANCH   8  10
ATOM     10  C   UNL d   1       1.857   1.380  -1.182  0.00  0.00     0.034 A 
ATOM     11  C   UNL d   1       3.178   1.457  -1.630  0.00  0.00     0.032 A 
ATOM     12  C   UNL d   1       3.732   2.697  -1.971  0.00  0.00     0.039 A 
ATOM     13  C   UNL d   1       2.954   3.853  -1.901  0.00  0.00     0.068 A 
ATOM     14  C   UNL d   1       1.603   3.758  -1.583  0.00  0.00     0.039 A 
ATOM     15  C   UNL d   1       1.058   2.526  -1.221  0.00  0.00     0.032 A 
BRANCH  13  16
ATOM     16  O   UNL d   1       3.425   5.109  -2.165  0.00  0.00    -0.356 OA
ATOM     17  C   UNL d   1       4.687   5.377  -1.558  0.00  0.00     0.210 C 
ENDBRANCH  13  16
ENDBRANCH   8  10
ENDBRANCH   6   8
ENDBRANCH   5   6
BRANCH   5  18
ATOM     18  C   UNL d   1      -1.588  -1.416  -0.171  0.00  0.00     0.086 C 
ATOM     19  C   UNL d   1      -2.461  -2.439   0.570  0.00  0.00     0.025 C 
ATOM     20  C   UNL d   1      -2.549  -3.833  -0.054  0.00  0.00     0.002 C 
ATOM     21  C   UNL d   1      -2.634  -3.834  -1.578  0.00  0.00     0.000 C 
ATOM     22  C   UNL d   1      -1.616  -2.907  -2.229  0.00  0.00     0.002 C 
ATOM     23  C   UNL d   1      -1.762  -1.490  -1.694  0.00  0.00     0.025 C 
ENDBRANCH   5  18
ENDBRANCH   4   5
ENDBRANCH   3   4
TORSDOF 7
