REMARK  7 active torsions:
REMARK  status: ('A' for Active; 'I' for Inactive)
REMARK    1  A    between atoms: N_3  and  C_1 
REMARK    2  A    between atoms: N_4  and  C_1 
REMARK    3  A    between atoms: C_2  and  N_3 
REMARK    4  A    between atoms: CA_10  and  N_4 
REMARK    5  A    between atoms: C_15  and  CA_10 
REMARK    6  A    between atoms: C_16  and  CA_10 
REMARK    7  A    between atoms: O_11  and  C_15 
ROOT
ATOM      1  C   UNL d   1       1.092   0.373  -0.031  0.00  0.00     0.172 C 
ATOM      2  S   UNL d   1       2.720   0.248   0.325  0.00  0.00    -0.041 SA
ENDROOT
BRANCH   1   3
ATOM      3  N   UNL d   1       0.509   0.175  -1.259  0.00  0.00    -0.331 N 
ATOM      4  H   UNL d   1       0.077   1.024  -1.603  0.00  0.00     0.168 HD
BRANCH   3   5
ATOM      5  C   UNL d   1       0.962  -0.704  -2.283  0.00  0.00     0.078 A 
ATOM      6  C   UNL d   1       1.272  -2.057  -2.055  0.00  0.00     0.062 A 
ATOM      7 CL   UNL d   1       1.040  -2.835  -0.524  0.00  0.00    -0.082 Cl
ATOM      8  C   UNL d   1       1.647  -2.887  -3.120  0.00  0.00     0.026 A 
ATOM      9  C   UNL d   1       1.694  -2.393  -4.423  0.00  0.00     0.003 A 
ATOM     10  C   UNL d   1       1.357  -1.065  -4.669  0.00  0.00     0.026 A 
ATOM     11  C   UNL d   1       0.986  -0.231  -3.608  0.00  0.00     0.062 A 
ATOM     12 CL   UNL d   1       0.570   1.410  -3.979  0.00  0.00    -0.082 Cl
ENDBRANCH   3   5
ENDBRANCH   1   3
BRANCH   1  13
ATOM     13  N   UNL d   1       0.243   0.821   0.941  0.00  0.00    -0.360 N 
ATOM     14  H   UNL d   1       0.674   0.999   1.845  0.00  0.00     0.162 HD
BRANCH  13  15
ATOM     15  CA  UNL d   1      -1.225   0.784   0.943  0.00  0.00     0.107 C 
BRANCH  15  16
ATOM     16  C   UNL d   1      -1.716  -0.019   2.165  0.00  0.00     0.189 C 
BRANCH  16  17
ATOM     17  O   UNL d   1      -1.349   0.640   3.377  0.00  0.00    -0.399 OA
ATOM     18  H   UNL d   1      -1.765   0.147   4.106  0.00  0.00     0.209 HD
ENDBRANCH  16  17
ENDBRANCH  15  16
BRANCH  15  19
ATOM     19  C   UNL d   1      -1.797   2.211   0.963  0.00  0.00     0.023 C 
ATOM     20  C   UNL d   1      -1.481   2.997  -0.301  0.00  0.00     0.007 C 
ENDBRANCH  15  19
ENDBRANCH  13  15
ENDBRANCH   1  13
TORSDOF 7
