REMARK  5 active torsions:
REMARK  status: ('A' for Active; 'I' for Inactive)
REMARK    1  A    between atoms: C_12  and  C_3 
REMARK    2  A    between atoms: C_11  and  C_6 
REMARK    3  A    between atoms: O_14  and  C_11 
REMARK    4  A    between atoms: C_13  and  C_15 
REMARK    5  A    between atoms: C_18  and  O_14 
ROOT
ATOM      1  C   UNL d   1      -0.453  -0.449   0.591  0.00  0.00     0.172 A 
ATOM      2  N   UNL d   1       0.247   0.720   0.599  0.00  0.00    -0.235 N 
ATOM      3  C   UNL d   1      -1.780   1.112   1.001  0.00  0.00     0.207 A 
ATOM      4  N   UNL d   1      -1.718  -0.272   0.833  0.00  0.00    -0.316 N 
ATOM      5  HN  UNL d   1      -2.468  -0.963   0.886  1.00  0.00     0.169 HD
ATOM      6  C   UNL d   1       1.955  -0.704   0.226  0.00  0.00     0.108 A 
ATOM      7  N   UNL d   1      -0.590   1.745   0.841  0.00  0.00    -0.273 N 
ATOM      8  HN  UNL d   1      -0.383   2.743   0.891  1.00  0.00     0.189 HD
ATOM      9  C   UNL d   1       1.611   0.595   0.388  0.00  0.00     0.056 A 
ATOM     10  S   UNL d   1       0.569  -1.812   0.313  0.00  0.00    -0.044 SA
ATOM     11  C   UNL d   1       2.455   1.825   0.372  0.00  0.00     0.072 C 
ENDROOT
BRANCH   6  12
ATOM     12  C   UNL d   1       3.331  -1.214  -0.000  0.00  0.00     0.307 C 
ATOM     13  O   UNL d   1       4.294  -0.476  -0.160  0.00  0.00    -0.258 OA
BRANCH  12  14
ATOM     14  O   UNL d   1       3.353  -2.604  -0.012  0.00  0.00    -0.275 OA
BRANCH  14  15
ATOM     15  C   UNL d   1       4.463  -3.398  -0.394  0.00  0.00     0.080 A 
ATOM     16  C   UNL d   1       5.750  -2.912  -0.612  0.00  0.00     0.053 A 
ATOM     17  C   UNL d   1       6.752  -3.766  -1.101  0.00  0.00     0.050 A 
ATOM     18  C   UNL d   1       6.449  -5.119  -1.319  0.00  0.00     0.016 A 
ATOM     19  C   UNL d   1       5.169  -5.610  -1.060  0.00  0.00     0.004 A 
ATOM     20  C   UNL d   1       4.174  -4.748  -0.600  0.00  0.00     0.037 A 
BRANCH  17  21
ATOM     21  C   UNL d   1       8.128  -3.237  -1.427  0.00  0.00     0.417 C 
ATOM     22  F   UNL d   1       8.274  -1.903  -1.196  0.00  0.00    -0.166 F 
ATOM     23  F   UNL d   1       9.108  -3.850  -0.708  0.00  0.00    -0.166 F 
ATOM     24  F   UNL d   1       8.454  -3.424  -2.737  0.00  0.00    -0.166 F 
ENDBRANCH  17  21
ENDBRANCH  14  15
ENDBRANCH  12  14
ENDBRANCH   6  12
BRANCH   3  25
ATOM     25  C   UNL d   1      -3.057   1.839   1.373  0.00  0.00     0.450 C 
ATOM     26  F   UNL d   1      -4.119   0.999   1.515  0.00  0.00    -0.163 F 
ATOM     27  F   UNL d   1      -2.935   2.506   2.554  0.00  0.00    -0.163 F 
ATOM     28  F   UNL d   1      -3.417   2.761   0.439  0.00  0.00    -0.163 F 
ENDBRANCH   3  25
TORSDOF 5
