REMARK  4 active torsions:
REMARK  status: ('A' for Active; 'I' for Inactive)
REMARK    1  A    between atoms: N_13  and  C_5 
REMARK    2  A    between atoms: C_14  and  C_8 
REMARK    3  A    between atoms: O_10  and  C_14 
REMARK    4  A    between atoms: C_11  and  O_10 
ROOT
ATOM      1  N   UNL d   1       0.705   0.076   1.296  0.00  0.00    -0.321 N 
ATOM      2  HN  UNL d   1       1.231  -0.097   2.152  1.00  0.00     0.169 HD
ATOM      3  N   UNL d   1      -1.188   0.964   0.222  0.00  0.00    -0.323 N 
ATOM      4  HN  UNL d   1      -2.081   1.454   0.273  1.00  0.00     0.169 HD
ATOM      5  C   UNL d   1      -0.470   0.686   1.299  0.00  0.00     0.157 A 
ATOM      6  N   UNL d   1       0.504  -0.083  -1.056  0.00  0.00    -0.334 N 
ATOM      7  HN  UNL d   1       0.870  -0.386  -1.958  1.00  0.00     0.168 HD
ATOM      8  C   UNL d   1       1.155  -0.297   0.092  0.00  0.00     0.109 A 
ATOM      9  C   UNL d   1      -0.660   0.558  -0.934  0.00  0.00     0.080 A 
ATOM     10  C   UNL d   1      -1.453   0.821  -2.176  0.00  0.00     0.089 C 
ENDROOT
BRANCH   8  11
ATOM     11  C   UNL d   1       2.444  -1.090   0.050  0.00  0.00     0.252 C 
BRANCH  11  12
ATOM     12  O   UNL d   1       3.578  -0.213   0.036  0.00  0.00    -0.342 OA
BRANCH  12  13
ATOM     13  C   UNL d   1       4.796  -0.850   0.036  0.00  0.00     0.090 A 
ATOM     14  C   UNL d   1       5.822  -0.328  -0.764  0.00  0.00     0.067 A 
ATOM     15 CL   UNL d   1       5.558   1.034  -1.795  0.00  0.00    -0.081 Cl
ATOM     16  C   UNL d   1       7.094  -0.911  -0.758  0.00  0.00     0.026 A 
ATOM     17  C   UNL d   1       7.354  -2.011   0.057  0.00  0.00     0.002 A 
ATOM     18  C   UNL d   1       6.347  -2.524   0.871  0.00  0.00     0.003 A 
ATOM     19  C   UNL d   1       5.076  -1.941   0.868  0.00  0.00     0.038 A 
ENDBRANCH  12  13
ENDBRANCH  11  12
ENDBRANCH   8  11
BRANCH   5  20
ATOM     20  N   UNL d   1      -0.982   1.074   2.521  0.00  0.00    -0.274 NA
ATOM     21  H   UNL d   1      -1.633   1.836   2.397  0.00  0.00     0.127 HD
ATOM     22  H   UNL d   1      -0.230   1.211   3.182  0.00  0.00     0.127 HD
ENDBRANCH   5  20
TORSDOF 4
