REMARK  3 active torsions:
REMARK  status: ('A' for Active; 'I' for Inactive)
REMARK    1  A    between atoms: N_2  and  C_1 
REMARK    2  A    between atoms: C_3  and  N_2 
REMARK    3  A    between atoms: O_12  and  C_3 
ROOT
ATOM      1  C   UNL d   1       0.383   0.422  -0.143  0.00  0.00     0.069 A 
ATOM      2  C   UNL d   1      -0.926  -0.077   0.010  0.00  0.00     0.039 A 
ATOM      3  C   UNL d   1       1.428  -0.513  -0.261  0.00  0.00     0.039 A 
ATOM      4  C   UNL d   1      -1.179  -1.448   0.121  0.00  0.00     0.028 A 
ATOM      5  C   UNL d   1       1.170  -1.889  -0.137  0.00  0.00     0.028 A 
ATOM      6  C   UNL d   1      -0.129  -2.366   0.061  0.00  0.00    -0.059 A 
ATOM      7 BR   UNL d   1       3.177  -0.068  -0.876  0.00  0.00    -0.049 Br
ATOM      8 BR   UNL d   1      -2.430   1.093   0.089  0.00  0.00    -0.049 Br
ATOM      9  C   UNL d   1      -0.411  -3.838   0.123  0.00  0.00     0.048 C 
ENDROOT
BRANCH   1  10
ATOM     10  N   UNL d   1       0.542   1.818  -0.297  0.00  0.00    -0.325 N 
ATOM     11  H   UNL d   1      -0.265   2.317  -0.659  0.00  0.00     0.169 HD
BRANCH  10  12
ATOM     12  C   UNL d   1       1.421   2.679   0.307  0.00  0.00     0.214 C 
ATOM     13  S   UNL d   1       2.432   2.413   1.605  0.00  0.00    -0.033 SA
BRANCH  12  14
ATOM     14  O   UNL d   1       1.226   3.917  -0.225  0.00  0.00    -0.332 OA
ATOM     15  C   UNL d   1       2.176   4.986  -0.052  0.00  0.00     0.212 C 
ENDBRANCH  12  14
ENDBRANCH  10  12
ENDBRANCH   1  10
TORSDOF 3
