REMARK  2 active torsions:
REMARK  status: ('A' for Active; 'I' for Inactive)
REMARK    1  A    between atoms: C_2  and  C_1 
REMARK       I    between atoms: N_3  and  C_2 
REMARK    2  A    between atoms: C_6  and  N_3 
ROOT
ATOM      1  C   UNL d   1      -1.755   1.719   2.614  0.00  0.00     0.053 A 
ATOM      2  C   UNL d   1      -1.250   0.739   1.748  0.00  0.00     0.054 A 
ATOM      3  C   UNL d   1      -0.571  -0.374   2.250  0.00  0.00     0.036 A 
ATOM      4  C   UNL d   1      -1.581   1.591   3.994  0.00  0.00     0.032 A 
ATOM      5  C   UNL d   1      -0.917   0.473   4.503  0.00  0.00     0.023 A 
ATOM      6 CL   UNL d   1      -2.586   3.060   1.904  0.00  0.00    -0.083 Cl
ATOM      7  C   UNL d   1      -0.422  -0.505   3.636  0.00  0.00     0.031 A 
ATOM      8 BR   UNL d   1      -2.207   2.881   5.238  0.00  0.00    -0.049 Br
ENDROOT
BRANCH   3   9
ATOM      9  N   UNL d   1      -0.018  -1.395   1.448  0.00  0.00    -0.323 N 
ATOM     10  C   UNL d   1       0.088  -1.428   0.058  0.00  0.00     0.277 C 
ATOM     11  O   UNL d   1      -0.269  -0.500  -0.671  0.00  0.00    -0.268 OA
ATOM     12  H   UNL d   1       0.385  -2.184   1.948  0.00  0.00     0.169 HD
BRANCH  10  13
ATOM     13  C   UNL d   1       0.746  -2.708  -0.535  0.00  0.00     0.269 C 
ATOM     14 CL   UNL d   1       0.975  -3.972   0.716  0.00  0.00    -0.073 Cl
ATOM     15 CL   UNL d   1       2.338  -2.255  -1.194  0.00  0.00    -0.073 Cl
ATOM     16 CL   UNL d   1      -0.307  -3.353  -1.819  0.00  0.00    -0.073 Cl
ENDBRANCH  10  13
ENDBRANCH   3   9
TORSDOF 2
