REMARK  9 active torsions:
REMARK  status: ('A' for Active; 'I' for Inactive)
REMARK    1  A    between atoms: O_15  and  C_1 
REMARK    2  A    between atoms: C_4  and  C_2 
REMARK    3  A    between atoms: C_3  and  N_10 
REMARK    4  A    between atoms: N_11  and  C_3 
REMARK       I    between atoms: N_9  and  C_4 
REMARK    5  A    between atoms: O_16  and  C_5 
REMARK    6  A    between atoms: O_17  and  C_6 
REMARK    7  A    between atoms: N_10  and  N_9 
REMARK    8  A    between atoms: C_14  and  N_11 
REMARK    9  A    between atoms: O_23  and  C_18 
ROOT
ATOM      1  C   UNL d   1      -2.749   0.688  -0.125  0.00  0.00     0.270 C 
ATOM      2  N   UNL d   1      -3.057   1.883  -0.747  0.00  0.00    -0.264 N 
ATOM      3  O   UNL d   1      -3.627  -0.065   0.300  0.00  0.00    -0.266 OA
ATOM      4  H   UNL d   1      -2.398   2.508  -1.200  0.00  0.00     0.190 HD
ENDROOT
BRANCH   2   5
ATOM      5  N   UNL d   1      -4.412   2.131  -0.955  0.00  0.00    -0.273 N 
ATOM      6  H   UNL d   1      -5.017   1.319  -0.839  0.00  0.00     0.189 HD
BRANCH   5   7
ATOM      7  C   UNL d   1      -4.930   3.368  -1.232  0.00  0.00     0.191 C 
ATOM      8  S   UNL d   1      -4.019   4.692  -1.693  0.00  0.00    -0.039 SA
BRANCH   7   9
ATOM      9  N   UNL d   1      -6.300   3.464  -1.217  0.00  0.00    -0.332 N 
ATOM     10  H   UNL d   1      -6.675   4.244  -1.747  0.00  0.00     0.168 HD
BRANCH   9  11
ATOM     11  C   UNL d   1      -7.231   2.622  -0.576  0.00  0.00     0.034 A 
ATOM     12  C   UNL d   1      -6.913   1.881   0.570  0.00  0.00     0.032 A 
ATOM     13  C   UNL d   1      -7.842   1.009   1.139  0.00  0.00     0.039 A 
ATOM     14  C   UNL d   1      -9.109   0.871   0.576  0.00  0.00     0.068 A 
ATOM     15  C   UNL d   1      -9.450   1.663  -0.526  0.00  0.00     0.039 A 
ATOM     16  C   UNL d   1      -8.526   2.546  -1.090  0.00  0.00     0.032 A 
BRANCH  14  17
ATOM     17  O   UNL d   1     -10.086   0.018   1.006  0.00  0.00    -0.356 OA
ATOM     18  C   UNL d   1      -9.715  -0.911   2.019  0.00  0.00     0.210 C 
ENDBRANCH  14  17
ENDBRANCH   9  11
ENDBRANCH   7   9
ENDBRANCH   5   7
ENDBRANCH   2   5
BRANCH   1  19
ATOM     19  C   UNL d   1      -1.320   0.291  -0.029  0.00  0.00     0.039 A 
ATOM     20  C   UNL d   1      -0.266   1.132  -0.379  0.00  0.00     0.057 A 
ATOM     21  C   UNL d   1       1.050   0.650  -0.385  0.00  0.00     0.105 A 
ATOM     22  C   UNL d   1       1.321  -0.674   0.003  0.00  0.00     0.135 A 
ATOM     23  C   UNL d   1       0.271  -1.477   0.491  0.00  0.00     0.105 A 
ATOM     24  C   UNL d   1      -1.042  -1.005   0.427  0.00  0.00     0.057 A 
BRANCH  21  25
ATOM     25  O   UNL d   1       1.967   1.606  -0.740  0.00  0.00    -0.353 OA
ATOM     26  C   UNL d   1       3.025   1.171  -1.583  0.00  0.00     0.210 C 
ENDBRANCH  21  25
BRANCH  22  27
ATOM     27  O   UNL d   1       2.624  -1.104  -0.009  0.00  0.00    -0.351 OA
ATOM     28  C   UNL d   1       2.821  -2.366  -0.650  0.00  0.00     0.210 C 
ENDBRANCH  22  27
BRANCH  23  29
ATOM     29  O   UNL d   1       0.592  -2.712   1.002  0.00  0.00    -0.353 OA
ATOM     30  C   UNL d   1      -0.322  -3.260   1.949  0.00  0.00     0.210 C 
ENDBRANCH  23  29
ENDBRANCH   1  19
TORSDOF 9
