REMARK  8 active torsions:
REMARK  status: ('A' for Active; 'I' for Inactive)
REMARK    1  A    between atoms: N_5  and  S_1 
REMARK    2  A    between atoms: C_13  and  S_1 
REMARK    3  A    between atoms: C_2  and  C_3 
REMARK       I    between atoms: C_3  and  N_8 
REMARK    4  A    between atoms: C_4  and  C_6 
REMARK    5  A    between atoms: N_8  and  N_5 
REMARK    6  A    between atoms: O_21  and  C_7 
REMARK    7  A    between atoms: C_12  and  C_23 
REMARK    8  A    between atoms: C_23  and  O_21 
ROOT
ATOM      1  C   UNL d   1      -0.168  -3.837  -1.860  0.00  0.00     0.107 A 
ATOM      2  C   UNL d   1      -1.313  -3.519  -1.150  0.00  0.00     0.092 A 
ATOM      3  S   UNL d   1      -0.035  -5.537  -2.080  0.00  0.00    -0.094 SA
ATOM      4  C   UNL d   1      -2.039  -4.677  -0.737  0.00  0.00     0.045 A 
ATOM      5  C   UNL d   1      -1.451  -5.841  -1.178  0.00  0.00     0.053 A 
ENDROOT
BRANCH   1   6
ATOM      6  C   UNL d   1       0.868  -2.986  -2.426  0.00  0.00     0.280 C 
ATOM      7  N   UNL d   1       1.088  -1.799  -1.743  0.00  0.00    -0.256 N 
ATOM      8  H   UNL d   1       0.594  -1.570  -0.882  0.00  0.00     0.191 HD
ATOM      9  O   UNL d   1       1.567  -3.285  -3.396  0.00  0.00    -0.265 OA
BRANCH   7  10
ATOM     10  N   UNL d   1       2.177  -0.941  -2.174  0.00  0.00    -0.220 N 
ATOM     11  H   UNL d   1       2.701  -1.198  -3.019  0.00  0.00     0.200 HD
BRANCH  10  12
ATOM     12  S   UNL d   1       2.932   0.101  -1.083  0.00  0.00     0.276 S 
ATOM     13  O   UNL d   1       1.886   0.804  -0.367  0.00  0.00    -0.199 OA
ATOM     14  O   UNL d   1       3.995   0.787  -1.779  0.00  0.00    -0.199 OA
BRANCH  12  15
ATOM     15  C   UNL d   1       3.676  -1.063   0.036  0.00  0.00     0.081 A 
ATOM     16  C   UNL d   1       4.663  -1.931  -0.443  0.00  0.00     0.026 A 
ATOM     17  C   UNL d   1       5.160  -2.932   0.391  0.00  0.00     0.008 A 
ATOM     18  C   UNL d   1       4.682  -3.067   1.703  0.00  0.00    -0.062 A 
ATOM     19  C   UNL d   1       3.737  -2.152   2.187  0.00  0.00     0.008 A 
ATOM     20  C   UNL d   1       5.158  -4.206   2.556  0.00  0.00     0.048 C 
ATOM     21  C   UNL d   1       3.233  -1.148   1.357  0.00  0.00     0.026 A 
ENDBRANCH  12  15
ENDBRANCH  10  12
ENDBRANCH   7  10
ENDBRANCH   1   6
BRANCH   2  22
ATOM     22  O   UNL d   1      -1.640  -2.224  -0.903  0.00  0.00    -0.344 OA
BRANCH  22  23
ATOM     23  C   UNL d   1      -3.057  -1.995  -0.879  0.00  0.00     0.234 C 
BRANCH  23  24
ATOM     24  C   UNL d   1      -3.357  -0.537  -1.140  0.00  0.00     0.055 A 
ATOM     25  N   UNL d   1      -4.018   0.128  -0.149  0.00  0.00    -0.365 N 
ATOM     26  C   UNL d   1      -4.312   1.434  -0.350  0.00  0.00     0.104 A 
ATOM     27  HN  UNL d   1      -4.282  -0.344   0.716  1.00  0.00     0.165 HD
ATOM     28  C   UNL d   1      -3.985   2.130  -1.503  0.00  0.00     0.064 A 
ATOM     29  C   UNL d   1      -3.326   1.429  -2.517  0.00  0.00     0.043 A 
ATOM     30  C   UNL d   1      -3.010   0.082  -2.342  0.00  0.00     0.059 A 
ATOM     31 CL   UNL d   1      -2.233  -0.748  -3.638  0.00  0.00    -0.082 Cl
BRANCH  28  32
ATOM     32  C   UNL d   1      -4.341   3.578  -1.624  0.00  0.00     0.418 C 
ATOM     33  F   UNL d   1      -3.945   4.137  -2.801  0.00  0.00    -0.166 F 
ATOM     34  F   UNL d   1      -5.684   3.791  -1.544  0.00  0.00    -0.166 F 
ATOM     35  F   UNL d   1      -3.783   4.336  -0.642  0.00  0.00    -0.166 F 
ENDBRANCH  28  32
ENDBRANCH  23  24
ENDBRANCH  22  23
ENDBRANCH   2  22
TORSDOF 8
