REMARK  3 active torsions:
REMARK  status: ('A' for Active; 'I' for Inactive)
REMARK    1  A    between atoms: N_6  and  C_1 
REMARK       I    between atoms: C_2  and  N_6 
REMARK       I    between atoms: N_3  and  C_2 
REMARK    2  A    between atoms: C_9  and  N_3 
REMARK    3  A    between atoms: C_20  and  C_10 
ROOT
ATOM      1  C   UNL d   1      -1.532  -2.305   0.214  0.00  0.00     0.326 C 
ATOM      2  N   UNL d   1      -2.499  -1.473   0.695  0.00  0.00    -0.294 N 
ATOM      3  N   UNL d   1      -0.323  -1.710  -0.090  0.00  0.00    -0.306 N 
ATOM      4  O   UNL d   1      -1.612  -3.523   0.086  0.00  0.00    -0.247 OA
ATOM      5  H   UNL d   1      -2.224  -0.529   0.882  0.00  0.00     0.172 HD
ATOM      6  H   UNL d   1       0.415  -2.405  -0.118  0.00  0.00     0.171 HD
ENDROOT
BRANCH   3   7
ATOM      7  C   UNL d   1       0.084  -0.350  -0.126  0.00  0.00     0.071 C 
ATOM      8  C   UNL d   1      -0.729   0.732  -0.494  0.00  0.00     0.039 C 
ATOM      9  C   UNL d   1      -0.348   2.051  -0.213  0.00  0.00     0.029 C 
ATOM     10 BR   UNL d   1      -2.253   0.559  -1.628  0.00  0.00    -0.049 Br
ATOM     11  C   UNL d   1       0.910   2.346   0.319  0.00  0.00    -0.052 C 
ATOM     12  C   UNL d   1       1.808   1.279   0.475  0.00  0.00     0.029 C 
ATOM     13  C   UNL d   1       1.404  -0.046   0.246  0.00  0.00     0.039 C 
ATOM     14 BR   UNL d   1       2.711  -1.411   0.482  0.00  0.00    -0.049 Br
BRANCH  11  15
ATOM     15  C   UNL d   1       1.335   3.762   0.688  0.00  0.00     0.010 C 
ATOM     16  C   UNL d   1       2.451   4.266  -0.233  0.00  0.00     0.015 C 
ATOM     17  C   UNL d   1       0.196   4.791   0.717  0.00  0.00     0.015 C 
ENDBRANCH  11  15
ENDBRANCH   3   7
BRANCH   2  18
ATOM     18  C   UNL d   1      -3.881  -1.718   0.718  0.00  0.00     0.109 A 
ATOM     19  N   UNL d   1      -4.381  -2.949   0.516  0.00  0.00    -0.342 N 
ATOM     20  C   UNL d   1      -5.721  -3.091   0.421  0.00  0.00     0.043 A 
ATOM     21  HN  UNL d   1      -3.764  -3.757   0.436  1.00  0.00     0.167 HD
ATOM     22  C   UNL d   1      -6.269  -4.353   0.244  0.00  0.00     0.030 A 
ATOM     23  C   UNL d   1      -6.607  -1.993   0.484  0.00  0.00    -0.009 A 
ATOM     24  C   UNL d   1      -7.648  -4.547   0.103  0.00  0.00     0.002 A 
ATOM     25  C   UNL d   1      -8.509  -3.454   0.127  0.00  0.00     0.001 A 
ATOM     26  C   UNL d   1      -7.991  -2.178   0.319  0.00  0.00     0.013 A 
ATOM     27  C   UNL d   1      -6.066  -0.731   0.720  0.00  0.00     0.017 A 
ATOM     28  C   UNL d   1      -4.690  -0.597   0.868  0.00  0.00     0.049 A 
ENDBRANCH   2  18
TORSDOF 3
