REMARK  2 active torsions:
REMARK  status: ('A' for Active; 'I' for Inactive)
REMARK       I    between atoms: N_3  and  C_1 
REMARK       I    between atoms: N_6  and  C_1 
REMARK    1  A    between atoms: C_2  and  N_4 
REMARK    2  A    between atoms: C_18  and  N_6 
ROOT
ATOM      1  C   UNL d   1      -0.893  -1.496   5.153  0.00  0.00     0.141 A 
ATOM      2  C   UNL d   1      -1.512  -2.655   5.671  0.00  0.00     0.158 A 
ATOM      3  C   UNL d   1      -1.393  -3.940   5.046  0.00  0.00     0.121 C 
ATOM      4  N   UNL d   1      -1.308  -4.970   4.511  0.00  0.00    -0.190 NA
ATOM      5  N   UNL d   1      -0.970  -0.352   5.885  0.00  0.00    -0.349 N 
ATOM      6  HN  UNL d   1      -0.527   0.508   5.561  1.00  0.00     0.167 HD
ATOM      7  N   UNL d   1      -2.215  -2.686   6.845  0.00  0.00    -0.353 N 
ATOM      8  HN  UNL d   1      -2.668  -3.535   7.184  1.00  0.00     0.166 HD
ATOM      9  C   UNL d   1      -1.652  -0.388   7.058  0.00  0.00     0.106 A 
ATOM     10  C   UNL d   1      -2.271  -1.525   7.524  0.00  0.00     0.106 A 
ENDROOT
BRANCH   1  11
ATOM     11  N   UNL d   1      -0.191  -1.428   3.967  0.00  0.00    -0.362 N 
ATOM     12  C   UNL d   1      -0.621  -2.109   2.737  0.00  0.00     0.144 C 
ATOM     13  C   UNL d   1      -0.860  -1.110   1.587  0.00  0.00     0.147 C 
ATOM     14  N   UNL d   1       0.285  -0.213   1.402  0.00  0.00    -0.331 N 
ATOM     15  C   UNL d   1       1.019   0.035   0.246  0.00  0.00     0.323 C 
ATOM     16  C   UNL d   1       0.626   0.524   2.629  0.00  0.00     0.147 C 
ATOM     17  N   UNL d   1       0.623  -0.665  -0.871  0.00  0.00    -0.309 N 
ATOM     18  O   UNL d   1       1.950   0.838   0.259  0.00  0.00    -0.247 OA
ATOM     19  H   UNL d   1      -0.124  -1.324  -0.766  0.00  0.00     0.170 HD
ATOM     20  C   UNL d   1       0.886  -0.429   3.810  0.00  0.00     0.144 C 
BRANCH  17  21
ATOM     21  C   UNL d   1       1.127  -0.571  -2.188  0.00  0.00     0.036 A 
ATOM     22  C   UNL d   1       2.174   0.266  -2.576  0.00  0.00     0.029 A 
ATOM     23  C   UNL d   1       2.587   0.315  -3.913  0.00  0.00     0.002 A 
ATOM     24  C   UNL d   1       1.957  -0.472  -4.874  0.00  0.00     0.000 A 
ATOM     25  C   UNL d   1       0.918  -1.317  -4.499  0.00  0.00     0.002 A 
ATOM     26  C   UNL d   1       0.508  -1.368  -3.163  0.00  0.00     0.029 A 
ENDBRANCH  17  21
ENDBRANCH   1  11
TORSDOF 2
