REMARK  1 active torsions:
REMARK  status: ('A' for Active; 'I' for Inactive)
REMARK    1  A    between atoms: N_9  and  C_3 
ROOT
ATOM      1  N   UNL d   1      -0.679   1.211  -0.002  0.00  0.00    -0.152 N 
ATOM      2  C   UNL d   1      -1.431   0.050   0.001  0.00  0.00     0.269 A 
ATOM      3  C   UNL d   1       0.699   1.157  -0.016  0.00  0.00     0.680 A 
ATOM      4  C   UNL d   1      -0.671  -1.223   0.003  0.00  0.00     0.029 A 
ATOM      5  N   UNL d   1       1.363   0.042  -0.007  0.00  0.00    -0.195 N 
ATOM      6  HN  UNL d   1       2.382   0.045  -0.007  1.00  0.00     0.184 HD
ATOM      7  C   UNL d   1       0.670  -1.140   0.003  0.00  0.00     0.034 A 
ATOM      8  O   UNL d   1      -2.660   0.032   0.002  0.00  0.00    -0.267 OA
ATOM      9  C   UNL d   1      -1.386   2.479  -0.001  0.00  0.00     0.179 C 
ATOM     10  C   UNL d   1      -1.439  -2.509   0.004  0.00  0.00     0.056 C 
ATOM     11  C   UNL d   1       1.530  -2.377   0.005  0.00  0.00     0.069 C 
ENDROOT
BRANCH   3  12
ATOM     12  N   UNL d   1       1.429   2.300  -0.049  0.00  0.00    -0.234 N 
ATOM     13  H   UNL d   1       1.040   3.223   0.053  0.00  0.00     0.174 HD
ATOM     14  H   UNL d   1       2.433   2.196   0.022  0.00  0.00     0.174 HD
ENDBRANCH   3  12
TORSDOF 1
