REMARK  5 active torsions:
REMARK  status: ('A' for Active; 'I' for Inactive)
REMARK    1  A    between atoms: C_2  and  C_1 
REMARK       I    between atoms: N_6  and  C_1 
REMARK       I    between atoms: C_3  and  N_4 
REMARK    2  A    between atoms: C_10  and  C_3 
REMARK    3  A    between atoms: N_4  and  C_5 
REMARK    4  A    between atoms: C_8  and  N_6 
REMARK    5  A    between atoms: S_13  and  C_12 
ROOT
ATOM      1  C   UNL d   1       0.233   1.143  -0.777  0.00  0.00     0.059 A 
ATOM      2  C   UNL d   1       0.704   1.312  -2.096  0.00  0.00     0.050 A 
ATOM      3  C   UNL d   1      -0.866   1.905  -0.337  0.00  0.00     0.019 A 
ATOM      4  C   UNL d   1       0.008   2.167  -2.962  0.00  0.00     0.030 A 
ATOM      5  C   UNL d   1      -1.541   2.758  -1.210  0.00  0.00     0.001 A 
ATOM      6  C   UNL d   1      -1.113   2.877  -2.528  0.00  0.00     0.002 A 
ENDROOT
BRANCH   1   7
ATOM      7  C   UNL d   1       0.949   0.239   0.183  0.00  0.00     0.258 C 
ATOM      8  N   UNL d   1       0.179  -0.247   1.226  0.00  0.00    -0.323 N 
ATOM      9  H   UNL d   1      -0.821  -0.119   1.163  0.00  0.00     0.169 HD
ATOM     10  O   UNL d   1       2.122  -0.056  -0.038  0.00  0.00    -0.267 OA
BRANCH   8  11
ATOM     11  C   UNL d   1       0.615  -1.026   2.321  0.00  0.00     0.036 A 
ATOM     12  C   UNL d   1       1.960  -1.294   2.599  0.00  0.00     0.048 A 
ATOM     13  C   UNL d   1       2.326  -2.110   3.677  0.00  0.00     0.002 A 
ATOM     14  C   UNL d   1       1.317  -2.639   4.492  0.00  0.00     0.018 A 
ATOM     15  C   UNL d   1      -0.024  -2.348   4.248  0.00  0.00     0.004 A 
ATOM     16  C   UNL d   1      -0.373  -1.540   3.167  0.00  0.00     0.029 A 
BRANCH  13  17
ATOM     17  S   UNL d   1       4.012  -2.547   4.098  0.00  0.00    -0.134 SA
ATOM     18  C   UNL d   1       4.996  -1.698   2.833  0.00  0.00     0.095 C 
ENDBRANCH  13  17
ENDBRANCH   8  11
ENDBRANCH   1   7
BRANCH   2  19
ATOM     19  N   UNL d   1       1.857   0.623  -2.557  0.00  0.00    -0.322 N 
ATOM     20  C   UNL d   1       2.815   1.226  -3.356  0.00  0.00     0.256 C 
ATOM     21  O   UNL d   1       2.797   2.396  -3.734  0.00  0.00    -0.267 OA
ATOM     22  H   UNL d   1       2.217  -0.105  -1.936  0.00  0.00     0.169 HD
BRANCH  20  23
ATOM     23  C   UNL d   1       3.989   0.390  -3.708  0.00  0.00     0.032 A 
ATOM     24  C   UNL d   1       3.841  -0.941  -4.114  0.00  0.00     0.017 A 
ATOM     25  C   UNL d   1       4.959  -1.666  -4.535  0.00  0.00     0.001 A 
ATOM     26  C   UNL d   1       6.222  -1.069  -4.539  0.00  0.00     0.000 A 
ATOM     27  C   UNL d   1       6.372   0.255  -4.124  0.00  0.00     0.001 A 
ATOM     28  C   UNL d   1       5.256   0.987  -3.716  0.00  0.00     0.017 A 
ENDBRANCH  20  23
ENDBRANCH   2  19
TORSDOF 5
