REMARK  7 active torsions:
REMARK  status: ('A' for Active; 'I' for Inactive)
REMARK    1  A    between atoms: C_2  and  C_1 
REMARK    2  A    between atoms: O_12  and  C_1 
REMARK       I    between atoms: N_5  and  C_2 
REMARK    3  A    between atoms: C_3  and  N_8 
REMARK    4  A    between atoms: N_9  and  C_3 
REMARK    5  A    between atoms: N_8  and  N_5 
REMARK    6  A    between atoms: C_17  and  N_9 
REMARK    7  A    between atoms: O_23  and  C_18 
ROOT
ATOM      1  C   UNL d   1       1.298   1.963  -1.597  0.00  0.00     0.273 C 
ATOM      2  N   UNL d   1       2.599   2.433  -1.543  0.00  0.00    -0.265 N 
ATOM      3  O   UNL d   1       0.669   1.939  -2.659  0.00  0.00    -0.268 OA
ATOM      4  H   UNL d   1       3.120   2.537  -0.674  0.00  0.00     0.190 HD
ENDROOT
BRANCH   2   5
ATOM      5  N   UNL d   1       3.129   2.928  -2.736  0.00  0.00    -0.273 N 
ATOM      6  H   UNL d   1       2.621   2.635  -3.569  0.00  0.00     0.189 HD
BRANCH   5   7
ATOM      7  C   UNL d   1       4.027   3.969  -2.817  0.00  0.00     0.191 C 
ATOM      8  S   UNL d   1       5.002   4.479  -1.562  0.00  0.00    -0.039 SA
BRANCH   7   9
ATOM      9  N   UNL d   1       4.186   4.511  -4.076  0.00  0.00    -0.332 N 
ATOM     10  H   UNL d   1       5.093   4.934  -4.257  0.00  0.00     0.168 HD
BRANCH   9  11
ATOM     11  C   UNL d   1       3.254   4.489  -5.132  0.00  0.00     0.034 A 
ATOM     12  C   UNL d   1       1.875   4.522  -4.892  0.00  0.00     0.032 A 
ATOM     13  C   UNL d   1       0.963   4.380  -5.936  0.00  0.00     0.039 A 
ATOM     14  C   UNL d   1       1.419   4.205  -7.241  0.00  0.00     0.068 A 
ATOM     15  C   UNL d   1       2.794   4.270  -7.493  0.00  0.00     0.039 A 
ATOM     16  C   UNL d   1       3.710   4.434  -6.449  0.00  0.00     0.032 A 
BRANCH  14  17
ATOM     17  O   UNL d   1       0.630   3.966  -8.331  0.00  0.00    -0.356 OA
ATOM     18  C   UNL d   1      -0.745   3.695  -8.070  0.00  0.00     0.210 C 
ENDBRANCH  14  17
ENDBRANCH   9  11
ENDBRANCH   7   9
ENDBRANCH   5   7
ENDBRANCH   2   5
BRANCH   1  19
ATOM     19  C   UNL d   1       0.742   1.421  -0.263  0.00  0.00     0.170 C 
ATOM     20  C   UNL d   1      -0.817   1.398  -0.274  0.00  0.00     0.320 C 
ATOM     21  N   UNL d   1      -1.370   0.050   0.026  0.00  0.00     0.091 N 
ATOM     22  C   UNL d   1      -0.861  -0.393   1.341  0.00  0.00     0.273 C 
ATOM     23  C   UNL d   1      -0.898  -0.887  -1.019  0.00  0.00     0.273 C 
ATOM     24  C   UNL d   1       0.673  -0.494   1.360  0.00  0.00     0.038 C 
ATOM     25  C   UNL d   1       1.236  -0.027  -0.001  0.00  0.00     0.035 C 
ATOM     26  C   UNL d   1       0.637  -0.978  -1.055  0.00  0.00     0.038 C 
BRANCH  19  27
ATOM     27  O   UNL d   1       1.228   2.251   0.806  0.00  0.00    -0.378 OA
ATOM     28  H   UNL d   1       0.754   3.101   0.760  0.00  0.00     0.211 HD
ENDBRANCH  19  27
ENDBRANCH   1  19
TORSDOF 7
