REMARK  6 active torsions:
REMARK  status: ('A' for Active; 'I' for Inactive)
REMARK    1  A    between atoms: N_2  and  S_1 
REMARK    2  A    between atoms: C_3  and  S_1 
REMARK    3  A    between atoms: N_4  and  N_2 
REMARK    4  A    between atoms: C_8  and  C_10 
REMARK    5  A    between atoms: O_16  and  C_9 
REMARK    6  A    between atoms: C_19  and  O_16 
ROOT
ATOM      1  N   UNL d   1       0.181  -1.401  -1.717  0.00  0.00    -0.223 N 
ATOM      2  H   UNL d   1       0.719  -1.352  -0.850  0.00  0.00     0.200 HD
ENDROOT
BRANCH   1   3
ATOM      3  S   UNL d   1      -0.685  -2.851  -1.926  0.00  0.00     0.276 S 
ATOM      4  O   UNL d   1      -0.077  -3.604  -3.004  0.00  0.00    -0.199 OA
ATOM      5  O   UNL d   1      -2.099  -2.527  -1.948  0.00  0.00    -0.199 OA
BRANCH   3   6
ATOM      6  C   UNL d   1      -0.323  -3.695  -0.408  0.00  0.00     0.081 A 
ATOM      7  C   UNL d   1      -1.205  -3.604   0.671  0.00  0.00     0.026 A 
ATOM      8  C   UNL d   1      -0.944  -4.334   1.832  0.00  0.00     0.008 A 
ATOM      9  C   UNL d   1       0.188  -5.158   1.918  0.00  0.00    -0.062 A 
ATOM     10  C   UNL d   1       1.068  -5.232   0.830  0.00  0.00     0.008 A 
ATOM     11  C   UNL d   1       0.432  -5.968   3.158  0.00  0.00     0.048 C 
ATOM     12  C   UNL d   1       0.814  -4.504  -0.334  0.00  0.00     0.026 A 
ENDBRANCH   3   6
ENDBRANCH   1   3
BRANCH   1  13
ATOM     13  N   UNL d   1       0.705  -0.595  -2.803  0.00  0.00    -0.301 N 
ATOM     14  C   UNL d   1       0.114  -0.652  -3.957  0.00  0.00     0.122 C 
ATOM     15  HN  UNL d   1       1.520   0.002  -2.662  1.00  0.00     0.186 HD
BRANCH  14  16
ATOM     16  C   UNL d   1       0.629   0.134  -5.100  0.00  0.00     0.014 A 
ATOM     17  C   UNL d   1      -0.139   0.538  -6.201  0.00  0.00     0.080 A 
ATOM     18  C   UNL d   1       0.501   1.238  -7.240  0.00  0.00     0.037 A 
ATOM     19  C   UNL d   1       1.865   1.538  -7.195  0.00  0.00     0.003 A 
ATOM     20  C   UNL d   1       2.622   1.127  -6.107  0.00  0.00     0.001 A 
ATOM     21  C   UNL d   1       2.007   0.432  -5.067  0.00  0.00     0.015 A 
BRANCH  17  22
ATOM     22  O   UNL d   1      -1.458   0.318  -6.477  0.00  0.00    -0.351 OA
BRANCH  22  23
ATOM     23  C   UNL d   1      -2.406   0.245  -5.417  0.00  0.00     0.171 C 
ATOM     24  C   UNL d   1      -3.726   0.800  -5.928  0.00  0.00     0.034 C 
ENDBRANCH  22  23
ENDBRANCH  17  22
ENDBRANCH  14  16
ENDBRANCH   1  13
TORSDOF 6
