REMARK  5 active torsions:
REMARK  status: ('A' for Active; 'I' for Inactive)
REMARK    1  A    between atoms: CA_2  and  CB_1 
REMARK    2  A    between atoms: CG_5  and  CB_1 
REMARK    3  A    between atoms: C_3  and  CA_2 
REMARK    4  A    between atoms: CA_2  and  N_4 
REMARK    5  A    between atoms: OXT_9  and  C_3 
REMARK       I    between atoms: C5_14  and  N_4 
REMARK       I    between atoms: ND2_8  and  CG_5 
ROOT
ATOM      1  CA  ASN d   1       0.598   1.608   0.183  0.00  0.00     0.191 C 
ENDROOT
BRANCH   1   2
ATOM      2  CB  ASN d   1       1.105   0.173   0.054  0.00  0.00     0.138 C 
BRANCH   2   3
ATOM      3  CG  ASN d   1       2.609   0.145  -0.040  0.00  0.00     0.217 C 
ATOM      4  OD1 ASN d   1       3.311   1.141   0.092  0.00  0.00    -0.274 OA
ATOM      5  ND2 ASN d   1       3.143  -1.081  -0.299  0.00  0.00    -0.370 N 
ATOM      6 1HD2 ASN d   1       2.584  -1.902  -0.484  0.00  0.00     0.159 HD
ATOM      7 2HD2 ASN d   1       4.148  -1.156  -0.401  0.00  0.00     0.159 HD
ENDBRANCH   2   3
ENDBRANCH   1   2
BRANCH   1   8
ATOM      8  C   ASN d   1       0.837   2.393  -1.113  0.00  0.00     0.164 C 
ATOM      9  O   ASN d   1      -0.007   2.494  -1.997  0.00  0.00    -0.648 OA
BRANCH   8  10
ATOM     10  OXT ASN d   1       2.056   2.965  -1.215  0.00  0.00    -0.775 OA
ATOM     11  HXT ASN d   1       2.692   2.668  -0.516  0.00  0.00     0.167 HD
ENDBRANCH   8  10
ENDBRANCH   1   8
BRANCH   1  12
ATOM     12  N   ASN d   1      -0.849   1.624   0.423  0.00  0.00    -0.346 N 
ATOM     13  C5  <1> d   1      -1.381   1.478   1.677  0.00  0.00     0.214 C 
ATOM     14  O3  <1> d   1      -0.693   1.325   2.680  0.00  0.00    -0.274 OA
ATOM     15  C6  <1> d   1      -2.883   1.524   1.726  0.00  0.00     0.117 C 
ATOM     16  H   ASN d   1      -1.446   1.828  -0.374  0.00  0.00     0.163 HD
ENDBRANCH   1  12
TORSDOF 5
