REMARK  2 active torsions:
REMARK  status: ('A' for Active; 'I' for Inactive)
REMARK    1  A    between atoms: C_11  and  N_4 
REMARK    2  A    between atoms: C_12  and  C_11 
ROOT
ATOM      1  C   UNL d   1       0.291  -0.732   0.038  0.00  0.00     0.069 A 
ATOM      2  C   UNL d   1       0.254   0.677   0.080  0.00  0.00     0.021 A 
ATOM      3  C   UNL d   1      -0.937  -1.506   0.012  0.00  0.00     0.275 A 
ATOM      4  N   UNL d   1      -2.102  -0.709   0.046  0.00  0.00    -0.253 N 
ATOM      5  C   UNL d   1       1.619  -1.114   0.015  0.00  0.00     0.022 A 
ATOM      6  N   UNL d   1       2.371   0.042   0.015  0.00  0.00    -0.362 N 
ATOM      7  N   UNL d   1      -2.120   0.698   0.106  0.00  0.00    -0.306 N 
ATOM      8  HN  UNL d   1      -3.011   1.195   0.134  1.00  0.00     0.186 HD
ATOM      9  C   UNL d   1       1.549   1.149   0.048  0.00  0.00     0.018 A 
ATOM     10  C   UNL d   1      -1.004   1.365   0.125  0.00  0.00     0.121 A 
ATOM     11  O   UNL d   1      -0.943  -2.732  -0.056  0.00  0.00    -0.266 OA
ATOM     12  C   UNL d   1       2.266  -2.450  -0.014  0.00  0.00     0.069 C 
ATOM     13  C   UNL d   1       2.109   2.523   0.035  0.00  0.00     0.069 C 
ATOM     14  H   UNL d   1       3.382   0.070  -0.013  0.00  0.00     0.165 HD
ENDROOT
BRANCH   4  15
ATOM     15  C   UNL d   1      -3.406  -1.361  -0.044  0.00  0.00     0.193 C 
BRANCH  15  16
ATOM     16  C   UNL d   1      -3.964  -1.770   1.300  0.00  0.00    -0.017 A 
ATOM     17  C   UNL d   1      -4.808  -0.949   2.062  0.00  0.00     0.042 A 
ATOM     18 CL   UNL d   1      -5.334   0.602   1.510  0.00  0.00    -0.084 Cl
ATOM     19  C   UNL d   1      -5.279  -1.375   3.310  0.00  0.00     0.024 A 
ATOM     20  C   UNL d   1      -4.916  -2.624   3.814  0.00  0.00     0.002 A 
ATOM     21  C   UNL d   1      -4.085  -3.453   3.068  0.00  0.00     0.001 A 
ATOM     22  C   UNL d   1      -3.612  -3.030   1.825  0.00  0.00     0.010 A 
ENDBRANCH  15  16
ENDBRANCH   4  15
TORSDOF 2
