REMARK  2 active torsions:
REMARK  status: ('A' for Active; 'I' for Inactive)
REMARK    1  A    between atoms: C_13  and  C_4 
REMARK    2  A    between atoms: C_14  and  C_15 
ROOT
ATOM      1  N   UNL d   1       0.652   0.170  -0.921  0.00  0.00    -0.318 N 
ATOM      2  HN  UNL d   1       1.211   0.368  -1.751  1.00  0.00     0.169 HD
ATOM      3  C   UNL d   1       0.170  -0.989  -0.514  0.00  0.00     0.189 A 
ATOM      4  C   UNL d   1       0.216   1.049   0.048  0.00  0.00     0.138 A 
ATOM      5  N   UNL d   1      -0.498   0.467   1.024  0.00  0.00    -0.242 N 
ATOM      6  HN  UNL d   1      -0.918   0.905   1.843  1.00  0.00     0.196 HD
ATOM      7  C   UNL d   1       0.347  -2.228  -1.215  0.00  0.00     0.058 A 
ATOM      8  O   UNL d   1      -0.531  -0.871   0.658  0.00  0.00    -0.217 OA
ATOM      9  S   UNL d   1      -0.350  -3.685  -0.649  0.00  0.00    -0.097 SA
ATOM     10  C   UNL d   1       1.053  -2.434  -2.384  0.00  0.00     0.030 A 
ATOM     11  C   UNL d   1       0.280  -4.576  -1.962  0.00  0.00     0.057 A 
ATOM     12  C   UNL d   1       1.020  -3.797  -2.830  0.00  0.00    -0.054 A 
ATOM     13  C   UNL d   1       1.688  -4.308  -4.061  0.00  0.00     0.048 C 
ENDROOT
BRANCH   4  14
ATOM     14  C   UNL d   1       0.505   2.479   0.008  0.00  0.00     0.010 A 
ATOM     15  C   UNL d   1       1.274   3.035  -1.017  0.00  0.00     0.016 A 
ATOM     16  C   UNL d   1       1.552   4.410  -1.038  0.00  0.00     0.009 A 
ATOM     17  C   UNL d   1       1.073   5.275  -0.034  0.00  0.00    -0.051 A 
ATOM     18  C   UNL d   1       0.293   4.703   0.983  0.00  0.00     0.009 A 
ATOM     19  C   UNL d   1       0.015   3.331   1.004  0.00  0.00     0.016 A 
BRANCH  17  20
ATOM     20  C   UNL d   1       1.417   6.775  -0.061  0.00  0.00    -0.024 C 
ATOM     21  C   UNL d   1       0.824   7.567   1.128  0.00  0.00     0.019 C 
ATOM     22  C   UNL d   1       2.949   6.955  -0.008  0.00  0.00     0.019 C 
ATOM     23  C   UNL d   1       0.874   7.420  -1.353  0.00  0.00     0.019 C 
ENDBRANCH  17  20
ENDBRANCH   4  14
TORSDOF 2
