REMARK  3 active torsions:
REMARK  status: ('A' for Active; 'I' for Inactive)
REMARK       I    between atoms: N_2  and  C_1 
REMARK    1  A    between atoms: C_3  and  C_1 
REMARK    2  A    between atoms: C_19  and  N_4 
REMARK    3  A    between atoms: C_17  and  C_19 
ROOT
ATOM      1  C   UNL d   1       0.937   0.060  -0.019  0.00  0.00     0.260 C 
ATOM      2  N   UNL d   1       0.291   0.791   0.986  0.00  0.00    -0.344 N 
ATOM      3  N   UNL d   1      -0.225   2.010   3.625  0.00  0.00     0.095 N 
ATOM      4  O   UNL d   1       1.955   0.503  -0.554  0.00  0.00    -0.267 OA
ATOM      5  C   UNL d   1       0.756   2.149   1.285  0.00  0.00     0.156 C 
ATOM      6  C   UNL d   1      -0.823   0.312   1.816  0.00  0.00     0.156 C 
ATOM      7  C   UNL d   1       0.953   2.360   2.797  0.00  0.00     0.292 C 
ATOM      8  C   UNL d   1      -0.608   0.616   3.317  0.00  0.00     0.292 C 
ENDROOT
BRANCH   3   9
ATOM      9  C   UNL d   1      -1.370   2.912   3.425  0.00  0.00     0.311 C 
BRANCH   9  10
ATOM     10  C   UNL d   1      -1.089   4.357   3.774  0.00  0.00    -0.027 A 
ATOM     11  C   UNL d   1      -1.231   5.353   2.793  0.00  0.00     0.048 A 
ATOM     12  C   UNL d   1      -0.997   6.661   3.157  0.00  0.00     0.105 A 
ATOM     13  O   UNL d   1      -1.100   7.740   2.336  0.00  0.00    -0.323 OA
ATOM     14  C   UNL d   1      -0.633   7.004   4.437  0.00  0.00     0.105 A 
ATOM     15  C   UNL d   1      -0.780   8.806   3.254  0.00  0.00     0.352 A 
ATOM     16  O   UNL d   1      -0.462   8.345   4.584  0.00  0.00    -0.323 OA
ATOM     17  C   UNL d   1      -0.475   6.055   5.425  0.00  0.00     0.040 A 
ATOM     18  C   UNL d   1      -0.707   4.720   5.088  0.00  0.00     0.012 A 
ENDBRANCH   9  10
ENDBRANCH   3   9
BRANCH   1  19
ATOM     19  C   UNL d   1       0.373  -1.225  -0.403  0.00  0.00     0.072 A 
ATOM     20  S   UNL d   1       1.431  -2.559  -0.625  0.00  0.00    -0.097 SA
ATOM     21  C   UNL d   1       0.134  -3.619  -0.961  0.00  0.00     0.050 A 
ATOM     22  C   UNL d   1      -1.080  -2.970  -0.951  0.00  0.00     0.009 A 
ATOM     23  C   UNL d   1      -0.936  -1.581  -0.673  0.00  0.00     0.025 A 
ENDBRANCH   1  19
TORSDOF 3
