REMARK  3 active torsions:
REMARK  status: ('A' for Active; 'I' for Inactive)
REMARK    1  A    between atoms: C_2  and  C_1 
REMARK       I    between atoms: N_7  and  C_2 
REMARK       I    between atoms: C_4  and  N_8 
REMARK    2  A    between atoms: C_6  and  C_4 
REMARK    3  A    between atoms: N_8  and  N_7 
ROOT
ATOM      1  C   UNL d   1       0.808   5.327   0.037  0.00  0.00     0.270 C 
ATOM      2  N   UNL d   1       0.383   4.014   0.097  0.00  0.00    -0.263 N 
ATOM      3  O   UNL d   1       0.063   6.267  -0.209  0.00  0.00    -0.266 OA
ATOM      4  H   UNL d   1       1.014   3.215   0.037  0.00  0.00     0.190 HD
ENDROOT
BRANCH   2   5
ATOM      5  N   UNL d   1      -0.972   3.752  -0.137  0.00  0.00    -0.263 N 
ATOM      6  C   UNL d   1      -1.362   2.500  -0.578  0.00  0.00     0.277 C 
ATOM      7  O   UNL d   1      -0.524   1.613  -0.758  0.00  0.00    -0.265 OA
ATOM      8  H   UNL d   1      -1.622   4.531  -0.058  0.00  0.00     0.190 HD
BRANCH   6   9
ATOM      9  C   UNL d   1      -2.789   2.308  -0.802  0.00  0.00     0.074 A 
ATOM     10  S   UNL d   1      -3.944   3.530  -0.473  0.00  0.00    -0.096 SA
ATOM     11  C   UNL d   1      -5.242   2.539  -0.978  0.00  0.00     0.057 A 
ATOM     12  C   UNL d   1      -4.829   1.291  -1.399  0.00  0.00    -0.054 A 
ATOM     13  C   UNL d   1      -3.406   1.164  -1.278  0.00  0.00     0.031 A 
ATOM     14  C   UNL d   1      -5.741   0.226  -1.909  0.00  0.00     0.048 C 
ENDBRANCH   6   9
ENDBRANCH   2   5
BRANCH   1  15
ATOM     15  C   UNL d   1       2.248   5.564   0.304  0.00  0.00     0.036 A 
ATOM     16  C   UNL d   1       2.894   6.614  -0.360  0.00  0.00     0.041 A 
ATOM     17  C   UNL d   1       4.225   6.905  -0.061  0.00  0.00     0.036 A 
ATOM     18 CL   UNL d   1       5.023   8.192  -0.878  0.00  0.00    -0.084 Cl
ATOM     19  C   UNL d   1       4.913   6.171   0.903  0.00  0.00     0.047 A 
ATOM     20  C   UNL d   1       4.261   5.135   1.566  0.00  0.00     0.036 A 
ATOM     21  C   UNL d   1       2.934   4.820   1.271  0.00  0.00     0.041 A 
ATOM     22 CL   UNL d   1       5.091   4.248   2.785  0.00  0.00    -0.084 Cl
ENDBRANCH   1  15
TORSDOF 3
