REMARK  4 active torsions:
REMARK  status: ('A' for Active; 'I' for Inactive)
REMARK    1  A    between atoms: C_12  and  C_1 
REMARK    2  A    between atoms: C_7  and  C_3 
REMARK    3  A    between atoms: O_19  and  C_10 
REMARK    4  A    between atoms: O_21  and  C_14 
ROOT
ATOM      1  C   UNL d   1      -1.354  -1.743  -0.120  0.00  0.00    -0.000 A 
ATOM      2  C   UNL d   1      -0.338  -0.692  -0.203  0.00  0.00     0.004 A 
ATOM      3  C   UNL d   1      -2.734  -1.357   0.042  0.00  0.00     0.008 A 
ATOM      4  N   UNL d   1      -2.042   0.986   0.025  0.00  0.00    -0.358 N 
ATOM      5  HN  UNL d   1      -2.301   1.972   0.049  1.00  0.00     0.166 HD
ATOM      6  C   UNL d   1      -2.999   0.036   0.098  0.00  0.00     0.017 A 
ATOM      7  C   UNL d   1      -0.771   0.642  -0.079  0.00  0.00     0.043 A 
ATOM      8  C   UNL d   1       1.069  -0.884  -0.361  0.00  0.00     0.038 A 
ATOM      9  C   UNL d   1       0.144   1.685  -0.051  0.00  0.00     0.032 A 
ATOM     10  C   UNL d   1       1.974   0.175  -0.274  0.00  0.00     0.035 A 
ATOM     11  C   UNL d   1       1.516   1.474  -0.113  0.00  0.00     0.026 A 
ATOM     12 CL   UNL d   1       3.664  -0.134  -0.318  0.00  0.00    -0.084 Cl
ATOM     13  C   UNL d   1      -4.370   0.635   0.251  0.00  0.00     0.069 C 
ENDROOT
BRANCH   3  14
ATOM     14  C   UNL d   1      -3.852  -2.343   0.201  0.00  0.00    -0.020 A 
ATOM     15  C   UNL d   1      -5.043  -2.242  -0.554  0.00  0.00     0.052 A 
ATOM     16  C   UNL d   1      -6.129  -3.127  -0.403  0.00  0.00     0.102 A 
ATOM     17  C   UNL d   1      -5.976  -4.247   0.422  0.00  0.00     0.101 A 
ATOM     18  C   UNL d   1      -4.791  -4.385   1.154  0.00  0.00     0.040 A 
ATOM     19  C   UNL d   1      -3.781  -3.419   1.096  0.00  0.00     0.015 A 
BRANCH  16  20
ATOM     20  O   UNL d   1      -7.315  -2.946  -1.067  0.00  0.00    -0.353 OA
ATOM     21  C   UNL d   1      -7.611  -1.634  -1.536  0.00  0.00     0.210 C 
ENDBRANCH  16  20
BRANCH  17  22
ATOM     22  O   UNL d   1      -6.840  -5.287   0.635  0.00  0.00    -0.353 OA
ATOM     23  C   UNL d   1      -8.148  -5.216   0.089  0.00  0.00     0.210 C 
ENDBRANCH  17  22
ENDBRANCH   3  14
BRANCH   1  24
ATOM     24  C   UNL d   1      -0.927  -3.190  -0.150  0.00  0.00    -0.024 A 
ATOM     25  C   UNL d   1       0.111  -3.671   0.674  0.00  0.00     0.012 A 
ATOM     26  C   UNL d   1       0.477  -5.020   0.704  0.00  0.00     0.001 A 
ATOM     27  C   UNL d   1      -0.253  -5.954  -0.022  0.00  0.00     0.000 A 
ATOM     28  C   UNL d   1      -1.300  -5.519  -0.829  0.00  0.00     0.001 A 
ATOM     29  C   UNL d   1      -1.595  -4.154  -0.931  0.00  0.00     0.012 A 
ENDBRANCH   1  24
TORSDOF 4
