REMARK  4 active torsions:
REMARK  status: ('A' for Active; 'I' for Inactive)
REMARK    1  A    between atoms: C_2  and  C_1 
REMARK    2  A    between atoms: N_4  and  C_1 
REMARK       I    between atoms: N_3  and  C_2 
REMARK    3  A    between atoms: C_7  and  N_3 
REMARK    4  A    between atoms: C_9  and  N_4 
ROOT
ATOM      1  C   UNL d   1       2.418  -1.150   0.181  0.00  0.00     0.283 C 
ATOM      2  N   UNL d   1       3.407  -0.971   1.120  0.00  0.00    -0.321 N 
ATOM      3  O   UNL d   1       2.477  -1.697  -0.910  0.00  0.00    -0.265 OA
ATOM      4  H   UNL d   1       3.176  -0.383   1.914  0.00  0.00     0.169 HD
ENDROOT
BRANCH   1   5
ATOM      5  C   UNL d   1       1.109  -0.475   0.551  0.00  0.00     0.165 C 
ATOM      6  S   UNL d   1       0.085  -1.369   1.517  0.00  0.00    -0.055 SA
BRANCH   5   7
ATOM      7  N   UNL d   1       0.932   0.803   0.031  0.00  0.00    -0.372 N 
ATOM      8  H   UNL d   1       1.698   1.146  -0.541  0.00  0.00     0.161 HD
BRANCH   7   9
ATOM      9  C   UNL d   1      -0.394   1.308  -0.348  0.00  0.00     0.082 C 
ATOM     10  C   UNL d   1      -0.668   0.949  -1.822  0.00  0.00     0.025 C 
ATOM     11  C   UNL d   1      -0.449   2.077  -2.822  0.00  0.00     0.002 C 
ATOM     12  C   UNL d   1      -1.100   3.362  -2.341  0.00  0.00     0.000 C 
ATOM     13  C   UNL d   1      -0.422   3.811  -1.057  0.00  0.00     0.002 C 
ATOM     14  C   UNL d   1      -0.586   2.780   0.053  0.00  0.00     0.025 C 
ENDBRANCH   7   9
ENDBRANCH   5   7
ENDBRANCH   1   5
BRANCH   2  15
ATOM     15  C   UNL d   1       4.698  -1.527   1.082  0.00  0.00     0.035 A 
ATOM     16  C   UNL d   1       5.088  -2.502   0.157  0.00  0.00     0.032 A 
ATOM     17  C   UNL d   1       6.382  -3.032   0.188  0.00  0.00     0.044 A 
ATOM     18  C   UNL d   1       7.282  -2.576   1.141  0.00  0.00     0.116 A 
ATOM     19  C   UNL d   1       6.915  -1.616   2.070  0.00  0.00     0.044 A 
ATOM     20  F   UNL d   1       8.526  -3.082   1.165  0.00  0.00    -0.206 F 
ATOM     21  C   UNL d   1       5.617  -1.094   2.048  0.00  0.00     0.032 A 
ENDBRANCH   2  15
TORSDOF 4
