REMARK  2 active torsions:
REMARK  status: ('A' for Active; 'I' for Inactive)
REMARK       I    between atoms: N_3  and  C_1 
REMARK       I    between atoms: N_9  and  C_1 
REMARK    1  A    between atoms: C_2  and  N_4 
REMARK    2  A    between atoms: C_18  and  N_9 
ROOT
ATOM      1  C   UNL d   1       0.926  -0.108  -0.026  0.00  0.00     0.323 C 
ATOM      2  N   UNL d   1       0.271  -0.245  -1.242  0.00  0.00    -0.331 N 
ATOM      3  N   UNL d   1      -0.299  -0.232  -4.031  0.00  0.00    -0.214 N 
ATOM      4  N   UNL d   1       0.537   0.967   0.744  0.00  0.00    -0.309 N 
ATOM      5  O   UNL d   1       1.803  -0.902   0.307  0.00  0.00    -0.247 OA
ATOM      6  C   UNL d   1       0.625  -1.407  -2.081  0.00  0.00     0.148 C 
ATOM      7  C   UNL d   1      -0.841   0.558  -1.773  0.00  0.00     0.148 C 
ATOM      8  C   UNL d   1       0.831  -1.029  -3.560  0.00  0.00     0.161 C 
ATOM      9  C   UNL d   1      -0.625   0.952  -3.247  0.00  0.00     0.161 C 
ATOM     10  H   UNL d   1      -0.368   1.357   0.559  0.00  0.00     0.170 HD
ENDROOT
BRANCH   4  11
ATOM     11  C   UNL d   1       1.184   1.447   1.905  0.00  0.00     0.036 A 
ATOM     12  C   UNL d   1       2.465   1.047   2.300  0.00  0.00     0.031 A 
ATOM     13  C   UNL d   1       3.069   1.600   3.433  0.00  0.00     0.021 A 
ATOM     14  C   UNL d   1       2.394   2.559   4.179  0.00  0.00     0.011 A 
ATOM     15  C   UNL d   1       1.114   2.963   3.808  0.00  0.00     0.021 A 
ATOM     16 BR   UNL d   1       3.227   3.333   5.688  0.00  0.00    -0.051 Br
ATOM     17  C   UNL d   1       0.514   2.410   2.670  0.00  0.00     0.031 A 
ENDBRANCH   4  11
BRANCH   3  18
ATOM     18  C   UNL d   1      -1.011  -0.580  -5.146  0.00  0.00     0.680 A 
ATOM     19  N   UNL d   1      -2.018   0.216  -5.547  0.00  0.00    -0.201 N 
ATOM     20  C   UNL d   1      -2.708  -0.142  -6.652  0.00  0.00     0.126 A 
ATOM     21  HN  UNL d   1      -2.255   1.064  -5.033  1.00  0.00     0.183 HD
ATOM     22  C   UNL d   1      -2.441  -1.273  -7.376  0.00  0.00     0.042 A 
ATOM     23  C   UNL d   1      -1.408  -2.035  -6.898  0.00  0.00     0.126 A 
ATOM     24 BR   UNL d   1      -3.417  -1.744  -8.907  0.00  0.00    -0.048 Br
ATOM     25  N   UNL d   1      -0.691  -1.711  -5.800  0.00  0.00    -0.201 N 
ATOM     26  HN  UNL d   1       0.071  -2.307  -5.476  1.00  0.00     0.183 HD
ENDBRANCH   3  18
TORSDOF 2
