REMARK  3 active torsions:
REMARK  status: ('A' for Active; 'I' for Inactive)
REMARK    1  A    between atoms: N_2  and  C_1 
REMARK       I    between atoms: C_3  and  N_2 
REMARK    2  A    between atoms: C_7  and  N_2 
REMARK       I    between atoms: N_9  and  C_3 
REMARK    3  A    between atoms: C_17  and  N_9 
ROOT
ATOM      1  N   UNL d   1       2.931   0.608   0.191  0.00  0.00    -0.244 N 
ATOM      2  C   UNL d   1       4.149  -0.124   0.385  0.00  0.00     0.333 C 
ATOM      3  N   UNL d   1       4.095  -1.467   0.054  0.00  0.00    -0.308 N 
ATOM      4  O   UNL d   1       5.184   0.401   0.816  0.00  0.00    -0.246 OA
ATOM      5  H   UNL d   1       3.195  -1.823  -0.242  0.00  0.00     0.170 HD
ENDROOT
BRANCH   1   6
ATOM      6  C   UNL d   1       1.641   0.053   0.054  0.00  0.00     0.152 C 
ATOM      7  N   UNL d   1       0.648   0.662  -0.514  0.00  0.00    -0.369 N 
ATOM      8  C   UNL d   1      -0.584  -0.149  -0.435  0.00  0.00     0.142 C 
ATOM      9  HN  UNL d   1       0.709   1.579  -0.957  1.00  0.00     0.161 HD
ATOM     10  C   UNL d   1      -0.215  -1.630  -0.368  0.00  0.00     0.024 C 
ATOM     11  S   UNL d   1       1.293  -1.563   0.632  0.00  0.00    -0.083 SA
ATOM     12  C   UNL d   1       0.098  -2.196  -1.756  0.00  0.00     0.029 C 
ATOM     13  C   UNL d   1      -1.258  -2.473   0.353  0.00  0.00     0.029 C 
ENDBRANCH   1   6
BRANCH   1  14
ATOM     14  C   UNL d   1       3.014   2.076   0.255  0.00  0.00     0.048 A 
ATOM     15  C   UNL d   1       4.180   2.776  -0.115  0.00  0.00     0.057 A 
ATOM     16  C   UNL d   1       4.250   4.173  -0.032  0.00  0.00     0.074 A 
ATOM     17 CL   UNL d   1       5.710   4.976  -0.475  0.00  0.00    -0.081 Cl
ATOM     18  C   UNL d   1       3.151   4.905   0.399  0.00  0.00     0.138 A 
ATOM     19  C   UNL d   1       1.985   4.254   0.764  0.00  0.00     0.046 A 
ATOM     20  F   UNL d   1       3.194   6.243   0.470  0.00  0.00    -0.204 F 
ATOM     21  C   UNL d   1       1.927   2.855   0.709  0.00  0.00     0.033 A 
ENDBRANCH   1  14
BRANCH   3  22
ATOM     22  C   UNL d   1       5.038  -2.481   0.351  0.00  0.00     0.036 A 
ATOM     23  C   UNL d   1       6.220  -2.257   1.059  0.00  0.00     0.030 A 
ATOM     24  C   UNL d   1       7.004  -3.330   1.484  0.00  0.00     0.009 A 
ATOM     25  C   UNL d   1       6.621  -4.645   1.208  0.00  0.00    -0.062 A 
ATOM     26  C   UNL d   1       5.509  -4.869   0.394  0.00  0.00     0.009 A 
ATOM     27  C   UNL d   1       7.380  -5.782   1.825  0.00  0.00     0.048 C 
ATOM     28  C   UNL d   1       4.716  -3.793  -0.019  0.00  0.00     0.030 A 
ENDBRANCH   3  22
TORSDOF 3
