REMARK  2 active torsions:
REMARK  status: ('A' for Active; 'I' for Inactive)
REMARK    1  A    between atoms: C_10  and  N_2 
REMARK    2  A    between atoms: C_12  and  C_10 
ROOT
ATOM      1  C   UNL d   1       0.140   0.694  -0.045  0.00  0.00     0.069 A 
ATOM      2  N   UNL d   1       2.281   0.076  -0.035  0.00  0.00    -0.348 N 
ATOM      3  C   UNL d   1       0.199  -0.712   0.007  0.00  0.00     0.021 A 
ATOM      4  C   UNL d   1       1.435   1.175  -0.120  0.00  0.00     0.025 A 
ATOM      5  C   UNL d   1       1.525  -1.094  -0.005  0.00  0.00     0.021 A 
ATOM      6  C   UNL d   1      -1.139   1.373  -0.031  0.00  0.00     0.273 A 
ATOM      7  N   UNL d   1      -2.174  -0.892   0.061  0.00  0.00    -0.308 N 
ATOM      8  HN  UNL d   1      -3.035  -1.438   0.094  1.00  0.00     0.186 HD
ATOM      9  N   UNL d   1      -2.219   0.499   0.020  0.00  0.00    -0.266 N 
ATOM     10  C   UNL d   1      -1.014  -1.486   0.055  0.00  0.00     0.121 A 
ATOM     11  O   UNL d   1      -1.278   2.593  -0.053  0.00  0.00    -0.266 OA
ATOM     12  C   UNL d   1       1.878   2.594  -0.237  0.00  0.00     0.069 C 
ATOM     13  C   UNL d   1       2.126  -2.457   0.026  0.00  0.00     0.069 C 
ATOM     14  H   UNL d   1      -3.143   0.915   0.034  0.00  0.00     0.190 HD
ENDROOT
BRANCH   2  15
ATOM     15  C   UNL d   1       3.748   0.116  -0.004  0.00  0.00     0.175 C 
BRANCH  15  16
ATOM     16  C   UNL d   1       4.284   0.033   1.397  0.00  0.00     0.001 A 
ATOM     17  S   UNL d   1       5.697  -0.896   1.700  0.00  0.00    -0.105 SA
ATOM     18  C   UNL d   1       5.639  -0.565   3.375  0.00  0.00     0.050 A 
ATOM     19  C   UNL d   1       4.593   0.267   3.700  0.00  0.00     0.008 A 
ATOM     20  C   UNL d   1       3.823   0.629   2.557  0.00  0.00     0.017 A 
ENDBRANCH  15  16
ENDBRANCH   2  15
TORSDOF 2
