REMARK  4 active torsions:
REMARK  status: ('A' for Active; 'I' for Inactive)
REMARK    1  A    between atoms: O_14  and  C_2 
REMARK       I    between atoms: N_6  and  C_7 
REMARK    2  A    between atoms: C_12  and  N_6 
REMARK    3  A    between atoms: C_7  and  C_18 
REMARK    4  A    between atoms: C_18  and  O_14 
ROOT
ATOM      1  C   UNL d   1       0.769   1.008  -2.373  0.00  0.00     0.042 A 
ATOM      2  C   UNL d   1       1.639   1.510  -1.405  0.00  0.00     0.156 A 
ATOM      3  C   UNL d   1       1.116  -0.253  -2.874  0.00  0.00     0.049 A 
ATOM      4  N   UNL d   1       2.720   0.859  -0.946  0.00  0.00    -0.332 N 
ATOM      5  HN  UNL d   1       3.324   1.246  -0.221  1.00  0.00     0.168 HD
ATOM      6  N   UNL d   1       2.197  -0.918  -2.452  0.00  0.00    -0.351 N 
ATOM      7  HN  UNL d   1       2.439  -1.833  -2.832  1.00  0.00     0.166 HD
ATOM      8  C   UNL d   1      -0.377   1.681  -2.856  0.00  0.00     0.020 A 
ATOM      9  C   UNL d   1       0.305  -0.820  -3.848  0.00  0.00     0.054 A 
ATOM     10  C   UNL d   1       2.949  -0.331  -1.507  0.00  0.00     0.182 A 
ATOM     11  C   UNL d   1      -0.829  -0.160  -4.324  0.00  0.00     0.036 A 
ATOM     12  C   UNL d   1      -1.176   1.094  -3.832  0.00  0.00     0.025 A 
ATOM     13 CL   UNL d   1      -1.808  -0.901  -5.528  0.00  0.00    -0.084 Cl
ENDROOT
BRANCH   2  14
ATOM     14  O   UNL d   1       1.343   2.755  -0.878  0.00  0.00    -0.326 OA
BRANCH  14  15
ATOM     15  C   UNL d   1       2.465   3.377  -0.262  0.00  0.00     0.280 C 
BRANCH  15  16
ATOM     16  C   UNL d   1       2.306   4.893  -0.270  0.00  0.00     0.246 C 
ATOM     17  N   UNL d   1       0.996   5.335  -0.308  0.00  0.00    -0.324 N 
ATOM     18  H   UNL d   1       0.286   4.673  -0.012  0.00  0.00     0.169 HD
ATOM     19  O   UNL d   1       3.293   5.625  -0.186  0.00  0.00    -0.271 OA
BRANCH  17  20
ATOM     20  C   UNL d   1       0.616   6.696  -0.366  0.00  0.00     0.056 A 
ATOM     21  C   UNL d   1      -0.569   7.118   0.256  0.00  0.00     0.060 A 
ATOM     22 CL   UNL d   1      -1.587   5.996   1.090  0.00  0.00    -0.082 Cl
ATOM     23  C   UNL d   1      -0.921   8.471   0.264  0.00  0.00     0.026 A 
ATOM     24  C   UNL d   1      -0.120   9.405  -0.395  0.00  0.00     0.002 A 
ATOM     25  C   UNL d   1       1.026   8.985  -1.066  0.00  0.00     0.002 A 
ATOM     26  C   UNL d   1       1.396   7.639  -1.046  0.00  0.00     0.031 A 
ENDBRANCH  17  20
ENDBRANCH  15  16
ENDBRANCH  14  15
ENDBRANCH   2  14
TORSDOF 4
