REMARK  2 active torsions:
REMARK  status: ('A' for Active; 'I' for Inactive)
REMARK    1  A    between atoms: C_5  and  C_1 
REMARK    2  A    between atoms: O_8  and  C_5 
ROOT
ATOM      1  C   UNL d   1      -0.747  -1.302  -0.003  0.00  0.00     0.063 A 
ATOM      2  C   UNL d   1      -1.158   0.029  -0.004  0.00  0.00     0.021 A 
ATOM      3  N   UNL d   1      -0.031   0.820  -0.005  0.00  0.00    -0.363 N 
ATOM      4  C   UNL d   1       0.684  -1.271  -0.005  0.00  0.00     0.044 A 
ATOM      5  C   UNL d   1       1.096   0.041  -0.009  0.00  0.00     0.006 A 
ATOM      6  C   UNL d   1      -2.503   0.663  -0.004  0.00  0.00     0.069 C 
ATOM      7  C   UNL d   1       2.457   0.631  -0.016  0.00  0.00     0.068 C 
ATOM      8  H   UNL d   1      -0.037   1.832  -0.005  0.00  0.00     0.165 HD
ENDROOT
BRANCH   1   9
ATOM      9  C   UNL d   1      -1.593  -2.496  -0.001  0.00  0.00     0.294 C 
ATOM     10  O   UNL d   1      -2.818  -2.478  -0.001  0.00  0.00    -0.259 OA
BRANCH   9  11
ATOM     11  O   UNL d   1      -0.848  -3.644  -0.001  0.00  0.00    -0.322 OA
ATOM     12  C   UNL d   1      -1.613  -4.847  -0.000  0.00  0.00     0.213 C 
ENDBRANCH   9  11
ENDBRANCH   1   9
TORSDOF 2
