REMARK  3 active torsions:
REMARK  status: ('A' for Active; 'I' for Inactive)
REMARK    1  A    between atoms: C_4  and  C_1 
REMARK       I    between atoms: N_9  and  C_4 
REMARK    2  A    between atoms: N_10  and  N_9 
REMARK    3  A    between atoms: C_12  and  N_10 
ROOT
ATOM      1  C   UNL d   1       0.073  -2.427  -0.768  0.00  0.00     0.276 C 
ATOM      2  N   UNL d   1       0.828  -3.485  -0.260  0.00  0.00    -0.282 N 
ATOM      3  O   UNL d   1       0.545  -1.288  -0.783  0.00  0.00    -0.266 OA
ATOM      4  H   UNL d   1       0.365  -4.322   0.076  0.00  0.00     0.184 HD
ENDROOT
BRANCH   2   5
ATOM      5  N   UNL d   1       2.033  -3.142   0.392  0.00  0.00    -0.203 NA
ATOM      6  H   UNL d   1       2.271  -2.160   0.193  0.00  0.00     0.153 HD
BRANCH   5   7
ATOM      7  C   UNL d   1       3.127  -3.996   0.097  0.00  0.00     0.027 A 
ATOM      8  C   UNL d   1       4.428  -3.461   0.137  0.00  0.00     0.028 A 
ATOM      9  C   UNL d   1       5.550  -4.278  -0.032  0.00  0.00     0.044 A 
ATOM     10  C   UNL d   1       5.381  -5.642  -0.210  0.00  0.00     0.116 A 
ATOM     11  C   UNL d   1       4.110  -6.204  -0.225  0.00  0.00     0.044 A 
ATOM     12  F   UNL d   1       6.454  -6.431  -0.350  0.00  0.00    -0.206 F 
ATOM     13  C   UNL d   1       2.988  -5.384  -0.061  0.00  0.00     0.028 A 
ENDBRANCH   5   7
ENDBRANCH   2   5
BRANCH   1  14
ATOM     14  C   UNL d   1      -1.254  -2.744  -1.246  0.00  0.00     0.115 A 
ATOM     15  C   UNL d   1      -2.280  -1.911  -1.682  0.00  0.00     0.046 A 
ATOM     16  N   UNL d   1      -3.424  -2.579  -2.113  0.00  0.00    -0.298 N 
ATOM     17  C   UNL d   1      -2.314  -0.426  -1.745  0.00  0.00     0.071 C 
ATOM     18  N   UNL d   1      -3.300  -3.890  -2.018  0.00  0.00    -0.269 N 
ATOM     19  HN  UNL d   1      -4.260  -2.111  -2.462  1.00  0.00     0.187 HD
ATOM     20  S   UNL d   1      -1.821  -4.355  -1.412  0.00  0.00     0.009 SA
ATOM     21  HN  UNL d   1      -4.032  -4.547  -2.288  1.00  0.00     0.195 HD
ENDBRANCH   1  14
TORSDOF 3
