REMARK  6 active torsions:
REMARK  status: ('A' for Active; 'I' for Inactive)
REMARK    1  A    between atoms: C_3  and  C_1 
REMARK    2  A    between atoms: O_12  and  C_1 
REMARK       I    between atoms: C_2  and  N_4 
REMARK    3  A    between atoms: C_11  and  C_2 
REMARK    4  A    between atoms: N_4  and  C_9 
REMARK    5  A    between atoms: O_10  and  C_11 
REMARK    6  A    between atoms: C_15  and  O_10 
ROOT
ATOM      1  C   UNL d   1      -1.748   4.383   4.214  0.00  0.00     0.246 C 
ATOM      2  N   UNL d   1      -2.257   3.288   3.522  0.00  0.00    -0.325 N 
ATOM      3  O   UNL d   1      -0.558   4.675   4.294  0.00  0.00    -0.271 OA
ATOM      4  H   UNL d   1      -3.164   3.482   3.111  0.00  0.00     0.169 HD
ENDROOT
BRANCH   2   5
ATOM      5  C   UNL d   1      -1.403   2.448   2.783  0.00  0.00     0.034 A 
ATOM      6  C   UNL d   1      -0.438   1.653   3.417  0.00  0.00     0.030 A 
ATOM      7  C   UNL d   1       0.359   0.787   2.659  0.00  0.00     0.020 A 
ATOM      8  C   UNL d   1       0.206   0.741   1.266  0.00  0.00     0.037 A 
ATOM      9  C   UNL d   1      -0.732   1.567   0.637  0.00  0.00     0.020 A 
ATOM     10  C   UNL d   1      -1.556   2.394   1.400  0.00  0.00     0.030 A 
BRANCH   8  11
ATOM     11  C   UNL d   1       1.045  -0.136   0.412  0.00  0.00     0.176 C 
ATOM     12  O   UNL d   1       1.450   0.200  -0.687  0.00  0.00    -0.646 OA
BRANCH  11  13
ATOM     13  O   UNL d   1       1.265  -1.356   0.945  0.00  0.00    -0.773 OA
ATOM     14  H   UNL d   1       0.740  -1.551   1.751  0.00  0.00     0.167 HD
ENDBRANCH  11  13
ENDBRANCH   8  11
ENDBRANCH   2   5
BRANCH   1  15
ATOM     15  C   UNL d   1      -2.838   5.205   4.903  0.00  0.00     0.278 C 
BRANCH  15  16
ATOM     16  O   UNL d   1      -3.704   5.803   3.945  0.00  0.00    -0.342 OA
BRANCH  16  17
ATOM     17  C   UNL d   1      -4.669   6.645   4.442  0.00  0.00     0.069 A 
ATOM     18  C   UNL d   1      -4.999   6.801   5.791  0.00  0.00     0.037 A 
ATOM     19  C   UNL d   1      -6.027   7.678   6.171  0.00  0.00     0.003 A 
ATOM     20  C   UNL d   1      -6.725   8.401   5.206  0.00  0.00     0.000 A 
ATOM     21  C   UNL d   1      -6.398   8.254   3.862  0.00  0.00     0.003 A 
ATOM     22  C   UNL d   1      -5.375   7.378   3.483  0.00  0.00     0.037 A 
ENDBRANCH  16  17
ENDBRANCH  15  16
ENDBRANCH   1  15
TORSDOF 6
