REMARK  6 active torsions:
REMARK  status: ('A' for Active; 'I' for Inactive)
REMARK    1  A    between atoms: C_2  and  C_1 
REMARK       I    between atoms: N_3  and  C_1 
REMARK    2  A    between atoms: C_11  and  N_3 
REMARK    3  A    between atoms: C_4  and  C_10 
REMARK    4  A    between atoms: C_20  and  C_5 
REMARK    5  A    between atoms: C_21  and  C_20 
REMARK    6  A    between atoms: C_22  and  C_21 
ROOT
ATOM      1  C   UNL d   1       0.358  -0.009  -1.395  0.00  0.00     0.049 A 
ATOM      2  N   UNL d   1      -1.394   0.968  -2.774  0.00  0.00    -0.373 N 
ATOM      3  HN  UNL d   1      -2.145   1.645  -2.902  1.00  0.00     0.164 HD
ATOM      4  C   UNL d   1       0.713  -0.866  -2.435  0.00  0.00     0.040 A 
ATOM      5  C   UNL d   1      -0.004  -0.816  -3.631  0.00  0.00     0.034 A 
ATOM      6  C   UNL d   1      -0.681   0.896  -1.618  0.00  0.00     0.104 A 
ATOM      7  C   UNL d   1      -1.052   0.092  -3.745  0.00  0.00     0.108 A 
ENDROOT
BRANCH   1   8
ATOM      8  C   UNL d   1       0.986  -0.118  -0.055  0.00  0.00     0.257 C 
ATOM      9  N   UNL d   1       2.317  -0.511  -0.007  0.00  0.00    -0.323 N 
ATOM     10  H   UNL d   1       2.820  -0.589  -0.880  0.00  0.00     0.169 HD
ATOM     11  O   UNL d   1       0.289   0.165   0.914  0.00  0.00    -0.267 OA
BRANCH   9  12
ATOM     12  C   UNL d   1       3.046  -0.760   1.183  0.00  0.00     0.035 A 
ATOM     13  C   UNL d   1       2.394  -0.976   2.399  0.00  0.00     0.031 A 
ATOM     14  C   UNL d   1       3.097  -1.389   3.528  0.00  0.00     0.026 A 
ATOM     15  C   UNL d   1       4.473  -1.566   3.456  0.00  0.00     0.034 A 
ATOM     16  C   UNL d   1       5.156  -1.291   2.273  0.00  0.00     0.026 A 
ATOM     17 CL   UNL d   1       5.328  -2.152   4.827  0.00  0.00    -0.084 Cl
ATOM     18  C   UNL d   1       4.444  -0.877   1.138  0.00  0.00     0.031 A 
ENDBRANCH   9  12
ENDBRANCH   1   8
BRANCH   5  19
ATOM     19  C   UNL d   1       0.328  -1.658  -4.723  0.00  0.00    -0.066 C 
ATOM     20  C   UNL d   1       0.582  -2.325  -5.699  0.00  0.00    -0.101 C 
BRANCH  20  21
ATOM     21  C   UNL d   1       0.868  -3.092  -6.913  0.00  0.00     0.094 C 
BRANCH  21  22
ATOM     22  C   UNL d   1       0.008  -2.605  -8.080  0.00  0.00     0.012 C 
BRANCH  22  23
ATOM     23  C   UNL d   1       0.303  -3.400  -9.351  0.00  0.00    -0.004 C 
ATOM     24  C   UNL d   1      -0.546  -2.925 -10.519  0.00  0.00     0.005 C 
ENDBRANCH  22  23
ENDBRANCH  21  22
ENDBRANCH  20  21
ENDBRANCH   5  19
TORSDOF 6
