REMARK  8 active torsions:
REMARK  status: ('A' for Active; 'I' for Inactive)
REMARK    1  A    between atoms: C_9  and  N_1 
REMARK    2  A    between atoms: S_10  and  C_5 
REMARK    3  A    between atoms: C_20  and  S_10 
REMARK    4  A    between atoms: C_11  and  C_20 
REMARK       I    between atoms: N_13  and  C_11 
REMARK    5  A    between atoms: C_21  and  N_13 
REMARK    6  A    between atoms: O_22  and  C_23 
REMARK    7  A    between atoms: C_25  and  O_22 
REMARK    8  A    between atoms: C_33  and  C_25 
ROOT
ATOM      1  N   UNL d   1      -0.197  -1.376   0.093  0.00  0.00    -0.273 N 
ATOM      2  C   UNL d   1       1.010  -0.695  -0.042  0.00  0.00     0.163 A 
ATOM      3  N   UNL d   1       0.792   0.609  -0.024  0.00  0.00    -0.281 N 
ATOM      4  HN  UNL d   1       1.500   1.334  -0.138  1.00  0.00     0.188 HD
ATOM      5  C   UNL d   1      -1.110  -0.352   0.304  0.00  0.00     0.168 A 
ATOM      6  N   UNL d   1      -0.538   0.819   0.171  0.00  0.00    -0.278 N 
ATOM      7  HN  UNL d   1      -1.005   1.725   0.207  1.00  0.00     0.189 HD
ATOM      8  C   UNL d   1       2.321  -1.246  -0.185  0.00  0.00     0.120 A 
ATOM      9  O   UNL d   1       2.594  -2.434  -0.816  0.00  0.00    -0.319 OA
ATOM     10  C   UNL d   1       3.511  -0.726   0.296  0.00  0.00     0.043 A 
ATOM     11  C   UNL d   1       3.916  -2.693  -0.664  0.00  0.00     0.142 A 
ATOM     12  C   UNL d   1       4.528  -1.671   0.017  0.00  0.00     0.027 A 
ENDROOT
BRANCH   1  13
ATOM     13  C   UNL d   1      -0.440  -2.778   0.111  0.00  0.00     0.043 A 
ATOM     14  C   UNL d   1       0.483  -3.648   0.699  0.00  0.00     0.033 A 
ATOM     15  C   UNL d   1       0.274  -5.029   0.676  0.00  0.00     0.039 A 
ATOM     16  C   UNL d   1      -0.874  -5.557   0.096  0.00  0.00     0.069 A 
ATOM     17  C   UNL d   1      -1.827  -4.690  -0.441  0.00  0.00     0.039 A 
ATOM     18  C   UNL d   1      -1.613  -3.306  -0.446  0.00  0.00     0.033 A 
BRANCH  16  19
ATOM     19  O   UNL d   1      -1.186  -6.887   0.040  0.00  0.00    -0.347 OA
BRANCH  19  20
ATOM     20  C   UNL d   1      -0.073  -7.786   0.022  0.00  0.00     0.214 C 
BRANCH  20  21
ATOM     21  C   UNL d   1      -0.550  -9.220   0.027  0.00  0.00    -0.034 A 
ATOM     22  C   UNL d   1       0.184 -10.203  -0.653  0.00  0.00     0.009 A 
ATOM     23  C   UNL d   1      -0.195 -11.544  -0.583  0.00  0.00     0.001 A 
ATOM     24  C   UNL d   1      -1.305 -11.918   0.172  0.00  0.00     0.000 A 
ATOM     25  C   UNL d   1      -2.036 -10.951   0.860  0.00  0.00     0.001 A 
ATOM     26  C   UNL d   1      -1.658  -9.611   0.793  0.00  0.00     0.009 A 
ENDBRANCH  20  21
ENDBRANCH  19  20
ENDBRANCH  16  19
ENDBRANCH   1  13
BRANCH   5  27
ATOM     27  S   UNL d   1      -2.680  -0.496   1.033  0.00  0.00    -0.083 SA
BRANCH  27  28
ATOM     28  C   UNL d   1      -2.247  -1.137   2.669  0.00  0.00     0.185 C 
BRANCH  28  29
ATOM     29  C   UNL d   1      -1.433  -0.238   3.593  0.00  0.00     0.231 C 
ATOM     30  N   UNL d   1      -1.094   1.017   3.141  0.00  0.00    -0.327 N 
ATOM     31  H   UNL d   1      -1.463   1.303   2.236  0.00  0.00     0.169 HD
ATOM     32  O   UNL d   1      -1.144  -0.683   4.708  0.00  0.00    -0.272 OA
BRANCH  30  33
ATOM     33  C   UNL d   1      -0.364   2.001   3.844  0.00  0.00     0.034 A 
ATOM     34  C   UNL d   1       0.364   1.740   5.009  0.00  0.00     0.031 A 
ATOM     35  C   UNL d   1       0.984   2.778   5.711  0.00  0.00     0.026 A 
ATOM     36  C   UNL d   1       0.881   4.085   5.248  0.00  0.00     0.034 A 
ATOM     37  C   UNL d   1       0.205   4.355   4.062  0.00  0.00     0.026 A 
ATOM     38 CL   UNL d   1       1.581   5.370   6.153  0.00  0.00    -0.084 Cl
ATOM     39  C   UNL d   1      -0.401   3.312   3.352  0.00  0.00     0.031 A 
ENDBRANCH  30  33
ENDBRANCH  28  29
ENDBRANCH  27  28
ENDBRANCH   5  27
TORSDOF 8
