REMARK  4 active torsions:
REMARK  status: ('A' for Active; 'I' for Inactive)
REMARK    1  A    between atoms: S_7  and  C_1 
REMARK    2  A    between atoms: C_16  and  S_7 
REMARK    3  A    between atoms: C_8  and  N_12 
REMARK    4  A    between atoms: C_9  and  C_16 
REMARK       I    between atoms: N_12  and  C_9 
ROOT
ATOM      1  C   UNL d   1      -2.117  -6.464  -0.280  0.00  0.00     0.227 C 
ATOM      2  N   UNL d   1      -1.521  -5.425   0.398  0.00  0.00    -0.355 N 
ATOM      3  O   UNL d   1      -1.471  -7.232  -0.991  0.00  0.00    -0.273 OA
ATOM      4  H   UNL d   1      -2.089  -4.869   1.027  0.00  0.00     0.162 HD
ENDROOT
BRANCH   1   5
ATOM      5  C   UNL d   1      -3.601  -6.691  -0.027  0.00  0.00     0.185 C 
BRANCH   5   6
ATOM      6  S   UNL d   1      -4.535  -5.152   0.259  0.00  0.00    -0.082 SA
BRANCH   6   7
ATOM      7  C   UNL d   1      -6.127  -5.807   0.413  0.00  0.00     0.172 A 
ATOM      8  N   UNL d   1      -7.265  -5.066   0.562  0.00  0.00    -0.260 N 
ATOM      9  N   UNL d   1      -8.322  -5.890   0.676  0.00  0.00    -0.005 NA
ATOM     10  C   UNL d   1      -7.452  -3.645   0.636  0.00  0.00     0.177 C 
ATOM     11  N   UNL d   1      -7.821  -7.114   0.582  0.00  0.00    -0.007 NA
ATOM     12  N   UNL d   1      -6.456  -7.078   0.422  0.00  0.00    -0.265 N 
ATOM     13  HN  UNL d   1      -5.828  -7.875   0.328  1.00  0.00     0.186 HD
ENDBRANCH   6   7
ENDBRANCH   5   6
ENDBRANCH   1   5
BRANCH   2  14
ATOM     14  C   UNL d   1      -0.087  -5.173   0.310  0.00  0.00     0.092 C 
ATOM     15  C   UNL d   1       0.763  -6.214   1.078  0.00  0.00     0.064 C 
ATOM     16  C   UNL d   1       1.953  -5.402   1.487  0.00  0.00    -0.050 A 
ATOM     17  C   UNL d   1       3.167  -5.859   1.976  0.00  0.00     0.007 A 
ATOM     18  C   UNL d   1       1.695  -4.033   1.371  0.00  0.00    -0.050 A 
ATOM     19  C   UNL d   1       4.131  -4.920   2.345  0.00  0.00     0.001 A 
ATOM     20  C   UNL d   1       3.870  -3.545   2.233  0.00  0.00     0.001 A 
ATOM     21  C   UNL d   1       2.642  -3.094   1.746  0.00  0.00     0.007 A 
ATOM     22  C   UNL d   1       0.310  -3.786   0.862  0.00  0.00     0.064 C 
ENDBRANCH   2  14
TORSDOF 4
