REMARK  3 active torsions:
REMARK  status: ('A' for Active; 'I' for Inactive)
REMARK    1  A    between atoms: S_2  and  N_1 
REMARK    2  A    between atoms: C_8  and  S_2 
REMARK    3  A    between atoms: C_7  and  C_3 
ROOT
ATOM      1  N   UNL d   1       1.441   1.354  -0.139  0.00  0.00    -0.236 N 
ATOM      2  C   UNL d   1       2.361   0.217  -0.018  0.00  0.00     0.280 C 
ATOM      3  O   UNL d   1       1.543  -0.993   0.078  0.00  0.00    -0.318 OA
ATOM      4  C   UNL d   1       0.151   0.852   0.087  0.00  0.00     0.081 A 
ATOM      5  C   UNL d   1       0.247  -0.533   0.118  0.00  0.00     0.099 A 
ATOM      6  C   UNL d   1      -1.081   1.471   0.056  0.00  0.00     0.033 A 
ATOM      7  C   UNL d   1      -0.865  -1.351   0.104  0.00  0.00     0.039 A 
ATOM      8  C   UNL d   1      -2.225   0.663   0.063  0.00  0.00     0.002 A 
ATOM      9  C   UNL d   1      -2.119  -0.738   0.073  0.00  0.00     0.003 A 
ENDROOT
BRANCH   1  10
ATOM     10  S   UNL d   1       1.962   2.915   0.007  0.00  0.00     0.267 S 
ATOM     11  O   UNL d   1       3.269   3.017  -0.607  0.00  0.00    -0.200 OA
ATOM     12  O   UNL d   1       0.901   3.818  -0.404  0.00  0.00    -0.200 OA
BRANCH  10  13
ATOM     13  C   UNL d   1       2.212   3.183   1.750  0.00  0.00     0.080 A 
ATOM     14  C   UNL d   1       3.502   3.074   2.284  0.00  0.00     0.026 A 
ATOM     15  C   UNL d   1       3.733   3.423   3.616  0.00  0.00     0.008 A 
ATOM     16  C   UNL d   1       2.687   3.900   4.417  0.00  0.00    -0.062 A 
ATOM     17  C   UNL d   1       1.407   4.034   3.863  0.00  0.00     0.008 A 
ATOM     18  C   UNL d   1       2.952   4.273   5.846  0.00  0.00     0.048 C 
ATOM     19  C   UNL d   1       1.168   3.684   2.531  0.00  0.00     0.026 A 
ENDBRANCH  10  13
ENDBRANCH   1  10
BRANCH   2  20
ATOM     20  C   UNL d   1       3.268   0.043  -1.219  0.00  0.00    -0.007 A 
ATOM     21  C   UNL d   1       4.663   0.013  -1.065  0.00  0.00     0.037 A 
ATOM     22  C   UNL d   1       5.500  -0.102  -2.182  0.00  0.00     0.056 A 
ATOM     23 CL   UNL d   1       7.205  -0.117  -1.903  0.00  0.00    -0.083 Cl
ATOM     24  C   UNL d   1       4.948  -0.195  -3.464  0.00  0.00     0.055 A 
ATOM     25  C   UNL d   1       3.562  -0.171  -3.627  0.00  0.00     0.026 A 
ATOM     26 CL   UNL d   1       5.921  -0.345  -4.884  0.00  0.00    -0.083 Cl
ATOM     27  C   UNL d   1       2.730  -0.054  -2.514  0.00  0.00     0.013 A 
ENDBRANCH   2  20
TORSDOF 3
