REMARK  5 active torsions:
REMARK  status: ('A' for Active; 'I' for Inactive)
REMARK    1  A    between atoms: N_7  and  C_1 
REMARK    2  A    between atoms: S_5  and  C_2 
REMARK    3  A    between atoms: S_8  and  C_3 
REMARK    4  A    between atoms: N_13  and  S_5 
REMARK    5  A    between atoms: C_14  and  S_8 
ROOT
ATOM      1  C   UNL d   1       1.579  -0.703  -0.096  0.00  0.00     0.128 A 
ATOM      2  C   UNL d   1       0.224   1.214   0.040  0.00  0.00     0.118 A 
ATOM      3  C   UNL d   1       0.319  -1.270   0.043  0.00  0.00     0.080 A 
ATOM      4  C   UNL d   1       1.512   0.736  -0.059  0.00  0.00     0.070 A 
ATOM      5  S   UNL d   1      -0.903  -0.056   0.152  0.00  0.00    -0.067 SA
ENDROOT
BRANCH   3   6
ATOM      6  S   UNL d   1      -0.185  -2.961  -0.021  0.00  0.00    -0.081 SA
BRANCH   6   7
ATOM      7  C   UNL d   1      -0.231  -3.342   1.722  0.00  0.00     0.006 A 
ATOM      8  C   UNL d   1      -1.400  -3.137   2.466  0.00  0.00     0.020 A 
ATOM      9  C   UNL d   1      -1.479  -3.565   3.796  0.00  0.00     0.025 A 
ATOM     10  C   UNL d   1      -0.390  -4.204   4.385  0.00  0.00     0.034 A 
ATOM     11  C   UNL d   1       0.782  -4.405   3.659  0.00  0.00     0.025 A 
ATOM     12 CL   UNL d   1      -0.503  -4.773   6.004  0.00  0.00    -0.084 Cl
ATOM     13  C   UNL d   1       0.860  -3.977   2.329  0.00  0.00     0.020 A 
ENDBRANCH   6   7
ENDBRANCH   3   6
BRANCH   1  14
ATOM     14  N   UNL d   1       2.827  -1.412  -0.298  0.00  0.00    -0.114 N 
ATOM     15  O   UNL d   1       2.821  -2.646  -0.279  0.00  0.00    -0.532 OA
ATOM     16  O   UNL d   1       3.829  -0.709  -0.484  0.00  0.00    -0.532 OA
ENDBRANCH   1  14
BRANCH   2  17
ATOM     17  S   UNL d   1      -0.433   2.866   0.020  0.00  0.00     0.246 S 
ATOM     18  O   UNL d   1      -1.276   2.966   1.188  0.00  0.00    -0.206 OA
ATOM     19  O   UNL d   1       0.718   3.707  -0.207  0.00  0.00    -0.206 OA
BRANCH  17  20
ATOM     20  N   UNL d   1      -1.406   2.983  -1.335  0.00  0.00    -0.225 NA
ATOM     21  H   UNL d   1      -2.249   2.413  -1.283  0.00  0.00     0.136 HD
ATOM     22  H   UNL d   1      -0.890   2.954  -2.212  0.00  0.00     0.136 HD
ENDBRANCH  17  20
ENDBRANCH   2  17
TORSDOF 5
