REMARK  2 active torsions:
REMARK  status: ('A' for Active; 'I' for Inactive)
REMARK    1  A    between atoms: C_9  and  N_3 
REMARK    2  A    between atoms: S_10  and  C_5 
ROOT
ATOM      1  N   UNL d   1       0.982  -0.615   0.188  0.00  0.00    -0.286 N 
ATOM      2  HN  UNL d   1       1.802  -1.205   0.326  1.00  0.00     0.188 HD
ATOM      3  N   UNL d   1      -0.312  -1.011   0.031  0.00  0.00    -0.265 N 
ATOM      4  C   UNL d   1      -0.369   1.198  -0.047  0.00  0.00     0.096 A 
ATOM      5  C   UNL d   1       0.939   0.719   0.119  0.00  0.00     0.106 A 
ATOM      6  C   UNL d   1      -1.153   0.071  -0.103  0.00  0.00     0.142 A 
ATOM      7  C   UNL d   1      -0.833   2.539  -0.142  0.00  0.00     0.104 C 
ATOM      8  N   UNL d   1      -1.248   3.620  -0.224  0.00  0.00    -0.191 NA
ENDROOT
BRANCH   5   9
ATOM      9  S   UNL d   1       2.363   1.726   0.218  0.00  0.00    -0.114 SA
ATOM     10  C   UNL d   1       3.685   0.520   0.420  0.00  0.00     0.097 C 
ENDBRANCH   5   9
BRANCH   3  11
ATOM     11  C   UNL d   1      -0.670  -2.390   0.014  0.00  0.00     0.056 A 
ATOM     12  C   UNL d   1       0.308  -3.367   0.246  0.00  0.00     0.031 A 
ATOM     13  C   UNL d   1      -0.036  -4.722   0.233  0.00  0.00     0.002 A 
ATOM     14  C   UNL d   1      -1.351  -5.110  -0.020  0.00  0.00     0.000 A 
ATOM     15  C   UNL d   1      -2.327  -4.145  -0.258  0.00  0.00     0.002 A 
ATOM     16  C   UNL d   1      -1.992  -2.788  -0.239  0.00  0.00     0.031 A 
ENDBRANCH   3  11
TORSDOF 2
