REMARK  5 active torsions:
REMARK  status: ('A' for Active; 'I' for Inactive)
REMARK    1  A    between atoms: C_2  and  S_1 
REMARK    2  A    between atoms: N_7  and  S_1 
REMARK    3  A    between atoms: C_14  and  N_7 
REMARK    4  A    between atoms: C_8  and  S_11 
REMARK    5  A    between atoms: S_11  and  C_18 
ROOT
ATOM      1  S   UNL d   1       1.118  -0.199  -0.099  0.00  0.00     0.253 S 
ATOM      2  O   UNL d   1       0.438  -1.361   0.440  0.00  0.00    -0.205 OA
ATOM      3  O   UNL d   1       2.559  -0.107  -0.103  0.00  0.00    -0.205 OA
ENDROOT
BRANCH   1   4
ATOM      4  C   UNL d   1       0.523   1.182   0.892  0.00  0.00     0.122 A 
ATOM      5  S   UNL d   1      -1.185   1.286   0.979  0.00  0.00    -0.076 SA
ATOM      6  C   UNL d   1      -1.148   2.699   1.948  0.00  0.00     0.017 A 
ATOM      7  C   UNL d   1      -2.259   3.417   2.439  0.00  0.00     0.021 A 
ATOM      8  C   UNL d   1       0.162   3.090   2.224  0.00  0.00    -0.009 A 
ATOM      9  C   UNL d   1      -2.041   4.555   3.221  0.00  0.00     0.025 A 
ATOM     10  C   UNL d   1      -0.749   4.965   3.508  0.00  0.00     0.035 A 
ATOM     11  C   UNL d   1       0.350   4.250   3.024  0.00  0.00     0.037 A 
ATOM     12 CL   UNL d   1      -0.492   6.369   4.470  0.00  0.00    -0.084 Cl
ATOM     13  C   UNL d   1       1.136   2.196   1.620  0.00  0.00    -0.021 A 
ATOM     14  C   UNL d   1       2.610   2.396   1.795  0.00  0.00     0.051 C 
ENDBRANCH   1   4
BRANCH   1  15
ATOM     15  N   UNL d   1       0.546  -0.002  -1.692  0.00  0.00    -0.181 NA
ATOM     16  H   UNL d   1      -0.457  -0.176  -1.726  0.00  0.00     0.146 HD
BRANCH  15  17
ATOM     17  C   UNL d   1       1.002   1.153  -2.391  0.00  0.00     0.022 A 
ATOM     18  C   UNL d   1       2.243   1.133  -3.027  0.00  0.00     0.026 A 
ATOM     19  C   UNL d   1       2.731   2.291  -3.641  0.00  0.00     0.020 A 
ATOM     20  C   UNL d   1       1.998   3.481  -3.588  0.00  0.00     0.009 A 
ATOM     21  C   UNL d   1       0.742   3.483  -2.971  0.00  0.00     0.020 A 
ATOM     22  C   UNL d   1       0.247   2.322  -2.373  0.00  0.00     0.026 A 
BRANCH  20  23
ATOM     23  S   UNL d   1       2.650   4.954  -4.341  0.00  0.00    -0.016 SA
BRANCH  23  24
ATOM     24  C   UNL d   1       2.911   5.994  -2.893  0.00  0.00     0.448 C 
ATOM     25  F   UNL d   1       2.459   5.449  -1.738  0.00  0.00    -0.160 F 
ATOM     26  F   UNL d   1       4.228   6.259  -2.719  0.00  0.00    -0.160 F 
ATOM     27  F   UNL d   1       2.279   7.184  -3.041  0.00  0.00    -0.160 F 
ENDBRANCH  23  24
ENDBRANCH  20  23
ENDBRANCH  15  17
ENDBRANCH   1  15
TORSDOF 5
