REMARK  3 active torsions:
REMARK  status: ('A' for Active; 'I' for Inactive)
REMARK    1  A    between atoms: N_2  and  C_1 
REMARK    2  A    between atoms: N_4  and  C_1 
REMARK    3  A    between atoms: C_6  and  N_4 
ROOT
ATOM      1  C   UNL d   1       1.051   0.111  -0.133  0.00  0.00     0.179 C 
ATOM      2  S   UNL d   1       0.320  -1.152  -0.978  0.00  0.00    -0.040 SA
ENDROOT
BRANCH   1   3
ATOM      3  N   UNL d   1       0.386   1.038   0.673  0.00  0.00    -0.323 N 
ATOM      4  C   UNL d   1      -0.730   0.718   1.525  0.00  0.00     0.043 A 
ATOM      5  C   UNL d   1      -1.686   1.704   1.853  0.00  0.00    -0.031 A 
ATOM      6  C   UNL d   1      -0.867  -0.557   2.096  0.00  0.00     0.030 A 
ATOM      7  C   UNL d   1      -2.758   1.390   2.705  0.00  0.00     0.009 A 
ATOM      8  C   UNL d   1      -1.593   3.115   1.330  0.00  0.00     0.042 C 
ATOM      9  C   UNL d   1      -2.893   0.109   3.234  0.00  0.00     0.001 A 
ATOM     10  C   UNL d   1      -1.944  -0.862   2.934  0.00  0.00     0.002 A 
ATOM     11  C   UNL d   1      -0.664   3.214   0.137  0.00  0.00     0.025 C 
ATOM     12  C   UNL d   1       0.624   2.477   0.451  0.00  0.00     0.132 C 
ENDBRANCH   1   3
BRANCH   1  13
ATOM     13  N   UNL d   1       2.369   0.341  -0.445  0.00  0.00    -0.333 N 
ATOM     14  H   UNL d   1       2.662  -0.118  -1.302  0.00  0.00     0.168 HD
BRANCH  13  15
ATOM     15  C   UNL d   1       3.371   1.021   0.271  0.00  0.00     0.035 A 
ATOM     16  C   UNL d   1       3.317   1.218   1.652  0.00  0.00     0.053 A 
ATOM     17  C   UNL d   1       4.323   1.946   2.286  0.00  0.00     0.036 A 
ATOM     18 CL   UNL d   1       4.249   2.201   3.987  0.00  0.00    -0.084 Cl
ATOM     19  C   UNL d   1       5.386   2.475   1.556  0.00  0.00     0.024 A 
ATOM     20  C   UNL d   1       5.460   2.248   0.183  0.00  0.00     0.004 A 
ATOM     21  C   UNL d   1       4.466   1.504  -0.453  0.00  0.00     0.029 A 
ENDBRANCH  13  15
ENDBRANCH   1  13
TORSDOF 3
