REMARK  1 active torsions:
REMARK  status: ('A' for Active; 'I' for Inactive)
REMARK    1  A    between atoms: N_4  and  C_8 
ROOT
ATOM      1  N   UNL d   1       0.013  -1.417   0.021  0.00  0.00    -0.350 N 
ATOM      2  C   UNL d   1       0.730   0.696   0.007  0.00  0.00     0.006 A 
ATOM      3  C   UNL d   1       1.153  -0.637   0.009  0.00  0.00     0.045 A 
ATOM      4  C   UNL d   1      -1.123  -0.631   0.000  0.00  0.00     0.045 A 
ATOM      5  C   UNL d   1      -0.701   0.698   0.014  0.00  0.00     0.003 A 
ATOM      6  C   UNL d   1       1.700   1.724   0.008  0.00  0.00     0.050 A 
ATOM      7  C   UNL d   1       3.059   1.376   0.014  0.00  0.00     0.103 A 
ATOM      8  C   UNL d   1       2.515  -0.987   0.012  0.00  0.00     0.033 A 
ATOM      9  C   UNL d   1       3.465   0.039   0.015  0.00  0.00     0.038 A 
ATOM     10  C   UNL d   1      -0.022  -2.862   0.097  0.00  0.00     0.156 C 
ATOM     11  C   UNL d   1      -2.484  -0.981  -0.015  0.00  0.00     0.030 A 
ATOM     12  C   UNL d   1      -1.676   1.719   0.035  0.00  0.00     0.014 A 
ATOM     13  C   UNL d   1      -3.034   1.380   0.036  0.00  0.00     0.001 A 
ATOM     14  C   UNL d   1      -3.430   0.047   0.005  0.00  0.00     0.002 A 
ENDROOT
BRANCH   7  15
ATOM     15  N   UNL d   1       4.076   2.437   0.025  0.00  0.00    -0.116 N 
ATOM     16  O   UNL d   1       3.683   3.612   0.025  0.00  0.00    -0.532 OA
ATOM     17  O   UNL d   1       5.269   2.096   0.031  0.00  0.00    -0.532 OA
ENDBRANCH   7  15
TORSDOF 1
