REMARK  3 active torsions:
REMARK  status: ('A' for Active; 'I' for Inactive)
REMARK    1  A    between atoms: C_2  and  S_1 
REMARK    2  A    between atoms: N_3  and  S_1 
REMARK    3  A    between atoms: C_8  and  N_3 
ROOT
ATOM      1  C   UNL d   1       1.145  -2.131  -1.707  0.00  0.00    -0.085 C 
ATOM      2  C   UNL d   1       0.806  -2.623  -0.356  0.00  0.00     0.103 C 
ATOM      3  C   UNL d   1       1.390  -1.726  -2.807  0.00  0.00     0.015 C 
ATOM      4  C   UNL d   1      -0.215  -3.785  -0.510  0.00  0.00     0.045 C 
ATOM      5  C   UNL d   1       2.055  -3.179   0.367  0.00  0.00     0.045 C 
ATOM      6  C   UNL d   1      -0.531  -4.514   0.801  0.00  0.00     0.004 C 
ATOM      7  C   UNL d   1       1.725  -3.856   1.701  0.00  0.00     0.004 C 
ATOM      8  C   UNL d   1       0.729  -4.993   1.511  0.00  0.00     0.000 C 
ENDROOT
BRANCH   2   9
ATOM      9  N   UNL d   1       0.162  -1.550   0.408  0.00  0.00    -0.294 N 
ATOM     10  H   UNL d   1      -0.778  -1.690   0.772  0.00  0.00     0.174 HD
BRANCH   9  11
ATOM     11  S   UNL d   1       0.810  -0.050   0.729  0.00  0.00     0.262 S 
ATOM     12  O   UNL d   1       0.080   0.472   1.864  0.00  0.00    -0.200 OA
ATOM     13  O   UNL d   1       2.252  -0.154   0.778  0.00  0.00    -0.200 OA
BRANCH  11  14
ATOM     14  C   UNL d   1       0.393   0.976  -0.656  0.00  0.00     0.102 A 
ATOM     15  C   UNL d   1       1.437   1.600  -1.360  0.00  0.00     0.050 A 
ATOM     16  C   UNL d   1       1.148   2.589  -2.299  0.00  0.00     0.035 A 
ATOM     17 CL   UNL d   1       2.427   3.377  -3.137  0.00  0.00    -0.084 Cl
ATOM     18  C   UNL d   1      -0.169   2.967  -2.544  0.00  0.00     0.025 A 
ATOM     19  C   UNL d   1      -1.209   2.324  -1.868  0.00  0.00     0.027 A 
ATOM     20  C   UNL d   1      -0.935   1.321  -0.927  0.00  0.00     0.057 A 
ATOM     21 CL   UNL d   1      -2.298   0.565  -0.184  0.00  0.00    -0.083 Cl
ENDBRANCH  11  14
ENDBRANCH   9  11
ENDBRANCH   2   9
TORSDOF 3
