REMARK  1 active torsions:
REMARK  status: ('A' for Active; 'I' for Inactive)
REMARK    1  A    between atoms: C_2  and  N_1 
ROOT
ATOM      1  N   UNL d   1       2.324  -0.050   0.105  0.00  0.00    -0.072 N 
ATOM      2  C   UNL d   1       1.706   1.206   0.110  0.00  0.00     0.280 C 
ATOM      3  C   UNL d   1       1.655  -1.268  -0.064  0.00  0.00     0.280 C 
ATOM      4  C   UNL d   1       0.173  -1.211  -0.021  0.00  0.00     0.045 A 
ATOM      5  C   UNL d   1       0.229   1.226   0.013  0.00  0.00     0.045 A 
ATOM      6  C   UNL d   1      -0.481   0.023  -0.004  0.00  0.00     0.006 A 
ATOM      7  O   UNL d   1       2.150  -2.376  -0.259  0.00  0.00    -0.266 OA
ATOM      8  O   UNL d   1       2.292   2.288   0.196  0.00  0.00    -0.266 OA
ATOM      9  C   UNL d   1      -1.897   0.056  -0.006  0.00  0.00    -0.024 A 
ATOM     10  C   UNL d   1      -0.447   2.455  -0.014  0.00  0.00     0.018 A 
ATOM     11  C   UNL d   1      -0.562  -2.406  -0.006  0.00  0.00     0.018 A 
ATOM     12  C   UNL d   1      -1.953  -2.374   0.021  0.00  0.00     0.002 A 
ATOM     13  C   UNL d   1      -1.838   2.486  -0.039  0.00  0.00     0.002 A 
ATOM     14  C   UNL d   1      -2.559   1.293  -0.025  0.00  0.00     0.012 A 
ATOM     15  C   UNL d   1      -2.617  -1.149   0.016  0.00  0.00     0.012 A 
ENDROOT
BRANCH   1  16
ATOM     16  C   UNL d   1       3.717  -0.095   0.254  0.00  0.00     0.695 A 
ATOM     17  N   UNL d   1       4.504  -1.155   0.221  0.00  0.00    -0.189 N 
ATOM     18  C   UNL d   1       5.778  -0.710   0.454  0.00  0.00     0.076 A 
ATOM     19  HN  UNL d   1       4.218  -2.119   0.054  1.00  0.00     0.184 HD
ATOM     20  C   UNL d   1       6.983  -1.424   0.510  0.00  0.00     0.032 A 
ATOM     21  C   UNL d   1       5.791   0.661   0.661  0.00  0.00     0.076 A 
ATOM     22  C   UNL d   1       8.165  -0.724   0.785  0.00  0.00     0.002 A 
ATOM     23  C   UNL d   1       8.143   0.655   1.007  0.00  0.00     0.002 A 
ATOM     24  C   UNL d   1       6.950   1.385   0.949  0.00  0.00     0.032 A 
ATOM     25  N   UNL d   1       4.483   1.028   0.507  0.00  0.00    -0.189 N 
ATOM     26  H   UNL d   1       4.104   1.964   0.572  0.00  0.00     0.184 HD
ENDBRANCH   1  16
TORSDOF 1
