REMARK  4 active torsions:
REMARK  status: ('A' for Active; 'I' for Inactive)
REMARK    1  A    between atoms: O_2  and  C_1 
REMARK    2  A    between atoms: C_7  and  O_2 
REMARK    3  A    between atoms: O_13  and  C_6 
REMARK    4  A    between atoms: C_11  and  C_7 
ROOT
ATOM      1  C   UNL d   1       1.306   0.576   0.003  0.00  0.00     0.124 A 
ATOM      2  C   UNL d   1       1.138  -0.814   0.023  0.00  0.00     0.041 A 
ATOM      3  N   UNL d   1      -0.103  -1.386   0.074  0.00  0.00    -0.367 N 
ATOM      4  HN  UNL d   1      -0.201  -2.401   0.068  1.00  0.00     0.165 HD
ATOM      5  C   UNL d   1       0.127   1.341   0.079  0.00  0.00     0.102 A 
ATOM      6  C   UNL d   1      -1.195  -0.598   0.131  0.00  0.00     0.091 A 
ATOM      7  C   UNL d   1      -1.132   0.774   0.146  0.00  0.00     0.056 A 
ATOM      8  C   UNL d   1       2.200  -1.868  -0.062  0.00  0.00     0.071 C 
ENDROOT
BRANCH   1   9
ATOM      9  O   UNL d   1       2.424   1.369  -0.079  0.00  0.00    -0.342 OA
BRANCH   9  10
ATOM     10  C   UNL d   1       3.698   0.762  -0.218  0.00  0.00     0.214 C 
BRANCH  10  11
ATOM     11  C   UNL d   1       4.812   1.779  -0.390  0.00  0.00    -0.034 A 
ATOM     12  C   UNL d   1       4.785   3.033   0.235  0.00  0.00     0.011 A 
ATOM     13  C   UNL d   1       5.884   3.892   0.143  0.00  0.00     0.024 A 
ATOM     14  C   UNL d   1       7.022   3.500  -0.560  0.00  0.00     0.034 A 
ATOM     15  C   UNL d   1       7.068   2.255  -1.182  0.00  0.00     0.024 A 
ATOM     16 CL   UNL d   1       8.386   4.544  -0.645  0.00  0.00    -0.084 Cl
ATOM     17  C   UNL d   1       5.967   1.397  -1.094  0.00  0.00     0.011 A 
ENDBRANCH  10  11
ENDBRANCH   9  10
ENDBRANCH   1   9
BRANCH   5  18
ATOM     18  O   UNL d   1       0.191   2.714   0.083  0.00  0.00    -0.358 OA
ATOM     19  H   UNL d   1       1.139   2.925  -0.001  0.00  0.00     0.217 HD
ENDBRANCH   5  18
TORSDOF 4
