REMARK  7 active torsions:
REMARK  status: ('A' for Active; 'I' for Inactive)
REMARK    1  A    between atoms: N_2  and  C_1 
REMARK    2  A    between atoms: N_7  and  C_1 
REMARK    3  A    between atoms: C_3  and  N_2 
REMARK    4  A    between atoms: C_12  and  N_7 
REMARK    5  A    between atoms: C_13  and  N_7 
REMARK    6  A    between atoms: C_14  and  C_12 
REMARK    7  A    between atoms: C_15  and  C_13 
ROOT
ATOM      1  C   UNL d   1       1.107   0.119   0.201  0.00  0.00     0.170 C 
ATOM      2  S   UNL d   1       0.568   1.664   0.557  0.00  0.00    -0.041 SA
ENDROOT
BRANCH   1   3
ATOM      3  N   UNL d   1       0.292  -0.946  -0.129  0.00  0.00    -0.362 N 
ATOM      4  H   UNL d   1       0.751  -1.841  -0.038  0.00  0.00     0.162 HD
BRANCH   3   5
ATOM      5  C   UNL d   1      -1.172  -0.981  -0.110  0.00  0.00     0.092 C 
ATOM      6  C   UNL d   1      -1.763  -2.366  -0.519  0.00  0.00     0.031 C 
ATOM      7  C   UNL d   1      -1.244  -3.436   0.420  0.00  0.00    -0.024 C 
ATOM      8  C   UNL d   1      -3.185  -2.245   0.042  0.00  0.00     0.019 C 
ATOM      9  C   UNL d   1      -1.797  -3.213   1.621  0.00  0.00    -0.026 C 
ATOM     10  C   UNL d   1      -2.702  -2.011   1.475  0.00  0.00     0.010 C 
ATOM     11  C   UNL d   1      -1.809  -0.763   1.300  0.00  0.00     0.034 C 
ENDBRANCH   3   5
ENDBRANCH   1   3
BRANCH   1  12
ATOM     12  N   UNL d   1       2.458  -0.254   0.208  0.00  0.00    -0.358 N 
BRANCH  12  13
ATOM     13  C   UNL d   1       3.315   0.042   1.366  0.00  0.00     0.125 C 
BRANCH  13  14
ATOM     14  C   UNL d   1       4.560   0.896   1.114  0.00  0.00     0.015 C 
ATOM     15  C   UNL d   1       4.259   2.352   0.811  0.00  0.00     0.006 C 
ENDBRANCH  13  14
ENDBRANCH  12  13
BRANCH  12  16
ATOM     16  C   UNL d   1       3.055  -0.815  -1.012  0.00  0.00     0.125 C 
BRANCH  16  17
ATOM     17  C   UNL d   1       3.881  -2.087  -0.818  0.00  0.00     0.015 C 
ATOM     18  C   UNL d   1       3.055  -3.273  -0.349  0.00  0.00     0.006 C 
ENDBRANCH  16  17
ENDBRANCH  12  16
ENDBRANCH   1  12
TORSDOF 7
