REMARK  2 active torsions:
REMARK  status: ('A' for Active; 'I' for Inactive)
REMARK    1  A    between atoms: C_16  and  C_3 
REMARK    2  A    between atoms: C_8  and  C_5 
ROOT
ATOM      1  N   UNL d   1       2.421  -1.104  -0.074  0.00  0.00    -0.355 N 
ATOM      2  HN  UNL d   1       2.673  -2.092  -0.084  1.00  0.00     0.166 HD
ATOM      3  C   UNL d   1       1.719   1.625   0.018  0.00  0.00    -0.011 A 
ATOM      4  C   UNL d   1       0.710   0.618  -0.065  0.00  0.00     0.003 A 
ATOM      5  C   UNL d   1       3.381  -0.154  -0.075  0.00  0.00     0.043 A 
ATOM      6  C   UNL d   1       3.058   1.194   0.010  0.00  0.00     0.043 A 
ATOM      7  C   UNL d   1       1.132  -0.732  -0.060  0.00  0.00     0.043 A 
ATOM      8  C   UNL d   1      -0.691   0.863  -0.147  0.00  0.00     0.038 A 
ATOM      9  C   UNL d   1       0.185  -1.748  -0.038  0.00  0.00     0.032 A 
ATOM     10  C   UNL d   1      -1.619  -0.175  -0.099  0.00  0.00     0.035 A 
ATOM     11  C   UNL d   1      -1.186  -1.486  -0.032  0.00  0.00     0.026 A 
ATOM     12 CL   UNL d   1      -3.302   0.178  -0.099  0.00  0.00    -0.084 Cl
ENDROOT
BRANCH   5  13
ATOM     13  C   UNL d   1       4.779  -0.637  -0.140  0.00  0.00    -0.007 A 
ATOM     14  C   UNL d   1       5.793   0.125  -0.756  0.00  0.00     0.053 A 
ATOM     15  C   UNL d   1       7.090  -0.348  -0.743  0.00  0.00     0.105 A 
ATOM     16  O   UNL d   1       8.170   0.289  -1.270  0.00  0.00    -0.323 OA
ATOM     17  C   UNL d   1       7.419  -1.549  -0.167  0.00  0.00     0.105 A 
ATOM     18  C   UNL d   1       9.224  -0.631  -0.918  0.00  0.00     0.352 A 
ATOM     19  O   UNL d   1       8.748  -1.820  -0.253  0.00  0.00    -0.323 OA
ATOM     20  C   UNL d   1       6.465  -2.349   0.418  0.00  0.00     0.040 A 
ATOM     21  C   UNL d   1       5.142  -1.887   0.426  0.00  0.00     0.016 A 
ENDBRANCH   5  13
BRANCH   3  22
ATOM     22  C   UNL d   1       1.453   3.091   0.148  0.00  0.00    -0.025 A 
ATOM     23  C   UNL d   1       0.422   3.600   0.959  0.00  0.00     0.012 A 
ATOM     24  C   UNL d   1       0.168   4.972   1.056  0.00  0.00     0.001 A 
ATOM     25  C   UNL d   1       0.990   5.882   0.403  0.00  0.00     0.000 A 
ATOM     26  C   UNL d   1       2.058   5.418  -0.355  0.00  0.00     0.001 A 
ATOM     27  C   UNL d   1       2.273   4.042  -0.496  0.00  0.00     0.012 A 
ENDBRANCH   3  22
TORSDOF 2
