REMARK  3 active torsions:
REMARK  status: ('A' for Active; 'I' for Inactive)
REMARK    1  A    between atoms: S_10  and  C_3 
REMARK    2  A    between atoms: C_9  and  C_6 
REMARK    3  A    between atoms: O_11  and  C_8 
ROOT
ATOM      1  N   UNL d   1      -0.275  -1.194  -0.045  0.00  0.00    -0.318 N 
ATOM      2  HN  UNL d   1      -0.803  -2.067  -0.053  1.00  0.00     0.170 HD
ATOM      3  C   UNL d   1       1.062  -1.176  -0.035  0.00  0.00     0.146 A 
ATOM      4  N   UNL d   1       1.813  -0.061  -0.018  0.00  0.00    -0.336 N 
ATOM      5  HN  UNL d   1       2.832  -0.108  -0.019  1.00  0.00     0.168 HD
ATOM      6  C   UNL d   1       1.163   1.125   0.002  0.00  0.00     0.048 A 
ATOM      7  C   UNL d   1      -0.217   1.194  -0.025  0.00  0.00     0.086 A 
ATOM      8  C   UNL d   1      -0.878  -0.006  -0.043  0.00  0.00     0.143 A 
ENDROOT
BRANCH   6   9
ATOM      9  C   UNL d   1       2.012   2.336   0.063  0.00  0.00    -0.009 A 
ATOM     10  C   UNL d   1       1.594   3.503   0.734  0.00  0.00     0.013 A 
ATOM     11  C   UNL d   1       2.398   4.646   0.786  0.00  0.00     0.001 A 
ATOM     12  C   UNL d   1       3.646   4.647   0.172  0.00  0.00     0.000 A 
ATOM     13  C   UNL d   1       4.089   3.507  -0.490  0.00  0.00     0.001 A 
ATOM     14  C   UNL d   1       3.282   2.365  -0.542  0.00  0.00     0.013 A 
ENDBRANCH   6   9
BRANCH   8  15
ATOM     15  O   UNL d   1      -2.242  -0.060  -0.055  0.00  0.00    -0.346 OA
ATOM     16  H   UNL d   1      -2.593   0.842  -0.043  0.00  0.00     0.219 HD
ENDBRANCH   8  15
BRANCH   3  17
ATOM     17  S   UNL d   1       1.851  -2.770  -0.033  0.00  0.00    -0.098 SA
ATOM     18  C   UNL d   1       3.592  -2.289  -0.044  0.00  0.00     0.099 C 
ENDBRANCH   3  17
TORSDOF 3
