REMARK  4 active torsions:
REMARK  status: ('A' for Active; 'I' for Inactive)
REMARK    1  A    between atoms: O_5  and  C_1 
REMARK       I    between atoms: C_3  and  N_8 
REMARK    2  A    between atoms: C_16  and  C_3 
REMARK    3  A    between atoms: C_11  and  O_5 
REMARK    4  A    between atoms: N_8  and  C_19 
ROOT
ATOM      1  N   UNL d   1       3.243   3.064  -0.845  0.00  0.00    -0.344 N 
ATOM      2  HN  UNL d   1       2.931   2.448  -1.596  1.00  0.00     0.167 HD
ATOM      3  C   UNL d   1       2.470   3.324   0.232  0.00  0.00     0.149 A 
ATOM      4  C   UNL d   1       4.916   4.571   0.087  0.00  0.00     0.050 A 
ATOM      5  C   UNL d   1       4.452   3.667  -0.870  0.00  0.00     0.119 A 
ATOM      6  C   UNL d   1       2.812   4.242   1.214  0.00  0.00     0.059 A 
ATOM      7  C   UNL d   1       4.052   4.877   1.135  0.00  0.00     0.035 A 
ENDROOT
BRANCH   3   8
ATOM      8  O   UNL d   1       1.225   2.727   0.343  0.00  0.00    -0.276 OA
BRANCH   8   9
ATOM      9  C   UNL d   1       1.114   1.419  -0.117  0.00  0.00     0.163 A 
ATOM     10  C   UNL d   1      -0.131   1.020  -0.613  0.00  0.00     0.042 A 
ATOM     11  C   UNL d   1      -0.198  -0.322  -1.008  0.00  0.00     0.049 A 
ATOM     12  C   UNL d   1      -1.272   1.852  -0.723  0.00  0.00     0.020 A 
ATOM     13  C   UNL d   1      -1.402  -0.810  -1.497  0.00  0.00     0.054 A 
ATOM     14  N   UNL d   1       0.847  -1.153  -0.921  0.00  0.00    -0.351 N 
ATOM     15  C   UNL d   1      -2.530   0.005  -1.593  0.00  0.00     0.036 A 
ATOM     16  C   UNL d   1      -2.471   1.339  -1.209  0.00  0.00     0.025 A 
ATOM     17 CL   UNL d   1      -4.008  -0.648  -2.184  0.00  0.00    -0.084 Cl
ATOM     18  C   UNL d   1       1.978  -0.657  -0.400  0.00  0.00     0.182 A 
ATOM     19  HN  UNL d   1       0.786  -2.121  -1.239  1.00  0.00     0.166 HD
ATOM     20  N   UNL d   1       2.160   0.584   0.049  0.00  0.00    -0.332 N 
ATOM     21  HN  UNL d   1       3.031   0.883   0.488  1.00  0.00     0.168 HD
ENDBRANCH   8   9
ENDBRANCH   3   8
BRANCH   4  22
ATOM     22  N   UNL d   1       6.218   5.088  -0.061  0.00  0.00    -0.322 N 
ATOM     23  C   UNL d   1       6.858   6.002   0.758  0.00  0.00     0.256 C 
ATOM     24  O   UNL d   1       6.391   6.563   1.740  0.00  0.00    -0.267 OA
ATOM     25  H   UNL d   1       6.762   4.676  -0.808  0.00  0.00     0.169 HD
BRANCH  23  26
ATOM     26  C   UNL d   1       8.285   6.253   0.399  0.00  0.00     0.032 A 
ATOM     27  C   UNL d   1       8.726   6.269  -0.933  0.00  0.00     0.020 A 
ATOM     28  C   UNL d   1      10.085   6.424  -1.214  0.00  0.00     0.043 A 
ATOM     29  C   UNL d   1      10.990   6.580  -0.170  0.00  0.00     0.116 A 
ATOM     30  C   UNL d   1      10.561   6.603   1.153  0.00  0.00     0.043 A 
ATOM     31  F   UNL d   1      12.294   6.709  -0.443  0.00  0.00    -0.206 F 
ATOM     32  C   UNL d   1       9.205   6.446   1.440  0.00  0.00     0.020 A 
ENDBRANCH  23  26
ENDBRANCH   4  22
TORSDOF 4
