REMARK  2 active torsions:
REMARK  status: ('A' for Active; 'I' for Inactive)
REMARK    1  A    between atoms: C_13  and  C_6 
REMARK    2  A    between atoms: C_14  and  C_8 
ROOT
ATOM      1  C   UNL d   1      -0.106  -0.777  -0.033  0.00  0.00     0.104 A 
ATOM      2  N   UNL d   1       1.036  -1.483  -0.064  0.00  0.00    -0.333 N 
ATOM      3  HN  UNL d   1       1.078  -2.501  -0.114  1.00  0.00     0.168 HD
ATOM      4  C   UNL d   1      -0.197   0.598   0.038  0.00  0.00     0.083 A 
ATOM      5  S   UNL d   1      -1.624  -1.523  -0.088  0.00  0.00    -0.069 SA
ATOM      6  C   UNL d   1      -2.455  -0.014   0.011  0.00  0.00     0.019 A 
ATOM      7  C   UNL d   1      -1.551   1.038   0.057  0.00  0.00     0.053 A 
ATOM      8  C   UNL d   1       2.119  -0.683  -0.021  0.00  0.00     0.131 A 
ATOM      9  N   UNL d   1       0.938   1.341   0.081  0.00  0.00    -0.296 N 
ATOM     10  HN  UNL d   1       0.908   2.360   0.134  1.00  0.00     0.187 HD
ATOM     11  N   UNL d   1       2.091   0.677   0.049  0.00  0.00    -0.284 N 
ATOM     12  HN  UNL d   1       2.969   1.195   0.078  1.00  0.00     0.188 HD
ENDROOT
BRANCH   6  13
ATOM     13  C   UNL d   1      -3.928   0.021   0.002  0.00  0.00    -0.019 A 
ATOM     14  C   UNL d   1      -4.695  -1.002   0.588  0.00  0.00     0.014 A 
ATOM     15  C   UNL d   1      -6.093  -0.970   0.552  0.00  0.00     0.024 A 
ATOM     16  C   UNL d   1      -6.743   0.094  -0.063  0.00  0.00     0.034 A 
ATOM     17  C   UNL d   1      -6.007   1.128  -0.636  0.00  0.00     0.024 A 
ATOM     18 CL   UNL d   1      -8.461   0.130  -0.118  0.00  0.00    -0.084 Cl
ATOM     19  C   UNL d   1      -4.608   1.091  -0.602  0.00  0.00     0.014 A 
ENDBRANCH   6  13
BRANCH   8  20
ATOM     20  C   UNL d   1       3.441  -1.345  -0.068  0.00  0.00     0.009 A 
ATOM     21  C   UNL d   1       3.550  -2.749  -0.147  0.00  0.00     0.015 A 
ATOM     22  C   UNL d   1       4.793  -3.387  -0.205  0.00  0.00     0.001 A 
ATOM     23  C   UNL d   1       5.962  -2.633  -0.183  0.00  0.00     0.000 A 
ATOM     24  C   UNL d   1       5.888  -1.246  -0.101  0.00  0.00     0.001 A 
ATOM     25  C   UNL d   1       4.642  -0.610  -0.043  0.00  0.00     0.015 A 
ENDBRANCH   8  20
TORSDOF 2
