REMARK  4 active torsions:
REMARK  status: ('A' for Active; 'I' for Inactive)
REMARK    1  A    between atoms: C_4  and  N_1 
REMARK    2  A    between atoms: C_5  and  N_2 
REMARK    3  A    between atoms: C_3  and  C_5 
REMARK    4  A    between atoms: O_13  and  C_9 
ROOT
ATOM      1  N   UNL d   1      -1.217   0.174   0.647  0.00  0.00    -0.375 N 
ATOM      2  N   UNL d   1       1.425   0.044  -0.659  0.00  0.00     0.095 N 
ATOM      3  C   UNL d   1      -0.749  -1.094   0.082  0.00  0.00     0.153 C 
ATOM      4  C   UNL d   1      -0.728   1.355  -0.089  0.00  0.00     0.153 C 
ATOM      5  C   UNL d   1       0.800  -1.095   0.057  0.00  0.00     0.292 C 
ATOM      6  C   UNL d   1       0.823   1.312  -0.168  0.00  0.00     0.292 C 
ENDROOT
BRANCH   1   7
ATOM      7  C   UNL d   1      -2.508   0.259   1.172  0.00  0.00     0.064 A 
ATOM      8  C   UNL d   1      -2.836   1.172   2.202  0.00  0.00     0.094 A 
ATOM      9  C   UNL d   1      -4.130   1.234   2.737  0.00  0.00     0.039 A 
ATOM     10  C   UNL d   1      -5.125   0.378   2.275  0.00  0.00     0.003 A 
ATOM     11  C   UNL d   1      -4.834  -0.523   1.258  0.00  0.00     0.002 A 
ATOM     12  C   UNL d   1      -3.544  -0.580   0.718  0.00  0.00     0.032 A 
BRANCH   8  13
ATOM     13  O   UNL d   1      -1.953   2.096   2.712  0.00  0.00    -0.354 OA
ATOM     14  C   UNL d   1      -0.865   1.489   3.406  0.00  0.00     0.210 C 
ENDBRANCH   8  13
ENDBRANCH   1   7
BRANCH   2  15
ATOM     15  C   UNL d   1       1.286  -0.116  -2.115  0.00  0.00     0.312 C 
BRANCH  15  16
ATOM     16  C   UNL d   1       2.139   0.854  -2.908  0.00  0.00    -0.008 A 
ATOM     17  C   UNL d   1       1.613   1.716  -3.884  0.00  0.00     0.042 A 
ATOM     18 CL   UNL d   1      -0.076   1.789  -4.244  0.00  0.00    -0.084 Cl
ATOM     19  C   UNL d   1       2.455   2.568  -4.608  0.00  0.00     0.024 A 
ATOM     20  C   UNL d   1       3.829   2.571  -4.371  0.00  0.00     0.002 A 
ATOM     21  C   UNL d   1       4.367   1.726  -3.403  0.00  0.00     0.001 A 
ATOM     22  C   UNL d   1       3.529   0.875  -2.683  0.00  0.00     0.011 A 
ENDBRANCH  15  16
ENDBRANCH   2  15
TORSDOF 4
