REMARK  4 active torsions:
REMARK  status: ('A' for Active; 'I' for Inactive)
REMARK    1  A    between atoms: C_2  and  S_1 
REMARK    2  A    between atoms: C_6  and  S_1 
REMARK    3  A    between atoms: N_9  and  C_3 
REMARK    4  A    between atoms: C_12  and  N_9 
ROOT
ATOM      1  C   UNL d   1       0.411   0.462  -1.651  0.00  0.00     0.159 C 
ATOM      2  C   UNL d   1      -0.398  -0.332  -2.375  0.00  0.00     0.123 C 
ATOM      3  C   UNL d   1       0.907   0.104  -0.376  0.00  0.00     0.113 C 
ATOM      4  N   UNL d   1       1.313  -0.230   0.656  0.00  0.00    -0.191 NA
ENDROOT
BRANCH   1   5
ATOM      5  S   UNL d   1       0.811   2.036  -2.251  0.00  0.00     0.218 S 
ATOM      6  O   UNL d   1       0.425   3.033  -1.269  0.00  0.00    -0.216 OA
ATOM      7  O   UNL d   1       0.373   2.184  -3.629  0.00  0.00    -0.216 OA
BRANCH   5   8
ATOM      8  C   UNL d   1       2.598   2.042  -2.308  0.00  0.00     0.065 A 
ATOM      9  C   UNL d   1       3.254   1.648  -3.481  0.00  0.00     0.025 A 
ATOM     10  C   UNL d   1       4.646   1.748  -3.558  0.00  0.00     0.025 A 
ATOM     11  C   UNL d   1       5.369   2.246  -2.474  0.00  0.00     0.034 A 
ATOM     12  C   UNL d   1       4.713   2.649  -1.310  0.00  0.00     0.025 A 
ATOM     13 CL   UNL d   1       7.080   2.387  -2.581  0.00  0.00    -0.084 Cl
ATOM     14  C   UNL d   1       3.322   2.555  -1.225  0.00  0.00     0.025 A 
ENDBRANCH   5   8
ENDBRANCH   1   5
BRANCH   2  15
ATOM     15  N   UNL d   1      -0.917  -1.562  -2.034  0.00  0.00    -0.364 N 
ATOM     16  H   UNL d   1      -0.757  -1.892  -1.084  0.00  0.00     0.165 HD
BRANCH  15  17
ATOM     17  C   UNL d   1      -1.581  -2.493  -2.854  0.00  0.00     0.031 A 
ATOM     18  C   UNL d   1      -1.525  -2.473  -4.251  0.00  0.00     0.030 A 
ATOM     19  C   UNL d   1      -2.215  -3.426  -5.012  0.00  0.00     0.009 A 
ATOM     20  C   UNL d   1      -3.003  -4.401  -4.391  0.00  0.00    -0.062 A 
ATOM     21  C   UNL d   1      -3.095  -4.404  -2.998  0.00  0.00     0.009 A 
ATOM     22  C   UNL d   1      -3.721  -5.427  -5.217  0.00  0.00     0.048 C 
ATOM     23  C   UNL d   1      -2.394  -3.459  -2.243  0.00  0.00     0.030 A 
ENDBRANCH  15  17
ENDBRANCH   2  15
TORSDOF 4
