REMARK  7 active torsions:
REMARK  status: ('A' for Active; 'I' for Inactive)
REMARK    1  A    between atoms: C_7  and  C_1 
REMARK    2  A    between atoms: C_14  and  N_2 
REMARK    3  A    between atoms: C_15  and  C_6 
REMARK       I    between atoms: N_11  and  C_7 
REMARK    4  A    between atoms: C_8  and  C_10 
REMARK    5  A    between atoms: C_9  and  N_12 
REMARK    6  A    between atoms: N_12  and  N_11 
REMARK    7  A    between atoms: C_24  and  C_14 
ROOT
ATOM      1  C   UNL d   1      -0.615  -1.298   0.403  0.00  0.00     0.122 A 
ATOM      2  N   UNL d   1       0.633  -0.726   0.417  0.00  0.00    -0.282 N 
ATOM      3  N   UNL d   1       0.609   0.615   0.273  0.00  0.00    -0.301 N 
ATOM      4  HN  UNL d   1       1.407   1.247   0.220  1.00  0.00     0.187 HD
ATOM      5  C   UNL d   1      -1.489  -0.231   0.274  0.00  0.00     0.064 A 
ATOM      6  C   UNL d   1      -0.688   0.936   0.213  0.00  0.00     0.036 A 
ENDROOT
BRANCH   1   7
ATOM      7  C   UNL d   1      -0.914  -2.710   0.367  0.00  0.00     0.288 C 
ATOM      8  N   UNL d   1      -0.509  -3.439   1.484  0.00  0.00    -0.264 N 
ATOM      9  H   UNL d   1      -0.015  -2.986   2.247  0.00  0.00     0.190 HD
ATOM     10  O   UNL d   1      -1.487  -3.221  -0.592  0.00  0.00    -0.264 OA
BRANCH   8  11
ATOM     11  N   UNL d   1      -0.229  -4.798   1.280  0.00  0.00    -0.296 N 
ATOM     12  H   UNL d   1       0.750  -5.079   1.274  0.00  0.00     0.187 HD
BRANCH  11  13
ATOM     13  C   UNL d   1      -1.111  -5.785   1.778  0.00  0.00     0.070 A 
ATOM     14  C   UNL d   1      -2.426  -5.508   2.180  0.00  0.00     0.048 A 
ATOM     15  C   UNL d   1      -3.309  -6.538   2.568  0.00  0.00     0.050 A 
ATOM     16  C   UNL d   1      -2.876  -7.872   2.517  0.00  0.00     0.018 A 
ATOM     17  C   UNL d   1      -1.583  -8.174   2.099  0.00  0.00     0.027 A 
ATOM     18  C   UNL d   1      -0.716  -7.143   1.734  0.00  0.00     0.062 A 
ATOM     19 CL   UNL d   1       0.884  -7.578   1.223  0.00  0.00    -0.082 Cl
BRANCH  15  20
ATOM     20  C   UNL d   1      -4.722  -6.238   3.011  0.00  0.00     0.417 C 
ATOM     21  F   UNL d   1      -4.977  -4.912   3.176  0.00  0.00    -0.166 F 
ATOM     22  F   UNL d   1      -5.654  -6.697   2.131  0.00  0.00    -0.166 F 
ATOM     23  F   UNL d   1      -5.021  -6.824   4.205  0.00  0.00    -0.166 F 
ENDBRANCH  15  20
ENDBRANCH  11  13
ENDBRANCH   8  11
ENDBRANCH   1   7
BRANCH   2  24
ATOM     24  C   UNL d   1       1.935  -1.372   0.549  0.00  0.00     0.188 C 
BRANCH  24  25
ATOM     25  C   UNL d   1       2.354  -1.447   2.000  0.00  0.00    -0.038 A 
ATOM     26  C   UNL d   1       2.746  -2.666   2.569  0.00  0.00     0.009 A 
ATOM     27  C   UNL d   1       3.081  -2.738   3.923  0.00  0.00     0.001 A 
ATOM     28  C   UNL d   1       3.048  -1.593   4.717  0.00  0.00     0.000 A 
ATOM     29  C   UNL d   1       2.704  -0.368   4.156  0.00  0.00     0.001 A 
ATOM     30  C   UNL d   1       2.372  -0.294   2.805  0.00  0.00     0.009 A 
ENDBRANCH  24  25
ENDBRANCH   2  24
BRANCH   6  31
ATOM     31  C   UNL d   1      -1.082   2.397   0.077  0.00  0.00    -0.007 C 
ATOM     32  C   UNL d   1      -2.611   2.586   0.071  0.00  0.00     0.021 C 
ATOM     33  C   UNL d   1      -0.507   3.210   1.259  0.00  0.00     0.021 C 
ATOM     34  C   UNL d   1      -0.522   2.979  -1.238  0.00  0.00     0.021 C 
ENDBRANCH   6  31
TORSDOF 7
