REMARK  1 active torsions:
REMARK  status: ('A' for Active; 'I' for Inactive)
REMARK    1  A    between atoms: C_4  and  N_1 
ROOT
ATOM      1  N   UNL d   1      -1.238  -0.027  -0.140  0.00  0.00    -0.244 N 
ATOM      2  C   UNL d   1      -0.573  -1.171   0.189  0.00  0.00     0.261 A 
ATOM      3  C   UNL d   1      -0.650   1.052   0.455  0.00  0.00     0.261 A 
ATOM      4  C   UNL d   1       0.596  -0.777   0.993  0.00  0.00     0.018 A 
ATOM      5  C   UNL d   1       0.534   0.545   1.180  0.00  0.00     0.018 A 
ATOM      6  O   UNL d   1      -0.844  -2.330  -0.078  0.00  0.00    -0.267 OA
ATOM      7  O   UNL d   1      -1.008   2.219   0.491  0.00  0.00    -0.267 OA
ATOM      8  C   UNL d   1       1.393   1.389   2.043  0.00  0.00     0.055 C 
ATOM      9  C   UNL d   1       1.567  -1.760   1.527  0.00  0.00     0.055 C 
ENDROOT
BRANCH   1  10
ATOM     10  C   UNL d   1      -2.567  -0.008  -0.613  0.00  0.00     0.052 A 
ATOM     11  C   UNL d   1      -3.548  -0.668   0.146  0.00  0.00     0.038 A 
ATOM     12  C   UNL d   1      -4.900  -0.648  -0.224  0.00  0.00    -0.054 A 
ATOM     13  C   UNL d   1      -5.915  -1.317   0.660  0.00  0.00     0.049 C 
ATOM     14  C   UNL d   1      -5.271   0.007  -1.410  0.00  0.00    -0.056 A 
ATOM     15  C   UNL d   1      -4.285   0.655  -2.172  0.00  0.00     0.016 A 
ATOM     16  C   UNL d   1      -6.700   0.022  -1.880  0.00  0.00     0.049 C 
ATOM     17  C   UNL d   1      -2.932   0.664  -1.787  0.00  0.00    -0.034 A 
ATOM     18  C   UNL d   1      -1.947   1.341  -2.697  0.00  0.00     0.050 C 
ENDBRANCH   1  10
TORSDOF 1
