REMARK  10 active torsions:
REMARK  status: ('A' for Active; 'I' for Inactive)
REMARK    1  A    between atoms: C_20  and  N_1 
REMARK    2  A    between atoms: C_18  and  C_2 
REMARK    3  A    between atoms: S_15  and  C_5 
REMARK    4  A    between atoms: S_16  and  C_9 
REMARK    5  A    between atoms: C_14  and  C_22 
REMARK    6  A    between atoms: C_22  and  S_15 
REMARK    7  A    between atoms: C_21  and  S_16 
REMARK    8  A    between atoms: C_17  and  C_21 
REMARK    9  A    between atoms: C_19  and  C_17 
REMARK   10  A    between atoms: C_24  and  C_20 
ROOT
ATOM      1  O   UNL d   1      -6.169  -2.902   0.577  0.00  0.00    -0.271 OA
ATOM      2  C   UNL d   1      -7.443  -2.481   0.269  0.00  0.00     0.203 A 
ATOM      3  N   UNL d   1      -7.436  -1.421  -0.511  0.00  0.00    -0.272 N 
ATOM      4  HN  UNL d   1      -8.254  -0.931  -0.872  1.00  0.00     0.189 HD
ATOM      5  N   UNL d   1      -6.122  -1.097  -0.749  0.00  0.00    -0.280 N 
ATOM      6  HN  UNL d   1      -5.777  -0.329  -1.324  1.00  0.00     0.189 HD
ATOM      7  C   UNL d   1      -5.395  -1.973  -0.087  0.00  0.00     0.150 A 
ENDROOT
BRANCH   7   8
ATOM      8  C   UNL d   1      -3.928  -2.006   0.141  0.00  0.00     0.168 C 
BRANCH   8   9
ATOM      9  S   UNL d   1      -3.121  -0.405   0.012  0.00  0.00    -0.084 SA
BRANCH   9  10
ATOM     10  C   UNL d   1      -3.336   0.594   1.412  0.00  0.00     0.163 A 
ATOM     11  N   UNL d   1      -4.113   0.466   2.541  0.00  0.00    -0.307 N 
ATOM     12  C   UNL d   1      -3.888   1.611   3.301  0.00  0.00     0.135 A 
ATOM     13  N   UNL d   1      -3.029   2.368   2.644  0.00  0.00    -0.283 N 
ATOM     14  N   UNL d   1      -2.679   1.732   1.488  0.00  0.00    -0.278 N 
ATOM     15  HN  UNL d   1      -2.683   3.278   2.950  1.00  0.00     0.188 HD
ATOM     16  HN  UNL d   1      -2.016   2.082   0.796  1.00  0.00     0.189 HD
BRANCH  11  17
ATOM     17  C   UNL d   1      -5.076  -0.557   2.878  0.00  0.00     0.159 C 
BRANCH  17  18
ATOM     18  C   UNL d   1      -4.503  -1.783   3.545  0.00  0.00    -0.017 C 
ATOM     19  C   UNL d   1      -3.250  -1.965   3.989  0.00  0.00     0.008 C 
ENDBRANCH  17  18
ENDBRANCH  11  17
BRANCH  12  20
ATOM     20  C   UNL d   1      -4.523   1.998   4.571  0.00  0.00     0.009 A 
ATOM     21  C   UNL d   1      -4.827   1.085   5.591  0.00  0.00     0.015 A 
ATOM     22  C   UNL d   1      -5.478   1.490   6.759  0.00  0.00     0.001 A 
ATOM     23  C   UNL d   1      -5.793   2.831   6.949  0.00  0.00     0.000 A 
ATOM     24  C   UNL d   1      -5.452   3.765   5.974  0.00  0.00     0.001 A 
ATOM     25  C   UNL d   1      -4.825   3.350   4.795  0.00  0.00     0.015 A 
ENDBRANCH  12  20
ENDBRANCH   9  10
ENDBRANCH   8   9
ENDBRANCH   7   8
BRANCH   2  26
ATOM     26  S   UNL d   1      -8.914  -3.190   0.854  0.00  0.00    -0.077 SA
BRANCH  26  27
ATOM     27  C   UNL d   1      -8.339  -4.504   1.946  0.00  0.00     0.166 C 
BRANCH  27  28
ATOM     28  C   UNL d   1      -9.531  -5.094   2.685  0.00  0.00     0.169 C 
ATOM     29  O   UNL d   1      -9.811  -4.716   3.821  0.00  0.00    -0.291 OA
BRANCH  28  30
ATOM     30  C   UNL d   1     -10.383  -6.148   2.034  0.00  0.00     0.011 A 
ATOM     31  C   UNL d   1     -10.137  -6.637   0.743  0.00  0.00     0.017 A 
ATOM     32  C   UNL d   1     -10.963  -7.629   0.194  0.00  0.00     0.025 A 
ATOM     33  C   UNL d   1     -12.034  -8.133   0.929  0.00  0.00     0.034 A 
ATOM     34  C   UNL d   1     -12.295  -7.650   2.207  0.00  0.00     0.025 A 
ATOM     35 CL   UNL d   1     -13.037  -9.353   0.249  0.00  0.00    -0.084 Cl
ATOM     36  C   UNL d   1     -11.471  -6.664   2.757  0.00  0.00     0.017 A 
ENDBRANCH  28  30
ENDBRANCH  27  28
ENDBRANCH  26  27
ENDBRANCH   2  26
TORSDOF 10
