REMARK  3 active torsions:
REMARK  status: ('A' for Active; 'I' for Inactive)
REMARK       I    between atoms: N_2  and  C_1 
REMARK    1  A    between atoms: C_3  and  C_1 
REMARK    2  A    between atoms: C_4  and  N_2 
REMARK    3  A    between atoms: C_10  and  C_7 
ROOT
ATOM      1  C   UNL d   1       1.037   1.260  -2.170  0.00  0.00     0.052 A 
ATOM      2  C   UNL d   1       2.645   2.789  -3.964  0.00  0.00    -0.049 A 
ATOM      3  C   UNL d   1       2.211   0.725  -2.714  0.00  0.00     0.038 A 
ATOM      4  C   UNL d   1       2.989   1.469  -3.610  0.00  0.00     0.029 A 
ATOM      5  C   UNL d   1       0.688   2.565  -2.513  0.00  0.00     0.031 A 
ATOM      6  C   UNL d   1       1.482   3.319  -3.389  0.00  0.00     0.010 A 
ATOM      7 BR   UNL d   1       2.772  -1.048  -2.309  0.00  0.00    -0.049 Br
ENDROOT
BRANCH   1   8
ATOM      8  N   UNL d   1       0.264   0.486  -1.278  0.00  0.00    -0.326 N 
ATOM      9  C   UNL d   1      -1.061   0.681  -0.977  0.00  0.00     0.226 C 
ATOM     10  O   UNL d   1      -1.831   1.484  -1.497  0.00  0.00    -0.273 OA
ATOM     11  H   UNL d   1       0.692  -0.363  -0.933  0.00  0.00     0.169 HD
BRANCH   9  12
ATOM     12  C   UNL d   1      -1.564  -0.232   0.090  0.00  0.00     0.078 A 
ATOM     13  C   UNL d   1      -2.100  -1.602  -0.257  0.00  0.00     0.015 A 
ATOM     14  C   UNL d   1      -3.041  -0.528   0.207  0.00  0.00     0.015 A 
ENDBRANCH   9  12
ENDBRANCH   1   8
BRANCH   2  15
ATOM     15  C   UNL d   1       3.528   3.587  -4.939  0.00  0.00    -0.024 C 
ATOM     16  C   UNL d   1       3.058   5.043  -5.160  0.00  0.00     0.019 C 
ATOM     17  C   UNL d   1       4.972   3.656  -4.397  0.00  0.00     0.019 C 
ATOM     18  C   UNL d   1       3.532   2.893  -6.317  0.00  0.00     0.019 C 
ENDBRANCH   2  15
TORSDOF 3
