REMARK  4 active torsions:
REMARK  status: ('A' for Active; 'I' for Inactive)
REMARK    1  A    between atoms: N_2  and  S_1 
REMARK    2  A    between atoms: C_6  and  S_1 
REMARK    3  A    between atoms: C_11  and  N_2 
REMARK    4  A    between atoms: N_4  and  C_3 
ROOT
ATOM      1  C   UNL d   1       1.504   3.450  -4.265  0.00  0.00     0.052 A 
ATOM      2  C   UNL d   1       2.471   2.906  -3.385  0.00  0.00     0.062 A 
ATOM      3  C   UNL d   1       2.157   1.865  -2.491  0.00  0.00     0.056 A 
ATOM      4  C   UNL d   1       0.214   2.883  -4.181  0.00  0.00     0.033 A 
ATOM      5  C   UNL d   1       0.889   1.299  -2.495  0.00  0.00     0.044 A 
ATOM      6 CL   UNL d   1       4.148   3.360  -3.420  0.00  0.00    -0.082 Cl
ATOM      7  C   UNL d   1      -0.089   1.815  -3.330  0.00  0.00     0.032 A 
ENDROOT
BRANCH   5   8
ATOM      8  N   UNL d   1       0.599   0.192  -1.654  0.00  0.00    -0.281 N 
ATOM      9  H   UNL d   1       0.146  -0.618  -2.076  0.00  0.00     0.179 HD
BRANCH   8  10
ATOM     10  S   UNL d   1       0.104   0.444  -0.059  0.00  0.00     0.263 S 
ATOM     11  O   UNL d   1       1.085   1.265   0.619  0.00  0.00    -0.200 OA
ATOM     12  O   UNL d   1      -0.282  -0.855   0.450  0.00  0.00    -0.200 OA
BRANCH  10  13
ATOM     13  C   UNL d   1      -1.385   1.404  -0.254  0.00  0.00     0.079 A 
ATOM     14  C   UNL d   1      -2.620   0.759  -0.353  0.00  0.00     0.026 A 
ATOM     15  C   UNL d   1      -3.771   1.519  -0.568  0.00  0.00     0.008 A 
ATOM     16  C   UNL d   1      -3.695   2.914  -0.674  0.00  0.00    -0.062 A 
ATOM     17  C   UNL d   1      -2.454   3.550  -0.523  0.00  0.00     0.008 A 
ATOM     18  C   UNL d   1      -4.935   3.714  -0.945  0.00  0.00     0.048 C 
ATOM     19  C   UNL d   1      -1.299   2.797  -0.299  0.00  0.00     0.026 A 
ENDBRANCH  10  13
ENDBRANCH   8  10
ENDBRANCH   5   8
BRANCH   1  20
ATOM     20  N   UNL d   1       1.730   4.459  -5.187  0.00  0.00    -0.375 N 
ATOM     21  C   UNL d   1       1.064   4.495  -6.501  0.00  0.00     0.149 C 
ATOM     22  C   UNL d   1       0.301   5.819  -6.649  0.00  0.00     0.187 C 
ATOM     23  O   UNL d   1       1.194   6.937  -6.516  0.00  0.00    -0.388 OA
ATOM     24  C   UNL d   1       1.817   6.927  -5.221  0.00  0.00     0.187 C 
ATOM     25  C   UNL d   1       2.596   5.625  -4.942  0.00  0.00     0.149 C 
ENDBRANCH   1  20
TORSDOF 4
