REMARK  8 active torsions:
REMARK  status: ('A' for Active; 'I' for Inactive)
REMARK    1  A    between atoms: S_9  and  C_2 
REMARK    2  A    between atoms: C_12  and  C_3 
REMARK       I    between atoms: C_8  and  N_11 
REMARK    3  A    between atoms: O_13  and  C_8 
REMARK    4  A    between atoms: C_18  and  S_9 
REMARK    5  A    between atoms: C_10  and  C_18 
REMARK       I    between atoms: N_14  and  C_10 
REMARK    6  A    between atoms: N_11  and  C_12 
REMARK    7  A    between atoms: C_17  and  O_13 
REMARK    8  A    between atoms: C_20  and  N_14 
ROOT
ATOM      1  N   UNL d   1       1.033   0.136  -0.079  0.00  0.00    -0.318 N 
ATOM      2  C   UNL d   1       0.269   1.182  -0.513  0.00  0.00     0.162 C 
ATOM      3  C   UNL d   1       0.137  -0.883   0.158  0.00  0.00     0.117 C 
ATOM      4  N   UNL d   1      -0.995   0.933  -0.274  0.00  0.00    -0.278 N 
ATOM      5  HN  UNL d   1      -1.772   1.584  -0.390  1.00  0.00     0.189 HD
ATOM      6  N   UNL d   1      -1.081  -0.369   0.163  0.00  0.00    -0.285 N 
ATOM      7  HN  UNL d   1      -1.934  -0.853   0.442  1.00  0.00     0.188 HD
ATOM      8  C   UNL d   1       2.464   0.079   0.064  0.00  0.00     0.160 C 
ENDROOT
BRANCH   3   9
ATOM      9  C   UNL d   1       0.473  -2.329   0.136  0.00  0.00     0.203 C 
BRANCH   9  10
ATOM     10  N   UNL d   1       0.748  -2.856   1.445  0.00  0.00    -0.330 N 
ATOM     11  C   UNL d   1       2.003  -3.235   1.814  0.00  0.00     0.361 C 
ATOM     12  O   UNL d   1       3.021  -2.903   1.220  0.00  0.00    -0.238 OA
ATOM     13  H   UNL d   1      -0.013  -3.192   2.015  0.00  0.00     0.165 HD
BRANCH  11  14
ATOM     14  O   UNL d   1       1.939  -4.011   2.914  0.00  0.00    -0.294 OA
BRANCH  14  15
ATOM     15  C   UNL d   1       3.155  -4.395   3.614  0.00  0.00     0.061 C 
ATOM     16  C   UNL d   1       3.811  -3.143   4.209  0.00  0.00     0.046 C 
ATOM     17  C   UNL d   1       2.692  -5.320   4.752  0.00  0.00     0.046 C 
ATOM     18  C   UNL d   1       4.133  -5.181   2.729  0.00  0.00     0.046 C 
ENDBRANCH  14  15
ENDBRANCH  11  14
ENDBRANCH   9  10
ENDBRANCH   3   9
BRANCH   2  19
ATOM     19  S   UNL d   1       0.856   2.536  -1.411  0.00  0.00    -0.083 SA
BRANCH  19  20
ATOM     20  C   UNL d   1       1.448   1.714  -2.921  0.00  0.00     0.185 C 
BRANCH  20  21
ATOM     21  C   UNL d   1       0.409   0.910  -3.684  0.00  0.00     0.227 C 
ATOM     22  N   UNL d   1      -0.882   1.381  -3.663  0.00  0.00    -0.357 N 
ATOM     23  H   UNL d   1      -1.114   2.133  -3.021  0.00  0.00     0.162 HD
ATOM     24  O   UNL d   1       0.749  -0.063  -4.357  0.00  0.00    -0.273 OA
BRANCH  22  25
ATOM     25  C   UNL d   1      -1.949   0.788  -4.459  0.00  0.00     0.076 C 
ATOM     26  C   UNL d   1      -3.292   0.936  -3.755  0.00  0.00     0.032 C 
ATOM     27  C   UNL d   1      -1.990   1.435  -5.842  0.00  0.00     0.032 C 
ENDBRANCH  22  25
ENDBRANCH  20  21
ENDBRANCH  19  20
ENDBRANCH   2  19
TORSDOF 8
