REMARK  3 active torsions:
REMARK  status: ('A' for Active; 'I' for Inactive)
REMARK       I    between atoms: N_2  and  C_1 
REMARK    1  A    between atoms: C_3  and  C_1 
REMARK    2  A    between atoms: O_19  and  C_14 
REMARK    3  A    between atoms: O_20  and  C_16 
ROOT
ATOM      1  C   UNL d   1       1.034  -0.153  -0.167  0.00  0.00     0.259 C 
ATOM      2  N   UNL d   1       0.228  -1.140  -0.747  0.00  0.00    -0.339 N 
ATOM      3  C   UNL d   1      -2.120  -1.634  -1.455  0.00  0.00    -0.026 A 
ATOM      4  C   UNL d   1      -0.912  -0.709  -1.579  0.00  0.00     0.117 C 
ATOM      5  C   UNL d   1      -2.025  -2.891  -0.841  0.00  0.00    -0.045 A 
ATOM      6  C   UNL d   1      -3.370  -1.228  -1.960  0.00  0.00     0.049 A 
ATOM      7  C   UNL d   1       0.463  -2.580  -0.683  0.00  0.00     0.131 C 
ATOM      8  C   UNL d   1      -4.500  -2.052  -1.853  0.00  0.00     0.102 A 
ATOM      9  C   UNL d   1      -3.152  -3.722  -0.749  0.00  0.00     0.047 A 
ATOM     10  C   UNL d   1      -4.387  -3.318  -1.255  0.00  0.00     0.102 A 
ATOM     11  O   UNL d   1       0.738   1.037  -0.228  0.00  0.00    -0.267 OA
ATOM     12  C   UNL d   1      -0.753  -3.342  -0.187  0.00  0.00     0.059 C 
ATOM     13  C   UNL d   1      -0.469  -0.576  -3.044  0.00  0.00     0.037 C 
ENDROOT
BRANCH   1  14
ATOM     14  C   UNL d   1       2.230  -0.560   0.548  0.00  0.00     0.087 A 
ATOM     15  C   UNL d   1       2.588  -0.135   1.814  0.00  0.00     0.090 A 
ATOM     16  O   UNL d   1       3.761  -0.720   2.174  0.00  0.00    -0.242 OA
ATOM     17  C   UNL d   1       2.004   0.775   2.818  0.00  0.00     0.080 C 
ATOM     18  N   UNL d   1       4.234  -1.489   1.134  0.00  0.00    -0.265 N 
ATOM     19  C   UNL d   1       3.348  -1.346   0.141  0.00  0.00     0.047 A 
ATOM     20  HN  UNL d   1       5.085  -2.052   1.122  1.00  0.00     0.194 HD
ATOM     21  C   UNL d   1       3.637  -1.967  -1.175  0.00  0.00     0.071 C 
ENDBRANCH   1  14
BRANCH   8  22
ATOM     22  O   UNL d   1      -5.737  -1.710  -2.342  0.00  0.00    -0.353 OA
ATOM     23  C   UNL d   1      -6.029  -0.319  -2.394  0.00  0.00     0.210 C 
ENDBRANCH   8  22
BRANCH  10  24
ATOM     24  O   UNL d   1      -5.530  -4.077  -1.186  0.00  0.00    -0.353 OA
ATOM     25  C   UNL d   1      -5.436  -5.331  -0.523  0.00  0.00     0.210 C 
ENDBRANCH  10  24
TORSDOF 3
