REMARK  4 active torsions:
REMARK  status: ('A' for Active; 'I' for Inactive)
REMARK    1  A    between atoms: C_2  and  S_1 
REMARK    2  A    between atoms: N_10  and  S_1 
REMARK    3  A    between atoms: C_3  and  C_16 
REMARK    4  A    between atoms: C_19  and  N_10 
ROOT
ATOM      1  C   UNL d   1       1.202   4.995   1.861  0.00  0.00    -0.002 A 
ATOM      2  C   UNL d   1       0.751   2.672   0.340  0.00  0.00     0.042 A 
ATOM      3  C   UNL d   1      -0.081   4.692   1.378  0.00  0.00     0.016 A 
ATOM      4  C   UNL d   1       2.257   4.125   1.548  0.00  0.00     0.016 A 
ATOM      5  C   UNL d   1      -0.313   3.515   0.656  0.00  0.00     0.031 A 
ATOM      6  C   UNL d   1       2.034   2.971   0.794  0.00  0.00     0.031 A 
ENDROOT
BRANCH   1   7
ATOM      7  C   UNL d   1       1.402   6.189   2.691  0.00  0.00     0.085 A 
ATOM      8  N   UNL d   1       0.686   7.288   2.594  0.00  0.00    -0.349 N 
ATOM      9  C   UNL d   1       1.131   8.226   3.508  0.00  0.00     0.050 A 
ATOM     10  HN  UNL d   1      -0.084   7.429   1.940  1.00  0.00     0.166 HD
ATOM     11  C   UNL d   1       0.629   9.530   3.658  0.00  0.00     0.031 A 
ATOM     12  C   UNL d   1       2.175   7.811   4.333  0.00  0.00     0.034 A 
ATOM     13  C   UNL d   1       1.192  10.383   4.612  0.00  0.00     0.009 A 
ATOM     14  C   UNL d   1       2.241   9.954   5.430  0.00  0.00    -0.061 A 
ATOM     15  C   UNL d   1       2.745   8.652   5.301  0.00  0.00     0.028 A 
ATOM     16  C   UNL d   1       2.820  10.891   6.449  0.00  0.00     0.048 C 
ATOM     17  S   UNL d   1       2.581   6.191   3.947  0.00  0.00    -0.070 SA
ENDBRANCH   1   7
BRANCH   2  18
ATOM     18  N   UNL d   1       0.537   1.468  -0.369  0.00  0.00    -0.280 N 
ATOM     19  H   UNL d   1       0.329   0.603   0.123  0.00  0.00     0.179 HD
BRANCH  18  20
ATOM     20  S   UNL d   1       0.525   1.409  -2.046  0.00  0.00     0.269 S 
ATOM     21  O   UNL d   1       0.337   0.029  -2.409  0.00  0.00    -0.200 OA
ATOM     22  O   UNL d   1      -0.356   2.448  -2.548  0.00  0.00    -0.200 OA
BRANCH  20  23
ATOM     23  C   UNL d   1       2.125   1.859  -2.671  0.00  0.00     0.121 A 
ATOM     24  S   UNL d   1       3.463   0.868  -2.240  0.00  0.00    -0.064 SA
ATOM     25  C   UNL d   1       4.534   1.862  -3.103  0.00  0.00     0.075 A 
ATOM     26 CL   UNL d   1       6.215   1.509  -3.124  0.00  0.00    -0.076 Cl
ATOM     27  C   UNL d   1       3.922   2.918  -3.727  0.00  0.00     0.033 A 
ATOM     28  C   UNL d   1       2.516   2.889  -3.503  0.00  0.00     0.035 A 
ENDBRANCH  20  23
ENDBRANCH  18  20
ENDBRANCH   2  18
TORSDOF 4
