REMARK  4 active torsions:
REMARK  status: ('A' for Active; 'I' for Inactive)
REMARK    1  A    between atoms: C_3  and  C_1 
REMARK    2  A    between atoms: C_4  and  C_2 
REMARK    3  A    between atoms: C_7  and  C_5 
REMARK    4  A    between atoms: C_8  and  C_6 
ROOT
ATOM      1  C   UNL d   1       0.974  -0.099  -0.122  0.00  0.00     0.000 C 
ATOM      2  C   UNL d   1       0.252   0.112  -1.233  0.00  0.00     0.000 C 
ENDROOT
BRANCH   1   3
ATOM      3  C   UNL d   1       2.420  -0.074  -0.117  0.00  0.00     0.001 C 
ATOM      4  C   UNL d   1       3.149  -0.249   0.997  0.00  0.00     0.011 C 
BRANCH   4   5
ATOM      5  C   UNL d   1       4.619  -0.185   1.043  0.00  0.00    -0.036 A 
ATOM      6  C   UNL d   1       5.359   0.653   0.197  0.00  0.00     0.011 A 
ATOM      7  C   UNL d   1       6.751   0.718   0.296  0.00  0.00     0.001 A 
ATOM      8  C   UNL d   1       7.419  -0.042   1.252  0.00  0.00     0.000 A 
ATOM      9  C   UNL d   1       6.694  -0.866   2.112  0.00  0.00     0.001 A 
ATOM     10  C   UNL d   1       5.302  -0.933   2.011  0.00  0.00     0.011 A 
ENDBRANCH   4   5
ENDBRANCH   1   3
BRANCH   2  11
ATOM     11  C   UNL d   1      -1.194   0.137  -1.229  0.00  0.00     0.001 C 
ATOM     12  C   UNL d   1      -1.923   0.384  -2.328  0.00  0.00     0.011 C 
BRANCH  12  13
ATOM     13  C   UNL d   1      -3.393   0.460  -2.347  0.00  0.00    -0.036 A 
ATOM     14  C   UNL d   1      -4.134   0.928  -1.252  0.00  0.00     0.011 A 
ATOM     15  C   UNL d   1      -5.525   1.025  -1.320  0.00  0.00     0.001 A 
ATOM     16  C   UNL d   1      -6.194   0.669  -2.489  0.00  0.00     0.000 A 
ATOM     17  C   UNL d   1      -5.470   0.220  -3.591  0.00  0.00     0.001 A 
ATOM     18  C   UNL d   1      -4.077   0.120  -3.522  0.00  0.00     0.011 A 
ENDBRANCH  12  13
ENDBRANCH   2  11
TORSDOF 4
