REMARK  5 active torsions:
REMARK  status: ('A' for Active; 'I' for Inactive)
REMARK    1  A    between atoms: S_8  and  C_3 
REMARK    2  A    between atoms: O_16  and  C_4 
REMARK    3  A    between atoms: C_12  and  S_8 
REMARK    4  A    between atoms: C_9  and  C_12 
REMARK    5  A    between atoms: C_11  and  C_9 
ROOT
ATOM      1  N   UNL d   1      -4.465   0.579  -2.660  0.00  0.00    -0.318 N 
ATOM      2  HN  UNL d   1      -4.624   1.496  -2.243  1.00  0.00     0.170 HD
ATOM      3  C   UNL d   1      -3.708  -0.353  -2.075  0.00  0.00     0.146 A 
ATOM      4  C   UNL d   1      -4.998   0.225  -3.829  0.00  0.00     0.143 A 
ATOM      5  N   UNL d   1      -3.457  -1.569  -2.591  0.00  0.00    -0.341 N 
ATOM      6  HN  UNL d   1      -2.863  -2.239  -2.102  1.00  0.00     0.167 HD
ATOM      7  C   UNL d   1      -4.822  -0.979  -4.457  0.00  0.00     0.080 A 
ATOM      8  C   UNL d   1      -4.022  -1.870  -3.782  0.00  0.00     0.011 A 
ATOM      9  C   UNL d   1      -3.732  -3.229  -4.341  0.00  0.00     0.068 C 
ENDROOT
BRANCH   3  10
ATOM     10  S   UNL d   1      -3.009  -0.026  -0.474  0.00  0.00    -0.086 SA
BRANCH  10  11
ATOM     11  C   UNL d   1      -3.723   1.602  -0.081  0.00  0.00     0.166 C 
BRANCH  11  12
ATOM     12  C   UNL d   1      -5.239   1.619  -0.043  0.00  0.00     0.169 C 
ATOM     13  O   UNL d   1      -5.891   2.457  -0.670  0.00  0.00    -0.291 OA
BRANCH  12  14
ATOM     14  C   UNL d   1      -5.978   0.635   0.797  0.00  0.00     0.011 A 
ATOM     15  C   UNL d   1      -5.462   0.150   2.006  0.00  0.00     0.018 A 
ATOM     16  C   UNL d   1      -6.175  -0.812   2.727  0.00  0.00     0.043 A 
ATOM     17  C   UNL d   1      -7.395  -1.272   2.243  0.00  0.00     0.116 A 
ATOM     18  C   UNL d   1      -7.931  -0.774   1.061  0.00  0.00     0.043 A 
ATOM     19  F   UNL d   1      -8.062  -2.212   2.925  0.00  0.00    -0.206 F 
ATOM     20  C   UNL d   1      -7.226   0.189   0.339  0.00  0.00     0.018 A 
ENDBRANCH  12  14
ENDBRANCH  11  12
ENDBRANCH  10  11
ENDBRANCH   3  10
BRANCH   4  21
ATOM     21  O   UNL d   1      -5.800   1.170  -4.385  0.00  0.00    -0.346 OA
ATOM     22  H   UNL d   1      -5.776   1.861  -3.697  0.00  0.00     0.219 HD
ENDBRANCH   4  21
TORSDOF 5
