REMARK  1 active torsions:
REMARK  status: ('A' for Active; 'I' for Inactive)
REMARK    1  A    between atoms: C_2  and  C_1 
REMARK       I    between atoms: N_6  and  C_2 
ROOT
ATOM      1  C   UNL d   1       0.003  -1.267   0.556  0.00  0.00     0.041 C 
ATOM      2  C   UNL d   1      -0.059  -0.007   1.435  0.00  0.00     0.028 C 
ATOM      3  C   UNL d   1       0.012   1.258   0.574  0.00  0.00    -0.043 C 
ATOM      4  C   UNL d   1      -1.216  -1.314  -0.386  0.00  0.00     0.019 C 
ATOM      5  C   UNL d   1       1.333  -1.280  -0.233  0.00  0.00     0.019 C 
ATOM      6  C   UNL d   1      -1.192   1.327  -0.386  0.00  0.00     0.009 C 
ATOM      7  C   UNL d   1       1.350   1.278  -0.199  0.00  0.00     0.009 C 
ATOM      8  C   UNL d   1      -1.836   0.012  -0.821  0.00  0.00     0.002 C 
ATOM      9  C   UNL d   1       1.649   0.007  -0.986  0.00  0.00     0.002 C 
ATOM     10  C   UNL d   1      -0.020   2.503   1.485  0.00  0.00     0.015 C 
ENDROOT
BRANCH   1  11
ATOM     11  C   UNL d   1      -0.018  -2.513   1.464  0.00  0.00     0.224 C 
ATOM     12  O   UNL d   1      -0.064  -2.480   2.684  0.00  0.00    -0.273 OA
ATOM     13  N   UNL d   1       0.005  -3.723   0.822  0.00  0.00    -0.369 N 
ATOM     14  H   UNL d   1      -0.028  -3.822  -0.184  0.00  0.00     0.159 HD
ATOM     15  H   UNL d   1      -0.036  -4.554   1.393  0.00  0.00     0.159 HD
ENDBRANCH   1  11
TORSDOF 1
