REMARK  0 active torsions:
REMARK  status: ('A' for Active; 'I' for Inactive)
ROOT
ATOM      1  N   UNL d   1       0.008   2.864  -0.008  0.00  0.00    -0.355 N 
ATOM      2  C   UNL d   1      -0.712   0.756  -0.003  0.00  0.00     0.004 A 
ATOM      3  C   UNL d   1       0.720   0.754   0.007  0.00  0.00     0.004 A 
ATOM      4  C   UNL d   1      -1.127   2.087  -0.013  0.00  0.00     0.043 A 
ATOM      5  C   UNL d   1       1.140   2.083   0.009  0.00  0.00     0.043 A 
ATOM      6  C   UNL d   1      -1.692  -0.258  -0.003  0.00  0.00     0.033 A 
ATOM      7  C   UNL d   1       1.696  -0.265   0.017  0.00  0.00     0.033 A 
ATOM      8  C   UNL d   1       2.490   2.453   0.026  0.00  0.00     0.031 A 
ATOM      9  C   UNL d   1      -2.476   2.463  -0.025  0.00  0.00     0.031 A 
ATOM     10  C   UNL d   1       3.047   0.093   0.032  0.00  0.00     0.011 A 
ATOM     11  C   UNL d   1      -3.043   0.105  -0.011  0.00  0.00     0.011 A 
ATOM     12  C   UNL d   1       3.442   1.429   0.038  0.00  0.00     0.021 A 
ATOM     13  C   UNL d   1      -3.432   1.442  -0.023  0.00  0.00     0.021 A 
ATOM     14 BR   UNL d   1       4.364  -1.267   0.044  0.00  0.00    -0.051 Br
ATOM     15 BR   UNL d   1      -4.365  -1.250  -0.005  0.00  0.00    -0.051 Br
ATOM     16  H   UNL d   1       0.010   3.873  -0.013  0.00  0.00     0.166 HD
ENDROOT
TORSDOF 0
