REMARK  6 active torsions:
REMARK  status: ('A' for Active; 'I' for Inactive)
REMARK    1  A    between atoms: C_2  and  N_1 
REMARK    2  A    between atoms: C_9  and  C_3 
REMARK    3  A    between atoms: O_14  and  C_5 
REMARK    4  A    between atoms: O_15  and  C_7 
REMARK    5  A    between atoms: C_10  and  C_9 
REMARK    6  A    between atoms: O_13  and  C_10 
ROOT
ATOM      1  C   UNL d   1       0.185  -1.171  -0.697  0.00  0.00     0.112 A 
ATOM      2  C   UNL d   1       0.729  -2.385  -0.235  0.00  0.00    -0.012 A 
ATOM      3  C   UNL d   1      -0.989  -1.135  -1.454  0.00  0.00     0.076 A 
ATOM      4  C   UNL d   1      -1.647  -2.323  -1.786  0.00  0.00     0.103 A 
ATOM      5  C   UNL d   1       0.048  -3.570  -0.580  0.00  0.00     0.049 A 
ATOM      6  C   UNL d   1      -1.116  -3.558  -1.371  0.00  0.00     0.102 A 
ENDROOT
BRANCH   2   7
ATOM      7  C   UNL d   1       2.015  -2.490   0.562  0.00  0.00     0.151 C 
BRANCH   7   8
ATOM      8  C   UNL d   1       1.995  -1.782   1.898  0.00  0.00     0.143 C 
ATOM      9  O   UNL d   1       0.981  -1.521   2.530  0.00  0.00    -0.650 OA
BRANCH   8  10
ATOM     10  O   UNL d   1       3.230  -1.500   2.372  0.00  0.00    -0.776 OA
ATOM     11  H   UNL d   1       3.964  -1.712   1.762  0.00  0.00     0.167 HD
ENDBRANCH   8  10
ENDBRANCH   7   8
ENDBRANCH   2   7
BRANCH   1  12
ATOM     12  N   UNL d   1       0.871   0.097  -0.476  0.00  0.00    -0.115 N 
ATOM     13  O   UNL d   1       2.065   0.149  -0.791  0.00  0.00    -0.532 OA
ATOM     14  O   UNL d   1       0.206   1.035  -0.015  0.00  0.00    -0.532 OA
ENDBRANCH   1  12
BRANCH   6  15
ATOM     15  O   UNL d   1      -1.742  -4.696  -1.803  0.00  0.00    -0.353 OA
ATOM     16  C   UNL d   1      -1.173  -5.954  -1.464  0.00  0.00     0.210 C 
ENDBRANCH   6  15
BRANCH   4  17
ATOM     17  O   UNL d   1      -2.748  -2.122  -2.579  0.00  0.00    -0.353 OA
ATOM     18  C   UNL d   1      -3.814  -3.055  -2.449  0.00  0.00     0.210 C 
ENDBRANCH   4  17
TORSDOF 6
