REMARK  1 active torsions:
REMARK  status: ('A' for Active; 'I' for Inactive)
REMARK    1  A    between atoms: C_6  and  N_5 
ROOT
ATOM      1  C   UNL d   1       2.913   2.417  -0.039  0.00  0.00     0.045 A 
ATOM      2  C   UNL d   1       3.585   3.067   1.044  0.00  0.00     0.001 A 
ATOM      3  C   UNL d   1       5.006   3.106   1.047  0.00  0.00    -0.024 A 
ATOM      4  C   UNL d   1       3.688   1.848  -1.067  0.00  0.00     0.030 A 
ATOM      5  C   UNL d   1       5.076   1.899  -1.054  0.00  0.00     0.003 A 
ATOM      6  C   UNL d   1       2.927   3.675   2.144  0.00  0.00     0.014 A 
ATOM      7  C   UNL d   1       5.730   2.520   0.002  0.00  0.00     0.012 A 
ATOM      8  C   UNL d   1       5.701   3.720   2.101  0.00  0.00     0.012 A 
ATOM      9  C   UNL d   1       3.633   4.293   3.181  0.00  0.00     0.001 A 
ATOM     10  C   UNL d   1       5.020   4.313   3.161  0.00  0.00     0.001 A 
ENDROOT
BRANCH   1  11
ATOM     11  N   UNL d   1       1.504   2.264  -0.032  0.00  0.00    -0.336 N 
ATOM     12  C   UNL d   1       0.781   1.283  -0.625  0.00  0.00     0.149 A 
ATOM     13  N   UNL d   1       1.255   0.229  -1.252  0.00  0.00    -0.340 N 
ATOM     14  S   UNL d   1      -0.946   1.332  -0.557  0.00  0.00    -0.064 SA
ATOM     15  C   UNL d   1       0.245  -0.580  -1.731  0.00  0.00     0.014 A 
ATOM     16  HN  UNL d   1       2.249   0.032  -1.370  1.00  0.00     0.167 HD
ATOM     17  C   UNL d   1       0.619  -1.807  -2.478  0.00  0.00     0.068 C 
ATOM     18  C   UNL d   1      -1.027  -0.134  -1.441  0.00  0.00     0.077 A 
ATOM     19  H   UNL d   1       0.996   2.972   0.478  0.00  0.00     0.168 HD
ENDBRANCH   1  11
TORSDOF 1
