REMARK  6 active torsions:
REMARK  status: ('A' for Active; 'I' for Inactive)
REMARK    1  A    between atoms: S_2  and  C_1 
REMARK    2  A    between atoms: C_3  and  S_2 
REMARK    3  A    between atoms: C_6  and  C_5 
REMARK    4  A    between atoms: O_12  and  C_6 
REMARK    5  A    between atoms: C_21  and  C_9 
REMARK    6  A    between atoms: O_16  and  C_21 
ROOT
ATOM      1  C   UNL d   1       1.894  -1.442   1.377  0.00  0.00     0.017 A 
ATOM      2  C   UNL d   1       2.419  -0.228   0.792  0.00  0.00     0.008 A 
ATOM      3  C   UNL d   1       3.051   0.002  -0.488  0.00  0.00     0.050 A 
ATOM      4  C   UNL d   1       2.277   0.948   1.598  0.00  0.00    -0.024 A 
ATOM      5  C   UNL d   1       1.347  -1.444   2.684  0.00  0.00     0.020 A 
ATOM      6  C   UNL d   1       3.456   1.285  -0.910  0.00  0.00     0.019 A 
ATOM      7  C   UNL d   1       1.254  -0.280   3.429  0.00  0.00     0.002 A 
ATOM      8  C   UNL d   1       3.268   2.385  -0.100  0.00  0.00     0.002 A 
ATOM      9  C   UNL d   1       1.698   0.908   2.875  0.00  0.00     0.012 A 
ATOM     10  C   UNL d   1       2.683   2.211   1.145  0.00  0.00     0.012 A 
ENDROOT
BRANCH   1  11
ATOM     11  S   UNL d   1       1.649  -3.021   0.555  0.00  0.00    -0.089 SA
BRANCH  11  12
ATOM     12  C   UNL d   1       3.269  -3.731   0.245  0.00  0.00     0.017 A 
ATOM     13  C   UNL d   1       3.550  -4.592  -0.902  0.00  0.00    -0.000 A 
ATOM     14  C   UNL d   1       2.672  -5.064  -1.973  0.00  0.00    -0.022 A 
ATOM     15  C   UNL d   1       4.907  -5.039  -0.994  0.00  0.00    -0.024 A 
ATOM     16  C   UNL d   1       3.182  -5.878  -3.013  0.00  0.00     0.010 A 
ATOM     17  C   UNL d   1       4.503  -6.281  -3.044  0.00  0.00     0.002 A 
ATOM     18  C   UNL d   1       5.352  -5.861  -2.037  0.00  0.00     0.012 A 
ATOM     19  C   UNL d   1       5.873  -4.679  -0.043  0.00  0.00     0.012 A 
ATOM     20  C   UNL d   1       5.560  -3.893   1.049  0.00  0.00     0.002 A 
ATOM     21  C   UNL d   1       4.263  -3.435   1.201  0.00  0.00     0.020 A 
BRANCH  14  22
ATOM     22  C   UNL d   1       1.216  -4.657  -2.130  0.00  0.00     0.203 C 
BRANCH  22  23
ATOM     23  O   UNL d   1       0.478  -5.585  -2.945  0.00  0.00    -0.396 OA
ATOM     24  H   UNL d   1      -0.336  -5.123  -3.200  0.00  0.00     0.209 HD
ENDBRANCH  22  23
ENDBRANCH  14  22
ENDBRANCH  11  12
ENDBRANCH   1  11
BRANCH   3  25
ATOM     25  C   UNL d   1       3.285  -1.023  -1.525  0.00  0.00     0.177 C 
ATOM     26  O   UNL d   1       2.378  -1.609  -2.098  0.00  0.00    -0.646 OA
BRANCH  25  27
ATOM     27  O   UNL d   1       4.585  -1.108  -1.892  0.00  0.00    -0.773 OA
ATOM     28  H   UNL d   1       5.201  -0.530  -1.404  0.00  0.00     0.167 HD
ENDBRANCH  25  27
ENDBRANCH   3  25
TORSDOF 6
