REMARK  8 active torsions:
REMARK  status: ('A' for Active; 'I' for Inactive)
REMARK    1  A    between atoms: S_18  and  C_5 
REMARK    2  A    between atoms: C_12  and  C_10 
REMARK    3  A    between atoms: C_16  and  C_11 
REMARK    4  A    between atoms: C_13  and  C_14 
REMARK    5  A    between atoms: C_14  and  O_25 
REMARK    6  A    between atoms: C_29  and  S_18 
REMARK    7  A    between atoms: O_25  and  C_30 
REMARK    8  A    between atoms: C_30  and  C_29 
ROOT
ATOM      1  N   UNL d   1       0.303   0.662   0.063  0.00  0.00    -0.233 N 
ATOM      2  C   UNL d   1       0.141  -0.728   0.048  0.00  0.00     0.130 A 
ATOM      3  N   UNL d   1       1.623   0.994   0.040  0.00  0.00    -0.295 N 
ATOM      4  HN  UNL d   1       2.022   1.933   0.055  1.00  0.00     0.187 HD
ATOM      5  C   UNL d   1      -0.830   1.500   0.091  0.00  0.00     0.097 A 
ATOM      6  N   UNL d   1      -1.081  -1.333   0.068  0.00  0.00    -0.337 N 
ATOM      7  HN  UNL d   1      -1.172  -2.349   0.070  1.00  0.00     0.167 HD
ATOM      8  C   UNL d   1       1.403  -1.265   0.013  0.00  0.00     0.077 A 
ATOM      9  C   UNL d   1      -2.057   0.948   0.082  0.00  0.00     0.073 A 
ATOM     10  C   UNL d   1      -2.132  -0.555   0.086  0.00  0.00     0.120 A 
ATOM     11  C   UNL d   1       2.290  -0.166  -0.005  0.00  0.00     0.037 A 
ENDROOT
BRANCH   5  12
ATOM     12  S   UNL d   1      -0.669   3.236   0.030  0.00  0.00    -0.108 SA
BRANCH  12  13
ATOM     13  C   UNL d   1       0.302   3.599   1.534  0.00  0.00     0.108 C 
BRANCH  13  14
ATOM     14  C   UNL d   1       0.565   5.106   1.639  0.00  0.00     0.189 C 
BRANCH  14  15
ATOM     15  O   UNL d   1       1.369   5.425   2.795  0.00  0.00    -0.316 OA
BRANCH  15  16
ATOM     16  C   UNL d   1       0.674   5.569   3.964  0.00  0.00     0.300 C 
ATOM     17  O   UNL d   1      -0.532   5.370   4.058  0.00  0.00    -0.259 OA
BRANCH  16  18
ATOM     18  C   UNL d   1       1.562   5.976   5.040  0.00  0.00     0.080 A 
ATOM     19  S   UNL d   1       0.913   6.143   6.624  0.00  0.00    -0.096 SA
ATOM     20  C   UNL d   1       2.428   6.575   7.283  0.00  0.00     0.050 A 
ATOM     21  C   UNL d   1       3.414   6.614   6.326  0.00  0.00     0.009 A 
ATOM     22  C   UNL d   1       2.914   6.277   5.029  0.00  0.00     0.025 A 
ENDBRANCH  16  18
ENDBRANCH  15  16
ENDBRANCH  14  15
ENDBRANCH  13  14
ENDBRANCH  12  13
ENDBRANCH   5  12
BRANCH  10  23
ATOM     23  C   UNL d   1      -3.530  -1.183   0.120  0.00  0.00     0.432 C 
ATOM     24  F   UNL d   1      -4.526  -0.254   0.129  0.00  0.00    -0.165 F 
ATOM     25  F   UNL d   1      -3.765  -1.982  -0.957  0.00  0.00    -0.165 F 
ATOM     26  F   UNL d   1      -3.719  -1.952   1.226  0.00  0.00    -0.165 F 
ENDBRANCH  10  23
BRANCH  11  27
ATOM     27  C   UNL d   1       3.809  -0.188  -0.017  0.00  0.00    -0.007 C 
ATOM     28  C   UNL d   1       4.331  -0.219   1.433  0.00  0.00     0.021 C 
ATOM     29  C   UNL d   1       4.342  -1.430  -0.761  0.00  0.00     0.021 C 
ATOM     30  C   UNL d   1       4.387   1.059  -0.721  0.00  0.00     0.021 C 
ENDBRANCH  11  27
TORSDOF 8
