REMARK  8 active torsions:
REMARK  status: ('A' for Active; 'I' for Inactive)
REMARK    1  A    between atoms: C_3  and  C_1 
REMARK    2  A    between atoms: C_2  and  C_4 
REMARK    3  A    between atoms: C_6  and  C_5 
REMARK       I    between atoms: N_14  and  C_6 
REMARK    4  A    between atoms: O_24  and  C_10 
REMARK    5  A    between atoms: O_25  and  C_11 
REMARK    6  A    between atoms: C_26  and  N_14 
REMARK    7  A    between atoms: C_22  and  C_27 
REMARK    8  A    between atoms: C_27  and  C_26 
ROOT
ATOM      1  C   UNL d   1      -0.110   1.021   4.805  0.00  0.00     0.251 C 
ATOM      2  O   UNL d   1      -0.082   2.201   4.491  0.00  0.00    -0.268 OA
ATOM      3  N   UNL d   1      -0.116   0.570   6.113  0.00  0.00    -0.357 N 
ATOM      4  H   UNL d   1       0.136  -0.393   6.292  0.00  0.00     0.162 HD
ENDROOT
BRANCH   1   5
ATOM      5  C   UNL d   1      -0.068  -0.035   3.753  0.00  0.00     0.033 A 
ATOM      6  C   UNL d   1       0.602   0.246   2.554  0.00  0.00     0.033 A 
ATOM      7  C   UNL d   1       0.732  -0.736   1.559  0.00  0.00     0.049 A 
ATOM      8  C   UNL d   1       0.153  -1.998   1.772  0.00  0.00     0.032 A 
ATOM      9  C   UNL d   1      -0.539  -2.289   2.960  0.00  0.00     0.049 A 
ATOM     10  C   UNL d   1      -0.655  -1.292   3.943  0.00  0.00     0.033 A 
BRANCH   7  11
ATOM     11  C   UNL d   1       1.521  -0.442   0.304  0.00  0.00     0.417 C 
ATOM     12  F   UNL d   1       1.626  -1.516  -0.527  0.00  0.00    -0.166 F 
ATOM     13  F   UNL d   1       2.798  -0.059   0.577  0.00  0.00    -0.166 F 
ATOM     14  F   UNL d   1       0.975   0.556  -0.440  0.00  0.00    -0.166 F 
ENDBRANCH   7  11
BRANCH   9  15
ATOM     15  C   UNL d   1      -1.118  -3.663   3.208  0.00  0.00     0.417 C 
ATOM     16  F   UNL d   1      -0.883  -4.543   2.196  0.00  0.00    -0.166 F 
ATOM     17  F   UNL d   1      -0.598  -4.235   4.330  0.00  0.00    -0.166 F 
ATOM     18  F   UNL d   1      -2.465  -3.640   3.387  0.00  0.00    -0.166 F 
ENDBRANCH   9  15
ENDBRANCH   1   5
BRANCH   3  19
ATOM     19  C   UNL d   1      -0.013   1.517   7.211  0.00  0.00     0.127 C 
BRANCH  19  20
ATOM     20  C   UNL d   1      -0.033   0.814   8.570  0.00  0.00     0.058 C 
BRANCH  20  21
ATOM     21  C   UNL d   1       0.032   1.796   9.711  0.00  0.00    -0.054 A 
ATOM     22  C   UNL d   1      -1.151   2.313  10.265  0.00  0.00     0.046 A 
ATOM     23  C   UNL d   1      -1.125   3.271  11.291  0.00  0.00     0.102 A 
ATOM     24  C   UNL d   1       0.120   3.698  11.784  0.00  0.00     0.101 A 
ATOM     25  C   UNL d   1       1.299   3.191  11.221  0.00  0.00     0.040 A 
ATOM     26  C   UNL d   1       1.260   2.247  10.196  0.00  0.00     0.010 A 
BRANCH  23  27
ATOM     27  O   UNL d   1      -2.258   3.841  11.809  0.00  0.00    -0.353 OA
ATOM     28  C   UNL d   1      -3.514   3.422  11.292  0.00  0.00     0.210 C 
ENDBRANCH  23  27
BRANCH  24  29
ATOM     29  O   UNL d   1       0.357   4.640  12.753  0.00  0.00    -0.353 OA
ATOM     30  C   UNL d   1      -0.605   4.753  13.793  0.00  0.00     0.210 C 
ENDBRANCH  24  29
ENDBRANCH  20  21
ENDBRANCH  19  20
ENDBRANCH   3  19
TORSDOF 8
