REMARK  4 active torsions:
REMARK  status: ('A' for Active; 'I' for Inactive)
REMARK    1  A    between atoms: S_5  and  C_1 
REMARK    2  A    between atoms: C_16  and  S_5 
REMARK    3  A    between atoms: C_6  and  N_11 
REMARK    4  A    between atoms: C_8  and  C_16 
REMARK       I    between atoms: N_11  and  C_8 
ROOT
ATOM      1  C   UNL d   1       2.620   4.370  -0.142  0.00  0.00     0.227 C 
ATOM      2  N   UNL d   1       1.738   5.382   0.167  0.00  0.00    -0.355 N 
ATOM      3  O   UNL d   1       2.242   3.216  -0.345  0.00  0.00    -0.273 OA
ATOM      4  H   UNL d   1       2.108   6.320   0.275  0.00  0.00     0.162 HD
ENDROOT
BRANCH   1   5
ATOM      5  C   UNL d   1       4.075   4.773  -0.329  0.00  0.00     0.185 C 
BRANCH   5   6
ATOM      6  S   UNL d   1       4.612   6.059   0.847  0.00  0.00    -0.084 SA
BRANCH   6   7
ATOM      7  C   UNL d   1       6.245   6.282   0.308  0.00  0.00     0.146 A 
ATOM      8  N   UNL d   1       7.164   7.057   0.966  0.00  0.00    -0.341 N 
ATOM      9  C   UNL d   1       8.321   7.028   0.229  0.00  0.00     0.109 A 
ATOM     10  C   UNL d   1       6.999   7.788   2.198  0.00  0.00     0.158 C 
ATOM     11  C   UNL d   1       8.045   6.207  -0.840  0.00  0.00     0.107 A 
ATOM     12  N   UNL d   1       6.754   5.752  -0.781  0.00  0.00    -0.345 N 
ATOM     13  HN  UNL d   1       6.287   5.133  -1.443  1.00  0.00     0.167 HD
ENDBRANCH   6   7
ENDBRANCH   5   6
ENDBRANCH   1   5
BRANCH   2  14
ATOM     14  C   UNL d   1       0.306   5.149   0.290  0.00  0.00     0.092 C 
ATOM     15  C   UNL d   1      -0.396   4.925  -1.071  0.00  0.00     0.064 C 
ATOM     16  C   UNL d   1      -1.771   5.455  -0.802  0.00  0.00    -0.050 A 
ATOM     17  C   UNL d   1      -2.915   5.279  -1.563  0.00  0.00     0.007 A 
ATOM     18  C   UNL d   1      -1.790   6.246   0.350  0.00  0.00    -0.050 A 
ATOM     19  C   UNL d   1      -4.092   5.906  -1.151  0.00  0.00     0.001 A 
ATOM     20  C   UNL d   1      -4.109   6.705   0.003  0.00  0.00     0.001 A 
ATOM     21  C   UNL d   1      -2.950   6.883   0.761  0.00  0.00     0.007 A 
ATOM     22  C   UNL d   1      -0.432   6.321   0.975  0.00  0.00     0.064 C 
ENDBRANCH   2  14
TORSDOF 4
