REMARK  1 active torsions:
REMARK  status: ('A' for Active; 'I' for Inactive)
REMARK    1  A    between atoms: C_8  and  N_4 
ROOT
ATOM      1  C   UNL d   1      -0.464  -1.027  -0.381  0.00  0.00     0.146 C 
ATOM      2  S   UNL d   1       1.282  -1.063  -0.666  0.00  0.00    -0.057 SA
ATOM      3  N   UNL d   1      -0.862   0.257  -0.103  0.00  0.00    -0.357 N 
ATOM      4  N   UNL d   1      -1.305  -2.014  -0.430  0.00  0.00    -0.336 N 
ATOM      5  HN  UNL d   1      -2.284  -1.826  -0.213  1.00  0.00     0.168 HD
ATOM      6  C   UNL d   1       1.436   0.641  -0.305  0.00  0.00     0.004 C 
ATOM      7  C   UNL d   1       0.082   1.334  -0.387  0.00  0.00     0.058 C 
ATOM      8  C   UNL d   1       2.608   1.149   0.101  0.00  0.00     0.029 C 
ATOM      9  C   UNL d   1      -0.118   2.461   0.631  0.00  0.00     0.044 C 
ATOM     10  C   UNL d   1      -0.161   1.859  -1.810  0.00  0.00     0.044 C 
ATOM     11  H   UNL d   1      -1.854   0.431  -0.192  0.00  0.00     0.162 HD
ENDROOT
BRANCH   4  12
ATOM     12  C   UNL d   1      -0.936  -3.330  -0.766  0.00  0.00     0.041 A 
ATOM     13  C   UNL d   1      -1.688  -4.045  -1.726  0.00  0.00    -0.013 A 
ATOM     14  C   UNL d   1      -1.292  -5.352  -2.067  0.00  0.00     0.042 A 
ATOM     15  C   UNL d   1      -2.934  -3.450  -2.332  0.00  0.00     0.052 C 
ATOM     16 CL   UNL d   1      -2.168  -6.300  -3.221  0.00  0.00    -0.084 Cl
ATOM     17  C   UNL d   1      -0.178  -5.950  -1.471  0.00  0.00     0.024 A 
ATOM     18  C   UNL d   1       0.522  -5.270  -0.482  0.00  0.00     0.004 A 
ATOM     19  C   UNL d   1       0.117  -3.990  -0.109  0.00  0.00     0.030 A 
ENDBRANCH   4  12
TORSDOF 1
