REMARK  12 active torsions:
REMARK  status: ('A' for Active; 'I' for Inactive)
REMARK    1  A    between atoms: N_5  and  C_1 
REMARK    2  A    between atoms: C_6  and  C_1 
REMARK    3  A    between atoms: C_12  and  C_1 
REMARK    4  A    between atoms: C_2  and  S_9 
REMARK       I    between atoms: C_3  and  N_5 
REMARK    5  A    between atoms: C_7  and  C_3 
REMARK    6  A    between atoms: C_4  and  S_11 
REMARK       I    between atoms: N_10  and  C_4 
REMARK    7  A    between atoms: O_22  and  C_6 
REMARK    8  A    between atoms: C_8  and  C_7 
REMARK    9  A    between atoms: O_23  and  C_8 
REMARK   10  A    between atoms: S_9  and  C_21 
REMARK   11  A    between atoms: C_20  and  N_10 
REMARK   12  A    between atoms: S_11  and  C_12 
ROOT
ATOM      1  S   UNL d   1       3.335   0.815  -1.554  0.00  0.00    -0.067 SA
ENDROOT
BRANCH   1   2
ATOM      2  C   UNL d   1       3.219   2.402  -0.808  0.00  0.00     0.284 C 
ATOM      3  N   UNL d   1       3.695   3.337  -1.685  0.00  0.00    -0.318 N 
ATOM      4  H   UNL d   1       4.076   2.948  -2.537  0.00  0.00     0.169 HD
ATOM      5  O   UNL d   1       2.792   2.559   0.324  0.00  0.00    -0.260 OA
BRANCH   3   6
ATOM      6  C   UNL d   1       3.571   4.734  -1.598  0.00  0.00     0.035 A 
ATOM      7  C   UNL d   1       2.892   5.382  -0.566  0.00  0.00     0.031 A 
ATOM      8  C   UNL d   1       2.669   6.762  -0.621  0.00  0.00     0.021 A 
ATOM      9  C   UNL d   1       3.115   7.508  -1.714  0.00  0.00     0.009 A 
ATOM     10  C   UNL d   1       3.873   6.878  -2.703  0.00  0.00     0.021 A 
ATOM     11  C   UNL d   1       4.095   5.498  -2.647  0.00  0.00     0.031 A 
BRANCH   9  12
ATOM     12  S   UNL d   1       2.716   9.233  -1.862  0.00  0.00    -0.016 SA
BRANCH  12  13
ATOM     13  C   UNL d   1       0.936   9.130  -2.147  0.00  0.00     0.448 C 
ATOM     14  F   UNL d   1       0.431   7.879  -2.043  0.00  0.00    -0.160 F 
ATOM     15  F   UNL d   1       0.266   9.903  -1.257  0.00  0.00    -0.160 F 
ATOM     16  F   UNL d   1       0.621   9.583  -3.384  0.00  0.00    -0.160 F 
ENDBRANCH  12  13
ENDBRANCH   9  12
ENDBRANCH   3   6
ENDBRANCH   1   2
BRANCH   1  17
ATOM     17  C   UNL d   1       2.478  -0.174  -0.276  0.00  0.00     0.119 C 
BRANCH  17  18
ATOM     18  C   UNL d   1       0.973   0.103  -0.082  0.00  0.00     0.194 C 
BRANCH  18  19
ATOM     19  N   UNL d   1       0.164  -0.275  -1.260  0.00  0.00    -0.346 N 
ATOM     20  C   UNL d   1      -0.155   0.627  -2.239  0.00  0.00     0.227 C 
ATOM     21  O   UNL d   1       0.198   1.807  -2.169  0.00  0.00    -0.273 OA
ATOM     22  H   UNL d   1      -0.111  -1.251  -1.367  0.00  0.00     0.163 HD
BRANCH  20  23
ATOM     23  C   UNL d   1      -1.026   0.189  -3.388  0.00  0.00     0.213 C 
BRANCH  23  24
ATOM     24  C   UNL d   1      -1.140  -1.266  -3.707  0.00  0.00     0.267 C 
ATOM     25  O   UNL d   1      -0.722  -2.187  -3.016  0.00  0.00    -0.265 OA
BRANCH  24  26
ATOM     26  O   UNL d   1      -1.827  -1.401  -4.879  0.00  0.00    -0.326 OA
ATOM     27  C   UNL d   1      -2.077  -2.728  -5.357  0.00  0.00     0.213 C 
ENDBRANCH  24  26
ENDBRANCH  23  24
ENDBRANCH  20  23
ENDBRANCH  18  19
BRANCH  18  28
ATOM     28  C   UNL d   1       0.549  -0.601   1.221  0.00  0.00     0.282 C 
ATOM     29  O   UNL d   1       1.191  -0.547   2.264  0.00  0.00    -0.263 OA
BRANCH  28  30
ATOM     30  O   UNL d   1      -0.637  -1.262   1.093  0.00  0.00    -0.325 OA
ATOM     31  C   UNL d   1      -1.107  -1.865   2.305  0.00  0.00     0.213 C 
ENDBRANCH  28  30
ENDBRANCH  18  28
ENDBRANCH  17  18
ENDBRANCH   1  17
TORSDOF 12
