REMARK  7 active torsions:
REMARK  status: ('A' for Active; 'I' for Inactive)
REMARK    1  A    between atoms: C_4  and  C_1 
REMARK    2  A    between atoms: C_2  and  C_5 
REMARK    3  A    between atoms: C_3  and  C_6 
REMARK    4  A    between atoms: C_10  and  N_12 
REMARK    5  A    between atoms: C_11  and  C_29 
REMARK       I    between atoms: N_12  and  C_11 
REMARK    6  A    between atoms: S_17  and  C_13 
REMARK    7  A    between atoms: C_29  and  S_17 
ROOT
ATOM      1  C   UNL d   1       0.142  -7.971   1.778  0.00  0.00     0.231 C 
ATOM      2  N   UNL d   1      -1.198  -8.111   2.115  0.00  0.00    -0.326 N 
ATOM      3  O   UNL d   1       0.993  -8.846   1.929  0.00  0.00    -0.272 OA
ATOM      4  H   UNL d   1      -1.843  -7.439   1.714  0.00  0.00     0.169 HD
ENDROOT
BRANCH   2   5
ATOM      5  C   UNL d   1      -1.748  -9.164   2.873  0.00  0.00     0.036 A 
ATOM      6  C   UNL d   1      -0.987  -9.923   3.768  0.00  0.00     0.045 A 
ATOM      7  C   UNL d   1      -1.577 -10.930   4.551  0.00  0.00     0.050 A 
ATOM      8  C   UNL d   1      -2.941 -11.207   4.384  0.00  0.00     0.032 A 
ATOM      9  C   UNL d   1      -3.722 -10.461   3.483  0.00  0.00     0.050 A 
ATOM     10  C   UNL d   1      -3.114  -9.422   2.757  0.00  0.00     0.045 A 
BRANCH   7  11
ATOM     11  C   UNL d   1      -0.748 -11.665   5.577  0.00  0.00     0.417 C 
ATOM     12  F   UNL d   1      -1.474 -12.543   6.326  0.00  0.00    -0.166 F 
ATOM     13  F   UNL d   1       0.260 -12.393   5.025  0.00  0.00    -0.166 F 
ATOM     14  F   UNL d   1      -0.162 -10.820   6.470  0.00  0.00    -0.166 F 
ENDBRANCH   7  11
BRANCH   9  15
ATOM     15  C   UNL d   1      -5.183 -10.776   3.277  0.00  0.00     0.417 C 
ATOM     16  F   UNL d   1      -5.665 -11.723   4.128  0.00  0.00    -0.166 F 
ATOM     17  F   UNL d   1      -5.978  -9.683   3.443  0.00  0.00    -0.166 F 
ATOM     18  F   UNL d   1      -5.440 -11.236   2.020  0.00  0.00    -0.166 F 
ENDBRANCH   9  15
ENDBRANCH   2   5
BRANCH   1  19
ATOM     19  C   UNL d   1       0.487  -6.662   1.085  0.00  0.00     0.184 C 
BRANCH  19  20
ATOM     20  S   UNL d   1       0.086  -5.246   2.160  0.00  0.00    -0.103 SA
BRANCH  20  21
ATOM     21  C   UNL d   1       0.581  -3.899   1.103  0.00  0.00     0.070 A 
ATOM     22  C   UNL d   1       0.454  -2.595   1.566  0.00  0.00     0.038 A 
ATOM     23  C   UNL d   1       0.752  -1.541   0.702  0.00  0.00     0.020 A 
ATOM     24  C   UNL d   1       1.173  -1.813  -0.602  0.00  0.00     0.063 A 
ATOM     25  C   UNL d   1       1.311  -3.145  -0.960  0.00  0.00     0.105 A 
ATOM     26  N   UNL d   1       1.018  -4.185  -0.142  0.00  0.00    -0.360 N 
ATOM     27  HN  UNL d   1       1.124  -5.150  -0.456  1.00  0.00     0.166 HD
BRANCH  24  28
ATOM     28  C   UNL d   1       1.425  -0.719  -1.594  0.00  0.00     0.418 C 
ATOM     29  F   UNL d   1       1.808  -1.171  -2.820  0.00  0.00    -0.166 F 
ATOM     30  F   UNL d   1       2.398   0.143  -1.192  0.00  0.00    -0.166 F 
ATOM     31  F   UNL d   1       0.317   0.042  -1.809  0.00  0.00    -0.166 F 
ENDBRANCH  24  28
ENDBRANCH  20  21
ENDBRANCH  19  20
ENDBRANCH   1  19
TORSDOF 7
