REMARK  3 active torsions:
REMARK  status: ('A' for Active; 'I' for Inactive)
REMARK       I    between atoms: N_2  and  C_1 
REMARK    1  A    between atoms: C_3  and  C_1 
REMARK    2  A    between atoms: C_4  and  C_10 
REMARK    3  A    between atoms: O_16  and  C_12 
ROOT
ATOM      1  C   UNL d   1       0.870   0.556  -0.078  0.00  0.00     0.277 C 
ATOM      2  N   UNL d   1      -0.047   0.158   0.934  0.00  0.00    -0.346 N 
ATOM      3  C   UNL d   1      -1.267  -0.583   0.615  0.00  0.00     0.127 C 
ATOM      4  O   UNL d   1       1.902   1.184   0.213  0.00  0.00    -0.265 OA
ATOM      5  C   UNL d   1       0.482   0.021   2.281  0.00  0.00     0.127 C 
ATOM      6  C   UNL d   1      -1.780  -0.835   3.134  0.00  0.00     0.024 C 
ATOM      7  C   UNL d   1      -2.314  -0.675   1.709  0.00  0.00     0.029 C 
ATOM      8  C   UNL d   1      -0.586   0.104   3.362  0.00  0.00     0.029 C 
ENDROOT
BRANCH   6   9
ATOM      9  C   UNL d   1      -1.554  -2.254   3.644  0.00  0.00    -0.021 A 
ATOM     10  C   UNL d   1      -1.989  -2.688   4.916  0.00  0.00     0.074 A 
ATOM     11  C   UNL d   1      -1.823  -4.035   5.296  0.00  0.00     0.037 A 
ATOM     12  C   UNL d   1      -1.232  -4.962   4.448  0.00  0.00     0.003 A 
ATOM     13  C   UNL d   1      -0.793  -4.553   3.196  0.00  0.00     0.001 A 
ATOM     14  C   UNL d   1      -0.939  -3.214   2.811  0.00  0.00     0.010 A 
BRANCH  10  15
ATOM     15  O   UNL d   1      -2.720  -1.983   5.839  0.00  0.00    -0.355 OA
ATOM     16  C   UNL d   1      -2.324  -0.661   6.171  0.00  0.00     0.210 C 
ENDBRANCH  10  15
ENDBRANCH   6   9
BRANCH   1  17
ATOM     17  C   UNL d   1       0.553   0.219  -1.460  0.00  0.00     0.142 A 
ATOM     18  O   UNL d   1      -0.145  -0.927  -1.745  0.00  0.00    -0.317 OA
ATOM     19  C   UNL d   1      -0.370  -0.968  -3.079  0.00  0.00     0.143 A 
ATOM     20  C   UNL d   1       0.239   0.094  -3.688  0.00  0.00     0.027 A 
ATOM     21  C   UNL d   1       0.868   0.837  -2.659  0.00  0.00     0.045 A 
ENDBRANCH   1  17
TORSDOF 3
