REMARK  4 active torsions:
REMARK  status: ('A' for Active; 'I' for Inactive)
REMARK    1  A    between atoms: C_3  and  N_1 
REMARK    2  A    between atoms: C_4  and  C_2 
REMARK       I    between atoms: N_14  and  C_4 
REMARK    3  A    between atoms: N_6  and  N_14 
REMARK    4  A    between atoms: C_19  and  C_18 
ROOT
ATOM      1  C   UNL d   1       1.851  -1.535   2.241  0.00  0.00     0.272 C 
ATOM      2  N   UNL d   1       2.024  -2.081   3.502  0.00  0.00    -0.266 N 
ATOM      3  O   UNL d   1       1.087  -1.987   1.388  0.00  0.00    -0.266 OA
ATOM      4  H   UNL d   1       2.675  -1.700   4.184  0.00  0.00     0.190 HD
ENDROOT
BRANCH   2   5
ATOM      5  N   UNL d   1       1.450  -3.292   3.764  0.00  0.00    -0.308 N 
ATOM      6  C   UNL d   1       1.701  -3.807   4.919  0.00  0.00     0.118 C 
ATOM      7  HN  UNL d   1       0.855  -3.764   3.083  1.00  0.00     0.186 HD
BRANCH   6   8
ATOM      8  C   UNL d   1       1.263  -5.184   5.235  0.00  0.00    -0.017 A 
ATOM      9  C   UNL d   1       1.631  -5.735   6.464  0.00  0.00     0.052 A 
ATOM     10  C   UNL d   1       1.482  -7.097   6.600  0.00  0.00     0.105 A 
ATOM     11  O   UNL d   1       1.934  -7.842   7.647  0.00  0.00    -0.323 OA
ATOM     12  C   UNL d   1       0.936  -7.881   5.605  0.00  0.00     0.105 A 
ATOM     13  C   UNL d   1       1.879  -9.155   7.052  0.00  0.00     0.352 C 
ATOM     14  O   UNL d   1       1.004  -9.207   5.906  0.00  0.00    -0.323 OA
ATOM     15  C   UNL d   1       0.461  -7.344   4.429  0.00  0.00     0.040 A 
ATOM     16  C   UNL d   1       0.640  -5.972   4.238  0.00  0.00     0.016 A 
ENDBRANCH   6   8
ENDBRANCH   2   5
BRANCH   1  17
ATOM     17  C   UNL d   1       2.598  -0.293   1.896  0.00  0.00     0.066 A 
ATOM     18  C   UNL d   1       3.920   0.018   2.235  0.00  0.00     0.118 A 
ATOM     19  C   UNL d   1       4.546   1.193   1.777  0.00  0.00     0.037 A 
ATOM     20  C   UNL d   1       3.845   2.072   0.955  0.00  0.00     0.002 A 
ATOM     21  C   UNL d   1       2.535   1.777   0.588  0.00  0.00     0.001 A 
ATOM     22  C   UNL d   1       1.922   0.607   1.050  0.00  0.00     0.020 A 
BRANCH  18  23
ATOM     23  N   UNL d   1       4.730  -0.861   3.046  0.00  0.00    -0.115 N 
ATOM     24  O   UNL d   1       4.351  -1.050   4.210  0.00  0.00    -0.532 OA
ATOM     25  O   UNL d   1       5.765  -1.308   2.543  0.00  0.00    -0.532 OA
ENDBRANCH  18  23
ENDBRANCH   1  17
TORSDOF 4
