REMARK  8 active torsions:
REMARK  status: ('A' for Active; 'I' for Inactive)
REMARK    1  A    between atoms: C_3  and  C_1 
REMARK       I    between atoms: C_2  and  N_5 
REMARK       I    between atoms: N_7  and  C_2 
REMARK       I    between atoms: N_6  and  C_3 
REMARK    2  A    between atoms: N_5  and  C_4 
REMARK    3  A    between atoms: C_13  and  N_6 
REMARK    4  A    between atoms: C_14  and  N_7 
REMARK    5  A    between atoms: C_8  and  C_13 
REMARK    6  A    between atoms: C_22  and  C_15 
REMARK    7  A    between atoms: C_23  and  C_22 
REMARK    8  A    between atoms: C_24  and  C_23 
ROOT
ATOM      1  C   UNL d   1       2.500  -2.215  -0.224  0.00  0.00     0.325 C 
ATOM      2  N   UNL d   1       1.167  -2.453  -0.413  0.00  0.00    -0.308 N 
ATOM      3  N   UNL d   1       2.989  -0.973  -0.496  0.00  0.00    -0.309 N 
ATOM      4  O   UNL d   1       3.353  -3.065   0.040  0.00  0.00    -0.247 OA
ATOM      5  H   UNL d   1       0.609  -1.680  -0.769  0.00  0.00     0.170 HD
ATOM      6  H   UNL d   1       3.996  -1.041  -0.600  0.00  0.00     0.170 HD
ENDROOT
BRANCH   2   7
ATOM      7  C   UNL d   1       0.595  -3.739  -0.665  0.00  0.00     0.052 C 
ATOM      8  C   UNL d   1      -0.634  -3.853  -1.366  0.00  0.00     0.058 C 
ATOM      9  C   UNL d   1      -0.984  -5.096  -1.927  0.00  0.00     0.019 C 
ATOM     10  C   UNL d   1      -0.201  -6.230  -1.696  0.00  0.00     0.001 C 
ATOM     11  C   UNL d   1       0.900  -6.150  -0.855  0.00  0.00     0.002 C 
ATOM     12  C   UNL d   1       1.288  -4.915  -0.339  0.00  0.00     0.030 C 
BRANCH   8  13
ATOM     13  C   UNL d   1      -1.552  -2.672  -1.510  0.00  0.00     0.253 C 
ATOM     14  N   UNL d   1      -2.884  -2.906  -1.844  0.00  0.00    -0.356 N 
ATOM     15  H   UNL d   1      -3.234  -3.852  -1.827  0.00  0.00     0.162 HD
ATOM     16  O   UNL d   1      -1.131  -1.544  -1.257  0.00  0.00    -0.268 OA
BRANCH  14  17
ATOM     17  C   UNL d   1      -3.859  -1.862  -1.602  0.00  0.00     0.127 C 
BRANCH  17  18
ATOM     18  C   UNL d   1      -5.096  -1.932  -2.444  0.00  0.00     0.003 A 
ATOM     19  C   UNL d   1      -6.162  -2.966  -2.158  0.00  0.00     0.007 A 
ATOM     20  C   UNL d   1      -5.420  -3.002  -3.462  0.00  0.00     0.007 A 
ENDBRANCH  17  18
ENDBRANCH  14  17
ENDBRANCH   8  13
ENDBRANCH   2   7
BRANCH   3  21
ATOM     21  C   UNL d   1       2.448   0.299  -0.681  0.00  0.00     0.036 A 
ATOM     22  C   UNL d   1       1.194   0.707  -0.236  0.00  0.00     0.030 A 
ATOM     23  C   UNL d   1       0.786   2.037  -0.424  0.00  0.00     0.009 A 
ATOM     24  C   UNL d   1       1.611   2.979  -1.059  0.00  0.00    -0.058 A 
ATOM     25  C   UNL d   1       2.876   2.565  -1.482  0.00  0.00     0.009 A 
ATOM     26  C   UNL d   1       3.287   1.242  -1.295  0.00  0.00     0.030 A 
BRANCH  24  27
ATOM     27  C   UNL d   1       1.133   4.411  -1.169  0.00  0.00     0.038 C 
BRANCH  27  28
ATOM     28  C   UNL d   1       1.788   5.266  -2.264  0.00  0.00     0.004 C 
BRANCH  28  29
ATOM     29  C   UNL d   1       1.151   6.654  -2.326  0.00  0.00    -0.004 C 
ATOM     30  C   UNL d   1       1.794   7.522  -3.398  0.00  0.00     0.005 C 
ENDBRANCH  28  29
ENDBRANCH  27  28
ENDBRANCH  24  27
ENDBRANCH   3  21
TORSDOF 8
