REMARK  3 active torsions:
REMARK  status: ('A' for Active; 'I' for Inactive)
REMARK    1  A    between atoms: N_2  and  S_1 
REMARK    2  A    between atoms: C_11  and  S_1 
REMARK    3  A    between atoms: C_5  and  N_4 
ROOT
ATOM      1  N   UNL d   1       0.678  -0.637  -1.263  0.00  0.00    -0.304 N 
ATOM      2  N   UNL d   1       2.669  -1.632  -3.091  0.00  0.00    -0.377 N 
ATOM      3  C   UNL d   1       0.978  -2.101  -1.372  0.00  0.00     0.155 C 
ATOM      4  C   UNL d   1       1.009   0.085  -2.535  0.00  0.00     0.155 C 
ATOM      5  C   UNL d   1       2.461  -0.174  -2.991  0.00  0.00     0.143 C 
ATOM      6  C   UNL d   1       2.449  -2.329  -1.800  0.00  0.00     0.143 C 
ENDROOT
BRANCH   2   7
ATOM      7  C   UNL d   1       3.600  -2.175  -3.980  0.00  0.00     0.044 A 
ATOM      8  C   UNL d   1       3.417  -3.481  -4.528  0.00  0.00     0.017 A 
ATOM      9  C   UNL d   1       4.399  -3.989  -5.410  0.00  0.00     0.046 A 
ATOM     10  C   UNL d   1       2.283  -4.287  -4.263  0.00  0.00     0.018 A 
ATOM     11  C   UNL d   1       4.249  -5.271  -5.925  0.00  0.00     0.054 A 
ATOM     12  N   UNL d   1       5.471  -3.278  -5.785  0.00  0.00    -0.365 N 
ATOM     13  C   UNL d   1       3.160  -6.071  -5.584  0.00  0.00     0.036 A 
ATOM     14  C   UNL d   1       2.170  -5.583  -4.751  0.00  0.00     0.025 A 
ATOM     15 CL   UNL d   1       3.022  -7.665  -6.214  0.00  0.00    -0.084 Cl
ATOM     16  C   UNL d   1       5.607  -2.033  -5.287  0.00  0.00     0.090 A 
ATOM     17  HN  UNL d   1       6.163  -3.667  -6.426  1.00  0.00     0.165 HD
ATOM     18  C   UNL d   1       4.721  -1.452  -4.397  0.00  0.00     0.047 A 
ENDBRANCH   2   7
BRANCH   1  19
ATOM     19  S   UNL d   1       1.122   0.107   0.198  0.00  0.00     0.260 S 
ATOM     20  O   UNL d   1       1.330   1.515  -0.046  0.00  0.00    -0.200 OA
ATOM     21  O   UNL d   1       2.136  -0.705   0.841  0.00  0.00    -0.200 OA
BRANCH  19  22
ATOM     22  C   UNL d   1      -0.382  -0.061   1.135  0.00  0.00     0.079 A 
ATOM     23  C   UNL d   1      -0.581  -1.174   1.958  0.00  0.00     0.025 A 
ATOM     24  C   UNL d   1      -1.776  -1.298   2.668  0.00  0.00     0.002 A 
ATOM     25  C   UNL d   1      -2.757  -0.309   2.567  0.00  0.00     0.000 A 
ATOM     26  C   UNL d   1      -2.537   0.820   1.778  0.00  0.00     0.002 A 
ATOM     27  C   UNL d   1      -1.345   0.952   1.065  0.00  0.00     0.025 A 
ENDBRANCH  19  22
ENDBRANCH   1  19
TORSDOF 3
