REMARK  4 active torsions:
REMARK  status: ('A' for Active; 'I' for Inactive)
REMARK    1  A    between atoms: C_3  and  C_1 
REMARK    2  A    between atoms: C_4  and  C_2 
REMARK    3  A    between atoms: O_8  and  C_3 
REMARK    4  A    between atoms: O_9  and  C_4 
ROOT
ATOM      1  C   UNL d   1       1.494   1.271   0.025  0.00  0.00     0.071 A 
ATOM      2  C   UNL d   1       2.899   1.259  -0.006  0.00  0.00     0.055 A 
ATOM      3  C   UNL d   1       0.813   0.042  -0.011  0.00  0.00     0.024 A 
ATOM      4  I   UNL d   1      -1.284  -0.137  -0.083  0.00  0.00    -0.043 I 
ATOM      5  C   UNL d   1       3.611   0.050  -0.072  0.00  0.00     0.019 A 
ATOM      6  C   UNL d   1       2.924  -1.160  -0.082  0.00  0.00     0.002 A 
ATOM      7  C   UNL d   1       1.530  -1.165  -0.060  0.00  0.00     0.019 A 
ENDROOT
BRANCH   1   8
ATOM      8  C   UNL d   1       0.751   2.532   0.245  0.00  0.00     0.178 C 
ATOM      9  O   UNL d   1       0.035   2.686   1.220  0.00  0.00    -0.646 OA
BRANCH   8  10
ATOM     10  O   UNL d   1       0.862   3.444  -0.739  0.00  0.00    -0.773 OA
ATOM     11  H   UNL d   1       1.715   3.433  -1.236  0.00  0.00     0.167 HD
ENDBRANCH   8  10
ENDBRANCH   1   8
BRANCH   2  12
ATOM     12  C   UNL d   1       3.664   2.510  -0.089  0.00  0.00     0.177 C 
ATOM     13  O   UNL d   1       3.387   3.354  -0.925  0.00  0.00    -0.646 OA
BRANCH  12  14
ATOM     14  O   UNL d   1       4.676   2.596   0.790  0.00  0.00    -0.773 OA
ATOM     15  H   UNL d   1       4.716   1.890   1.464  0.00  0.00     0.167 HD
ENDBRANCH  12  14
ENDBRANCH   2  12
TORSDOF 4
