REMARK  2 active torsions:
REMARK  status: ('A' for Active; 'I' for Inactive)
REMARK    1  A    between atoms: C_11  and  N_1 
REMARK    2  A    between atoms: C_15  and  C_11 
ROOT
ATOM      1  N   UNL d   1       2.756  -1.006  -0.149  0.00  0.00    -0.301 N 
ATOM      2  C   UNL d   1       1.493  -0.494  -0.198  0.00  0.00     0.101 C 
ATOM      3  N   UNL d   1       0.436  -1.222  -0.080  0.00  0.00    -0.344 N 
ATOM      4  HN  UNL d   1       0.518  -2.236  -0.012  1.00  0.00     0.167 HD
ATOM      5  C   UNL d   1       3.692  -0.018   0.008  0.00  0.00     0.227 C 
ATOM      6  C   UNL d   1       1.609   0.979  -0.426  0.00  0.00     0.129 C 
ATOM      7  S   UNL d   1       0.275   1.947   0.283  0.00  0.00    -0.115 SA
ATOM      8  C   UNL d   1       2.963   1.286   0.191  0.00  0.00     0.126 C 
ATOM      9  C   UNL d   1      -0.832  -0.611  -0.044  0.00  0.00     0.050 A 
ATOM     10  C   UNL d   1      -1.057   0.772   0.089  0.00  0.00     0.028 A 
ATOM     11  O   UNL d   1       4.901  -0.155   0.099  0.00  0.00    -0.273 OA
ATOM     12  C   UNL d   1      -1.938  -1.471  -0.054  0.00  0.00     0.031 A 
ATOM     13  C   UNL d   1      -2.369   1.265   0.161  0.00  0.00     0.021 A 
ATOM     14  C   UNL d   1      -3.241  -0.978   0.046  0.00  0.00     0.002 A 
ATOM     15  C   UNL d   1      -3.457   0.393   0.140  0.00  0.00     0.002 A 
ENDROOT
BRANCH   1  16
ATOM     16  C   UNL d   1       3.103  -2.392  -0.391  0.00  0.00     0.190 C 
BRANCH  16  17
ATOM     17  C   UNL d   1       3.360  -2.677  -1.866  0.00  0.00     0.027 A 
ATOM     18  N   UNL d   1       3.240  -1.662  -2.764  0.00  0.00    -0.368 N 
ATOM     19  C   UNL d   1       3.493  -1.938  -4.061  0.00  0.00     0.088 A 
ATOM     20  HN  UNL d   1       2.969  -0.725  -2.467  1.00  0.00     0.165 HD
ATOM     21  C   UNL d   1       3.850  -3.192  -4.525  0.00  0.00     0.017 A 
ATOM     22  C   UNL d   1       3.962  -4.224  -3.603  0.00  0.00     0.003 A 
ATOM     23  C   UNL d   1       3.712  -3.968  -2.256  0.00  0.00     0.027 A 
ENDBRANCH  16  17
ENDBRANCH   1  16
TORSDOF 2
