REMARK  2 active torsions:
REMARK  status: ('A' for Active; 'I' for Inactive)
REMARK    1  A    between atoms: C_6  and  C_3 
REMARK    2  A    between atoms: O_14  and  C_6 
ROOT
ATOM      1  C   UNL d   1      -1.525   0.338   0.107  0.00  0.00     0.071 C 
ATOM      2  C   UNL d   1      -0.724   1.017   1.209  0.00  0.00     0.136 C 
ATOM      3  C   UNL d   1      -0.994   0.837  -1.247  0.00  0.00     0.099 C 
ATOM      4  C   UNL d   1       0.772   0.740   1.166  0.00  0.00     0.056 C 
ATOM      5  C   UNL d   1       0.529   0.533  -1.339  0.00  0.00     0.002 C 
ATOM      6  C   UNL d   1       1.297   1.224  -0.188  0.00  0.00     0.017 C 
ATOM      7  C   UNL d   1       0.222  -1.494   0.142  0.00  0.00    -0.013 C 
ATOM      8  C   UNL d   1      -1.283  -1.177   0.251  0.00  0.00     0.017 C 
ATOM      9  C   UNL d   1       0.965  -0.775   1.286  0.00  0.00     0.017 C 
ATOM     10  C   UNL d   1       0.745  -0.990  -1.214  0.00  0.00     0.010 C 
ATOM     11  O   UNL d   1      -1.255   1.712   2.064  0.00  0.00    -0.297 OA
ENDROOT
BRANCH   3  12
ATOM     12  C   UNL d   1      -1.303   2.307  -1.523  0.00  0.00     0.144 C 
ATOM     13  O   UNL d   1      -0.459   3.168  -1.716  0.00  0.00    -0.650 OA
BRANCH  12  14
ATOM     14  O   UNL d   1      -2.620   2.587  -1.621  0.00  0.00    -0.776 OA
ATOM     15  H   UNL d   1      -3.229   1.837  -1.501  0.00  0.00     0.167 HD
ENDBRANCH  12  14
ENDBRANCH   3  12
TORSDOF 2
