REMARK  7 active torsions:
REMARK  status: ('A' for Active; 'I' for Inactive)
REMARK    1  A    between atoms: N_2  and  S_1 
REMARK    2  A    between atoms: C_7  and  S_1 
REMARK    3  A    between atoms: C_6  and  N_2 
REMARK    4  A    between atoms: C_5  and  C_3 
REMARK    5  A    between atoms: C_4  and  C_8 
REMARK       I    between atoms: N_12  and  C_5 
REMARK    6  A    between atoms: C_20  and  N_12 
REMARK    7  A    between atoms: C_13  and  C_20 
ROOT
ATOM      1  N   UNL d   1       0.570  -0.851  -1.541  0.00  0.00    -0.180 NA
ATOM      2  H   UNL d   1       1.179  -0.552  -0.780  0.00  0.00     0.146 HD
ENDROOT
BRANCH   1   3
ATOM      3  S   UNL d   1       0.497  -2.539  -1.517  0.00  0.00     0.245 S 
ATOM      4  O   UNL d   1      -0.313  -3.026  -2.610  0.00  0.00    -0.206 OA
ATOM      5  O   UNL d   1       0.205  -2.904  -0.145  0.00  0.00    -0.206 OA
BRANCH   3   6
ATOM      6  C   UNL d   1       2.190  -2.997  -1.813  0.00  0.00     0.075 A 
ATOM      7  C   UNL d   1       3.088  -3.016  -0.736  0.00  0.00     0.041 A 
ATOM      8  C   UNL d   1       4.394  -3.494  -0.918  0.00  0.00     0.049 A 
ATOM      9  C   UNL d   1       4.774  -3.951  -2.190  0.00  0.00     0.016 A 
ATOM     10  C   UNL d   1       3.876  -3.919  -3.261  0.00  0.00     0.002 A 
ATOM     11  C   UNL d   1       2.579  -3.443  -3.076  0.00  0.00     0.025 A 
BRANCH   8  12
ATOM     12  C   UNL d   1       5.364  -3.577   0.237  0.00  0.00     0.417 C 
ATOM     13  F   UNL d   1       4.944  -2.902   1.344  0.00  0.00    -0.166 F 
ATOM     14  F   UNL d   1       5.575  -4.860   0.641  0.00  0.00    -0.166 F 
ATOM     15  F   UNL d   1       6.592  -3.072  -0.064  0.00  0.00    -0.166 F 
ENDBRANCH   8  12
ENDBRANCH   3   6
ENDBRANCH   1   3
BRANCH   1  16
ATOM     16  C   UNL d   1       0.766  -0.161  -2.785  0.00  0.00     0.038 A 
ATOM     17  C   UNL d   1       1.890   0.644  -3.029  0.00  0.00     0.054 A 
ATOM     18  C   UNL d   1       2.060   1.253  -4.283  0.00  0.00     0.019 A 
ATOM     19  C   UNL d   1       1.071   1.141  -5.260  0.00  0.00     0.001 A 
ATOM     20  C   UNL d   1      -0.089   0.422  -4.988  0.00  0.00     0.002 A 
ATOM     21  C   UNL d   1      -0.237  -0.232  -3.761  0.00  0.00     0.025 A 
BRANCH  17  22
ATOM     22  C   UNL d   1       2.952   0.897  -2.034  0.00  0.00     0.253 C 
ATOM     23  N   UNL d   1       2.656   1.440  -0.805  0.00  0.00    -0.356 N 
ATOM     24  H   UNL d   1       3.487   1.625  -0.256  0.00  0.00     0.162 HD
ATOM     25  O   UNL d   1       4.122   0.657  -2.329  0.00  0.00    -0.268 OA
BRANCH  23  26
ATOM     26  C   UNL d   1       1.384   1.834  -0.230  0.00  0.00     0.127 C 
BRANCH  26  27
ATOM     27  C   UNL d   1       1.319   3.288   0.087  0.00  0.00     0.003 A 
ATOM     28  C   UNL d   1      -0.003   3.817   0.589  0.00  0.00     0.007 A 
ATOM     29  C   UNL d   1       0.505   4.231  -0.763  0.00  0.00     0.007 A 
ENDBRANCH  26  27
ENDBRANCH  23  26
ENDBRANCH  17  22
ENDBRANCH   1  16
TORSDOF 7
