REMARK  5 active torsions:
REMARK  status: ('A' for Active; 'I' for Inactive)
REMARK    1  A    between atoms: C_5  and  C_1 
REMARK       I    between atoms: C_2  and  N_4 
REMARK    2  A    between atoms: C_3  and  C_2 
REMARK       I    between atoms: N_6  and  C_3 
REMARK    3  A    between atoms: N_4  and  C_7 
REMARK    4  A    between atoms: C_14  and  N_6 
REMARK    5  A    between atoms: C_15  and  C_14 
ROOT
ATOM      1  C   UNL d   1       2.951  -4.750   0.623  0.00  0.00     0.313 C 
ATOM      2  N   UNL d   1       1.602  -5.018   0.501  0.00  0.00    -0.319 N 
ATOM      3  O   UNL d   1       3.904  -5.334   0.128  0.00  0.00    -0.262 OA
ATOM      4  H   UNL d   1       0.995  -4.368   0.996  0.00  0.00     0.169 HD
ENDROOT
BRANCH   1   5
ATOM      5  C   UNL d   1       3.231  -3.519   1.511  0.00  0.00     0.309 C 
ATOM      6  N   UNL d   1       4.566  -3.217   1.636  0.00  0.00    -0.349 N 
ATOM      7  H   UNL d   1       5.218  -3.758   1.073  0.00  0.00     0.163 HD
ATOM      8  O   UNL d   1       2.299  -2.907   2.016  0.00  0.00    -0.262 OA
BRANCH   6   9
ATOM      9  C   UNL d   1       5.016  -2.053   2.352  0.00  0.00     0.161 C 
BRANCH   9  10
ATOM     10  C   UNL d   1       6.511  -2.035   2.535  0.00  0.00    -0.041 A 
ATOM     11  C   UNL d   1       7.275  -0.964   2.050  0.00  0.00     0.009 A 
ATOM     12  C   UNL d   1       8.654  -0.918   2.268  0.00  0.00     0.001 A 
ATOM     13  C   UNL d   1       9.285  -1.943   2.970  0.00  0.00     0.000 A 
ATOM     14  C   UNL d   1       8.540  -3.019   3.449  0.00  0.00     0.001 A 
ATOM     15  C   UNL d   1       7.160  -3.065   3.234  0.00  0.00     0.009 A 
ENDBRANCH   9  10
ENDBRANCH   6   9
ENDBRANCH   1   5
BRANCH   2  16
ATOM     16  C   UNL d   1       1.002  -6.042  -0.255  0.00  0.00     0.035 A 
ATOM     17  C   UNL d   1       1.729  -6.999  -0.966  0.00  0.00     0.045 A 
ATOM     18  C   UNL d   1       1.079  -7.979  -1.736  0.00  0.00     0.050 A 
ATOM     19  C   UNL d   1      -0.322  -7.999  -1.772  0.00  0.00     0.016 A 
ATOM     20  C   UNL d   1      -1.056  -7.057  -1.052  0.00  0.00     0.003 A 
ATOM     21  C   UNL d   1      -0.396  -6.083  -0.298  0.00  0.00     0.029 A 
BRANCH  18  22
ATOM     22  C   UNL d   1       1.872  -8.985  -2.534  0.00  0.00     0.417 C 
ATOM     23  F   UNL d   1       3.220  -8.875  -2.378  0.00  0.00    -0.166 F 
ATOM     24  F   UNL d   1       1.643  -8.876  -3.873  0.00  0.00    -0.166 F 
ATOM     25  F   UNL d   1       1.564 -10.271  -2.207  0.00  0.00    -0.166 F 
ENDBRANCH  18  22
ENDBRANCH   2  16
TORSDOF 5
