REMARK  3 active torsions:
REMARK  status: ('A' for Active; 'I' for Inactive)
REMARK    1  A    between atoms: C_7  and  C_3 
REMARK    2  A    between atoms: N_10  and  N_13 
REMARK    3  A    between atoms: C_19  and  C_18 
ROOT
ATOM      1  C   UNL d   1       0.330  -1.213  -0.020  0.00  0.00     0.164 A 
ATOM      2  S   UNL d   1      -1.020  -0.140  -0.072  0.00  0.00    -0.051 SA
ATOM      3  C   UNL d   1       0.031   1.223   0.000  0.00  0.00     0.034 A 
ATOM      4  N   UNL d   1       1.498  -0.609   0.010  0.00  0.00    -0.344 N 
ATOM      5  HN  UNL d   1       2.399  -1.086   0.035  1.00  0.00     0.167 HD
ATOM      6  C   UNL d   1       1.334   0.758   0.002  0.00  0.00     0.110 A 
ATOM      7  N   UNL d   1       0.145  -2.562   0.008  0.00  0.00    -0.280 N 
ATOM      8  H   UNL d   1      -0.811  -2.897  -0.068  0.00  0.00     0.189 HD
ENDROOT
BRANCH   7   9
ATOM      9  N   UNL d   1       1.105  -3.386   0.516  0.00  0.00    -0.309 N 
ATOM     10  C   UNL d   1       0.845  -4.651   0.564  0.00  0.00     0.118 C 
ATOM     11  HN  UNL d   1       1.996  -3.017   0.848  1.00  0.00     0.186 HD
BRANCH  10  12
ATOM     12  C   UNL d   1       1.822  -5.588   1.159  0.00  0.00    -0.019 A 
ATOM     13  C   UNL d   1       3.014  -5.102   1.714  0.00  0.00     0.014 A 
ATOM     14  C   UNL d   1       3.926  -5.985   2.296  0.00  0.00     0.024 A 
ATOM     15  C   UNL d   1       3.647  -7.350   2.318  0.00  0.00     0.034 A 
ATOM     16  C   UNL d   1       2.464  -7.840   1.764  0.00  0.00     0.024 A 
ATOM     17 CL   UNL d   1       4.768  -8.436   3.040  0.00  0.00    -0.084 Cl
ATOM     18  C   UNL d   1       1.544  -6.958   1.181  0.00  0.00     0.014 A 
ENDBRANCH  10  12
ENDBRANCH   7   9
BRANCH   3  19
ATOM     19  C   UNL d   1      -0.460   2.609   0.072  0.00  0.00    -0.015 A 
ATOM     20  C   UNL d   1      -1.676   3.008  -0.501  0.00  0.00     0.052 A 
ATOM     21  C   UNL d   1      -2.113   4.338  -0.433  0.00  0.00     0.102 A 
ATOM     22  O   UNL d   1      -3.298   4.592  -1.081  0.00  0.00    -0.348 OA
ATOM     23  C   UNL d   1      -1.359   5.287   0.263  0.00  0.00     0.102 A 
ATOM     24  C   UNL d   1      -3.326   5.867  -1.724  0.00  0.00     0.178 C 
ATOM     25  C   UNL d   1      -3.770   6.958  -0.764  0.00  0.00     0.053 C 
ATOM     26  C   UNL d   1      -3.104   6.821   0.594  0.00  0.00     0.178 C 
ATOM     27  O   UNL d   1      -1.699   6.603   0.459  0.00  0.00    -0.348 OA
ATOM     28  C   UNL d   1      -0.133   4.914   0.813  0.00  0.00     0.040 A 
ATOM     29  C   UNL d   1       0.310   3.590   0.720  0.00  0.00     0.016 A 
ENDBRANCH   3  19
TORSDOF 3
