REMARK  10 active torsions:
REMARK  status: ('A' for Active; 'I' for Inactive)
REMARK    1  A    between atoms: C_2  and  C_1 
REMARK    2  A    between atoms: O_6  and  C_1 
REMARK    3  A    between atoms: O_10  and  C_7 
REMARK    4  A    between atoms: C_11  and  O_10 
REMARK    5  A    between atoms: C_12  and  C_11 
REMARK    6  A    between atoms: C_16  and  C_12 
REMARK    7  A    between atoms: C_13  and  C_14 
REMARK    8  A    between atoms: C_14  and  C_15 
REMARK    9  A    between atoms: C_15  and  C_17 
REMARK   10  A    between atoms: C_17  and  C_16 
ROOT
ATOM      1  C   UNL d   1       0.084   0.850   0.918  0.00  0.00     0.037 A 
ATOM      2  C   UNL d   1       0.143   2.239   0.757  0.00  0.00     0.021 A 
ATOM      3  C   UNL d   1      -0.725   0.304   1.920  0.00  0.00     0.021 A 
ATOM      4  C   UNL d   1      -1.462   2.527   2.550  0.00  0.00     0.068 A 
ATOM      5  C   UNL d   1      -1.510   1.142   2.713  0.00  0.00     0.038 A 
ATOM      6  C   UNL d   1      -0.631   3.076   1.572  0.00  0.00     0.038 A 
ENDROOT
BRANCH   4   7
ATOM      7  O   UNL d   1      -2.302   3.229   3.368  0.00  0.00    -0.351 OA
BRANCH   7   8
ATOM      8  C   UNL d   1      -1.871   4.541   3.728  0.00  0.00     0.175 C 
BRANCH   8   9
ATOM      9  C   UNL d   1      -2.912   5.144   4.670  0.00  0.00     0.027 C 
BRANCH   9  10
ATOM     10  C   UNL d   1      -2.508   6.555   5.091  0.00  0.00     0.002 C 
BRANCH  10  11
ATOM     11  C   UNL d   1      -3.542   7.191   6.018  0.00  0.00     0.000 C 
BRANCH  11  12
ATOM     12  C   UNL d   1      -3.115   8.602   6.426  0.00  0.00     0.000 C 
BRANCH  12  13
ATOM     13  C   UNL d   1      -4.144   9.245   7.355  0.00  0.00    -0.000 C 
BRANCH  13  14
ATOM     14  C   UNL d   1      -3.721  10.654   7.766  0.00  0.00    -0.005 C 
ATOM     15  C   UNL d   1      -4.746  11.290   8.691  0.00  0.00     0.005 C 
ENDBRANCH  13  14
ENDBRANCH  12  13
ENDBRANCH  11  12
ENDBRANCH  10  11
ENDBRANCH   9  10
ENDBRANCH   8   9
ENDBRANCH   7   8
ENDBRANCH   4   7
BRANCH   1  16
ATOM     16  C   UNL d   1       0.906  -0.013   0.028  0.00  0.00     0.176 C 
ATOM     17  O   UNL d   1       1.959   0.346  -0.462  0.00  0.00    -0.646 OA
BRANCH  16  18
ATOM     18  O   UNL d   1       0.347  -1.220  -0.217  0.00  0.00    -0.773 OA
ATOM     19  H   UNL d   1      -0.580  -1.312   0.069  0.00  0.00     0.167 HD
ENDBRANCH  16  18
ENDBRANCH   1  16
TORSDOF 10
