REMARK  4 active torsions:
REMARK  status: ('A' for Active; 'I' for Inactive)
REMARK    1  A    between atoms: N_9  and  C_1 
REMARK    2  A    between atoms: C_2  and  C_5 
REMARK    3  A    between atoms: C_10  and  CA_3 
REMARK       I    between atoms: C_5  and  N_9 
REMARK    4  A    between atoms: OXT_18  and  C_10 
ROOT
ATOM      1  C   UNL d   1       1.886  -4.724  -0.341  0.00  0.00     0.134 A 
ATOM      2  CA  UNL d   1       1.675  -6.034   0.066  0.00  0.00     0.139 A 
ATOM      3  N   UNL d   1       2.955  -4.375  -1.128  0.00  0.00    -0.358 N 
ATOM      4  HN  UNL d   1       3.132  -3.411  -1.410  1.00  0.00     0.165 HD
ATOM      5  N   UNL d   1       2.461  -7.075  -0.371  0.00  0.00    -0.357 N 
ATOM      6  HN  UNL d   1       2.269  -8.046  -0.125  1.00  0.00     0.165 HD
ATOM      7  C   UNL d   1       3.509  -6.717  -1.152  0.00  0.00     0.105 A 
ATOM      8  C   UNL d   1       3.760  -5.400  -1.506  0.00  0.00     0.105 A 
ENDROOT
BRANCH   1   9
ATOM      9  C   UNL d   1       0.896  -3.649  -0.077  0.00  0.00     0.276 C 
ATOM     10  N   UNL d   1       1.409  -2.367  -0.168  0.00  0.00    -0.306 N 
ATOM     11  H   UNL d   1       2.252  -2.269  -0.732  0.00  0.00     0.170 HD
ATOM     12  O   UNL d   1      -0.287  -3.928   0.077  0.00  0.00    -0.266 OA
BRANCH  10  13
ATOM     13  C   UNL d   1       0.642  -1.246   0.083  0.00  0.00     0.126 A 
ATOM     14  N   UNL d   1      -0.296  -1.073   1.082  0.00  0.00    -0.281 N 
ATOM     15  N   UNL d   1      -0.822   0.176   1.094  0.00  0.00    -0.302 N 
ATOM     16  C   UNL d   1      -0.626  -1.928   2.200  0.00  0.00     0.179 C 
ATOM     17  C   UNL d   1      -0.222   0.803   0.079  0.00  0.00     0.025 A 
ATOM     18  HN  UNL d   1      -1.521   0.553   1.735  1.00  0.00     0.186 HD
ATOM     19  C   UNL d   1       0.707  -0.034  -0.573  0.00  0.00     0.076 A 
ATOM     20  C   UNL d   1      -0.555   2.215  -0.220  0.00  0.00     0.070 C 
ENDBRANCH  10  13
ENDBRANCH   1   9
BRANCH   2  21
ATOM     21  C   UNL d   1       0.675  -6.417   1.093  0.00  0.00     0.196 C 
ATOM     22  O   UNL d   1       0.321  -5.723   2.027  0.00  0.00    -0.645 OA
BRANCH  21  23
ATOM     23  OXT UNL d   1       0.295  -7.710   0.924  0.00  0.00    -0.772 OA
ATOM     24  HXT UNL d   1       0.827  -8.132   0.213  0.00  0.00     0.167 HD
ENDBRANCH  21  23
ENDBRANCH   2  21
TORSDOF 4
