REMARK  3 active torsions:
REMARK  status: ('A' for Active; 'I' for Inactive)
REMARK    1  A    between atoms: C_2  and  S_1 
REMARK    2  A    between atoms: N_3  and  S_1 
REMARK    3  A    between atoms: C_6  and  N_5 
ROOT
ATOM      1  N   UNL d   1       0.952   1.136  -0.050  0.00  0.00    -0.204 NA
ATOM      2  N   UNL d   1      -0.495   2.524   2.127  0.00  0.00    -0.280 NA
ATOM      3  C   UNL d   1       1.559   2.334   0.651  0.00  0.00     0.122 C 
ATOM      4  C   UNL d   1      -0.547   1.271  -0.002  0.00  0.00     0.122 C 
ATOM      5  C   UNL d   1      -1.048   1.330   1.447  0.00  0.00     0.111 C 
ATOM      6  C   UNL d   1       0.989   2.594   2.084  0.00  0.00     0.111 C 
ENDROOT
BRANCH   1   7
ATOM      7  S   UNL d   1       1.532  -0.406   0.430  0.00  0.00     0.244 S 
ATOM      8  O   UNL d   1       1.951  -0.291   1.802  0.00  0.00    -0.206 OA
ATOM      9  O   UNL d   1       0.559  -1.401   0.028  0.00  0.00    -0.206 OA
BRANCH   7  10
ATOM     10  C   UNL d   1       2.971  -0.688  -0.615  0.00  0.00     0.081 C 
ATOM     11  C   UNL d   1       2.752  -0.822  -1.998  0.00  0.00     0.033 C 
ATOM     12  C   UNL d   1       3.822  -1.078  -2.880  0.00  0.00    -0.039 C 
ATOM     13  C   UNL d   1       3.556  -1.562  -4.278  0.00  0.00     0.050 C 
ATOM     14  C   UNL d   1       5.127  -0.997  -2.386  0.00  0.00     0.040 C 
ATOM     15  C   UNL d   1       5.343  -0.925  -1.013  0.00  0.00     0.032 C 
ATOM     16 CL   UNL d   1       6.505  -1.127  -3.418  0.00  0.00    -0.084 Cl
ATOM     17  C   UNL d   1       4.258  -0.934  -0.115  0.00  0.00    -0.037 C 
ATOM     18  C   UNL d   1       4.562  -1.477   1.254  0.00  0.00     0.050 C 
ENDBRANCH   7  10
ENDBRANCH   1   7
BRANCH   2  19
ATOM     19  C   UNL d   1      -1.030   2.780   3.415  0.00  0.00     0.023 A 
ATOM     20  C   UNL d   1      -1.185   4.103   3.929  0.00  0.00     0.013 A 
ATOM     21  C   UNL d   1      -1.817   4.308   5.161  0.00  0.00     0.044 A 
ATOM     22  C   UNL d   1      -0.857   5.403   3.435  0.00  0.00     0.032 A 
ATOM     23  N   UNL d   1      -1.860   5.665   5.393  0.00  0.00    -0.365 N 
ATOM     24  C   UNL d   1      -2.311   3.267   5.951  0.00  0.00     0.030 A 
ATOM     25  C   UNL d   1      -1.279   6.342   4.351  0.00  0.00     0.089 A 
ATOM     26  H   UNL d   1      -2.271   6.091   6.211  0.00  0.00     0.165 HD
ATOM     27  C   UNL d   1      -2.134   1.973   5.478  0.00  0.00     0.004 A 
ATOM     28  C   UNL d   1      -1.509   1.740   4.252  0.00  0.00     0.024 A 
ENDBRANCH   2  19
TORSDOF 3
