REMARK  10 active torsions:
REMARK  status: ('A' for Active; 'I' for Inactive)
REMARK    1  A    between atoms: N_2  and  C_1 
REMARK    2  A    between atoms: C_3  and  C_1 
REMARK    3  A    between atoms: N_4  and  C_1 
REMARK    4  A    between atoms: C_5  and  C_1 
REMARK       I    between atoms: C_6  and  N_2 
REMARK    5  A    between atoms: C_12  and  N_4 
REMARK    6  A    between atoms: O_14  and  C_5 
REMARK    7  A    between atoms: O_13  and  C_6 
REMARK    8  A    between atoms: C_16  and  C_12 
REMARK    9  A    between atoms: C_22  and  O_13 
REMARK   10  A    between atoms: C_23  and  O_14 
ROOT
ATOM      1  C   UNL d   1       1.076   0.057  -0.096  0.00  0.00     0.418 C 
ENDROOT
BRANCH   1   2
ATOM      2  N   UNL d   1       0.638  -0.635  -1.306  0.00  0.00    -0.286 N 
ATOM      3  C   UNL d   1      -0.638  -1.050  -1.499  0.00  0.00     0.363 C 
ATOM      4  O   UNL d   1      -1.574  -0.819  -0.754  0.00  0.00    -0.238 OA
ATOM      5  H   UNL d   1       1.327  -1.088  -1.893  0.00  0.00     0.168 HD
BRANCH   3   6
ATOM      6  O   UNL d   1      -0.667  -1.829  -2.598  0.00  0.00    -0.304 OA
BRANCH   6   7
ATOM      7  C   UNL d   1      -1.821  -2.673  -2.709  0.00  0.00     0.176 C 
ATOM      8  C   UNL d   1      -1.518  -3.961  -1.967  0.00  0.00     0.034 C 
ENDBRANCH   6   7
ENDBRANCH   3   6
ENDBRANCH   1   2
BRANCH   1   9
ATOM      9  C   UNL d   1       0.695  -0.685   1.252  0.00  0.00     0.453 C 
ATOM     10  F   UNL d   1       0.128  -1.899   1.035  0.00  0.00    -0.166 F 
ATOM     11  F   UNL d   1       1.771  -0.929   2.044  0.00  0.00    -0.166 F 
ATOM     12  F   UNL d   1      -0.168   0.040   2.005  0.00  0.00    -0.166 F 
ENDBRANCH   1   9
BRANCH   1  13
ATOM     13  N   UNL d   1       0.600   1.468  -0.239  0.00  0.00     0.136 N 
ATOM     14  H   UNL d   1       0.892   1.992   0.588  0.00  0.00     0.320 HD
BRANCH  13  15
ATOM     15  C   UNL d   1       1.083   2.153  -1.436  0.00  0.00     0.312 C 
BRANCH  15  16
ATOM     16  C   UNL d   1       0.540   3.560  -1.520  0.00  0.00    -0.030 A 
ATOM     17  C   UNL d   1       1.411   4.660  -1.486  0.00  0.00     0.012 A 
ATOM     18  C   UNL d   1       0.913   5.956  -1.614  0.00  0.00     0.043 A 
ATOM     19  C   UNL d   1      -0.454   6.154  -1.773  0.00  0.00     0.116 A 
ATOM     20  C   UNL d   1      -1.335   5.080  -1.799  0.00  0.00     0.043 A 
ATOM     21  F   UNL d   1      -0.927   7.400  -1.903  0.00  0.00    -0.206 F 
ATOM     22  C   UNL d   1      -0.839   3.782  -1.673  0.00  0.00     0.012 A 
ENDBRANCH  15  16
ENDBRANCH  13  15
ENDBRANCH   1  13
BRANCH   1  23
ATOM     23  C   UNL d   1       2.624   0.044  -0.043  0.00  0.00     0.329 C 
ATOM     24  O   UNL d   1       3.309   0.895   0.515  0.00  0.00    -0.260 OA
BRANCH  23  25
ATOM     25  O   UNL d   1       3.122  -1.025  -0.735  0.00  0.00    -0.318 OA
BRANCH  25  26
ATOM     26  C   UNL d   1       4.511  -0.951  -1.087  0.00  0.00     0.174 C 
ATOM     27  C   UNL d   1       4.575  -0.366  -2.485  0.00  0.00     0.034 C 
ENDBRANCH  25  26
ENDBRANCH  23  25
ENDBRANCH   1  23
TORSDOF 10
