REMARK  8 active torsions:
REMARK  status: ('A' for Active; 'I' for Inactive)
REMARK    1  A    between atoms: C_2  and  N_1 
REMARK    2  A    between atoms: C_3  and  N_9 
REMARK    3  A    between atoms: N_4  and  C_3 
REMARK    4  A    between atoms: C_6  and  N_4 
REMARK    5  A    between atoms: C_5  and  C_16 
REMARK       I    between atoms: N_10  and  C_5 
REMARK    6  A    between atoms: S_11  and  C_8 
REMARK    7  A    between atoms: N_9  and  N_10 
REMARK    8  A    between atoms: C_16  and  S_11 
ROOT
ATOM      1  C   UNL d   1       4.441   1.912  -0.519  0.00  0.00     0.245 C 
ATOM      2  N   UNL d   1       4.888   3.045   0.121  0.00  0.00    -0.267 N 
ATOM      3  O   UNL d   1       5.178   1.393  -1.358  0.00  0.00    -0.271 OA
ATOM      4  H   UNL d   1       5.771   3.438  -0.197  0.00  0.00     0.190 HD
ENDROOT
BRANCH   2   5
ATOM      5  N   UNL d   1       4.190   3.724   1.113  0.00  0.00    -0.274 N 
ATOM      6  H   UNL d   1       3.881   3.188   1.919  0.00  0.00     0.189 HD
BRANCH   5   7
ATOM      7  C   UNL d   1       4.212   5.102   1.191  0.00  0.00     0.191 C 
ATOM      8  S   UNL d   1       4.661   6.131  -0.045  0.00  0.00    -0.039 SA
BRANCH   7   9
ATOM      9  N   UNL d   1       3.719   5.633   2.354  0.00  0.00    -0.331 N 
ATOM     10  H   UNL d   1       3.344   6.576   2.277  0.00  0.00     0.168 HD
BRANCH   9  11
ATOM     11  C   UNL d   1       3.858   5.147   3.676  0.00  0.00     0.056 A 
ATOM     12  C   UNL d   1       3.016   5.639   4.687  0.00  0.00     0.060 A 
ATOM     13 CL   UNL d   1       1.733   6.741   4.324  0.00  0.00    -0.082 Cl
ATOM     14  C   UNL d   1       3.175   5.222   6.011  0.00  0.00     0.026 A 
ATOM     15  C   UNL d   1       4.199   4.335   6.344  0.00  0.00     0.002 A 
ATOM     16  C   UNL d   1       5.056   3.860   5.354  0.00  0.00     0.002 A 
ATOM     17  C   UNL d   1       4.886   4.261   4.026  0.00  0.00     0.031 A 
ENDBRANCH   9  11
ENDBRANCH   7   9
ENDBRANCH   5   7
ENDBRANCH   2   5
BRANCH   1  18
ATOM     18  C   UNL d   1       3.057   1.382  -0.136  0.00  0.00     0.184 C 
BRANCH  18  19
ATOM     19  S   UNL d   1       2.673  -0.154  -1.060  0.00  0.00    -0.118 SA
BRANCH  19  20
ATOM     20  C   UNL d   1       0.972  -0.446  -0.595  0.00  0.00     0.034 A 
ATOM     21  C   UNL d   1       0.562  -1.292   0.445  0.00  0.00     0.119 A 
ATOM     22  C   UNL d   1      -0.787  -1.630   0.646  0.00  0.00     0.037 A 
ATOM     23  C   UNL d   1      -1.755  -1.113  -0.211  0.00  0.00     0.003 A 
ATOM     24  C   UNL d   1      -1.375  -0.262  -1.247  0.00  0.00     0.002 A 
ATOM     25  C   UNL d   1      -0.025   0.065  -1.439  0.00  0.00     0.021 A 
BRANCH  21  26
ATOM     26  N   UNL d   1       1.522  -1.851   1.369  0.00  0.00    -0.114 N 
ATOM     27  O   UNL d   1       2.154  -1.056   2.080  0.00  0.00    -0.532 OA
ATOM     28  O   UNL d   1       1.592  -3.089   1.435  0.00  0.00    -0.532 OA
ENDBRANCH  21  26
ENDBRANCH  19  20
ENDBRANCH  18  19
ENDBRANCH   1  18
TORSDOF 8
