REMARK  8 active torsions:
REMARK  status: ('A' for Active; 'I' for Inactive)
REMARK    1  A    between atoms: N_4  and  C_1 
REMARK    2  A    between atoms: N_6  and  C_1 
REMARK    3  A    between atoms: C_2  and  O_9 
REMARK    4  A    between atoms: C_3  and  N_4 
REMARK    5  A    between atoms: C_16  and  N_6 
REMARK    6  A    between atoms: O_9  and  C_17 
REMARK    7  A    between atoms: O_10  and  C_19 
REMARK    8  A    between atoms: C_18  and  O_10 
ROOT
ATOM      1  C   UNL d   1      -1.183   1.003   0.736  0.00  0.00     0.034 A 
ATOM      2  C   UNL d   1      -3.969   1.219   0.886  0.00  0.00     0.076 A 
ATOM      3  C   UNL d   1      -1.975  -0.141   0.869  0.00  0.00     0.032 A 
ATOM      4  C   UNL d   1      -1.786   2.262   0.788  0.00  0.00     0.032 A 
ATOM      5  C   UNL d   1      -3.177   2.372   0.864  0.00  0.00     0.039 A 
ATOM      6  C   UNL d   1      -3.366  -0.035   0.943  0.00  0.00     0.039 A 
ENDROOT
BRANCH   1   7
ATOM      7  N   UNL d   1       0.218   0.947   0.600  0.00  0.00    -0.333 N 
ATOM      8  H   UNL d   1       0.705   1.824   0.743  0.00  0.00     0.168 HD
BRANCH   7   9
ATOM      9  C   UNL d   1       0.983   0.035  -0.132  0.00  0.00     0.176 C 
ATOM     10  S   UNL d   1       0.413  -1.067  -1.261  0.00  0.00    -0.041 SA
BRANCH   9  11
ATOM     11  N   UNL d   1       2.323   0.189   0.224  0.00  0.00    -0.332 N 
ATOM     12  H   UNL d   1       2.465   0.224   1.230  0.00  0.00     0.168 HD
BRANCH  11  13
ATOM     13  C   UNL d   1       3.473  -0.155  -0.529  0.00  0.00     0.057 A 
ATOM     14  C   UNL d   1       3.516   0.035  -1.916  0.00  0.00     0.055 A 
ATOM     15  C   UNL d   1       4.681  -0.262  -2.627  0.00  0.00     0.036 A 
ATOM     16 CL   UNL d   1       4.729  -0.003  -4.327  0.00  0.00    -0.084 Cl
ATOM     17  C   UNL d   1       5.810  -0.745  -1.970  0.00  0.00     0.026 A 
ATOM     18  C   UNL d   1       5.784  -0.917  -0.587  0.00  0.00     0.028 A 
ATOM     19  C   UNL d   1       4.626  -0.608   0.133  0.00  0.00     0.060 A 
ATOM     20 CL   UNL d   1       4.641  -0.826   1.848  0.00  0.00    -0.082 Cl
ENDBRANCH  11  13
ENDBRANCH   9  11
ENDBRANCH   7   9
ENDBRANCH   1   7
BRANCH   2  21
ATOM     21  O   UNL d   1      -5.345   1.251   0.891  0.00  0.00    -0.311 OA
BRANCH  21  22
ATOM     22  C   UNL d   1      -5.965   2.149   0.049  0.00  0.00     0.076 A 
ATOM     23  C   UNL d   1      -5.517   2.428  -1.244  0.00  0.00     0.040 A 
ATOM     24  C   UNL d   1      -6.161   3.402  -2.006  0.00  0.00     0.040 A 
ATOM     25  C   UNL d   1      -7.287   4.059  -1.507  0.00  0.00     0.078 A 
ATOM     26  C   UNL d   1      -7.757   3.754  -0.230  0.00  0.00     0.040 A 
ATOM     27  C   UNL d   1      -7.106   2.784   0.541  0.00  0.00     0.040 A 
BRANCH  25  28
ATOM     28  O   UNL d   1      -7.781   5.050  -2.298  0.00  0.00    -0.255 OA
BRANCH  28  29
ATOM     29  C   UNL d   1      -9.190   5.132  -2.457  0.00  0.00     0.530 C 
ATOM     30  F   UNL d   1      -9.880   4.187  -1.786  0.00  0.00    -0.144 F 
ATOM     31  F   UNL d   1      -9.611   6.348  -2.044  0.00  0.00    -0.144 F 
ATOM     32  F   UNL d   1      -9.481   5.010  -3.772  0.00  0.00    -0.144 F 
ENDBRANCH  28  29
ENDBRANCH  25  28
ENDBRANCH  21  22
ENDBRANCH   2  21
TORSDOF 8
