REMARK  4 active torsions:
REMARK  status: ('A' for Active; 'I' for Inactive)
REMARK    1  A    between atoms: C_2  and  C_1 
REMARK       I    between atoms: N_3  and  C_1 
REMARK    2  A    between atoms: C_7  and  N_4 
REMARK    3  A    between atoms: C_6  and  C_5 
REMARK    4  A    between atoms: O_16  and  C_6 
ROOT
ATOM      1  C   UNL d   1       0.800  -0.104   0.102  0.00  0.00     0.255 C 
ATOM      2  N   UNL d   1       0.225  -1.251  -0.427  0.00  0.00    -0.345 N 
ATOM      3  N   UNL d   1      -0.067  -3.572  -2.098  0.00  0.00    -0.378 N 
ATOM      4  O   UNL d   1       1.796  -0.136   0.822  0.00  0.00    -0.267 OA
ATOM      5  C   UNL d   1       0.711  -2.567   0.025  0.00  0.00     0.146 C 
ATOM      6  C   UNL d   1      -0.871  -1.323  -1.415  0.00  0.00     0.146 C 
ATOM      7  C   UNL d   1       1.060  -3.501  -1.150  0.00  0.00     0.143 C 
ATOM      8  C   UNL d   1      -0.540  -2.269  -2.584  0.00  0.00     0.143 C 
ENDROOT
BRANCH   1   9
ATOM      9  C   UNL d   1       0.232   1.237  -0.165  0.00  0.00     0.049 A 
ATOM     10  C   UNL d   1       1.015   2.354  -0.515  0.00  0.00     0.053 A 
ATOM     11  C   UNL d   1       0.350   3.587  -0.712  0.00  0.00     0.019 A 
ATOM     12  C   UNL d   1      -1.031   3.716  -0.553  0.00  0.00     0.001 A 
ATOM     13  C   UNL d   1      -1.782   2.620  -0.159  0.00  0.00     0.001 A 
ATOM     14  C   UNL d   1      -1.150   1.397   0.061  0.00  0.00     0.018 A 
BRANCH  10  15
ATOM     15  C   UNL d   1       2.495   2.412  -0.770  0.00  0.00     0.177 C 
ATOM     16  O   UNL d   1       3.001   3.411  -1.270  0.00  0.00    -0.646 OA
BRANCH  15  17
ATOM     17  O   UNL d   1       3.264   1.354  -0.464  0.00  0.00    -0.773 OA
ATOM     18  H   UNL d   1       2.876   0.698   0.162  0.00  0.00     0.167 HD
ENDBRANCH  15  17
ENDBRANCH  10  15
ENDBRANCH   1   9
BRANCH   3  19
ATOM     19  C   UNL d   1      -0.790  -4.737  -2.260  0.00  0.00     0.030 A 
ATOM     20  C   UNL d   1      -0.135  -5.978  -2.369  0.00  0.00     0.032 A 
ATOM     21  C   UNL d   1      -0.838  -7.170  -2.581  0.00  0.00     0.044 A 
ATOM     22  C   UNL d   1      -2.221  -7.137  -2.677  0.00  0.00     0.116 A 
ATOM     23  C   UNL d   1      -2.904  -5.942  -2.566  0.00  0.00     0.044 A 
ATOM     24  F   UNL d   1      -2.898  -8.272  -2.885  0.00  0.00    -0.206 F 
ATOM     25  C   UNL d   1      -2.192  -4.749  -2.362  0.00  0.00     0.032 A 
ENDBRANCH   3  19
TORSDOF 4
