REMARK  7 active torsions:
REMARK  status: ('A' for Active; 'I' for Inactive)
REMARK    1  A    between atoms: C_6  and  C_1 
REMARK    2  A    between atoms: C_2  and  C_5 
REMARK    3  A    between atoms: C_3  and  N_7 
REMARK    4  A    between atoms: C_4  and  N_12 
REMARK    5  A    between atoms: N_7  and  C_4 
REMARK    6  A    between atoms: N_12  and  C_10 
REMARK    7  A    between atoms: O_27  and  C_19 
ROOT
ATOM      1  C   UNL d   1      -2.571   2.356   2.589  0.00  0.00     0.176 C 
ATOM      2  S   UNL d   1      -3.988   3.205   2.360  0.00  0.00    -0.041 SA
ENDROOT
BRANCH   1   3
ATOM      3  N   UNL d   1      -1.328   2.870   2.864  0.00  0.00    -0.333 N 
ATOM      4  H   UNL d   1      -0.786   2.242   3.454  0.00  0.00     0.168 HD
BRANCH   3   5
ATOM      5  C   UNL d   1      -0.663   4.043   2.461  0.00  0.00     0.035 A 
ATOM      6  C   UNL d   1      -1.103   4.909   1.457  0.00  0.00     0.045 A 
ATOM      7  C   UNL d   1      -0.289   5.973   1.017  0.00  0.00     0.050 A 
ATOM      8  C   UNL d   1       0.974   6.163   1.604  0.00  0.00     0.032 A 
ATOM      9  C   UNL d   1       1.432   5.302   2.609  0.00  0.00     0.050 A 
ATOM     10  C   UNL d   1       0.599   4.254   3.029  0.00  0.00     0.045 A 
BRANCH   7  11
ATOM     11  C   UNL d   1      -0.759   6.876  -0.102  0.00  0.00     0.417 C 
ATOM     12  F   UNL d   1       0.182   7.783  -0.490  0.00  0.00    -0.166 F 
ATOM     13  F   UNL d   1      -1.860   7.600   0.231  0.00  0.00    -0.166 F 
ATOM     14  F   UNL d   1      -1.084   6.181  -1.227  0.00  0.00    -0.166 F 
ENDBRANCH   7  11
BRANCH   9  15
ATOM     15  C   UNL d   1       2.805   5.450   3.218  0.00  0.00     0.417 C 
ATOM     16  F   UNL d   1       3.533   6.466   2.685  0.00  0.00    -0.166 F 
ATOM     17  F   UNL d   1       2.757   5.678   4.559  0.00  0.00    -0.166 F 
ATOM     18  F   UNL d   1       3.556   4.325   3.056  0.00  0.00    -0.166 F 
ENDBRANCH   9  15
ENDBRANCH   3   5
ENDBRANCH   1   3
BRANCH   1  19
ATOM     19  N   UNL d   1      -2.625   0.978   2.634  0.00  0.00    -0.331 N 
ATOM     20  H   UNL d   1      -3.547   0.570   2.798  0.00  0.00     0.168 HD
BRANCH  19  21
ATOM     21  C   UNL d   1      -1.748   0.052   1.979  0.00  0.00     0.064 A 
ATOM     22  C   UNL d   1      -2.135  -1.300   1.976  0.00  0.00     0.069 A 
ATOM     23  C   UNL d   1      -1.382  -2.204   1.194  0.00  0.00    -0.004 A 
ATOM     24  N   UNL d   1      -3.215  -1.710   2.683  0.00  0.00    -0.363 N 
ATOM     25  C   UNL d   1      -1.781  -3.546   1.151  0.00  0.00     0.015 A 
ATOM     26  C   UNL d   1      -0.276  -1.760   0.453  0.00  0.00     0.050 A 
ATOM     27  C   UNL d   1      -2.885  -3.963   1.882  0.00  0.00     0.018 A 
ATOM     28  C   UNL d   1      -3.557  -3.019   2.632  0.00  0.00     0.088 A 
ATOM     29  C   UNL d   1       0.100  -0.421   0.472  0.00  0.00     0.071 A 
ATOM     30  C   UNL d   1      -0.625   0.473   1.251  0.00  0.00     0.068 A 
ATOM     31  HN  UNL d   1      -3.757  -1.050   3.239  1.00  0.00     0.165 HD
BRANCH  29  32
ATOM     32  O   UNL d   1       1.160  -0.098  -0.330  0.00  0.00    -0.356 OA
ATOM     33  C   UNL d   1       1.434   1.288  -0.515  0.00  0.00     0.210 C 
ENDBRANCH  29  32
ENDBRANCH  19  21
ENDBRANCH   1  19
TORSDOF 7
