REMARK  3 active torsions:
REMARK  status: ('A' for Active; 'I' for Inactive)
REMARK    1  A    between atoms: N_6  and  C_1 
REMARK    2  A    between atoms: C_10  and  N_4 
REMARK       I    between atoms: C_7  and  N_6 
REMARK       I    between atoms: N_9  and  C_7 
REMARK    3  A    between atoms: C_13  and  N_9 
ROOT
ATOM      1  C   UNL d   1      -0.483  -0.985  -0.416  0.00  0.00     0.131 C 
ATOM      2  C   UNL d   1       0.771  -0.354  -0.926  0.00  0.00     0.296 C 
ATOM      3  N   UNL d   1      -0.573   1.249   0.013  0.00  0.00    -0.289 N 
ATOM      4  N   UNL d   1       0.685   1.011  -0.613  0.00  0.00    -0.217 N 
ATOM      5  C   UNL d   1      -1.262   0.029   0.014  0.00  0.00     0.057 C 
ATOM      6  O   UNL d   1       1.664  -1.012  -1.438  0.00  0.00    -0.264 OA
ATOM      7  C   UNL d   1      -1.199   2.554  -0.177  0.00  0.00     0.178 C 
ATOM      8  C   UNL d   1      -2.710  -0.097   0.382  0.00  0.00     0.072 C 
ENDROOT
BRANCH   1   9
ATOM      9  N   UNL d   1      -0.637  -2.354  -0.403  0.00  0.00    -0.302 N 
ATOM     10  C   UNL d   1      -1.244  -3.016   0.655  0.00  0.00     0.325 C 
ATOM     11  N   UNL d   1      -1.189  -4.390   0.522  0.00  0.00    -0.309 N 
ATOM     12  O   UNL d   1      -1.736  -2.435   1.614  0.00  0.00    -0.247 OA
ATOM     13  H   UNL d   1      -0.724  -4.752  -0.295  0.00  0.00     0.170 HD
ATOM     14  H   UNL d   1       0.132  -2.845  -0.846  0.00  0.00     0.171 HD
BRANCH  11  15
ATOM     15  C   UNL d   1      -1.665  -5.338   1.462  0.00  0.00     0.036 A 
ATOM     16  C   UNL d   1      -2.401  -4.997   2.607  0.00  0.00     0.032 A 
ATOM     17  C   UNL d   1      -2.818  -5.977   3.511  0.00  0.00     0.044 A 
ATOM     18  C   UNL d   1      -2.501  -7.307   3.273  0.00  0.00     0.116 A 
ATOM     19  C   UNL d   1      -1.781  -7.670   2.142  0.00  0.00     0.044 A 
ATOM     20  F   UNL d   1      -2.891  -8.245   4.141  0.00  0.00    -0.206 F 
ATOM     21  C   UNL d   1      -1.369  -6.691   1.234  0.00  0.00     0.032 A 
ENDBRANCH  11  15
ENDBRANCH   1   9
BRANCH   4  22
ATOM     22  C   UNL d   1       1.798   1.888  -0.523  0.00  0.00     0.060 A 
ATOM     23  C   UNL d   1       2.887   1.733  -1.393  0.00  0.00     0.031 A 
ATOM     24  C   UNL d   1       3.991   2.590  -1.332  0.00  0.00     0.002 A 
ATOM     25  C   UNL d   1       4.027   3.616  -0.393  0.00  0.00     0.000 A 
ATOM     26  C   UNL d   1       2.964   3.778   0.489  0.00  0.00     0.002 A 
ATOM     27  C   UNL d   1       1.861   2.918   0.425  0.00  0.00     0.031 A 
ENDBRANCH   4  22
TORSDOF 3
