REMARK  5 active torsions:
REMARK  status: ('A' for Active; 'I' for Inactive)
REMARK    1  A    between atoms: C_11  and  C_1 
REMARK    2  A    between atoms: C_7  and  C_3 
REMARK    3  A    between atoms: C_9  and  C_10 
REMARK    4  A    between atoms: O_22  and  C_11 
REMARK    5  A    between atoms: C_21  and  C_12 
ROOT
ATOM      1  C   UNL d   1       2.836  -0.820   0.063  0.00  0.00     0.052 C 
ATOM      2  C   UNL d   1       0.292  -0.726   0.032  0.00  0.00     0.024 C 
ATOM      3  C   UNL d   1       1.518  -1.569   0.364  0.00  0.00     0.100 C 
ATOM      4  C   UNL d   1       0.382   0.616  -0.038  0.00  0.00     0.021 C 
ATOM      5  C   UNL d   1       2.827   0.536  -0.045  0.00  0.00     0.018 C 
ATOM      6  N   UNL d   1       1.618   1.221   0.078  0.00  0.00    -0.362 N 
ATOM      7  C   UNL d   1      -1.006  -1.397  -0.233  0.00  0.00     0.159 C 
ATOM      8  C   UNL d   1      -0.804   1.523  -0.245  0.00  0.00     0.067 C 
ATOM      9  C   UNL d   1      -2.166   0.849   0.019  0.00  0.00    -0.036 C 
ATOM     10  C   UNL d   1      -2.187  -0.537  -0.644  0.00  0.00     0.092 C 
ATOM     11  O   UNL d   1      -1.099  -2.622  -0.204  0.00  0.00    -0.293 OA
ATOM     12  C   UNL d   1       3.989   1.456  -0.333  0.00  0.00     0.069 C 
ATOM     13  C   UNL d   1      -3.276   1.726  -0.587  0.00  0.00     0.015 C 
ATOM     14  C   UNL d   1      -2.433   0.719   1.534  0.00  0.00     0.015 C 
ATOM     15  H   UNL d   1       1.650   2.229  -0.062  0.00  0.00     0.165 HD
ENDROOT
BRANCH   3  16
ATOM     16  C   UNL d   1       1.472  -1.949   1.849  0.00  0.00    -0.019 A 
ATOM     17  C   UNL d   1       1.419  -3.283   2.380  0.00  0.00     0.032 A 
ATOM     18  C   UNL d   1       1.389  -3.302   3.758  0.00  0.00     0.070 A 
ATOM     19  S   UNL d   1       1.398  -1.736   4.433  0.00  0.00    -0.112 SA
ATOM     20  C   UNL d   1       1.455  -1.024   2.886  0.00  0.00     0.059 A 
BRANCH  17  21
ATOM     21  C   UNL d   1       1.400  -4.494   1.622  0.00  0.00    -0.060 C 
ATOM     22  C   UNL d   1       1.401  -5.536   1.020  0.00  0.00    -0.061 C 
BRANCH  22  23
ATOM     23  C   UNL d   1       1.447  -6.799   0.353  0.00  0.00     0.018 A 
ATOM     24  C   UNL d   1       0.404  -7.717   0.508  0.00  0.00     0.020 A 
ATOM     25  C   UNL d   1       0.487  -8.976  -0.092  0.00  0.00     0.001 A 
ATOM     26  C   UNL d   1       1.607  -9.314  -0.853  0.00  0.00     0.000 A 
ATOM     27  C   UNL d   1       2.637  -8.389  -1.026  0.00  0.00     0.001 A 
ATOM     28  C   UNL d   1       2.557  -7.133  -0.423  0.00  0.00     0.020 A 
ENDBRANCH  22  23
ENDBRANCH  17  21
ENDBRANCH   3  16
BRANCH   1  29
ATOM     29  C   UNL d   1       4.002  -1.733  -0.124  0.00  0.00     0.291 C 
ATOM     30  O   UNL d   1       3.893  -2.911  -0.431  0.00  0.00    -0.260 OA
BRANCH  29  31
ATOM     31  O   UNL d   1       5.178  -1.108   0.107  0.00  0.00    -0.323 OA
ATOM     32  C   UNL d   1       6.346  -1.897  -0.128  0.00  0.00     0.213 C 
ENDBRANCH  29  31
ENDBRANCH   1  29
TORSDOF 5
