REMARK  5 active torsions:
REMARK  status: ('A' for Active; 'I' for Inactive)
REMARK    1  A    between atoms: N_13  and  C_3 
REMARK    2  A    between atoms: C_12  and  C_10 
REMARK    3  A    between atoms: C_16  and  C_11 
REMARK    4  A    between atoms: N_15  and  N_13 
REMARK       I    between atoms: C_14  and  N_15 
REMARK    5  A    between atoms: C_18  and  C_14 
ROOT
ATOM      1  N   UNL d   1       0.242   0.669  -0.067  0.00  0.00    -0.227 N 
ATOM      2  C   UNL d   1       0.106  -0.717   0.023  0.00  0.00     0.131 A 
ATOM      3  C   UNL d   1      -0.900   1.506  -0.060  0.00  0.00     0.124 A 
ATOM      4  N   UNL d   1       1.551   1.039  -0.122  0.00  0.00    -0.294 N 
ATOM      5  HN  UNL d   1       1.925   1.985  -0.196  1.00  0.00     0.187 HD
ATOM      6  N   UNL d   1      -1.105  -1.339   0.091  0.00  0.00    -0.337 N 
ATOM      7  HN  UNL d   1      -1.181  -2.355   0.145  1.00  0.00     0.167 HD
ATOM      8  C   UNL d   1       1.382  -1.224   0.037  0.00  0.00     0.077 A 
ATOM      9  C   UNL d   1      -2.113   0.927   0.015  0.00  0.00     0.080 A 
ATOM     10  C   UNL d   1      -2.166  -0.574   0.082  0.00  0.00     0.121 A 
ATOM     11  C   UNL d   1       2.244  -0.108  -0.059  0.00  0.00     0.037 A 
ENDROOT
BRANCH   3  12
ATOM     12  N   UNL d   1      -0.698   2.883  -0.155  0.00  0.00    -0.186 NA
ATOM     13  H   UNL d   1       0.314   3.096  -0.249  0.00  0.00     0.154 HD
BRANCH  12  14
ATOM     14  N   UNL d   1      -1.284   3.752   0.789  0.00  0.00    -0.281 N 
ATOM     15  C   UNL d   1      -0.619   4.941   1.047  0.00  0.00     0.266 C 
ATOM     16  O   UNL d   1       0.436   5.259   0.505  0.00  0.00    -0.266 OA
ATOM     17  H   UNL d   1      -2.270   3.638   0.993  0.00  0.00     0.184 HD
BRANCH  15  18
ATOM     18  C   UNL d   1      -1.260   5.843   2.039  0.00  0.00     0.033 A 
ATOM     19  C   UNL d   1      -1.986   5.335   3.125  0.00  0.00     0.017 A 
ATOM     20  C   UNL d   1      -2.525   6.207   4.074  0.00  0.00     0.001 A 
ATOM     21  C   UNL d   1      -2.341   7.584   3.943  0.00  0.00     0.000 A 
ATOM     22  C   UNL d   1      -1.615   8.094   2.866  0.00  0.00     0.001 A 
ATOM     23  C   UNL d   1      -1.068   7.225   1.919  0.00  0.00     0.017 A 
ENDBRANCH  15  18
ENDBRANCH  12  14
ENDBRANCH   3  12
BRANCH  10  24
ATOM     24  C   UNL d   1      -3.556  -1.212   0.144  0.00  0.00     0.432 C 
ATOM     25  F   UNL d   1      -4.559  -0.289   0.124  0.00  0.00    -0.165 F 
ATOM     26  F   UNL d   1      -3.790  -2.048  -0.903  0.00  0.00    -0.165 F 
ATOM     27  F   UNL d   1      -3.739  -1.942   1.278  0.00  0.00    -0.165 F 
ENDBRANCH  10  24
BRANCH  11  28
ATOM     28  C   UNL d   1       3.768  -0.117  -0.044  0.00  0.00    -0.007 C 
ATOM     29  C   UNL d   1       4.269  -0.132   1.414  0.00  0.00     0.021 C 
ATOM     30  C   UNL d   1       4.317  -1.370  -0.762  0.00  0.00     0.021 C 
ATOM     31  C   UNL d   1       4.359   1.119  -0.754  0.00  0.00     0.021 C 
ENDBRANCH  11  28
TORSDOF 5
