REMARK  5 active torsions:
REMARK  status: ('A' for Active; 'I' for Inactive)
REMARK    1  A    between atoms: C_11  and  C_1 
REMARK    2  A    between atoms: C_13  and  C_4 
REMARK    3  A    between atoms: C_21  and  C_9 
REMARK    4  A    between atoms: O_17  and  C_13 
REMARK    5  A    between atoms: N_14  and  O_17 
ROOT
ATOM      1  O   UNL d   1      -0.557  -3.984  -0.027  0.00  0.00    -0.194 OA
ENDROOT
BRANCH   1   2
ATOM      2  N   UNL d   1      -1.892  -3.621  -0.264  0.00  0.00    -0.253 N 
ATOM      3  C   UNL d   1      -2.761  -4.583  -0.241  0.00  0.00     0.099 C 
ATOM      4  S   UNL d   1      -4.408  -4.000  -0.517  0.00  0.00    -0.042 SA
ATOM      5  C   UNL d   1      -2.605  -6.104  -0.111  0.00  0.00     0.168 C 
ATOM      6  C   UNL d   1      -5.339  -5.048   0.541  0.00  0.00     0.156 C 
ATOM      7  S   UNL d   1      -6.770  -4.481   1.214  0.00  0.00    -0.051 SA
ATOM      8  N   UNL d   1      -4.873  -6.361   0.653  0.00  0.00    -0.300 N 
ATOM      9  N   UNL d   1      -3.503  -6.587   0.961  0.00  0.00    -0.222 NA
ATOM     10  C   UNL d   1      -5.767  -7.490   0.914  0.00  0.00     0.173 C 
ATOM     11  H   UNL d   1      -3.284  -6.113   1.840  0.00  0.00     0.148 HD
ATOM     12  HN  UNL d   1      -2.163  -2.654  -0.444  1.00  0.00     0.195 HD
BRANCH   5  13
ATOM     13  C   UNL d   1      -1.189  -6.635   0.058  0.00  0.00    -0.033 A 
ATOM     14  C   UNL d   1      -0.411  -6.861  -1.094  0.00  0.00     0.009 A 
ATOM     15  C   UNL d   1       0.913  -7.287  -0.992  0.00  0.00     0.001 A 
ATOM     16  C   UNL d   1       1.482  -7.505   0.259  0.00  0.00     0.000 A 
ATOM     17  C   UNL d   1       0.725  -7.303   1.410  0.00  0.00     0.001 A 
ATOM     18  C   UNL d   1      -0.600  -6.870   1.313  0.00  0.00     0.009 A 
ENDBRANCH   5  13
ENDBRANCH   1   2
BRANCH   1  19
ATOM     19  C   UNL d   1       0.265  -3.203  -0.822  0.00  0.00     0.320 C 
ATOM     20  O   UNL d   1       0.221  -3.229  -2.047  0.00  0.00    -0.257 OA
BRANCH  19  21
ATOM     21  C   UNL d   1       1.175  -2.355  -0.073  0.00  0.00     0.102 A 
ATOM     22  C   UNL d   1       1.814  -1.126  -0.477  0.00  0.00     0.087 A 
ATOM     23  N   UNL d   1       2.550  -0.645   0.538  0.00  0.00    -0.259 N 
ATOM     24  O   UNL d   1       2.446  -1.534   1.569  0.00  0.00    -0.241 OA
ATOM     25  HN  UNL d   1       3.087   0.223   0.539  1.00  0.00     0.195 HD
ATOM     26  C   UNL d   1       1.610  -2.543   1.227  0.00  0.00     0.091 A 
ATOM     27  C   UNL d   1       1.405  -3.538   2.297  0.00  0.00     0.080 C 
BRANCH  22  28
ATOM     28  C   UNL d   1       1.737  -0.344  -1.726  0.00  0.00     0.037 A 
ATOM     29  C   UNL d   1       0.504   0.013  -2.308  0.00  0.00     0.048 A 
ATOM     30 CL   UNL d   1      -1.029  -0.322  -1.568  0.00  0.00    -0.083 Cl
ATOM     31  C   UNL d   1       0.446   0.771  -3.489  0.00  0.00     0.025 A 
ATOM     32  C   UNL d   1       1.606   1.260  -4.077  0.00  0.00     0.003 A 
ATOM     33  C   UNL d   1       2.832   0.977  -3.490  0.00  0.00     0.025 A 
ATOM     34  C   UNL d   1       2.905   0.168  -2.344  0.00  0.00     0.048 A 
ATOM     35 CL   UNL d   1       4.513  -0.145  -1.766  0.00  0.00    -0.083 Cl
ENDBRANCH  22  28
ENDBRANCH  19  21
ENDBRANCH   1  19
TORSDOF 5
