REMARK  5 active torsions:
REMARK  status: ('A' for Active; 'I' for Inactive)
REMARK    1  A    between atoms: N_3  and  C_1 
REMARK    2  A    between atoms: N_6  and  N_3 
REMARK       I    between atoms: C_5  and  N_6 
REMARK    3  A    between atoms: C_11  and  C_5 
REMARK    4  A    between atoms: C_14  and  C_11 
REMARK    5  A    between atoms: C_15  and  C_14 
ROOT
ATOM      1  C   UNL d   1       4.933  -1.924   0.195  0.00  0.00     0.232 C 
ATOM      2  N   UNL d   1       3.791  -1.154   0.191  0.00  0.00    -0.287 N 
ATOM      3  O   UNL d   1       4.868  -3.149   0.292  0.00  0.00    -0.272 OA
ATOM      4  H   UNL d   1       2.890  -1.595   0.350  0.00  0.00     0.184 HD
ENDROOT
BRANCH   2   5
ATOM      5  N   UNL d   1       3.861   0.223   0.015  0.00  0.00    -0.200 NA
ATOM      6  H   UNL d   1       3.980   0.505  -0.959  0.00  0.00     0.153 HD
BRANCH   5   7
ATOM      7  C   UNL d   1       2.920   1.017   0.709  0.00  0.00     0.066 A 
ATOM      8  C   UNL d   1       2.168   0.593   1.819  0.00  0.00     0.142 A 
ATOM      9  C   UNL d   1       1.335   1.467   2.515  0.00  0.00     0.086 A 
ATOM     10  F   UNL d   1       2.214  -0.684   2.229  0.00  0.00    -0.204 F 
ATOM     11  C   UNL d   1       1.266   2.793   2.120  0.00  0.00     0.119 A 
ATOM     12  C   UNL d   1       2.016   3.260   1.048  0.00  0.00     0.044 A 
ATOM     13  F   UNL d   1       0.474   3.642   2.787  0.00  0.00    -0.206 F 
ATOM     14  C   UNL d   1       2.847   2.377   0.356  0.00  0.00     0.031 A 
ENDBRANCH   5   7
ENDBRANCH   2   5
BRANCH   1  15
ATOM     15  C   UNL d   1       6.240  -1.163   0.064  0.00  0.00     0.108 C 
BRANCH  15  16
ATOM     16  C   UNL d   1       7.453  -2.085   0.060  0.00  0.00     0.048 C 
BRANCH  16  17
ATOM     17  C   UNL d   1       8.737  -1.295  -0.016  0.00  0.00    -0.058 A 
ATOM     18  C   UNL d   1       9.382  -0.878   1.157  0.00  0.00     0.007 A 
ATOM     19  C   UNL d   1      10.578  -0.161   1.089  0.00  0.00     0.001 A 
ATOM     20  C   UNL d   1      11.134   0.154  -0.149  0.00  0.00     0.000 A 
ATOM     21  C   UNL d   1      10.487  -0.234  -1.321  0.00  0.00     0.001 A 
ATOM     22  C   UNL d   1       9.291  -0.951  -1.256  0.00  0.00     0.007 A 
ENDBRANCH  16  17
ENDBRANCH  15  16
ENDBRANCH   1  15
TORSDOF 5
