REMARK  5 active torsions:
REMARK  status: ('A' for Active; 'I' for Inactive)
REMARK    1  A    between atoms: C_15  and  C_1 
REMARK       I    between atoms: N_5  and  C_8 
REMARK    2  A    between atoms: C_7  and  N_5 
REMARK    3  A    between atoms: C_8  and  C_19 
REMARK    4  A    between atoms: S_13  and  C_15 
REMARK    5  A    between atoms: C_19  and  S_13 
ROOT
ATOM      1  S   UNL d   1       3.552  -2.883  -1.283  0.00  0.00    -0.155 SA
ENDROOT
BRANCH   1   2
ATOM      2  C   UNL d   1       1.825  -3.316  -0.912  0.00  0.00     0.114 C 
BRANCH   2   3
ATOM      3  C   UNL d   1       0.850  -2.458  -1.660  0.00  0.00    -0.031 A 
ATOM      4  C   UNL d   1       0.305  -2.756  -2.970  0.00  0.00    -0.010 A 
ATOM      5  C   UNL d   1      -0.660  -1.815  -3.358  0.00  0.00     0.015 A 
ATOM      6  C   UNL d   1       0.575  -3.826  -3.866  0.00  0.00     0.037 A 
ATOM      7  C   UNL d   1      -1.357  -1.923  -4.581  0.00  0.00     0.021 A 
ATOM      8  S   UNL d   1      -0.843  -0.584  -2.178  0.00  0.00    -0.101 SA
ATOM      9  C   UNL d   1      -1.065  -2.988  -5.437  0.00  0.00     0.025 A 
ATOM     10  C   UNL d   1      -0.105  -3.922  -5.087  0.00  0.00     0.035 A 
ATOM     11 CL   UNL d   1       0.254  -5.219  -6.155  0.00  0.00    -0.084 Cl
ATOM     12  C   UNL d   1       0.316  -1.287  -1.153  0.00  0.00     0.059 A 
ENDBRANCH   2   3
ENDBRANCH   1   2
BRANCH   1  13
ATOM     13  C   UNL d   1       4.336  -4.146  -0.236  0.00  0.00     0.177 C 
BRANCH  13  14
ATOM     14  C   UNL d   1       5.848  -4.253  -0.364  0.00  0.00     0.231 C 
ATOM     15  N   UNL d   1       6.501  -3.147  -0.864  0.00  0.00    -0.325 N 
ATOM     16  H   UNL d   1       5.963  -2.284  -0.914  0.00  0.00     0.169 HD
ATOM     17  O   UNL d   1       6.411  -5.259   0.070  0.00  0.00    -0.272 OA
BRANCH  15  18
ATOM     18  C   UNL d   1       7.905  -3.029  -0.995  0.00  0.00     0.056 A 
ATOM     19  C   UNL d   1       8.509  -1.771  -0.851  0.00  0.00     0.060 A 
ATOM     20 CL   UNL d   1       7.566  -0.359  -0.517  0.00  0.00    -0.082 Cl
ATOM     21  C   UNL d   1       9.902  -1.640  -0.907  0.00  0.00     0.026 A 
ATOM     22  C   UNL d   1      10.697  -2.759  -1.156  0.00  0.00     0.002 A 
ATOM     23  C   UNL d   1      10.102  -4.002  -1.355  0.00  0.00     0.002 A 
ATOM     24  C   UNL d   1       8.714  -4.138  -1.268  0.00  0.00     0.031 A 
ENDBRANCH  15  18
ENDBRANCH  13  14
ENDBRANCH   1  13
TORSDOF 5
