REMARK  1 active torsions:
REMARK  status: ('A' for Active; 'I' for Inactive)
REMARK    1  A    between atoms: C_8  and  C_6 
ROOT
ATOM      1  N   UNL d   1       1.520   1.528  -0.356  0.00  0.00    -0.308 N 
ATOM      2  HN  UNL d   1       1.726   2.406  -0.832  1.00  0.00     0.186 HD
ATOM      3  C   UNL d   1       0.366   0.988  -0.176  0.00  0.00     0.043 C 
ATOM      4  C   UNL d   1       0.482  -0.649   0.666  0.00  0.00     0.298 C 
ATOM      5  N   UNL d   1       2.428   0.655   0.240  0.00  0.00    -0.321 N 
ATOM      6  C   UNL d   1       1.993  -0.786   0.359  0.00  0.00     0.173 C 
ATOM      7  N   UNL d   1      -0.665  -1.633   0.054  0.00  0.00     0.101 N 
ATOM      8  C   UNL d   1      -1.273   1.420  -0.668  0.00  0.00     0.038 C 
ATOM      9  C   UNL d   1      -2.275  -1.347   0.036  0.00  0.00     0.274 C 
ATOM     10  C   UNL d   1      -0.722  -0.683  -0.938  0.00  0.00     0.274 C 
ATOM     11  C   UNL d   1      -2.694   0.300  -0.833  0.00  0.00     0.041 C 
ATOM     12  C   UNL d   1      -1.298   0.587   0.455  0.00  0.00     0.041 C 
ATOM     13  C   UNL d   1       3.826   0.807  -0.146  0.00  0.00     0.171 C 
ENDROOT
BRANCH   6  14
ATOM     14  C   UNL d   1       2.578  -1.568   1.525  0.00  0.00    -0.030 A 
ATOM     15  C   UNL d   1       2.823  -0.948   2.763  0.00  0.00     0.035 A 
ATOM     16  C   UNL d   1       3.065  -1.708   3.910  0.00  0.00     0.056 A 
ATOM     17 CL   UNL d   1       3.249  -0.862   5.405  0.00  0.00    -0.083 Cl
ATOM     18  C   UNL d   1       3.088  -3.103   3.826  0.00  0.00     0.055 A 
ATOM     19  C   UNL d   1       2.897  -3.728   2.590  0.00  0.00     0.026 A 
ATOM     20 CL   UNL d   1       3.295  -4.110   5.214  0.00  0.00    -0.083 Cl
ATOM     21  C   UNL d   1       2.643  -2.967   1.446  0.00  0.00     0.011 A 
ENDBRANCH   6  14
TORSDOF 1
