REMARK  4 active torsions:
REMARK  status: ('A' for Active; 'I' for Inactive)
REMARK       I    between atoms: N_2  and  C_1 
REMARK    1  A    between atoms: C_6  and  C_1 
REMARK    2  A    between atoms: N_3  and  N_2 
REMARK    3  A    between atoms: C_4  and  N_3 
REMARK    4  A    between atoms: C_8  and  C_7 
ROOT
ATOM      1  C   UNL d   1       1.868  -1.016   1.883  0.00  0.00     0.266 C 
ATOM      2  N   UNL d   1       1.343  -2.276   1.628  0.00  0.00    -0.283 N 
ATOM      3  O   UNL d   1       1.925  -0.105   1.063  0.00  0.00    -0.266 OA
ATOM      4  H   UNL d   1       0.938  -2.783   2.410  0.00  0.00     0.184 HD
ENDROOT
BRANCH   2   5
ATOM      5  N   UNL d   1       0.657  -2.413   0.410  0.00  0.00    -0.203 NA
ATOM      6  H   UNL d   1       1.226  -2.065  -0.367  0.00  0.00     0.153 HD
BRANCH   5   7
ATOM      7  C   UNL d   1       0.101  -3.680   0.118  0.00  0.00     0.034 A 
ATOM      8  C   UNL d   1      -0.882  -3.811  -0.889  0.00  0.00    -0.036 A 
ATOM      9  C   UNL d   1      -1.473  -5.081  -1.094  0.00  0.00     0.009 A 
ATOM     10  C   UNL d   1      -1.081  -6.202  -0.367  0.00  0.00     0.001 A 
ATOM     11  C   UNL d   1      -0.069  -6.085   0.572  0.00  0.00     0.002 A 
ATOM     12  C   UNL d   1       0.518  -4.840   0.804  0.00  0.00     0.026 A 
BRANCH   8  13
ATOM     13  C   UNL d   1      -1.446  -2.705  -1.768  0.00  0.00     0.036 C 
ATOM     14  C   UNL d   1      -0.801  -1.328  -1.817  0.00  0.00     0.010 C 
ENDBRANCH   8  13
ENDBRANCH   5   7
ENDBRANCH   2   5
BRANCH   1  15
ATOM     15  C   UNL d   1       2.377  -0.814   3.264  0.00  0.00     0.033 A 
ATOM     16  C   UNL d   1       3.043  -1.842   3.940  0.00  0.00     0.017 A 
ATOM     17  C   UNL d   1       3.561  -1.614   5.217  0.00  0.00     0.001 A 
ATOM     18  C   UNL d   1       3.409  -0.364   5.819  0.00  0.00     0.000 A 
ATOM     19  C   UNL d   1       2.742   0.661   5.149  0.00  0.00     0.001 A 
ATOM     20  C   UNL d   1       2.229   0.442   3.867  0.00  0.00     0.017 A 
ENDBRANCH   1  15
TORSDOF 4
