REMARK  7 active torsions:
REMARK  status: ('A' for Active; 'I' for Inactive)
REMARK    1  A    between atoms: C_7  and  C_1 
REMARK    2  A    between atoms: C_11  and  C_6 
REMARK    3  A    between atoms: C_9  and  O_18 
REMARK       I    between atoms: C_10  and  N_13 
REMARK       I    between atoms: N_16  and  C_10 
REMARK    4  A    between atoms: C_12  and  C_11 
REMARK       I    between atoms: N_17  and  C_12 
REMARK    5  A    between atoms: N_13  and  N_17 
REMARK    6  A    between atoms: C_26  and  N_16 
REMARK    7  A    between atoms: O_18  and  C_27 
ROOT
ATOM      1  C   UNL d   1       1.986  -1.815   0.886  0.00  0.00     0.243 C 
ATOM      2  N   UNL d   1       3.093  -0.993   0.779  0.00  0.00    -0.266 N 
ATOM      3  O   UNL d   1       0.855  -1.407   0.596  0.00  0.00    -0.271 OA
ATOM      4  H   UNL d   1       4.003  -1.438   0.632  0.00  0.00     0.190 HD
ENDROOT
BRANCH   2   5
ATOM      5  N   UNL d   1       2.862   0.200   0.045  0.00  0.00    -0.249 N 
ATOM      6  C   UNL d   1       3.431   1.418   0.341  0.00  0.00     0.339 C 
ATOM      7  N   UNL d   1       4.584   1.358   1.082  0.00  0.00    -0.308 N 
ATOM      8  O   UNL d   1       2.906   2.430  -0.113  0.00  0.00    -0.245 OA
ATOM      9  H   UNL d   1       4.881   0.427   1.333  0.00  0.00     0.170 HD
ATOM     10  H   UNL d   1       1.932   0.277  -0.367  0.00  0.00     0.192 HD
BRANCH   7  11
ATOM     11  C   UNL d   1       5.435   2.433   1.416  0.00  0.00     0.036 A 
ATOM     12  C   UNL d   1       5.130   3.777   1.180  0.00  0.00     0.032 A 
ATOM     13  C   UNL d   1       6.044   4.798   1.494  0.00  0.00     0.039 A 
ATOM     14  C   UNL d   1       7.270   4.487   2.073  0.00  0.00     0.078 A 
ATOM     15  C   UNL d   1       7.577   3.143   2.313  0.00  0.00     0.039 A 
ATOM     16  C   UNL d   1       6.668   2.126   1.998  0.00  0.00     0.032 A 
BRANCH  14  17
ATOM     17  O   UNL d   1       8.242   5.361   2.460  0.00  0.00    -0.255 OA
BRANCH  17  18
ATOM     18  C   UNL d   1       7.977   6.752   2.392  0.00  0.00     0.530 C 
ATOM     19  F   UNL d   1       6.778   7.071   2.922  0.00  0.00    -0.144 F 
ATOM     20  F   UNL d   1       8.927   7.401   3.104  0.00  0.00    -0.144 F 
ATOM     21  F   UNL d   1       8.038   7.187   1.116  0.00  0.00    -0.144 F 
ENDBRANCH  17  18
ENDBRANCH  14  17
ENDBRANCH   7  11
ENDBRANCH   2   5
BRANCH   1  22
ATOM     22  C   UNL d   1       2.156  -3.242   1.376  0.00  0.00     0.191 C 
BRANCH  22  23
ATOM     23  C   UNL d   1       3.553  -3.692   1.504  0.00  0.00     0.157 A 
ATOM     24  N   UNL d   1       4.666  -3.125   1.100  0.00  0.00    -0.321 N 
ATOM     25  C   UNL d   1       5.619  -4.089   1.385  0.00  0.00     0.156 A 
ATOM     26  HN  UNL d   1       4.797  -2.204   0.680  1.00  0.00     0.169 HD
ATOM     27  N   UNL d   1       5.115  -5.181   1.983  0.00  0.00    -0.241 N 
ATOM     28  O   UNL d   1       3.748  -4.921   2.059  0.00  0.00    -0.222 OA
ATOM     29  HN  UNL d   1       5.616  -6.009   2.306  1.00  0.00     0.196 HD
BRANCH  25  30
ATOM     30  C   UNL d   1       7.009  -3.930   0.980  0.00  0.00     0.094 A 
ATOM     31  N   UNL d   1       7.374  -2.712   0.487  0.00  0.00    -0.360 N 
ATOM     32  C   UNL d   1       8.637  -2.623   0.016  0.00  0.00     0.105 A 
ATOM     33  HN  UNL d   1       6.733  -1.918   0.475  1.00  0.00     0.165 HD
ATOM     34  C   UNL d   1       9.516  -3.693   0.035  0.00  0.00     0.104 A 
ATOM     35  N   UNL d   1       9.174  -4.899   0.543  0.00  0.00    -0.372 N 
ATOM     36  C   UNL d   1       7.904  -4.994   1.013  0.00  0.00     0.121 A 
ATOM     37  HN  UNL d   1       9.826  -5.683   0.571  1.00  0.00     0.164 HD
ENDBRANCH  25  30
ENDBRANCH  22  23
ENDBRANCH   1  22
TORSDOF 7
