REMARK  8 active torsions:
REMARK  status: ('A' for Active; 'I' for Inactive)
REMARK    1  A    between atoms: C_3  and  C_2 
REMARK    2  A    between atoms: C_4  and  C_3 
REMARK    3  A    between atoms: O_8  and  C_3 
REMARK    4  A    between atoms: C_7  and  O_8 
REMARK    5  A    between atoms: O_23  and  C_7 
REMARK    6  A    between atoms: C_18  and  C_11 
REMARK    7  A    between atoms: O_27  and  C_22 
REMARK    8  A    between atoms: C_28  and  O_23 
ROOT
ATOM      1  C   UNL d   1       1.339   2.460   0.806  0.00  0.00     0.201 C 
ENDROOT
BRANCH   1   2
ATOM      2  C   UNL d   1       0.662   1.438  -0.207  0.00  0.00     0.257 C 
ATOM      3  N   UNL d   1      -0.846   1.353  -0.195  0.00  0.00     0.096 N 
ATOM      4  C   UNL d   1      -1.218   0.103  -0.918  0.00  0.00     0.282 C 
ATOM      5  C   UNL d   1      -1.490   2.460  -0.944  0.00  0.00     0.273 C 
ATOM      6  C   UNL d   1      -0.781   0.152  -2.409  0.00  0.00     0.040 C 
ATOM      7  C   UNL d   1       0.019   1.458  -2.655  0.00  0.00    -0.001 C 
ATOM      8  C   UNL d   1      -0.911   2.640  -2.349  0.00  0.00     0.035 C 
ATOM      9  C   UNL d   1       1.183   1.581  -1.660  0.00  0.00     0.044 C 
BRANCH   6  10
ATOM     10  C   UNL d   1      -0.007  -1.081  -2.805  0.00  0.00    -0.030 C 
ATOM     11  C   UNL d   1      -0.369  -1.902  -3.801  0.00  0.00     0.007 C 
ENDBRANCH   6  10
ENDBRANCH   1   2
BRANCH   1  12
ATOM     12  C   UNL d   1       2.885   2.508   0.738  0.00  0.00    -0.013 A 
ATOM     13  C   UNL d   1       3.692   3.689   0.914  0.00  0.00     0.002 A 
ATOM     14  C   UNL d   1       5.098   3.547   0.797  0.00  0.00     0.043 A 
ATOM     15  C   UNL d   1       3.221   4.991   1.215  0.00  0.00     0.051 A 
ATOM     16  C   UNL d   1       5.920   4.660   0.943  0.00  0.00     0.033 A 
ATOM     17  N   UNL d   1       5.709   2.382   0.553  0.00  0.00    -0.365 N 
ATOM     18  C   UNL d   1       5.419   5.935   1.219  0.00  0.00     0.039 A 
ATOM     19  C   UNL d   1       4.055   6.103   1.356  0.00  0.00     0.069 A 
ATOM     20  C   UNL d   1       4.944   1.283   0.449  0.00  0.00     0.089 A 
ATOM     21  HN  UNL d   1       6.722   2.331   0.450  1.00  0.00     0.165 HD
ATOM     22  C   UNL d   1       3.570   1.296   0.551  0.00  0.00     0.027 A 
BRANCH  19  23
ATOM     23  O   UNL d   1       3.392   7.264   1.629  0.00  0.00    -0.356 OA
ATOM     24  C   UNL d   1       4.166   8.451   1.719  0.00  0.00     0.210 C 
ENDBRANCH  19  23
ENDBRANCH   1  12
BRANCH   1  25
ATOM     25  O   UNL d   1       0.724   3.736   0.578  0.00  0.00    -0.286 OA
BRANCH  25  26
ATOM     26  C   UNL d   1      -0.057   4.181   1.601  0.00  0.00     0.407 C 
ATOM     27  O   UNL d   1      -0.066   3.744   2.740  0.00  0.00    -0.229 OA
BRANCH  26  28
ATOM     28  O   UNL d   1      -0.861   5.165   1.121  0.00  0.00    -0.298 OA
BRANCH  28  29
ATOM     29  C   UNL d   1      -2.004   5.462   1.929  0.00  0.00     0.176 C 
ATOM     30  C   UNL d   1      -2.044   6.944   2.228  0.00  0.00     0.034 C 
ENDBRANCH  28  29
ENDBRANCH  26  28
ENDBRANCH  25  26
ENDBRANCH   1  25
TORSDOF 8
