REMARK  1 active torsions:
REMARK  status: ('A' for Active; 'I' for Inactive)
REMARK    1  A    between atoms: C_8  and  N_1 
ROOT
ATOM      1  N   UNL d   1       2.402   0.714  -0.059  0.00  0.00    -0.268 N 
ATOM      2  C   UNL d   1       1.228   1.475   0.063  0.00  0.00     0.266 A 
ATOM      3  C   UNL d   1       2.358  -0.669  -0.065  0.00  0.00     0.087 A 
ATOM      4  C   UNL d   1      -0.039   0.716   0.048  0.00  0.00     0.059 A 
ATOM      5  N   UNL d   1       1.256  -1.351   0.002  0.00  0.00    -0.345 N 
ATOM      6  HN  UNL d   1       1.281  -2.371   0.025  1.00  0.00     0.167 HD
ATOM      7  C   UNL d   1       0.036  -0.673   0.042  0.00  0.00     0.051 A 
ATOM      8  C   UNL d   1      -1.276   1.371   0.004  0.00  0.00     0.021 A 
ATOM      9  C   UNL d   1      -1.147  -1.417   0.038  0.00  0.00     0.054 A 
ATOM     10  O   UNL d   1       1.169   2.696   0.152  0.00  0.00    -0.267 OA
ATOM     11  C   UNL d   1      -2.382  -0.770  -0.019  0.00  0.00     0.036 A 
ATOM     12  C   UNL d   1      -2.452   0.622  -0.049  0.00  0.00     0.025 A 
ATOM     13  C   UNL d   1       3.633  -1.488  -0.105  0.00  0.00     0.089 C 
ATOM     14 CL   UNL d   1      -3.831  -1.696  -0.079  0.00  0.00    -0.084 Cl
ENDROOT
BRANCH   1  15
ATOM     15  C   UNL d   1       3.628   1.433  -0.164  0.00  0.00     0.044 A 
ATOM     16  C   UNL d   1       4.032   2.285   0.875  0.00  0.00     0.033 A 
ATOM     17  C   UNL d   1       5.179   3.068   0.736  0.00  0.00     0.044 A 
ATOM     18  C   UNL d   1       5.920   2.995  -0.437  0.00  0.00     0.116 A 
ATOM     19  C   UNL d   1       5.560   2.122  -1.459  0.00  0.00     0.044 A 
ATOM     20  F   UNL d   1       6.994   3.781  -0.589  0.00  0.00    -0.206 F 
ATOM     21  C   UNL d   1       4.413   1.336  -1.323  0.00  0.00     0.033 A 
ENDBRANCH   1  15
TORSDOF 1
