REMARK  9 active torsions:
REMARK  status: ('A' for Active; 'I' for Inactive)
REMARK    1  A    between atoms: N_5  and  C_1 
REMARK    2  A    between atoms: C_2  and  C_7 
REMARK    3  A    between atoms: N_4  and  C_3 
REMARK       I    between atoms: C_6  and  N_5 
REMARK    4  A    between atoms: C_12  and  C_6 
REMARK    5  A    between atoms: C_9  and  C_12 
REMARK    6  A    between atoms: C_13  and  C_9 
REMARK    7  A    between atoms: C_17  and  C_9 
REMARK    8  A    between atoms: C_11  and  C_13 
REMARK    9  A    between atoms: O_22  and  C_11 
ROOT
ATOM      1  N   UNL d   1       3.489  -0.366   0.614  0.00  0.00    -0.326 N 
ATOM      2  C   UNL d   1       3.655  -1.749   0.617  0.00  0.00     0.222 C 
ATOM      3  O   UNL d   1       2.780  -2.582   0.498  0.00  0.00    -0.273 OA
ATOM      4  H   UNL d   1       4.231   0.067   0.092  0.00  0.00     0.169 HD
ENDROOT
BRANCH   1   5
ATOM      5  C   UNL d   1       2.235   0.249   0.450  0.00  0.00     0.057 A 
ATOM      6  C   UNL d   1       1.969   1.024  -0.708  0.00  0.00     0.037 A 
ATOM      7  C   UNL d   1       0.672   1.565  -0.800  0.00  0.00     0.027 A 
ATOM      8  C   UNL d   1      -0.255   1.473   0.245  0.00  0.00     0.018 A 
ATOM      9  C   UNL d   1       0.068   0.808   1.430  0.00  0.00     0.050 A 
ATOM     10  C   UNL d   1       1.302   0.144   1.500  0.00  0.00     0.047 A 
BRANCH   6  11
ATOM     11  N   UNL d   1       2.930   1.181  -1.749  0.00  0.00    -0.278 NA
ATOM     12  C   UNL d   1       4.083   2.061  -1.390  0.00  0.00     0.122 C 
ATOM     13  C   UNL d   1       5.101   2.078  -2.546  0.00  0.00     0.182 C 
ATOM     14  O   UNL d   1       4.507   2.566  -3.756  0.00  0.00    -0.389 OA
ATOM     15  C   UNL d   1       3.433   1.700  -4.150  0.00  0.00     0.182 C 
ATOM     16  C   UNL d   1       2.358   1.616  -3.059  0.00  0.00     0.122 C 
ENDBRANCH   6  11
BRANCH   9  17
ATOM     17  C   UNL d   1      -0.885   0.864   2.592  0.00  0.00     0.417 C 
ATOM     18  F   UNL d   1      -0.377   0.354   3.749  0.00  0.00    -0.166 F 
ATOM     19  F   UNL d   1      -1.255   2.146   2.890  0.00  0.00    -0.166 F 
ATOM     20  F   UNL d   1      -2.047   0.192   2.360  0.00  0.00    -0.166 F 
ENDBRANCH   9  17
ENDBRANCH   1   5
BRANCH   2  21
ATOM     21  C   UNL d   1       5.141  -2.068   0.750  0.00  0.00     0.113 C 
BRANCH  21  22
ATOM     22  C   UNL d   1       5.517  -3.460   1.310  0.00  0.00     0.037 C 
BRANCH  22  23
ATOM     23  C   UNL d   1       6.978  -3.753   0.867  0.00  0.00     0.119 C 
BRANCH  23  24
ATOM     24  C   UNL d   1       7.938  -2.595   1.049  0.00  0.00     0.140 C 
ATOM     25  O   UNL d   1       8.274  -1.857   0.133  0.00  0.00    -0.650 OA
BRANCH  24  26
ATOM     26  O   UNL d   1       8.378  -2.406   2.307  0.00  0.00    -0.776 OA
ATOM     27  H   UNL d   1       8.000  -3.007   2.975  0.00  0.00     0.167 HD
ENDBRANCH  24  26
ENDBRANCH  23  24
ENDBRANCH  22  23
BRANCH  22  28
ATOM     28  C   UNL d   1       5.238  -3.646   2.813  0.00  0.00    -0.053 A 
ATOM     29  C   UNL d   1       4.065  -3.132   3.401  0.00  0.00     0.007 A 
ATOM     30  C   UNL d   1       3.763  -3.313   4.752  0.00  0.00     0.001 A 
ATOM     31  C   UNL d   1       4.629  -4.028   5.565  0.00  0.00     0.000 A 
ATOM     32  C   UNL d   1       5.773  -4.589   5.011  0.00  0.00     0.001 A 
ATOM     33  C   UNL d   1       6.058  -4.423   3.649  0.00  0.00     0.007 A 
ENDBRANCH  22  28
ENDBRANCH  21  22
ENDBRANCH   2  21
TORSDOF 9
