REMARK  5 active torsions:
REMARK  status: ('A' for Active; 'I' for Inactive)
REMARK    1  A    between atoms: N_2  and  C_1 
REMARK    2  A    between atoms: S_3  and  C_1 
REMARK    3  A    between atoms: C_7  and  S_3 
REMARK    4  A    between atoms: C_5  and  C_7 
REMARK    5  A    between atoms: C_6  and  C_5 
ROOT
ATOM      1  C   UNL d   1      -1.663   1.072  -0.649  0.00  0.00     0.165 C 
ENDROOT
BRANCH   1   2
ATOM      2  C   UNL d   1      -2.414   2.205  -1.338  0.00  0.00     0.169 C 
ATOM      3  O   UNL d   1      -1.864   3.154  -1.896  0.00  0.00    -0.291 OA
BRANCH   2   4
ATOM      4  C   UNL d   1      -3.915   2.161  -1.343  0.00  0.00     0.011 A 
ATOM      5  C   UNL d   1      -4.642   1.082  -0.820  0.00  0.00     0.017 A 
ATOM      6  C   UNL d   1      -6.043   1.098  -0.848  0.00  0.00     0.025 A 
ATOM      7  C   UNL d   1      -6.720   2.185  -1.397  0.00  0.00     0.034 A 
ATOM      8  C   UNL d   1      -6.011   3.261  -1.923  0.00  0.00     0.025 A 
ATOM      9 CL   UNL d   1      -8.440   2.199  -1.422  0.00  0.00    -0.084 Cl
ATOM     10  C   UNL d   1      -4.612   3.248  -1.896  0.00  0.00     0.017 A 
ENDBRANCH   2   4
ENDBRANCH   1   2
BRANCH   1  11
ATOM     11  S   UNL d   1       0.133   1.369  -0.601  0.00  0.00    -0.093 SA
BRANCH  11  12
ATOM     12  C   UNL d   1       0.726  -0.107   0.171  0.00  0.00     0.137 C 
ATOM     13  S   UNL d   1       0.098  -0.573   1.665  0.00  0.00    -0.053 SA
BRANCH  12  14
ATOM     14  N   UNL d   1       1.753  -0.784  -0.503  0.00  0.00    -0.362 N 
ATOM     15  C   UNL d   1       2.353  -2.042  -0.007  0.00  0.00     0.150 C 
ATOM     16  C   UNL d   1       3.860  -1.867   0.211  0.00  0.00     0.187 C 
ATOM     17  O   UNL d   1       4.502  -1.454  -1.004  0.00  0.00    -0.388 OA
ATOM     18  C   UNL d   1       3.962  -0.205  -1.466  0.00  0.00     0.187 C 
ATOM     19  C   UNL d   1       2.450  -0.310  -1.720  0.00  0.00     0.150 C 
ENDBRANCH  12  14
ENDBRANCH  11  12
ENDBRANCH   1  11
TORSDOF 5
