REMARK  5 active torsions:
REMARK  status: ('A' for Active; 'I' for Inactive)
REMARK    1  A    between atoms: C_3  and  C_1 
REMARK    2  A    between atoms: C_2  and  C_13 
REMARK       I    between atoms: N_12  and  C_3 
REMARK    3  A    between atoms: O_17  and  C_5 
REMARK    4  A    between atoms: N_7  and  N_12 
REMARK    5  A    between atoms: N_16  and  C_10 
ROOT
ATOM      1  N   UNL d   1      -1.086   3.946   0.363  0.00  0.00    -0.308 N 
ATOM      2  HN  UNL d   1      -1.530   4.810   0.051  1.00  0.00     0.186 HD
ATOM      3  C   UNL d   1      -1.774   3.021   0.963  0.00  0.00     0.121 C 
ENDROOT
BRANCH   1   4
ATOM      4  N   UNL d   1       0.259   3.729   0.161  0.00  0.00    -0.266 N 
ATOM      5  C   UNL d   1       0.866   2.492  -0.030  0.00  0.00     0.271 C 
ATOM      6  O   UNL d   1       0.269   1.415  -0.080  0.00  0.00    -0.266 OA
ATOM      7  H   UNL d   1       0.761   4.558  -0.142  0.00  0.00     0.190 HD
BRANCH   5   8
ATOM      8  C   UNL d   1       2.352   2.494  -0.193  0.00  0.00     0.054 A 
ATOM      9  C   UNL d   1       2.977   1.429  -0.882  0.00  0.00     0.021 A 
ATOM     10  C   UNL d   1       4.374   1.416  -0.988  0.00  0.00     0.024 A 
ATOM     11  C   UNL d   1       5.150   2.387  -0.355  0.00  0.00     0.002 A 
ATOM     12  C   UNL d   1       4.535   3.415   0.357  0.00  0.00     0.001 A 
ATOM     13  C   UNL d   1       3.141   3.472   0.440  0.00  0.00     0.019 A 
BRANCH   9  14
ATOM     14  N   UNL d   1       2.244   0.505  -1.659  0.00  0.00    -0.302 NA
ATOM     15  H   UNL d   1       1.283   0.415  -1.304  0.00  0.00     0.124 HD
ATOM     16  H   UNL d   1       2.689  -0.401  -1.744  0.00  0.00     0.124 HD
ENDBRANCH   9  14
ENDBRANCH   5   8
ENDBRANCH   1   4
BRANCH   3  17
ATOM     17  C   UNL d   1      -3.223   3.178   1.229  0.00  0.00     0.017 A 
ATOM     18  C   UNL d   1      -3.923   2.184   1.923  0.00  0.00     0.099 A 
ATOM     19  C   UNL d   1      -5.277   2.370   2.228  0.00  0.00     0.069 A 
ATOM     20 CL   UNL d   1      -6.148   1.162   3.101  0.00  0.00    -0.081 Cl
ATOM     21  C   UNL d   1      -5.935   3.538   1.849  0.00  0.00     0.050 A 
ATOM     22  C   UNL d   1      -5.234   4.518   1.147  0.00  0.00     0.036 A 
ATOM     23  C   UNL d   1      -3.887   4.344   0.829  0.00  0.00     0.039 A 
ATOM     24 CL   UNL d   1      -6.038   5.968   0.689  0.00  0.00    -0.084 Cl
BRANCH  18  25
ATOM     25  O   UNL d   1      -3.278   1.040   2.315  0.00  0.00    -0.358 OA
ATOM     26  H   UNL d   1      -3.925   0.465   2.766  0.00  0.00     0.217 HD
ENDBRANCH  18  25
ENDBRANCH   3  17
TORSDOF 5
