REMARK  4 active torsions:
REMARK  status: ('A' for Active; 'I' for Inactive)
REMARK    1  A    between atoms: C_5  and  C_1 
REMARK    2  A    between atoms: N_2  and  C_5 
REMARK       I    between atoms: C_4  and  N_2 
REMARK    3  A    between atoms: C_6  and  C_4 
REMARK    4  A    between atoms: C_13  and  C_8 
ROOT
ATOM      1  N   UNL d   1       2.337  -2.846  -1.180  0.00  0.00    -0.349 N 
ATOM      2  C   UNL d   1       2.546  -4.154  -0.817  0.00  0.00     0.241 C 
ATOM      3  O   UNL d   1       2.724  -4.532   0.332  0.00  0.00    -0.269 OA
ATOM      4  H   UNL d   1       2.224  -2.600  -2.154  0.00  0.00     0.163 HD
ENDROOT
BRANCH   1   5
ATOM      5  C   UNL d   1       2.386  -1.740  -0.222  0.00  0.00     0.114 C 
ATOM      6  C   UNL d   1       3.815  -1.177  -0.204  0.00  0.00     0.037 C 
BRANCH   5   7
ATOM      7  C   UNL d   1       1.278  -0.736  -0.563  0.00  0.00    -0.030 A 
ATOM      8  C   UNL d   1      -0.085  -1.021  -0.307  0.00  0.00    -0.053 A 
ATOM      9  C   UNL d   1      -1.089  -0.168  -0.816  0.00  0.00     0.014 A 
ATOM     10  C   UNL d   1      -0.561  -2.175   0.538  0.00  0.00     0.049 C 
ATOM     11  C   UNL d   1      -0.776   0.977  -1.551  0.00  0.00    -0.061 A 
ATOM     12  C   UNL d   1       0.564   1.322  -1.700  0.00  0.00     0.007 A 
ATOM     13  C   UNL d   1      -1.865   1.832  -2.126  0.00  0.00     0.048 C 
ATOM     14  C   UNL d   1       1.571   0.475  -1.223  0.00  0.00     0.010 A 
ENDBRANCH   5   7
ENDBRANCH   1   5
BRANCH   2  15
ATOM     15  C   UNL d   1       2.503  -5.100  -1.972  0.00  0.00     0.075 C 
ATOM     16  C   UNL d   1       2.545  -6.428  -1.781  0.00  0.00     0.017 C 
BRANCH  16  17
ATOM     17  C   UNL d   1       2.384  -7.427  -2.856  0.00  0.00    -0.036 A 
ATOM     18  C   UNL d   1       3.022  -8.674  -2.764  0.00  0.00     0.011 A 
ATOM     19  C   UNL d   1       2.792  -9.670  -3.724  0.00  0.00     0.001 A 
ATOM     20  C   UNL d   1       1.916  -9.432  -4.782  0.00  0.00     0.000 A 
ATOM     21  C   UNL d   1       1.277  -8.199  -4.885  0.00  0.00     0.001 A 
ATOM     22  C   UNL d   1       1.508  -7.210  -3.929  0.00  0.00     0.011 A 
ENDBRANCH  16  17
ENDBRANCH   2  15
TORSDOF 4
