REMARK  4 active torsions:
REMARK  status: ('A' for Active; 'I' for Inactive)
REMARK    1  A    between atoms: C_7  and  N_1 
REMARK    2  A    between atoms: C_9  and  C_7 
REMARK    3  A    between atoms: C_10  and  C_7 
REMARK    4  A    between atoms: C_11  and  C_9 
ROOT
ATOM      1  C   UNL d   1       0.777   1.261  -1.606  0.00  0.00     0.264 C 
ENDROOT
BRANCH   1   2
ATOM      2  N   UNL d   1       0.833   1.196  -0.119  0.00  0.00     0.132 N 
ATOM      3  C   UNL d   1       1.633   0.092   0.396  0.00  0.00     0.400 C 
ATOM      4  N   UNL d   1       0.984  -1.158   0.146  0.00  0.00    -0.342 N 
ATOM      5  C   UNL d   1      -0.358  -1.307   0.247  0.00  0.00     0.170 C 
ATOM      6  H   UNL d   1       1.536  -2.006   0.159  0.00  0.00     0.163 HD
ATOM      7  N   UNL d   1      -1.076  -0.161   0.297  0.00  0.00    -0.342 N 
ATOM      8  S   UNL d   1      -1.080  -2.796   0.248  0.00  0.00    -0.041 SA
ATOM      9  C   UNL d   1      -0.464   1.115   0.534  0.00  0.00     0.400 C 
ATOM     10  H   UNL d   1      -2.068  -0.267   0.463  0.00  0.00     0.163 HD
ENDBRANCH   1   2
BRANCH   1  11
ATOM     11  C   UNL d   1      -0.128   2.384  -2.210  0.00  0.00     0.079 C 
BRANCH  11  12
ATOM     12  C   UNL d   1       0.194   3.841  -1.945  0.00  0.00    -0.056 A 
ATOM     13  C   UNL d   1       1.039   4.552  -2.812  0.00  0.00     0.007 A 
ATOM     14  C   UNL d   1       1.214   5.931  -2.671  0.00  0.00     0.001 A 
ATOM     15  C   UNL d   1       0.556   6.618  -1.653  0.00  0.00     0.000 A 
ATOM     16  C   UNL d   1      -0.257   5.921  -0.762  0.00  0.00     0.001 A 
ATOM     17  C   UNL d   1      -0.434   4.543  -0.906  0.00  0.00     0.007 A 
ENDBRANCH  11  12
ENDBRANCH   1  11
BRANCH   1  18
ATOM     18  C   UNL d   1       2.152   1.298  -2.291  0.00  0.00    -0.025 A 
ATOM     19  C   UNL d   1       2.324   0.640  -3.523  0.00  0.00     0.009 A 
ATOM     20  C   UNL d   1       3.566   0.626  -4.161  0.00  0.00     0.001 A 
ATOM     21  C   UNL d   1       4.657   1.265  -3.575  0.00  0.00     0.000 A 
ATOM     22  C   UNL d   1       4.499   1.940  -2.368  0.00  0.00     0.001 A 
ATOM     23  C   UNL d   1       3.251   1.975  -1.740  0.00  0.00     0.009 A 
ENDBRANCH   1  18
TORSDOF 4
