REMARK  4 active torsions:
REMARK  status: ('A' for Active; 'I' for Inactive)
REMARK    1  A    between atoms: C_2  and  C_1 
REMARK    2  A    between atoms: C_16  and  N_3 
REMARK    3  A    between atoms: C_14  and  N_5 
REMARK    4  A    between atoms: C_17  and  C_16 
ROOT
ATOM      1  C   UNL d   1      -0.342   1.178   0.206  0.00  0.00     0.072 A 
ATOM      2  C   UNL d   1       0.983   0.773   0.300  0.00  0.00     0.136 A 
ATOM      3  N   UNL d   1       0.988  -0.626   0.202  0.00  0.00    -0.240 N 
ATOM      4  N   UNL d   1      -0.274  -1.106   0.029  0.00  0.00    -0.302 N 
ATOM      5  HN  UNL d   1      -0.559  -2.077  -0.103  1.00  0.00     0.186 HD
ATOM      6  C   UNL d   1      -1.054  -0.029   0.071  0.00  0.00     0.127 A 
ATOM      7  N   UNL d   1       2.100   1.555   0.369  0.00  0.00    -0.383 N 
ATOM      8  H   UNL d   1       1.962   2.552   0.172  0.00  0.00     0.157 HD
ATOM      9  H   UNL d   1       2.956   1.227  -0.075  0.00  0.00     0.157 HD
ENDROOT
BRANCH   1  10
ATOM     10  C   UNL d   1      -0.809   2.540   0.113  0.00  0.00     0.140 A 
ATOM     11  N   UNL d   1      -2.031   2.993   0.513  0.00  0.00    -0.303 N 
ATOM     12  C   UNL d   1      -2.046   4.322   0.159  0.00  0.00     0.194 A 
ATOM     13  S   UNL d   1      -3.224   5.473   0.332  0.00  0.00    -0.039 SA
ATOM     14  N   UNL d   1      -0.810   4.580  -0.417  0.00  0.00    -0.274 N 
ATOM     15  N   UNL d   1      -0.047   3.454  -0.432  0.00  0.00    -0.282 N 
ATOM     16  H   UNL d   1      -0.495   5.459  -0.812  0.00  0.00     0.189 HD
ATOM     17  HN  UNL d   1       0.903   3.347  -0.788  1.00  0.00     0.188 HD
BRANCH  11  18
ATOM     18  C   UNL d   1      -3.055   2.302   1.283  0.00  0.00     0.160 C 
BRANCH  18  19
ATOM     19  C   UNL d   1      -4.126   1.692   0.421  0.00  0.00    -0.017 C 
ATOM     20  C   UNL d   1      -4.204   1.660  -0.918  0.00  0.00     0.008 C 
ENDBRANCH  18  19
ENDBRANCH  11  18
ENDBRANCH   1  10
BRANCH   3  21
ATOM     21  C   UNL d   1       2.086  -1.534   0.217  0.00  0.00     0.058 A 
ATOM     22  C   UNL d   1       3.291  -1.220   0.857  0.00  0.00     0.031 A 
ATOM     23  C   UNL d   1       4.353  -2.128   0.832  0.00  0.00     0.002 A 
ATOM     24  C   UNL d   1       4.219  -3.349   0.172  0.00  0.00     0.000 A 
ATOM     25  C   UNL d   1       3.018  -3.674  -0.454  0.00  0.00     0.002 A 
ATOM     26  C   UNL d   1       1.948  -2.777  -0.422  0.00  0.00     0.031 A 
ENDBRANCH   3  21
TORSDOF 4
