REMARK  5 active torsions:
REMARK  status: ('A' for Active; 'I' for Inactive)
REMARK    1  A    between atoms: C_2  and  O_12 
REMARK    2  A    between atoms: C_6  and  C_2 
REMARK    3  A    between atoms: C_3  and  C_10 
REMARK    4  A    between atoms: C_21  and  C_4 
REMARK    5  A    between atoms: O_12  and  C_21 
ROOT
ATOM      1  N   UNL d   1       1.312   0.169   0.437  0.00  0.00    -0.191 NA
ATOM      2  C   UNL d   1       2.461   0.114   0.282  0.00  0.00     0.099 C 
ATOM      3  C   UNL d   1       6.655  -0.086  -0.331  0.00  0.00     0.017 A 
ATOM      4  C   UNL d   1       3.881   0.048   0.086  0.00  0.00     0.044 A 
ATOM      5  C   UNL d   1       6.020   1.155  -0.226  0.00  0.00     0.022 A 
ATOM      6  C   UNL d   1       5.905  -1.259  -0.217  0.00  0.00     0.022 A 
ATOM      7  C   UNL d   1       4.636   1.222  -0.019  0.00  0.00     0.024 A 
ATOM      8  C   UNL d   1       4.522  -1.194  -0.009  0.00  0.00     0.024 A 
ENDROOT
BRANCH   3   9
ATOM      9  C   UNL d   1       8.065  -0.157  -0.577  0.00  0.00    -0.065 C 
ATOM     10  C   UNL d   1       9.242  -0.194  -0.818  0.00  0.00    -0.074 C 
BRANCH  10  11
ATOM     11  C   UNL d   1      10.672  -0.175  -1.157  0.00  0.00     0.273 C 
BRANCH  11  12
ATOM     12  O   UNL d   1      11.246  -1.475  -0.952  0.00  0.00    -0.305 OA
BRANCH  12  13
ATOM     13  C   UNL d   1      11.971  -1.970  -1.984  0.00  0.00     0.294 C 
ATOM     14  O   UNL d   1      12.131  -1.441  -3.072  0.00  0.00    -0.259 OA
BRANCH  13  15
ATOM     15  C   UNL d   1      12.576  -3.285  -1.630  0.00  0.00     0.039 A 
ATOM     16  C   UNL d   1      13.235  -4.005  -2.640  0.00  0.00     0.019 A 
ATOM     17  C   UNL d   1      13.798  -5.256  -2.367  0.00  0.00     0.025 A 
ATOM     18  C   UNL d   1      13.712  -5.787  -1.083  0.00  0.00     0.034 A 
ATOM     19  C   UNL d   1      13.083  -5.071  -0.064  0.00  0.00     0.025 A 
ATOM     20 CL   UNL d   1      14.377  -7.339  -0.752  0.00  0.00    -0.084 Cl
ATOM     21  C   UNL d   1      12.515  -3.821  -0.336  0.00  0.00     0.019 A 
ENDBRANCH  13  15
ENDBRANCH  12  13
ENDBRANCH  11  12
ENDBRANCH  10  11
ENDBRANCH   3   9
TORSDOF 5
