REMARK  0 active torsions:
REMARK  status: ('A' for Active; 'I' for Inactive)
ROOT
ATOM      1  C   UNL d   1      -1.002  -1.689  -0.014  0.00  0.00     0.256 C 
ATOM      2  N   UNL d   1       0.341  -1.754  -0.280  0.00  0.00    -0.325 N 
ATOM      3  C   UNL d   1      -1.583  -0.334  -0.053  0.00  0.00     0.065 A 
ATOM      4  C   UNL d   1       1.166  -0.569  -0.184  0.00  0.00     0.143 C 
ATOM      5  O   UNL d   1       0.523   0.515  -0.882  0.00  0.00    -0.319 OA
ATOM      6  C   UNL d   1      -0.778   0.707  -0.510  0.00  0.00     0.087 A 
ATOM      7  O   UNL d   1      -1.667  -2.686   0.238  0.00  0.00    -0.267 OA
ATOM      8  C   UNL d   1      -2.891  -0.081   0.361  0.00  0.00     0.020 A 
ATOM      9  C   UNL d   1       1.441  -0.175   1.288  0.00  0.00     0.061 C 
ATOM     10  C   UNL d   1       2.518  -0.794  -0.886  0.00  0.00     0.061 C 
ATOM     11  C   UNL d   1      -1.276   2.004  -0.588  0.00  0.00     0.038 A 
ATOM     12  C   UNL d   1      -3.383   1.226   0.314  0.00  0.00     0.001 A 
ATOM     13  C   UNL d   1       2.293   1.091   1.379  0.00  0.00     0.005 C 
ATOM     14  C   UNL d   1       3.406   0.453  -0.810  0.00  0.00     0.005 C 
ATOM     15  C   UNL d   1      -2.579   2.265  -0.163  0.00  0.00     0.003 A 
ATOM     16  C   UNL d   1       3.610   0.929   0.627  0.00  0.00     0.000 C 
ATOM     17  H   UNL d   1       0.753  -2.669  -0.155  0.00  0.00     0.165 HD
ENDROOT
TORSDOF 0
