REMARK  3 active torsions:
REMARK  status: ('A' for Active; 'I' for Inactive)
REMARK    1  A    between atoms: C_2  and  C_1 
REMARK    2  A    between atoms: N_9  and  C_1 
REMARK    3  A    between atoms: N_10  and  N_9 
ROOT
ATOM      1  C   UNL d   1       0.378  -0.864  -0.983  0.00  0.00     0.006 A 
ATOM      2  C   UNL d   1      -0.539  -0.289  -1.875  0.00  0.00     0.038 A 
ATOM      3  C   UNL d   1       0.634  -2.239  -1.055  0.00  0.00     0.038 A 
ATOM      4  C   UNL d   1       0.008  -3.016  -2.030  0.00  0.00     0.036 A 
ATOM      5  C   UNL d   1      -1.176  -1.085  -2.828  0.00  0.00     0.036 A 
ATOM      6  C   UNL d   1      -0.900  -2.446  -2.919  0.00  0.00     0.047 A 
ATOM      7 CL   UNL d   1       0.362  -4.696  -2.133  0.00  0.00    -0.084 Cl
ATOM      8 CL   UNL d   1      -2.321  -0.378  -3.901  0.00  0.00    -0.084 Cl
ENDROOT
BRANCH   1   9
ATOM      9  C   UNL d   1       1.037  -0.035   0.069  0.00  0.00     0.121 C 
ATOM     10  S   UNL d   1       0.190   1.076   1.007  0.00  0.00    -0.059 SA
BRANCH   9  11
ATOM     11  N   UNL d   1       2.390  -0.177   0.334  0.00  0.00    -0.314 N 
ATOM     12  H   UNL d   1       2.756   0.463   1.042  0.00  0.00     0.181 HD
BRANCH  11  13
ATOM     13  N   UNL d   1       3.322  -0.801  -0.508  0.00  0.00    -0.249 NA
ATOM     14  H   UNL d   1       2.996  -0.808  -1.474  0.00  0.00     0.143 HD
ATOM     15  H   UNL d   1       3.452  -1.771  -0.213  0.00  0.00     0.143 HD
ENDBRANCH  11  13
ENDBRANCH   9  11
ENDBRANCH   1   9
TORSDOF 3
