REMARK  6 active torsions:
REMARK  status: ('A' for Active; 'I' for Inactive)
REMARK    1  A    between atoms: S_14  and  C_2 
REMARK    2  A    between atoms: N_7  and  C_3 
REMARK    3  A    between atoms: C_17  and  N_11 
REMARK    4  A    between atoms: C_23  and  S_14 
REMARK    5  A    between atoms: C_15  and  C_23 
REMARK    6  A    between atoms: C_16  and  C_15 
ROOT
ATOM      1  C   UNL d   1       0.832   0.269   0.130  0.00  0.00     0.086 A 
ATOM      2  C   UNL d   1      -0.038   1.360   0.222  0.00  0.00     0.092 A 
ATOM      3  C   UNL d   1      -1.093  -1.213  -0.095  0.00  0.00     0.077 A 
ATOM      4  N   UNL d   1      -1.379   1.209   0.164  0.00  0.00    -0.351 N 
ATOM      5  HN  UNL d   1      -1.999   2.017   0.226  1.00  0.00     0.166 HD
ATOM      6  C   UNL d   1       0.304  -1.039  -0.004  0.00  0.00    -0.008 A 
ATOM      7  C   UNL d   1      -1.888  -0.056   0.018  0.00  0.00     0.035 A 
ATOM      8  C   UNL d   1       2.255   0.463   0.165  0.00  0.00     0.103 C 
ATOM      9  N   UNL d   1       3.408   0.571   0.180  0.00  0.00    -0.191 NA
ATOM     10  C   UNL d   1       1.256  -2.214  -0.049  0.00  0.00     0.052 C 
ATOM     11  C   UNL d   1      -3.390  -0.117  -0.026  0.00  0.00     0.070 C 
ENDROOT
BRANCH   2  12
ATOM     12  S   UNL d   1       0.606   3.025   0.429  0.00  0.00    -0.103 SA
BRANCH  12  13
ATOM     13  C   UNL d   1      -0.901   4.030   0.598  0.00  0.00     0.164 C 
BRANCH  13  14
ATOM     14  C   UNL d   1      -0.503   5.452   0.968  0.00  0.00     0.169 C 
ATOM     15  O   UNL d   1      -0.532   5.832   2.140  0.00  0.00    -0.291 OA
BRANCH  14  16
ATOM     16  C   UNL d   1      -0.053   6.420  -0.088  0.00  0.00     0.013 A 
ATOM     17  C   UNL d   1      -0.003   6.093  -1.446  0.00  0.00     0.057 A 
ATOM     18  C   UNL d   1       0.445   7.039  -2.365  0.00  0.00     0.117 A 
ATOM     19  F   UNL d   1       0.492   6.714  -3.664  0.00  0.00    -0.206 F 
ATOM     20  C   UNL d   1       0.846   8.309  -1.968  0.00  0.00     0.042 A 
ATOM     21  C   UNL d   1       0.794   8.647  -0.619  0.00  0.00     0.004 A 
ATOM     22  C   UNL d   1       0.346   7.708   0.316  0.00  0.00     0.015 A 
ENDBRANCH  14  16
ENDBRANCH  13  14
ENDBRANCH  12  13
ENDBRANCH   2  12
BRANCH   3  23
ATOM     23  N   UNL d   1      -1.679  -2.501  -0.212  0.00  0.00    -0.298 N 
ATOM     24  N   UNL d   1      -1.396  -3.020  -1.316  0.00  0.00    -0.300 N 
ATOM     25  HN  UNL d   1      -0.889  -2.529  -2.053  1.00  0.00     0.187 HD
ATOM     26  HN  UNL d   1      -2.253  -2.943   0.505  1.00  0.00     0.187 HD
BRANCH  24  27
ATOM     27  C   UNL d   1      -1.848  -4.355  -1.439  0.00  0.00     0.051 A 
ATOM     28  C   UNL d   1      -3.086  -4.800  -0.955  0.00  0.00     0.054 A 
ATOM     29  C   UNL d   1      -3.517  -6.106  -1.204  0.00  0.00     0.037 A 
ATOM     30 CL   UNL d   1      -5.057  -6.618  -0.628  0.00  0.00    -0.084 Cl
ATOM     31  C   UNL d   1      -2.729  -6.993  -1.930  0.00  0.00     0.048 A 
ATOM     32  C   UNL d   1      -1.491  -6.566  -2.395  0.00  0.00     0.037 A 
ATOM     33  C   UNL d   1      -1.050  -5.262  -2.153  0.00  0.00     0.054 A 
ATOM     34 CL   UNL d   1      -0.504  -7.647  -3.301  0.00  0.00    -0.084 Cl
ENDBRANCH  24  27
ENDBRANCH   3  23
TORSDOF 6
