REMARK  6 active torsions:
REMARK  status: ('A' for Active; 'I' for Inactive)
REMARK    1  A    between atoms: C_12  and  C_1 
REMARK    2  A    between atoms: C_5  and  N_14 
REMARK    3  A    between atoms: N_10  and  C_5 
REMARK    4  A    between atoms: N_14  and  N_8 
REMARK    5  A    between atoms: C_15  and  N_10 
REMARK    6  A    between atoms: O_22  and  C_16 
ROOT
ATOM      1  N   UNL d   1      -4.174   1.127   0.540  0.00  0.00    -0.309 N 
ATOM      2  HN  UNL d   1      -3.615   1.843   1.006  1.00  0.00     0.186 HD
ATOM      3  C   UNL d   1      -3.734  -0.076   0.360  0.00  0.00     0.124 C 
ENDROOT
BRANCH   1   4
ATOM      4  N   UNL d   1      -5.423   1.380   0.074  0.00  0.00    -0.276 N 
ATOM      5  H   UNL d   1      -5.923   0.655  -0.432  0.00  0.00     0.189 HD
BRANCH   4   6
ATOM      6  C   UNL d   1      -6.024   2.612   0.217  0.00  0.00     0.191 C 
ATOM      7  S   UNL d   1      -5.597   3.783   1.334  0.00  0.00    -0.039 SA
BRANCH   6   8
ATOM      8  N   UNL d   1      -7.109   2.843  -0.595  0.00  0.00    -0.332 N 
ATOM      9  H   UNL d   1      -7.720   3.587  -0.275  0.00  0.00     0.168 HD
BRANCH   8  10
ATOM     10  C   UNL d   1      -7.365   2.320  -1.878  0.00  0.00     0.034 A 
ATOM     11  C   UNL d   1      -8.666   2.402  -2.377  0.00  0.00     0.032 A 
ATOM     12  C   UNL d   1      -8.976   1.874  -3.637  0.00  0.00     0.039 A 
ATOM     13  C   UNL d   1      -7.981   1.284  -4.417  0.00  0.00     0.068 A 
ATOM     14  C   UNL d   1      -6.669   1.267  -3.947  0.00  0.00     0.039 A 
ATOM     15  C   UNL d   1      -6.361   1.784  -2.688  0.00  0.00     0.032 A 
BRANCH  13  16
ATOM     16  O   UNL d   1      -8.151   0.714  -5.646  0.00  0.00    -0.356 OA
ATOM     17  C   UNL d   1      -9.491   0.499  -6.070  0.00  0.00     0.210 C 
ENDBRANCH  13  16
ENDBRANCH   8  10
ENDBRANCH   6   8
ENDBRANCH   4   6
ENDBRANCH   1   4
BRANCH   3  18
ATOM     18  C   UNL d   1      -2.363  -0.476   0.738  0.00  0.00     0.054 A 
ATOM     19  C   UNL d   1      -1.918  -1.882   0.755  0.00  0.00     0.198 A 
ATOM     20  C   UNL d   1      -0.547  -2.120   1.248  0.00  0.00     0.049 A 
ATOM     21  O   UNL d   1      -2.648  -2.798   0.395  0.00  0.00    -0.286 OA
ATOM     22  C   UNL d   1      -0.066  -3.418   1.438  0.00  0.00     0.018 A 
ATOM     23  C   UNL d   1       0.259  -1.021   1.548  0.00  0.00     0.089 A 
ATOM     24  C   UNL d   1       1.222  -3.607   1.944  0.00  0.00     0.001 A 
ATOM     25  C   UNL d   1       2.028  -2.505   2.244  0.00  0.00     0.003 A 
ATOM     26  C   UNL d   1       1.549  -1.211   2.039  0.00  0.00     0.038 A 
ATOM     27  O   UNL d   1      -0.160   0.276   1.394  0.00  0.00    -0.321 OA
ATOM     28  C   UNL d   1      -1.470   0.476   1.037  0.00  0.00     0.159 A 
ENDBRANCH   3  18
TORSDOF 6
