REMARK  2 active torsions:
REMARK  status: ('A' for Active; 'I' for Inactive)
REMARK    1  A    between atoms: C_13  and  C_4 
REMARK    2  A    between atoms: C_12  and  C_5 
ROOT
ATOM      1  C   UNL d   1      -1.279  -0.048   0.145  0.00  0.00    -0.007 C 
ATOM      2  C   UNL d   1       1.277   0.043   0.172  0.00  0.00    -0.007 C 
ATOM      3  C   UNL d   1       0.027  -0.768  -0.008  0.00  0.00     0.184 C 
ATOM      4  C   UNL d   1      -2.365  -0.820   0.349  0.00  0.00     0.022 C 
ATOM      5  C   UNL d   1       2.433  -0.646   0.253  0.00  0.00     0.022 C 
ATOM      6  O   UNL d   1       0.070  -1.968  -0.265  0.00  0.00    -0.287 OA
ATOM      7  C   UNL d   1       1.168   1.539   0.247  0.00  0.00     0.043 C 
ATOM      8  C   UNL d   1      -1.314   1.453   0.065  0.00  0.00     0.043 C 
ATOM      9  C   UNL d   1      -0.042   2.047  -0.522  0.00  0.00     0.009 C 
ENDROOT
BRANCH   4  10
ATOM     10  C   UNL d   1      -3.713  -0.287   0.561  0.00  0.00    -0.033 A 
ATOM     11  C   UNL d   1      -4.137   0.048   1.854  0.00  0.00     0.051 A 
ATOM     12  C   UNL d   1      -5.398   0.588   1.997  0.00  0.00     0.105 A 
ATOM     13  O   UNL d   1      -5.966   0.982   3.168  0.00  0.00    -0.323 OA
ATOM     14  C   UNL d   1      -6.226   0.792   0.918  0.00  0.00     0.105 A 
ATOM     15  C   UNL d   1      -7.234   1.488   2.699  0.00  0.00     0.352 A 
ATOM     16  O   UNL d   1      -7.417   1.344   1.275  0.00  0.00    -0.323 OA
ATOM     17  C   UNL d   1      -5.842   0.463  -0.364  0.00  0.00     0.040 A 
ATOM     18  C   UNL d   1      -4.568  -0.083  -0.542  0.00  0.00     0.014 A 
ENDBRANCH   4  10
BRANCH   5  19
ATOM     19  C   UNL d   1       3.741  -0.036   0.499  0.00  0.00    -0.033 A 
ATOM     20  C   UNL d   1       4.190   0.125   1.817  0.00  0.00     0.051 A 
ATOM     21  C   UNL d   1       5.431   0.695   2.009  0.00  0.00     0.105 A 
ATOM     22  O   UNL d   1       6.026   0.914   3.212  0.00  0.00    -0.323 OA
ATOM     23  C   UNL d   1       6.212   1.105   0.954  0.00  0.00     0.105 A 
ATOM     24  C   UNL d   1       7.292   1.463   2.791  0.00  0.00     0.352 A 
ATOM     25  O   UNL d   1       7.397   1.632   1.361  0.00  0.00    -0.323 OA
ATOM     26  C   UNL d   1       5.795   0.970  -0.353  0.00  0.00     0.040 A 
ATOM     27  C   UNL d   1       4.543   0.388  -0.580  0.00  0.00     0.014 A 
ENDBRANCH   5  19
TORSDOF 2
