REMARK  6 active torsions:
REMARK  status: ('A' for Active; 'I' for Inactive)
REMARK    1  A    between atoms: C_12  and  C_1 
REMARK    2  A    between atoms: C_8  and  C_2 
REMARK    3  A    between atoms: N_11  and  C_3 
REMARK       I    between atoms: C_7  and  N_10 
REMARK       I    between atoms: N_14  and  C_7 
REMARK    4  A    between atoms: O_26  and  C_12 
REMARK    5  A    between atoms: C_25  and  N_14 
REMARK    6  A    between atoms: C_33  and  O_26 
ROOT
ATOM      1  C   UNL d   1      -1.605   1.315   0.120  0.00  0.00     0.072 A 
ATOM      2  C   UNL d   1      -2.174   0.066  -0.128  0.00  0.00     0.134 A 
ATOM      3  C   UNL d   1      -0.071  -1.005   0.127  0.00  0.00     0.125 A 
ATOM      4  N   UNL d   1      -1.401  -1.080  -0.105  0.00  0.00    -0.337 N 
ATOM      5  HN  UNL d   1      -1.838  -1.988  -0.265  1.00  0.00     0.167 HD
ATOM      6  C   UNL d   1       0.552   0.241   0.269  0.00  0.00     0.089 A 
ATOM      7  C   UNL d   1      -0.224   1.398   0.293  0.00  0.00     0.046 A 
ATOM      8  C   UNL d   1       1.972   0.385   0.340  0.00  0.00     0.103 C 
ATOM      9  N   UNL d   1       3.125   0.531   0.418  0.00  0.00    -0.191 NA
ENDROOT
BRANCH   3  10
ATOM     10  N   UNL d   1       0.670  -2.173   0.177  0.00  0.00    -0.363 N 
ATOM     11  C   UNL d   1       0.168  -3.401  -0.455  0.00  0.00     0.144 C 
ATOM     12  C   UNL d   1       1.382  -4.326  -0.767  0.00  0.00     0.147 C 
ATOM     13  N   UNL d   1       2.317  -4.490   0.373  0.00  0.00    -0.331 N 
ATOM     14  C   UNL d   1       3.127  -5.582   0.656  0.00  0.00     0.323 C 
ATOM     15  C   UNL d   1       2.624  -3.254   1.114  0.00  0.00     0.147 C 
ATOM     16  N   UNL d   1       2.861  -6.728  -0.053  0.00  0.00    -0.309 N 
ATOM     17  O   UNL d   1       3.986  -5.512   1.533  0.00  0.00    -0.247 OA
ATOM     18  H   UNL d   1       2.416  -6.624  -0.948  0.00  0.00     0.170 HD
ATOM     19  C   UNL d   1       1.354  -2.469   1.451  0.00  0.00     0.144 C 
BRANCH  16  20
ATOM     20  C   UNL d   1       3.244  -8.040   0.309  0.00  0.00     0.036 A 
ATOM     21  C   UNL d   1       3.839  -8.362   1.535  0.00  0.00     0.031 A 
ATOM     22  C   UNL d   1       4.079  -9.693   1.890  0.00  0.00     0.026 A 
ATOM     23  C   UNL d   1       3.725 -10.714   1.016  0.00  0.00     0.034 A 
ATOM     24  C   UNL d   1       3.167 -10.411  -0.224  0.00  0.00     0.026 A 
ATOM     25 CL   UNL d   1       3.950 -12.353   1.482  0.00  0.00    -0.084 Cl
ATOM     26  C   UNL d   1       2.932  -9.077  -0.578  0.00  0.00     0.031 A 
ENDBRANCH  16  20
ENDBRANCH   3  10
BRANCH   1  27
ATOM     27  C   UNL d   1      -2.394   2.552   0.231  0.00  0.00     0.295 C 
ATOM     28  O   UNL d   1      -3.453   2.628   0.819  0.00  0.00    -0.259 OA
BRANCH  27  29
ATOM     29  O   UNL d   1      -1.736   3.529  -0.437  0.00  0.00    -0.318 OA
BRANCH  29  30
ATOM     30  C   UNL d   1      -2.460   4.745  -0.668  0.00  0.00     0.174 C 
ATOM     31  C   UNL d   1      -2.957   4.700  -2.099  0.00  0.00     0.034 C 
ENDBRANCH  29  30
ENDBRANCH  27  29
ENDBRANCH   1  27
BRANCH   2  32
ATOM     32  C   UNL d   1      -3.638  -0.109  -0.510  0.00  0.00     0.433 C 
ATOM     33  F   UNL d   1      -4.304   1.028  -0.855  0.00  0.00    -0.165 F 
ATOM     34  F   UNL d   1      -3.774  -0.911  -1.612  0.00  0.00    -0.165 F 
ATOM     35  F   UNL d   1      -4.376  -0.706   0.468  0.00  0.00    -0.165 F 
ENDBRANCH   2  32
TORSDOF 6
