REMARK  4 active torsions:
REMARK  status: ('A' for Active; 'I' for Inactive)
REMARK       I    between atoms: N_2  and  C_1 
REMARK    1  A    between atoms: C_3  and  C_1 
REMARK    2  A    between atoms: C_4  and  N_2 
REMARK    3  A    between atoms: C_6  and  C_4 
REMARK    4  A    between atoms: C_7  and  C_6 
ROOT
ATOM      1  C   UNL d   1      -0.601  -0.238   0.955  0.00  0.00     0.226 C 
ATOM      2  N   UNL d   1       0.366   0.745   0.892  0.00  0.00    -0.352 N 
ATOM      3  O   UNL d   1      -1.005  -0.700   2.019  0.00  0.00    -0.273 OA
ATOM      4  H   UNL d   1       0.650   1.070  -0.021  0.00  0.00     0.163 HD
ENDROOT
BRANCH   2   5
ATOM      5  C   UNL d   1       1.063   1.329   2.058  0.00  0.00     0.026 C 
ATOM      6  C   UNL d   1       1.999   2.443   1.554  0.00  0.00     0.038 C 
ATOM      7  C   UNL d   1       0.030   2.034   2.977  0.00  0.00     0.038 C 
BRANCH   5   8
ATOM      8  C   UNL d   1       1.835   0.271   2.921  0.00  0.00     0.038 C 
BRANCH   8   9
ATOM      9  C   UNL d   1       2.967  -0.647   2.340  0.00  0.00    -0.049 C 
ATOM     10  C   UNL d   1       4.249   0.116   1.980  0.00  0.00     0.014 C 
ATOM     11  C   UNL d   1       3.348  -1.669   3.439  0.00  0.00     0.014 C 
ATOM     12  C   UNL d   1       2.505  -1.443   1.120  0.00  0.00     0.014 C 
ENDBRANCH   8   9
ENDBRANCH   5   8
ENDBRANCH   2   5
BRANCH   1  13
ATOM     13  C   UNL d   1      -1.139  -0.742  -0.407  0.00  0.00     0.030 C 
ATOM     14  C   UNL d   1      -0.012  -1.351  -1.252  0.00  0.00     0.024 C 
ATOM     15  C   UNL d   1      -2.191  -1.838  -0.151  0.00  0.00     0.024 C 
ATOM     16  C   UNL d   1      -1.797   0.404  -1.188  0.00  0.00     0.024 C 
ENDBRANCH   1  13
TORSDOF 4
