REMARK  5 active torsions:
REMARK  status: ('A' for Active; 'I' for Inactive)
REMARK    1  A    between atoms: C_8  and  S_1 
REMARK    2  A    between atoms: C_10  and  S_1 
REMARK    3  A    between atoms: C_4  and  C_8 
REMARK    4  A    between atoms: C_11  and  C_5 
REMARK    5  A    between atoms: C_14  and  C_15 
ROOT
ATOM      1  N   UNL d   1       0.354  -1.844  -3.786  0.00  0.00    -0.322 N 
ATOM      2  HN  UNL d   1      -0.357  -2.511  -4.085  1.00  0.00     0.169 HD
ATOM      3  C   UNL d   1       0.315  -0.993  -2.786  0.00  0.00     0.162 A 
ATOM      4  C   UNL d   1       1.601  -1.610  -4.330  0.00  0.00     0.137 A 
ATOM      5  N   UNL d   1       2.303  -0.668  -3.677  0.00  0.00    -0.242 N 
ATOM      6  HN  UNL d   1       3.242  -0.329  -3.884  1.00  0.00     0.196 HD
ATOM      7  O   UNL d   1       1.456  -0.264  -2.653  0.00  0.00    -0.222 OA
ENDROOT
BRANCH   3   8
ATOM      8  C   UNL d   1      -0.749  -0.757  -1.808  0.00  0.00     0.232 C 
BRANCH   8   9
ATOM      9  S   UNL d   1      -1.749   0.586  -2.381  0.00  0.00     0.182 S 
ATOM     10  O   UNL d   1      -0.918   1.757  -2.575  0.00  0.00    -0.222 OA
ATOM     11  O   UNL d   1      -2.904   0.664  -1.505  0.00  0.00    -0.222 OA
BRANCH   9  12
ATOM     12  C   UNL d   1      -2.367   0.095  -3.980  0.00  0.00     0.059 A 
ATOM     13  C   UNL d   1      -3.579  -0.595  -4.073  0.00  0.00     0.025 A 
ATOM     14  C   UNL d   1      -4.077  -0.941  -5.332  0.00  0.00     0.025 A 
ATOM     15  C   UNL d   1      -3.368  -0.590  -6.482  0.00  0.00     0.034 A 
ATOM     16  C   UNL d   1      -2.167   0.112  -6.387  0.00  0.00     0.025 A 
ATOM     17 CL   UNL d   1      -3.988  -1.016  -8.029  0.00  0.00    -0.084 Cl
ATOM     18  C   UNL d   1      -1.667   0.468  -5.133  0.00  0.00     0.025 A 
ENDBRANCH   9  12
ENDBRANCH   8   9
ENDBRANCH   3   8
BRANCH   4  19
ATOM     19  C   UNL d   1       2.099  -2.338  -5.491  0.00  0.00     0.010 A 
ATOM     20  C   UNL d   1       1.304  -3.286  -6.144  0.00  0.00     0.016 A 
ATOM     21  C   UNL d   1       1.811  -4.024  -7.224  0.00  0.00     0.009 A 
ATOM     22  C   UNL d   1       3.131  -3.846  -7.680  0.00  0.00    -0.051 A 
ATOM     23  C   UNL d   1       3.899  -2.860  -7.039  0.00  0.00     0.009 A 
ATOM     24  C   UNL d   1       3.395  -2.120  -5.965  0.00  0.00     0.016 A 
BRANCH  22  25
ATOM     25  C   UNL d   1       3.708  -4.734  -8.797  0.00  0.00    -0.024 C 
ATOM     26  C   UNL d   1       5.187  -4.414  -9.118  0.00  0.00     0.019 C 
ATOM     27  C   UNL d   1       3.644  -6.215  -8.362  0.00  0.00     0.019 C 
ATOM     28  C   UNL d   1       2.911  -4.568 -10.107  0.00  0.00     0.019 C 
ENDBRANCH  22  25
ENDBRANCH   4  19
TORSDOF 5
