REMARK  5 active torsions:
REMARK  status: ('A' for Active; 'I' for Inactive)
REMARK    1  A    between atoms: N_2  and  C_1 
REMARK       I    between atoms: C_3  and  N_6 
REMARK    2  A    between atoms: C_4  and  C_3 
REMARK    3  A    between atoms: S_7  and  C_5 
REMARK    4  A    between atoms: N_6  and  C_9 
REMARK    5  A    between atoms: C_10  and  S_7 
ROOT
ATOM      1  C   UNL d   1       4.202   2.241   0.693  0.00  0.00     0.052 A 
ATOM      2  C   UNL d   1       4.449   1.719  -0.595  0.00  0.00     0.032 A 
ATOM      3  C   UNL d   1       4.854   3.439   1.063  0.00  0.00     0.031 A 
ATOM      4  C   UNL d   1       5.436   2.327  -1.401  0.00  0.00     0.021 A 
ATOM      5  C   UNL d   1       6.122   3.466  -0.981  0.00  0.00     0.002 A 
ATOM      6  C   UNL d   1       5.804   4.044   0.238  0.00  0.00     0.002 A 
ENDROOT
BRANCH   1   7
ATOM      7  N   UNL d   1       3.375   1.709   1.721  0.00  0.00    -0.322 N 
ATOM      8  C   UNL d   1       3.056   0.387   1.966  0.00  0.00     0.257 C 
ATOM      9  O   UNL d   1       3.333  -0.552   1.232  0.00  0.00    -0.267 OA
ATOM     10  H   UNL d   1       3.225   2.333   2.502  0.00  0.00     0.169 HD
BRANCH   8  11
ATOM     11  C   UNL d   1       2.481   0.033   3.314  0.00  0.00     0.054 A 
ATOM     12  C   UNL d   1       2.154   0.917   4.352  0.00  0.00     0.049 A 
ATOM     13 CL   UNL d   1       2.122   2.640   4.196  0.00  0.00    -0.083 Cl
ATOM     14  C   UNL d   1       1.819   0.421   5.624  0.00  0.00     0.025 A 
ATOM     15  C   UNL d   1       1.773  -0.951   5.868  0.00  0.00     0.002 A 
ATOM     16  C   UNL d   1       2.020  -1.840   4.832  0.00  0.00     0.001 A 
ATOM     17  C   UNL d   1       2.364  -1.353   3.571  0.00  0.00     0.019 A 
ENDBRANCH   8  11
ENDBRANCH   1   7
BRANCH   2  18
ATOM     18  S   UNL d   1       3.409   0.527  -1.445  0.00  0.00    -0.086 SA
BRANCH  18  19
ATOM     19  C   UNL d   1       4.492  -0.865  -1.781  0.00  0.00     0.038 A 
ATOM     20  C   UNL d   1       4.331  -1.699  -2.902  0.00  0.00     0.121 A 
ATOM     21  C   UNL d   1       5.082  -2.869  -3.088  0.00  0.00     0.061 A 
ATOM     22  C   UNL d   1       6.030  -3.217  -2.135  0.00  0.00     0.036 A 
ATOM     23  C   UNL d   1       6.236  -2.406  -1.024  0.00  0.00     0.025 A 
ATOM     24 CL   UNL d   1       6.948  -4.659  -2.324  0.00  0.00    -0.084 Cl
ATOM     25  C   UNL d   1       5.473  -1.245  -0.849  0.00  0.00     0.023 A 
BRANCH  20  26
ATOM     26  N   UNL d   1       3.382  -1.369  -3.945  0.00  0.00    -0.114 N 
ATOM     27  O   UNL d   1       3.584  -0.334  -4.591  0.00  0.00    -0.532 OA
ATOM     28  O   UNL d   1       2.486  -2.201  -4.173  0.00  0.00    -0.532 OA
ENDBRANCH  20  26
ENDBRANCH  18  19
ENDBRANCH   2  18
TORSDOF 5
