REMARK  6 active torsions:
REMARK  status: ('A' for Active; 'I' for Inactive)
REMARK    1  A    between atoms: C_8  and  C_3 
REMARK    2  A    between atoms: C_13  and  C_6 
REMARK    3  A    between atoms: C_9  and  C_14 
REMARK    4  A    between atoms: O_16  and  C_9 
REMARK    5  A    between atoms: C_14  and  C_13 
REMARK    6  A    between atoms: O_19  and  C_15 
ROOT
ATOM      1  N   UNL d   1       0.812   0.245  -0.910  0.00  0.00    -0.323 N 
ATOM      2  HN  UNL d   1       1.411   0.457  -1.708  1.00  0.00     0.169 HD
ATOM      3  C   UNL d   1       0.280   1.111   0.023  0.00  0.00     0.137 A 
ATOM      4  N   UNL d   1      -0.475   0.504   0.955  0.00  0.00    -0.242 N 
ATOM      5  HN  UNL d   1      -0.966   0.930   1.741  1.00  0.00     0.196 HD
ATOM      6  C   UNL d   1       0.352  -0.918  -0.514  0.00  0.00     0.148 A 
ATOM      7  O   UNL d   1      -0.431  -0.841   0.597  0.00  0.00    -0.223 OA
ENDROOT
BRANCH   3   8
ATOM      8  C   UNL d   1       0.547   2.545  -0.013  0.00  0.00     0.010 A 
ATOM      9  C   UNL d   1       1.327   3.091  -1.043  0.00  0.00     0.018 A 
ATOM     10  C   UNL d   1       1.602   4.463  -1.089  0.00  0.00     0.037 A 
ATOM     11  C   UNL d   1       1.099   5.308  -0.101  0.00  0.00     0.068 A 
ATOM     12  C   UNL d   1       0.304   4.777   0.916  0.00  0.00     0.037 A 
ATOM     13  C   UNL d   1       0.035   3.405   0.967  0.00  0.00     0.018 A 
BRANCH  11  14
ATOM     14  O   UNL d   1       1.280   6.662  -0.054  0.00  0.00    -0.356 OA
ATOM     15  C   UNL d   1       2.488   7.143  -0.633  0.00  0.00     0.210 C 
ENDBRANCH  11  14
ENDBRANCH   3   8
BRANCH   6  16
ATOM     16  C   UNL d   1       0.585  -2.264  -1.085  0.00  0.00     0.097 C 
BRANCH  16  17
ATOM     17  C   UNL d   1       1.952  -2.333  -1.760  0.00  0.00     0.118 C 
BRANCH  17  18
ATOM     18  C   UNL d   1       2.209  -3.698  -2.330  0.00  0.00     0.139 C 
ATOM     19  O   UNL d   1       1.435  -4.640  -2.271  0.00  0.00    -0.650 OA
BRANCH  18  20
ATOM     20  O   UNL d   1       3.414  -3.789  -2.933  0.00  0.00    -0.776 OA
ATOM     21  H   UNL d   1       3.935  -2.962  -2.913  0.00  0.00     0.167 HD
ENDBRANCH  18  20
ENDBRANCH  17  18
ENDBRANCH  16  17
ENDBRANCH   6  16
TORSDOF 6
