REMARK  2 active torsions:
REMARK  status: ('A' for Active; 'I' for Inactive)
REMARK    1  A    between atoms: C_5  and  N_1 
REMARK    2  A    between atoms: C_2  and  C_8 
ROOT
ATOM      1  C   UNL d   1      -0.042   2.167  -4.449  0.00  0.00     0.080 C 
ATOM      2  S   UNL d   1       0.270   0.471  -5.161  0.00  0.00    -0.139 SA
ATOM      3  S   UNL d   1       1.449   3.274  -4.516  0.00  0.00    -0.139 SA
ATOM      4  C   UNL d   1       2.560   2.411  -6.892  0.00  0.00    -0.041 A 
ATOM      5  C   UNL d   1       2.038   1.142  -7.191  0.00  0.00    -0.041 A 
ATOM      6  C   UNL d   1       3.921   2.668  -7.136  0.00  0.00     0.015 A 
ATOM      7  C   UNL d   1       2.889   0.172  -7.755  0.00  0.00     0.015 A 
ATOM      8  C   UNL d   1       4.242   0.437  -8.018  0.00  0.00    -0.056 A 
ATOM      9  C   UNL d   1       4.768   1.697  -7.690  0.00  0.00    -0.056 A 
ATOM     10  C   UNL d   1       0.600   0.786  -6.915  0.00  0.00     0.115 C 
ATOM     11  C   UNL d   1       1.713   3.501  -6.292  0.00  0.00     0.115 C 
ATOM     12  C   UNL d   1      -1.224   2.829  -5.185  0.00  0.00     0.044 C 
ATOM     13  C   UNL d   1       6.219   2.028  -7.907  0.00  0.00     0.049 C 
ATOM     14  C   UNL d   1       5.100  -0.636  -8.629  0.00  0.00     0.049 C 
ENDROOT
BRANCH   1  15
ATOM     15  C   UNL d   1      -0.358   1.959  -2.931  0.00  0.00    -0.027 A 
ATOM     16  C   UNL d   1       0.572   1.298  -2.090  0.00  0.00     0.045 A 
ATOM     17  C   UNL d   1       0.292   1.079  -0.732  0.00  0.00     0.103 A 
ATOM     18  C   UNL d   1      -0.907   1.523  -0.172  0.00  0.00     0.036 A 
ATOM     19  C   UNL d   1      -1.825   2.192  -0.976  0.00  0.00     0.003 A 
ATOM     20  C   UNL d   1      -1.554   2.407  -2.332  0.00  0.00     0.010 A 
BRANCH  17  21
ATOM     21  N   UNL d   1       1.261   0.365   0.111  0.00  0.00    -0.116 N 
ATOM     22  O   UNL d   1       2.315  -0.020  -0.412  0.00  0.00    -0.532 OA
ATOM     23  O   UNL d   1       0.965   0.187   1.303  0.00  0.00    -0.532 OA
ENDBRANCH  17  21
ENDBRANCH   1  15
TORSDOF 2
