REMARK  4 active torsions:
REMARK  status: ('A' for Active; 'I' for Inactive)
REMARK    1  A    between atoms: O_5  and  C_1 
REMARK    2  A    between atoms: C_2  and  C_3 
REMARK       I    between atoms: N_10  and  C_2 
REMARK    3  A    between atoms: C_11  and  O_5 
REMARK    4  A    between atoms: O_12  and  C_6 
ROOT
ATOM      1  C   UNL d   1       1.361  -0.315   0.136  0.00  0.00     0.103 A 
ATOM      2  C   UNL d   1      -0.969  -1.056   0.025  0.00  0.00     0.034 A 
ATOM      3  C   UNL d   1       0.405  -1.342   0.103  0.00  0.00     0.056 A 
ATOM      4  C   UNL d   1       0.920   1.016   0.025  0.00  0.00     0.101 A 
ATOM      5  C   UNL d   1      -1.399   0.268  -0.019  0.00  0.00     0.020 A 
ATOM      6  C   UNL d   1      -0.456   1.295  -0.023  0.00  0.00     0.040 A 
ENDROOT
BRANCH   1   7
ATOM      7  O   UNL d   1       2.707  -0.557   0.273  0.00  0.00    -0.343 OA
BRANCH   7   8
ATOM      8  C   UNL d   1       3.116  -1.750   0.951  0.00  0.00     0.129 C 
ATOM      9  C   UNL d   1       2.785  -1.730   2.443  0.00  0.00     0.032 C 
ATOM     10  C   UNL d   1       3.861  -2.563   3.130  0.00  0.00     0.002 C 
ATOM     11  C   UNL d   1       4.974  -2.772   2.109  0.00  0.00     0.002 C 
ATOM     12  C   UNL d   1       4.643  -1.862   0.935  0.00  0.00     0.032 C 
ENDBRANCH   7   8
ENDBRANCH   1   7
BRANCH   4  13
ATOM     13  O   UNL d   1       1.688   2.152   0.031  0.00  0.00    -0.353 OA
ATOM     14  C   UNL d   1       2.962   2.062  -0.594  0.00  0.00     0.210 C 
ENDBRANCH   4  13
BRANCH   2  15
ATOM     15  C   UNL d   1      -1.929  -2.193   0.042  0.00  0.00     0.249 C 
ATOM     16  O   UNL d   1      -1.633  -3.273   0.528  0.00  0.00    -0.268 OA
ATOM     17  N   UNL d   1      -3.154  -1.992  -0.536  0.00  0.00    -0.366 N 
ATOM     18  H   UNL d   1      -3.366  -1.199  -1.122  0.00  0.00     0.159 HD
ATOM     19  H   UNL d   1      -3.764  -2.797  -0.591  0.00  0.00     0.159 HD
ENDBRANCH   2  15
TORSDOF 4
