REMARK  5 active torsions:
REMARK  status: ('A' for Active; 'I' for Inactive)
REMARK    1  A    between atoms: C_13  and  C_1 
REMARK    2  A    between atoms: C_5  and  S_14 
REMARK    3  A    between atoms: S_14  and  C_13 
REMARK    4  A    between atoms: O_24  and  C_22 
REMARK    5  A    between atoms: C_25  and  O_24 
ROOT
ATOM      1  C   UNL d   1       1.759  -5.636  -0.132  0.00  0.00     0.145 A 
ATOM      2  N   UNL d   1       2.823  -6.401  -0.135  0.00  0.00    -0.335 N 
ATOM      3  HN  UNL d   1       3.800  -6.109  -0.161  1.00  0.00     0.168 HD
ATOM      4  N   UNL d   1       0.603  -6.358  -0.095  0.00  0.00    -0.335 N 
ATOM      5  C   UNL d   1       2.330  -7.690  -0.095  0.00  0.00     0.063 A 
ATOM      6  C   UNL d   1       0.937  -7.687  -0.088  0.00  0.00     0.061 A 
ATOM      7  C   UNL d   1       3.004  -8.921  -0.068  0.00  0.00     0.068 A 
ATOM      8  C   UNL d   1       0.169  -8.851  -0.071  0.00  0.00     0.035 A 
ATOM      9  C   UNL d   1       2.262 -10.114  -0.053  0.00  0.00     0.071 A 
ATOM     10  C   UNL d   1       0.864 -10.070  -0.058  0.00  0.00     0.039 A 
ATOM     11  H   UNL d   1      -0.326  -5.967  -0.083  0.00  0.00     0.168 HD
ENDROOT
BRANCH   1  12
ATOM     12  S   UNL d   1       1.683  -3.913  -0.146  0.00  0.00    -0.089 SA
BRANCH  12  13
ATOM     13  C   UNL d   1       3.279  -3.506  -0.913  0.00  0.00     0.127 C 
BRANCH  13  14
ATOM     14  C   UNL d   1       3.506  -2.018  -0.962  0.00  0.00     0.035 A 
ATOM     15  C   UNL d   1       4.186  -1.359   0.067  0.00  0.00     0.168 A 
ATOM     16  C   UNL d   1       4.397   0.018   0.032  0.00  0.00     0.197 A 
ATOM     17  F   UNL d   1       4.653  -2.064   1.108  0.00  0.00    -0.202 F 
ATOM     18  F   UNL d   1       5.060   0.619   1.028  0.00  0.00    -0.199 F 
ATOM     19  C   UNL d   1       3.924   0.763  -1.038  0.00  0.00     0.199 A 
ATOM     20  C   UNL d   1       3.239   0.134  -2.067  0.00  0.00     0.197 A 
ATOM     21  F   UNL d   1       4.128   2.087  -1.078  0.00  0.00    -0.199 F 
ATOM     22  C   UNL d   1       3.030  -1.244  -2.026  0.00  0.00     0.168 A 
ATOM     23  F   UNL d   1       2.780   0.850  -3.103  0.00  0.00    -0.199 F 
ATOM     24  F   UNL d   1       2.368  -1.835  -3.031  0.00  0.00    -0.202 F 
ENDBRANCH  13  14
ENDBRANCH  12  13
ENDBRANCH   1  12
BRANCH   9  25
ATOM     25  O   UNL d   1       3.020 -11.258  -0.037  0.00  0.00    -0.351 OA
BRANCH  25  26
ATOM     26  C   UNL d   1       2.324 -12.504  -0.069  0.00  0.00     0.171 C 
ATOM     27  C   UNL d   1       3.346 -13.627  -0.073  0.00  0.00     0.034 C 
ENDBRANCH  25  26
ENDBRANCH   9  25
TORSDOF 5
