REMARK  6 active torsions:
REMARK  status: ('A' for Active; 'I' for Inactive)
REMARK       I    between atoms: N_2  and  C_1 
REMARK    1  A    between atoms: C_4  and  C_1 
REMARK    2  A    between atoms: C_3  and  N_2 
REMARK    3  A    between atoms: C_18  and  C_17 
REMARK    4  A    between atoms: C_19  and  C_18 
REMARK    5  A    between atoms: C_21  and  C_19 
REMARK    6  A    between atoms: C_20  and  C_21 
ROOT
ATOM      1  C   UNL d   1       0.927   0.019   0.179  0.00  0.00     0.256 C 
ATOM      2  N   UNL d   1       2.303   0.146   0.103  0.00  0.00    -0.323 N 
ATOM      3  O   UNL d   1       0.304  -0.993   0.481  0.00  0.00    -0.267 OA
ATOM      4  H   UNL d   1       2.672   1.088   0.041  0.00  0.00     0.169 HD
ENDROOT
BRANCH   1   5
ATOM      5  C   UNL d   1       0.164   1.275  -0.047  0.00  0.00     0.032 A 
ATOM      6  C   UNL d   1       0.587   2.237  -0.970  0.00  0.00     0.017 A 
ATOM      7  C   UNL d   1      -0.132   3.425  -1.114  0.00  0.00     0.008 A 
ATOM      8  C   UNL d   1      -1.280   3.659  -0.345  0.00  0.00    -0.058 A 
ATOM      9  C   UNL d   1      -1.725   2.667   0.540  0.00  0.00     0.008 A 
ATOM     10  C   UNL d   1      -1.005   1.482   0.690  0.00  0.00     0.017 A 
BRANCH   8  11
ATOM     11  C   UNL d   1      -2.020   4.968  -0.465  0.00  0.00     0.038 C 
BRANCH  11  12
ATOM     12  C   UNL d   1      -2.092   5.760   0.847  0.00  0.00     0.005 C 
BRANCH  12  13
ATOM     13  C   UNL d   1      -0.714   6.155   1.393  0.00  0.00    -0.000 C 
BRANCH  13  14
ATOM     14  C   UNL d   1      -0.851   6.947   2.693  0.00  0.00    -0.005 C 
ATOM     15  C   UNL d   1       0.505   7.337   3.258  0.00  0.00     0.005 C 
ENDBRANCH  13  14
ENDBRANCH  12  13
ENDBRANCH  11  12
ENDBRANCH   8  11
ENDBRANCH   1   5
BRANCH   2  16
ATOM     16  C   UNL d   1       3.245  -0.880   0.320  0.00  0.00     0.038 A 
ATOM     17  C   UNL d   1       2.909  -2.235   0.362  0.00  0.00     0.053 A 
ATOM     18  C   UNL d   1       3.883  -3.192   0.645  0.00  0.00     0.037 A 
ATOM     19 CL   UNL d   1       3.448  -4.857   0.711  0.00  0.00    -0.084 Cl
ATOM     20  C   UNL d   1       5.201  -2.817   0.882  0.00  0.00     0.048 A 
ATOM     21  C   UNL d   1       5.543  -1.471   0.809  0.00  0.00     0.037 A 
ATOM     22  C   UNL d   1       4.579  -0.504   0.517  0.00  0.00     0.053 A 
ATOM     23 CL   UNL d   1       7.169  -0.989   1.102  0.00  0.00    -0.084 Cl
ENDBRANCH   2  16
TORSDOF 6
