REMARK  4 active torsions:
REMARK  status: ('A' for Active; 'I' for Inactive)
REMARK    1  A    between atoms: C_5  and  C_1 
REMARK    2  A    between atoms: C_8  and  C_4 
REMARK    3  A    between atoms: O_9  and  C_5 
REMARK    4  A    between atoms: C_14  and  O_9 
ROOT
ATOM      1  C   UNL d   1       1.338   0.699  -0.163  0.00  0.00     0.116 A 
ATOM      2  N   UNL d   1       1.445  -0.676   0.069  0.00  0.00    -0.345 N 
ATOM      3  HN  UNL d   1       2.309  -1.155   0.327  1.00  0.00     0.167 HD
ATOM      4  C   UNL d   1       0.277  -1.272  -0.090  0.00  0.00     0.086 A 
ATOM      5  S   UNL d   1      -1.016  -0.214  -0.520  0.00  0.00    -0.081 SA
ATOM      6  C   UNL d   1       0.062   1.109  -0.511  0.00  0.00     0.087 A 
ENDROOT
BRANCH   1   7
ATOM      7  C   UNL d   1       2.467   1.631  -0.081  0.00  0.00     0.315 C 
ATOM      8  O   UNL d   1       2.359   2.811  -0.406  0.00  0.00    -0.257 OA
BRANCH   7   9
ATOM      9  O   UNL d   1       3.637   1.022   0.380  0.00  0.00    -0.274 OA
BRANCH   9  10
ATOM     10  C   UNL d   1       4.850   1.744   0.447  0.00  0.00     0.079 A 
ATOM     11  C   UNL d   1       4.930   3.086   0.819  0.00  0.00     0.037 A 
ATOM     12  C   UNL d   1       6.171   3.725   0.831  0.00  0.00     0.003 A 
ATOM     13  C   UNL d   1       7.329   3.017   0.504  0.00  0.00     0.000 A 
ATOM     14  C   UNL d   1       7.249   1.662   0.179  0.00  0.00     0.003 A 
ATOM     15  C   UNL d   1       6.009   1.022   0.154  0.00  0.00     0.037 A 
ENDBRANCH   9  10
ENDBRANCH   7   9
ENDBRANCH   1   7
BRANCH   4  16
ATOM     16  C   UNL d   1       0.057  -2.721  -0.003  0.00  0.00     0.013 A 
ATOM     17  C   UNL d   1       1.086  -3.596  -0.340  0.00  0.00     0.101 A 
ATOM     18  N   UNL d   1       0.982  -4.950  -0.340  0.00  0.00    -0.374 N 
ATOM     19  C   UNL d   1      -0.209  -5.465   0.028  0.00  0.00     0.087 A 
ATOM     20  HN  UNL d   1       1.764  -5.547  -0.606  1.00  0.00     0.164 HD
ATOM     21  C   UNL d   1      -1.294  -4.693   0.405  0.00  0.00     0.018 A 
ATOM     22  C   UNL d   1      -1.155  -3.304   0.390  0.00  0.00     0.017 A 
ENDBRANCH   4  16
TORSDOF 4
