REMARK  5 active torsions:
REMARK  status: ('A' for Active; 'I' for Inactive)
REMARK    1  A    between atoms: C_11  and  C_3 
REMARK    2  A    between atoms: C_12  and  C_8 
REMARK    3  A    between atoms: O_17  and  N_13 
REMARK    4  A    between atoms: C_15  and  O_17 
REMARK       I    between atoms: N_16  and  C_15 
REMARK    5  A    between atoms: C_23  and  N_16 
ROOT
ATOM      1  C   UNL d   1       6.351   1.575  -0.369  0.00  0.00     0.172 A 
ATOM      2  N   UNL d   1       6.843   0.541   0.373  0.00  0.00    -0.235 N 
ATOM      3  C   UNL d   1       8.177   2.164   0.465  0.00  0.00     0.207 A 
ATOM      4  N   UNL d   1       7.132   2.617  -0.343  0.00  0.00    -0.316 N 
ATOM      5  HN  UNL d   1       7.012   3.524  -0.794  1.00  0.00     0.169 HD
ATOM      6  N   UNL d   1       8.034   0.885   0.896  0.00  0.00    -0.273 N 
ATOM      7  HN  UNL d   1       8.667   0.328   1.470  1.00  0.00     0.189 HD
ATOM      8  C   UNL d   1       4.856  -0.351  -0.200  0.00  0.00     0.057 A 
ATOM      9  C   UNL d   1       6.006  -0.557   0.474  0.00  0.00     0.052 A 
ATOM     10  S   UNL d   1       4.791   1.212  -1.023  0.00  0.00    -0.048 SA
ATOM     11  C   UNL d   1       6.384  -1.724   1.320  0.00  0.00     0.072 C 
ENDROOT
BRANCH   8  12
ATOM     12  C   UNL d   1       3.674  -1.261  -0.160  0.00  0.00     0.048 C 
ATOM     13  N   UNL d   1       3.847  -2.558  -0.194  0.00  0.00    -0.259 N 
ATOM     14  HN  UNL d   1       4.743  -3.029  -0.320  1.00  0.00     0.194 HD
ATOM     15  C   UNL d   1       2.296  -0.633  -0.007  0.00  0.00     0.072 C 
BRANCH  13  16
ATOM     16  O   UNL d   1       2.598  -3.207  -0.030  0.00  0.00    -0.181 OA
BRANCH  16  17
ATOM     17  C   UNL d   1       2.680  -4.581   0.106  0.00  0.00     0.387 C 
ATOM     18  N   UNL d   1       3.917  -5.109  -0.185  0.00  0.00    -0.301 N 
ATOM     19  H   UNL d   1       4.593  -4.398  -0.435  0.00  0.00     0.171 HD
ATOM     20  O   UNL d   1       1.679  -5.206   0.442  0.00  0.00    -0.236 OA
BRANCH  18  21
ATOM     21  C   UNL d   1       4.298  -6.466  -0.191  0.00  0.00     0.036 A 
ATOM     22  C   UNL d   1       3.428  -7.516   0.120  0.00  0.00     0.029 A 
ATOM     23  C   UNL d   1       3.867  -8.844   0.097  0.00  0.00     0.002 A 
ATOM     24  C   UNL d   1       5.182  -9.139  -0.240  0.00  0.00     0.000 A 
ATOM     25  C   UNL d   1       6.060  -8.105  -0.558  0.00  0.00     0.002 A 
ATOM     26  C   UNL d   1       5.619  -6.775  -0.534  0.00  0.00     0.029 A 
ENDBRANCH  18  21
ENDBRANCH  16  17
ENDBRANCH  13  16
ENDBRANCH   8  12
BRANCH   3  27
ATOM     27  C   UNL d   1       9.354   3.035   0.865  0.00  0.00     0.450 C 
ATOM     28  F   UNL d   1       9.289   4.289   0.341  0.00  0.00    -0.163 F 
ATOM     29  F   UNL d   1       9.436   3.188   2.216  0.00  0.00    -0.163 F 
ATOM     30  F   UNL d   1      10.543   2.508   0.460  0.00  0.00    -0.163 F 
ENDBRANCH   3  27
TORSDOF 5
