REMARK  0 active torsions:
REMARK  status: ('A' for Active; 'I' for Inactive)
ROOT
ATOM      1  N   UNL d   1       1.452   1.376   0.069  0.00  0.00    -0.289 N 
ATOM      2  N   UNL d   1       2.708  -0.611  -0.102  0.00  0.00    -0.270 N 
ATOM      3  C   UNL d   1       2.694   0.777  -0.024  0.00  0.00     0.332 C 
ATOM      4  C   UNL d   1       0.250   0.645   0.028  0.00  0.00     0.127 A 
ATOM      5  C   UNL d   1       0.284  -0.731  -0.052  0.00  0.00     0.077 A 
ATOM      6  C   UNL d   1       1.578  -1.416  -0.040  0.00  0.00     0.265 C 
ATOM      7  N   UNL d   1      -0.919   1.331   0.070  0.00  0.00    -0.341 N 
ATOM      8  HN  UNL d   1      -0.918   2.349   0.137  1.00  0.00     0.167 HD
ATOM      9  C   UNL d   1      -0.915  -1.443  -0.125  0.00  0.00     0.034 A 
ATOM     10  C   UNL d   1      -2.080   0.654   0.022  0.00  0.00     0.044 A 
ATOM     11  O   UNL d   1       3.734   1.438  -0.027  0.00  0.00    -0.246 OA
ATOM     12  C   UNL d   1      -2.130  -0.749  -0.088  0.00  0.00    -0.008 A 
ATOM     13  O   UNL d   1       1.608  -2.640   0.036  0.00  0.00    -0.267 OA
ATOM     14  C   UNL d   1       1.345   2.822   0.186  0.00  0.00     0.163 C 
ATOM     15  C   UNL d   1       3.990  -1.291  -0.145  0.00  0.00     0.164 C 
ATOM     16  C   UNL d   1      -3.275   1.355   0.089  0.00  0.00     0.030 A 
ATOM     17  C   UNL d   1      -3.371  -1.409  -0.144  0.00  0.00     0.014 A 
ATOM     18  C   UNL d   1      -4.558  -0.682  -0.071  0.00  0.00     0.001 A 
ATOM     19  C   UNL d   1      -4.510   0.703   0.050  0.00  0.00     0.002 A 
ENDROOT
TORSDOF 0
