REMARK  2 active torsions:
REMARK  status: ('A' for Active; 'I' for Inactive)
REMARK    1  A    between atoms: C_9  and  C_4 
REMARK    2  A    between atoms: O_17  and  C_13 
ROOT
ATOM      1  N   UNL d   1       0.916   0.499  -0.055  0.00  0.00    -0.322 N 
ATOM      2  C   UNL d   1       1.726  -0.613  -0.141  0.00  0.00     0.044 A 
ATOM      3  N   UNL d   1      -0.329  -2.025  -0.077  0.00  0.00    -0.374 N 
ATOM      4  C   UNL d   1       1.097  -1.947  -0.379  0.00  0.00     0.165 C 
ATOM      5  C   UNL d   1      -0.496   0.427  -0.056  0.00  0.00     0.065 A 
ATOM      6  C   UNL d   1      -1.074  -0.852   0.011  0.00  0.00     0.056 A 
ATOM      7  C   UNL d   1       1.723   1.611   0.053  0.00  0.00     0.097 A 
ATOM      8  C   UNL d   1       3.044  -0.203  -0.060  0.00  0.00     0.029 A 
ATOM      9  C   UNL d   1       3.039   1.202   0.068  0.00  0.00     0.020 A 
ATOM     10  C   UNL d   1      -1.290   1.581  -0.067  0.00  0.00     0.032 A 
ATOM     11  C   UNL d   1      -2.469  -0.945   0.081  0.00  0.00     0.031 A 
ATOM     12  C   UNL d   1      -2.679   1.461  -0.013  0.00  0.00     0.002 A 
ATOM     13  C   UNL d   1      -3.268   0.201   0.070  0.00  0.00     0.002 A 
ATOM     14  H   UNL d   1      -0.606  -2.763   0.560  0.00  0.00     0.160 HD
ENDROOT
BRANCH   4  15
ATOM     15  C   UNL d   1       1.810  -3.101   0.314  0.00  0.00    -0.030 A 
ATOM     16  C   UNL d   1       1.975  -3.136   1.708  0.00  0.00     0.012 A 
ATOM     17  C   UNL d   1       2.614  -4.216   2.329  0.00  0.00     0.037 A 
ATOM     18  C   UNL d   1       3.096  -5.281   1.567  0.00  0.00     0.068 A 
ATOM     19  C   UNL d   1       2.931  -5.256   0.182  0.00  0.00     0.037 A 
ATOM     20  C   UNL d   1       2.292  -4.181  -0.441  0.00  0.00     0.012 A 
BRANCH  18  21
ATOM     21  O   UNL d   1       3.737  -6.391   2.042  0.00  0.00    -0.356 OA
ATOM     22  C   UNL d   1       3.918  -6.476   3.449  0.00  0.00     0.210 C 
ENDBRANCH  18  21
ENDBRANCH   4  15
TORSDOF 2
