REMARK  5 active torsions:
REMARK  status: ('A' for Active; 'I' for Inactive)
REMARK    1  A    between atoms: C_2  and  C_1 
REMARK    2  A    between atoms: O_5  and  C_1 
REMARK    3  A    between atoms: C_10  and  O_5 
REMARK    4  A    between atoms: C_6  and  C_10 
REMARK    5  A    between atoms: C_7  and  C_6 
ROOT
ATOM      1  O   UNL d   1       0.223  -0.656  -0.996  0.00  0.00    -0.310 OA
ENDROOT
BRANCH   1   2
ATOM      2  C   UNL d   1       1.012  -0.163  -0.011  0.00  0.00     0.293 C 
ATOM      3  O   UNL d   1       2.233  -0.192   0.008  0.00  0.00    -0.259 OA
BRANCH   2   4
ATOM      4  C   UNL d   1       0.190   0.511   1.036  0.00  0.00     0.040 A 
ATOM      5  C   UNL d   1       0.851   1.205   2.060  0.00  0.00     0.025 A 
ATOM      6  C   UNL d   1       0.135   1.903   3.050  0.00  0.00    -0.055 A 
ATOM      7  C   UNL d   1       0.888   2.627   4.133  0.00  0.00     0.049 C 
ATOM      8  C   UNL d   1      -1.273   1.916   3.000  0.00  0.00    -0.056 A 
ATOM      9  C   UNL d   1      -1.929   1.197   1.990  0.00  0.00     0.008 A 
ATOM     10  C   UNL d   1      -2.086   2.683   4.008  0.00  0.00     0.049 C 
ATOM     11  C   UNL d   1      -1.208   0.498   1.018  0.00  0.00     0.018 A 
ENDBRANCH   2   4
ENDBRANCH   1   2
BRANCH   1  12
ATOM     12  C   UNL d   1       0.889  -1.239  -2.122  0.00  0.00     0.263 C 
BRANCH  12  13
ATOM     13  C   UNL d   1       0.677  -2.748  -2.194  0.00  0.00     0.183 C 
ATOM     14  O   UNL d   1       0.070  -3.379  -1.330  0.00  0.00    -0.290 OA
BRANCH  13  15
ATOM     15  C   UNL d   1       1.249  -3.489  -3.362  0.00  0.00     0.012 A 
ATOM     16  C   UNL d   1       1.463  -4.869  -3.233  0.00  0.00     0.017 A 
ATOM     17  C   UNL d   1       1.988  -5.611  -4.298  0.00  0.00     0.025 A 
ATOM     18  C   UNL d   1       2.285  -4.976  -5.500  0.00  0.00     0.034 A 
ATOM     19  C   UNL d   1       2.067  -3.607  -5.646  0.00  0.00     0.025 A 
ATOM     20 CL   UNL d   1       2.918  -5.885  -6.816  0.00  0.00    -0.084 Cl
ATOM     21  C   UNL d   1       1.553  -2.861  -4.577  0.00  0.00     0.017 A 
ENDBRANCH  13  15
ENDBRANCH  12  13
ENDBRANCH   1  12
TORSDOF 5
