REMARK  6 active torsions:
REMARK  status: ('A' for Active; 'I' for Inactive)
REMARK       I    between atoms: N_5  and  C_1 
REMARK    1  A    between atoms: C_8  and  C_1 
REMARK    2  A    between atoms: C_2  and  C_7 
REMARK       I    between atoms: N_6  and  C_2 
REMARK    3  A    between atoms: C_3  and  C_12 
REMARK    4  A    between atoms: C_4  and  C_11 
REMARK    5  A    between atoms: C_10  and  N_5 
REMARK    6  A    between atoms: C_9  and  N_6 
ROOT
ATOM      1  C   UNL d   1       0.366   1.571   1.824  0.00  0.00     0.048 A 
ATOM      2  C   UNL d   1       0.134   0.332   1.211  0.00  0.00     0.048 A 
ATOM      3  C   UNL d   1      -0.474   1.998   2.866  0.00  0.00     0.018 A 
ATOM      4  C   UNL d   1      -0.916  -0.484   1.664  0.00  0.00     0.018 A 
ATOM      5  C   UNL d   1      -1.740  -0.056   2.705  0.00  0.00     0.001 A 
ATOM      6  C   UNL d   1      -1.518   1.182   3.305  0.00  0.00     0.001 A 
ENDROOT
BRANCH   1   7
ATOM      7  C   UNL d   1       1.406   2.504   1.326  0.00  0.00     0.257 C 
ATOM      8  N   UNL d   1       2.224   3.038   2.305  0.00  0.00    -0.320 N 
ATOM      9  H   UNL d   1       2.107   2.703   3.257  0.00  0.00     0.169 HD
ATOM     10  O   UNL d   1       1.419   2.758   0.127  0.00  0.00    -0.267 OA
BRANCH   8  11
ATOM     11  C   UNL d   1       3.315   3.921   2.124  0.00  0.00     0.074 A 
ATOM     12  C   UNL d   1       3.697   4.456   0.893  0.00  0.00     0.049 A 
ATOM     13  C   UNL d   1       4.843   5.270   0.783  0.00  0.00     0.050 A 
ATOM     14  C   UNL d   1       5.596   5.558   1.934  0.00  0.00     0.019 A 
ATOM     15  C   UNL d   1       5.202   5.056   3.174  0.00  0.00     0.045 A 
ATOM     16  C   UNL d   1       4.071   4.250   3.258  0.00  0.00     0.143 A 
ATOM     17  F   UNL d   1       3.710   3.767   4.458  0.00  0.00    -0.204 F 
BRANCH  13  18
ATOM     18  C   UNL d   1       5.290   5.804  -0.558  0.00  0.00     0.417 C 
ATOM     19  F   UNL d   1       4.426   5.545  -1.576  0.00  0.00    -0.166 F 
ATOM     20  F   UNL d   1       5.457   7.157  -0.546  0.00  0.00    -0.166 F 
ATOM     21  F   UNL d   1       6.490   5.287  -0.943  0.00  0.00    -0.166 F 
ENDBRANCH  13  18
ENDBRANCH   8  11
ENDBRANCH   1   7
BRANCH   2  22
ATOM     22  C   UNL d   1       1.047  -0.222   0.180  0.00  0.00     0.257 C 
ATOM     23  N   UNL d   1       0.409  -0.750  -0.928  0.00  0.00    -0.320 N 
ATOM     24  H   UNL d   1      -0.587  -0.576  -1.029  0.00  0.00     0.169 HD
ATOM     25  O   UNL d   1       2.247  -0.229   0.421  0.00  0.00    -0.267 OA
BRANCH  23  26
ATOM     26  C   UNL d   1       0.994  -1.466  -1.997  0.00  0.00     0.074 A 
ATOM     27  C   UNL d   1       2.342  -1.825  -2.051  0.00  0.00     0.049 A 
ATOM     28  C   UNL d   1       2.857  -2.536  -3.152  0.00  0.00     0.050 A 
ATOM     29  C   UNL d   1       1.999  -2.886  -4.208  0.00  0.00     0.019 A 
ATOM     30  C   UNL d   1       0.647  -2.548  -4.156  0.00  0.00     0.045 A 
ATOM     31  C   UNL d   1       0.159  -1.849  -3.055  0.00  0.00     0.143 A 
ATOM     32  F   UNL d   1      -1.148  -1.544  -3.012  0.00  0.00    -0.204 F 
BRANCH  28  33
ATOM     33  C   UNL d   1       4.319  -2.914  -3.211  0.00  0.00     0.417 C 
ATOM     34  F   UNL d   1       5.017  -2.607  -2.084  0.00  0.00    -0.166 F 
ATOM     35  F   UNL d   1       4.497  -4.252  -3.404  0.00  0.00    -0.166 F 
ATOM     36  F   UNL d   1       4.971  -2.302  -4.238  0.00  0.00    -0.166 F 
ENDBRANCH  28  33
ENDBRANCH  23  26
ENDBRANCH   2  22
TORSDOF 6
