REMARK  3 active torsions:
REMARK  status: ('A' for Active; 'I' for Inactive)
REMARK    1  A    between atoms: C_12  and  C_3 
REMARK    2  A    between atoms: C_13  and  C_11 
REMARK    3  A    between atoms: O_21  and  C_13 
ROOT
ATOM      1  N   UNL d   1       0.248   0.673   0.028  0.00  0.00    -0.240 N 
ATOM      2  C   UNL d   1       0.430  -0.686  -0.002  0.00  0.00     0.175 A 
ATOM      3  C   UNL d   1       1.542   1.197  -0.035  0.00  0.00     0.142 A 
ATOM      4  C   UNL d   1      -0.974   1.323   0.140  0.00  0.00     0.257 A 
ATOM      5  N   UNL d   1       2.398   0.187  -0.017  0.00  0.00    -0.282 N 
ATOM      6  HN  UNL d   1       3.415   0.273  -0.009  1.00  0.00     0.188 HD
ATOM      7  N   UNL d   1       1.703  -0.986  -0.010  0.00  0.00    -0.277 N 
ATOM      8  HN  UNL d   1       2.103  -1.925  -0.012  1.00  0.00     0.189 HD
ATOM      9  C   UNL d   1      -2.192   0.500   0.070  0.00  0.00     0.100 A 
ATOM     10  S   UNL d   1      -0.833  -1.853   0.026  0.00  0.00    -0.046 SA
ATOM     11  C   UNL d   1      -2.230  -0.837   0.022  0.00  0.00     0.088 A 
ATOM     12  O   UNL d   1      -1.041   2.533   0.296  0.00  0.00    -0.268 OA
ENDROOT
BRANCH   3  13
ATOM     13  C   UNL d   1       1.975   2.600  -0.093  0.00  0.00     0.013 A 
ATOM     14  C   UNL d   1       3.157   2.972   0.570  0.00  0.00     0.039 A 
ATOM     15  C   UNL d   1       3.611   4.292   0.533  0.00  0.00     0.036 A 
ATOM     16 CL   UNL d   1       5.069   4.718   1.342  0.00  0.00    -0.084 Cl
ATOM     17  C   UNL d   1       2.898   5.267  -0.155  0.00  0.00     0.047 A 
ATOM     18  C   UNL d   1       1.747   4.900  -0.842  0.00  0.00     0.036 A 
ATOM     19  C   UNL d   1       1.305   3.574  -0.841  0.00  0.00     0.039 A 
ATOM     20 CL   UNL d   1       0.850   6.090  -1.702  0.00  0.00    -0.084 Cl
ENDBRANCH   3  13
BRANCH  11  21
ATOM     21  C   UNL d   1      -3.540  -1.572  -0.012  0.00  0.00     0.300 C 
ATOM     22  O   UNL d   1      -3.648  -2.788  -0.043  0.00  0.00    -0.259 OA
BRANCH  21  23
ATOM     23  O   UNL d   1      -4.595  -0.710   0.005  0.00  0.00    -0.322 OA
ATOM     24  C   UNL d   1      -5.869  -1.362   0.007  0.00  0.00     0.213 C 
ENDBRANCH  21  23
ENDBRANCH  11  21
TORSDOF 3
