REMARK  5 active torsions:
REMARK  status: ('A' for Active; 'I' for Inactive)
REMARK    1  A    between atoms: C_15  and  C_2 
REMARK    2  A    between atoms: S_10  and  C_5 
REMARK       I    between atoms: N_8  and  C_14 
REMARK    3  A    between atoms: C_12  and  N_8 
REMARK    4  A    between atoms: C_17  and  S_10 
REMARK    5  A    between atoms: C_14  and  C_17 
ROOT
ATOM      1  N   UNL d   1       5.866  -1.581  -2.885  0.00  0.00    -0.191 NA
ATOM      2  C   UNL d   1       5.677  -0.739  -2.108  0.00  0.00     0.102 C 
ATOM      3  C   UNL d   1       4.233   0.501  -0.506  0.00  0.00     0.055 A 
ATOM      4  C   UNL d   1       5.435   0.369  -1.221  0.00  0.00     0.071 A 
ATOM      5  C   UNL d   1       6.383   1.404  -1.150  0.00  0.00     0.025 A 
ATOM      6  C   UNL d   1       3.965   1.674   0.211  0.00  0.00     0.031 A 
ATOM      7  C   UNL d   1       6.137   2.542  -0.380  0.00  0.00     0.002 A 
ATOM      8  C   UNL d   1       4.925   2.680   0.295  0.00  0.00     0.002 A 
ENDROOT
BRANCH   3   9
ATOM      9  N   UNL d   1       3.235  -0.500  -0.473  0.00  0.00    -0.325 N 
ATOM     10  C   UNL d   1       3.515  -1.772   0.013  0.00  0.00     0.231 C 
ATOM     11  O   UNL d   1       4.629  -2.136   0.380  0.00  0.00    -0.272 OA
ATOM     12  H   UNL d   1       2.312  -0.146  -0.221  0.00  0.00     0.169 HD
BRANCH  10  13
ATOM     13  C   UNL d   1       2.339  -2.739   0.011  0.00  0.00     0.185 C 
BRANCH  13  14
ATOM     14  S   UNL d   1       1.044  -2.342   1.229  0.00  0.00    -0.083 SA
BRANCH  14  15
ATOM     15  C   UNL d   1       0.278  -1.007   0.449  0.00  0.00     0.163 A 
ATOM     16  N   UNL d   1      -0.666  -1.094  -0.539  0.00  0.00    -0.315 N 
ATOM     17  C   UNL d   1      -0.714   0.167  -1.116  0.00  0.00     0.134 A 
ATOM     18  C   UNL d   1      -1.378  -2.285  -0.923  0.00  0.00     0.160 C 
ATOM     19  N   UNL d   1       0.106   0.951  -0.435  0.00  0.00    -0.283 N 
ATOM     20  N   UNL d   1       0.707   0.224   0.551  0.00  0.00    -0.278 N 
ATOM     21  HN  UNL d   1       0.263   1.942  -0.617  1.00  0.00     0.188 HD
ATOM     22  HN  UNL d   1       1.370   0.577   1.241  1.00  0.00     0.189 HD
BRANCH  17  23
ATOM     23  C   UNL d   1      -1.410   0.573  -2.343  0.00  0.00     0.009 A 
ATOM     24  C   UNL d   1      -2.658   0.070  -2.724  0.00  0.00     0.015 A 
ATOM     25  C   UNL d   1      -3.217   0.400  -3.963  0.00  0.00     0.001 A 
ATOM     26  C   UNL d   1      -2.560   1.284  -4.814  0.00  0.00     0.000 A 
ATOM     27  C   UNL d   1      -1.356   1.858  -4.419  0.00  0.00     0.001 A 
ATOM     28  C   UNL d   1      -0.786   1.504  -3.193  0.00  0.00     0.015 A 
ENDBRANCH  17  23
ENDBRANCH  14  15
ENDBRANCH  13  14
ENDBRANCH  10  13
ENDBRANCH   3   9
TORSDOF 5
