REMARK  5 active torsions:
REMARK  status: ('A' for Active; 'I' for Inactive)
REMARK    1  A    between atoms: C_2  and  C_1 
REMARK       I    between atoms: N_3  and  C_1 
REMARK    2  A    between atoms: N_5  and  C_2 
REMARK    3  A    between atoms: C_4  and  N_3 
REMARK    4  A    between atoms: C_12  and  N_5 
REMARK    5  A    between atoms: O_15  and  C_8 
ROOT
ATOM      1  C   UNL d   1       0.725  -0.535   0.038  0.00  0.00     0.283 C 
ATOM      2  N   UNL d   1       1.746  -0.307   0.947  0.00  0.00    -0.319 N 
ATOM      3  O   UNL d   1       0.194  -1.607  -0.193  0.00  0.00    -0.265 OA
ATOM      4  H   UNL d   1       2.203   0.597   0.891  0.00  0.00     0.169 HD
ENDROOT
BRANCH   1   5
ATOM      5  C   UNL d   1       0.296   0.706  -0.770  0.00  0.00     0.165 C 
ATOM      6  S   UNL d   1       1.475   1.778  -1.271  0.00  0.00    -0.055 SA
BRANCH   5   7
ATOM      7  N   UNL d   1      -1.029   0.936  -1.090  0.00  0.00    -0.372 N 
ATOM      8  H   UNL d   1      -1.189   1.723  -1.707  0.00  0.00     0.161 HD
BRANCH   7   9
ATOM      9  C   UNL d   1      -2.151   0.033  -0.834  0.00  0.00     0.082 C 
ATOM     10  C   UNL d   1      -2.276  -1.027  -1.939  0.00  0.00     0.025 C 
ATOM     11  C   UNL d   1      -3.015  -0.542  -3.187  0.00  0.00     0.002 C 
ATOM     12  C   UNL d   1      -4.362   0.063  -2.825  0.00  0.00     0.000 C 
ATOM     13  C   UNL d   1      -4.172   1.242  -1.882  0.00  0.00     0.002 C 
ATOM     14  C   UNL d   1      -3.448   0.825  -0.603  0.00  0.00     0.025 C 
ENDBRANCH   7   9
ENDBRANCH   5   7
ENDBRANCH   1   5
BRANCH   2  15
ATOM     15  C   UNL d   1       2.338  -1.255   1.811  0.00  0.00     0.070 A 
ATOM     16  C   UNL d   1       1.689  -2.432   2.198  0.00  0.00     0.056 A 
ATOM     17  C   UNL d   1       2.279  -3.285   3.136  0.00  0.00     0.036 A 
ATOM     18 CL   UNL d   1       1.446  -4.706   3.641  0.00  0.00    -0.084 Cl
ATOM     19  C   UNL d   1       3.522  -2.987   3.691  0.00  0.00     0.026 A 
ATOM     20  C   UNL d   1       4.189  -1.829   3.296  0.00  0.00     0.041 A 
ATOM     21  C   UNL d   1       3.608  -0.977   2.349  0.00  0.00     0.095 A 
BRANCH  21  22
ATOM     22  O   UNL d   1       4.321   0.149   2.022  0.00  0.00    -0.354 OA
ATOM     23  C   UNL d   1       4.763   0.148   0.661  0.00  0.00     0.210 C 
ENDBRANCH  21  22
ENDBRANCH   2  15
TORSDOF 5
