REMARK  4 active torsions:
REMARK  status: ('A' for Active; 'I' for Inactive)
REMARK       I    between atoms: C_3  and  N_1 
REMARK    1  A    between atoms: N_2  and  C_7 
REMARK    2  A    between atoms: C_8  and  C_3 
REMARK    3  A    between atoms: O_12  and  C_4 
REMARK    4  A    between atoms: C_17  and  O_12 
ROOT
ATOM      1  N   UNL d   1       0.429   0.985   0.050  0.00  0.00    -0.343 N 
ATOM      2  C   UNL d   1       0.812   2.230  -0.391  0.00  0.00     0.254 C 
ATOM      3  C   UNL d   1      -0.337  -0.926  -0.231  0.00  0.00     0.165 C 
ATOM      4  C   UNL d   1      -0.930   0.459   0.089  0.00  0.00     0.160 C 
ATOM      5  C   UNL d   1       1.053  -0.324   0.030  0.00  0.00     0.160 C 
ATOM      6  O   UNL d   1      -0.009   3.123  -0.600  0.00  0.00    -0.267 OA
ENDROOT
BRANCH   2   7
ATOM      7  C   UNL d   1       2.255   2.514  -0.630  0.00  0.00     0.032 A 
ATOM      8  C   UNL d   1       2.587   3.540  -1.532  0.00  0.00     0.019 A 
ATOM      9  C   UNL d   1       3.924   3.861  -1.793  0.00  0.00     0.037 A 
ATOM     10  C   UNL d   1       4.939   3.146  -1.149  0.00  0.00     0.102 A 
ATOM     11  C   UNL d   1       4.625   2.134  -0.234  0.00  0.00     0.037 A 
ATOM     12  C   UNL d   1       3.285   1.837   0.036  0.00  0.00     0.019 A 
BRANCH  10  13
ATOM     13  N   UNL d   1       6.346   3.463  -1.422  0.00  0.00    -0.116 N 
ATOM     14  O   UNL d   1       7.212   2.789  -0.847  0.00  0.00    -0.532 OA
ATOM     15  O   UNL d   1       6.587   4.385  -2.214  0.00  0.00    -0.532 OA
ENDBRANCH  10  13
ENDBRANCH   2   7
BRANCH   3  16
ATOM     16  O   UNL d   1      -0.518  -1.445  -1.571  0.00  0.00    -0.343 OA
BRANCH  16  17
ATOM     17  C   UNL d   1      -1.750  -1.918  -1.943  0.00  0.00     0.069 A 
ATOM     18  C   UNL d   1      -2.842  -2.071  -1.088  0.00  0.00     0.038 A 
ATOM     19  C   UNL d   1      -4.053  -2.560  -1.587  0.00  0.00     0.026 A 
ATOM     20  C   UNL d   1      -4.167  -2.898  -2.934  0.00  0.00     0.034 A 
ATOM     21  C   UNL d   1      -3.077  -2.754  -3.790  0.00  0.00     0.026 A 
ATOM     22 CL   UNL d   1      -5.661  -3.494  -3.542  0.00  0.00    -0.084 Cl
ATOM     23  C   UNL d   1      -1.869  -2.266  -3.291  0.00  0.00     0.038 A 
ENDBRANCH  16  17
ENDBRANCH   3  16
TORSDOF 4
