REMARK  4 active torsions:
REMARK  status: ('A' for Active; 'I' for Inactive)
REMARK    1  A    between atoms: C_3  and  C_1 
REMARK    2  A    between atoms: C_11  and  C_2 
REMARK    3  A    between atoms: O_17  and  C_11 
REMARK    4  A    between atoms: C_21  and  O_17 
ROOT
ATOM      1  C   UNL d   1      -4.126   0.765   1.407  0.00  0.00     0.067 C 
ATOM      2  C   UNL d   1      -3.740  -0.023   0.174  0.00  0.00     0.167 C 
ATOM      3  C   UNL d   1      -5.101   1.698   1.341  0.00  0.00     0.024 C 
ATOM      4  C   UNL d   1      -5.284   1.446  -1.078  0.00  0.00     0.321 C 
ATOM      5  N   UNL d   1      -5.691   1.947   0.119  0.00  0.00    -0.312 N 
ATOM      6  N   UNL d   1      -4.243   0.582  -1.043  0.00  0.00    -0.330 N 
ATOM      7  O   UNL d   1      -5.814   1.774  -2.135  0.00  0.00    -0.247 OA
ATOM      8  C   UNL d   1      -5.674   2.533   2.456  0.00  0.00     0.069 C 
ATOM      9  H   UNL d   1      -6.426   2.641   0.048  0.00  0.00     0.170 HD
ATOM     10  H   UNL d   1      -3.959   0.235  -1.948  0.00  0.00     0.165 HD
ENDROOT
BRANCH   2  11
ATOM     11  C   UNL d   1      -2.269  -0.285  -0.015  0.00  0.00     0.043 A 
ATOM     12  C   UNL d   1      -1.323   0.852  -0.095  0.00  0.00     0.195 A 
ATOM     13  C   UNL d   1       0.110   0.515  -0.139  0.00  0.00     0.049 A 
ATOM     14  O   UNL d   1      -1.695   2.017  -0.096  0.00  0.00    -0.287 OA
ATOM     15  C   UNL d   1       1.077   1.524  -0.177  0.00  0.00     0.018 A 
ATOM     16  C   UNL d   1       0.491  -0.824  -0.110  0.00  0.00     0.089 A 
ATOM     17  C   UNL d   1       2.429   1.183  -0.160  0.00  0.00     0.001 A 
ATOM     18  C   UNL d   1       2.811  -0.159  -0.099  0.00  0.00     0.003 A 
ATOM     19  C   UNL d   1       1.843  -1.164  -0.079  0.00  0.00     0.038 A 
ATOM     20  O   UNL d   1      -0.416  -1.852  -0.111  0.00  0.00    -0.321 OA
ATOM     21  C   UNL d   1      -1.746  -1.523  -0.048  0.00  0.00     0.156 A 
ENDBRANCH   2  11
BRANCH   1  22
ATOM     22  C   UNL d   1      -3.440   0.464   2.693  0.00  0.00     0.293 C 
ATOM     23  O   UNL d   1      -3.330   1.245   3.626  0.00  0.00    -0.259 OA
BRANCH  22  24
ATOM     24  O   UNL d   1      -2.944  -0.800   2.697  0.00  0.00    -0.318 OA
BRANCH  24  25
ATOM     25  C   UNL d   1      -2.232  -1.183   3.890  0.00  0.00     0.174 C 
ATOM     26  C   UNL d   1      -0.856  -0.538   3.967  0.00  0.00     0.034 C 
ENDBRANCH  24  25
ENDBRANCH  22  24
ENDBRANCH   1  22
TORSDOF 4
