REMARK  8 active torsions:
REMARK  status: ('A' for Active; 'I' for Inactive)
REMARK    1  A    between atoms: C_17  and  N_3 
REMARK    2  A    between atoms: C_15  and  N_4 
REMARK    3  A    between atoms: S_14  and  C_10 
REMARK    4  A    between atoms: C_16  and  C_13 
REMARK    5  A    between atoms: C_21  and  S_14 
REMARK    6  A    between atoms: C_19  and  C_15 
REMARK    7  A    between atoms: C_18  and  C_21 
REMARK    8  A    between atoms: O_23  and  C_18 
ROOT
ATOM      1  C   UNL d   1      -0.330  -1.289   0.360  0.00  0.00     0.153 A 
ATOM      2  C   UNL d   1      -0.559  -2.691   0.214  0.00  0.00     0.098 C 
ATOM      3  N   UNL d   1      -0.246  -0.498   1.496  0.00  0.00    -0.305 N 
ATOM      4  N   UNL d   1      -1.364  -3.310  -0.731  0.00  0.00    -0.284 N 
ATOM      5  N   UNL d   1      -0.051  -0.551  -0.704  0.00  0.00    -0.281 N 
ATOM      6  HN  UNL d   1      -0.104  -0.865  -1.673  1.00  0.00     0.188 HD
ATOM      7  N   UNL d   1      -1.523  -4.639  -0.468  0.00  0.00    -0.301 N 
ATOM      8  HN  UNL d   1      -2.184  -5.286  -0.899  1.00  0.00     0.187 HD
ATOM      9  C   UNL d   1       0.109  -3.741   0.808  0.00  0.00     0.062 C 
ATOM     10  C   UNL d   1       0.211   0.720   1.008  0.00  0.00     0.163 A 
ATOM     11  N   UNL d   1       0.316   0.687  -0.296  0.00  0.00    -0.278 N 
ATOM     12  HN  UNL d   1       0.619   1.454  -0.897  1.00  0.00     0.189 HD
ATOM     13  C   UNL d   1      -0.619  -4.906   0.483  0.00  0.00     0.036 C 
ENDROOT
BRANCH   3  14
ATOM     14  C   UNL d   1      -0.513  -0.728   2.923  0.00  0.00     0.094 C 
ATOM     15  C   UNL d   1      -0.368  -2.125   3.542  0.00  0.00     0.026 C 
ATOM     16  C   UNL d   1      -1.630  -2.978   3.474  0.00  0.00     0.002 C 
ATOM     17  C   UNL d   1      -2.805  -2.269   4.123  0.00  0.00     0.000 C 
ATOM     18  C   UNL d   1      -3.048  -0.922   3.455  0.00  0.00     0.002 C 
ATOM     19  C   UNL d   1      -1.802  -0.040   3.440  0.00  0.00     0.026 C 
ENDBRANCH   3  14
BRANCH   4  20
ATOM     20  C   UNL d   1      -1.730  -2.821  -2.063  0.00  0.00     0.187 C 
BRANCH  20  21
ATOM     21  C   UNL d   1      -3.174  -2.417  -2.248  0.00  0.00    -0.038 A 
ATOM     22  C   UNL d   1      -4.218  -3.345  -2.096  0.00  0.00     0.015 A 
ATOM     23  C   UNL d   1      -5.543  -3.003  -2.410  0.00  0.00    -0.061 A 
ATOM     24  C   UNL d   1      -6.656  -3.998  -2.263  0.00  0.00     0.048 C 
ATOM     25  C   UNL d   1      -5.824  -1.716  -2.881  0.00  0.00     0.007 A 
ATOM     26  C   UNL d   1      -4.799  -0.786  -3.039  0.00  0.00     0.001 A 
ATOM     27  C   UNL d   1      -3.483  -1.134  -2.726  0.00  0.00     0.009 A 
ENDBRANCH  20  21
ENDBRANCH   4  20
BRANCH  10  28
ATOM     28  S   UNL d   1       0.580   2.120   1.959  0.00  0.00    -0.082 SA
BRANCH  28  29
ATOM     29  C   UNL d   1       1.124   3.290   0.685  0.00  0.00     0.192 C 
BRANCH  29  30
ATOM     30  C   UNL d   1      -0.041   3.862  -0.089  0.00  0.00     0.149 C 
ATOM     31  O   UNL d   1      -0.505   4.975   0.123  0.00  0.00    -0.649 OA
BRANCH  30  32
ATOM     32  O   UNL d   1      -0.535   3.061  -1.059  0.00  0.00    -0.776 OA
ATOM     33  H   UNL d   1      -0.140   2.157  -1.075  0.00  0.00     0.167 HD
ENDBRANCH  30  32
ENDBRANCH  29  30
ENDBRANCH  28  29
ENDBRANCH  10  28
BRANCH  13  34
ATOM     34  C   UNL d   1      -0.485  -6.290   1.099  0.00  0.00    -0.007 C 
ATOM     35  C   UNL d   1      -1.834  -6.737   1.702  0.00  0.00     0.021 C 
ATOM     36  C   UNL d   1      -0.037  -7.316   0.044  0.00  0.00     0.021 C 
ATOM     37  C   UNL d   1       0.555  -6.297   2.243  0.00  0.00     0.021 C 
ENDBRANCH  13  34
TORSDOF 8
