REMARK  3 active torsions:
REMARK  status: ('A' for Active; 'I' for Inactive)
REMARK       I    between atoms: C_2  and  N_1 
REMARK    1  A    between atoms: C_3  and  N_1 
REMARK       I    between atoms: N_4  and  C_2 
REMARK    2  A    between atoms: C_5  and  C_3 
REMARK    3  A    between atoms: C_9  and  C_10 
ROOT
ATOM      1  C   UNL d   1       2.377  -0.241  -0.013  0.00  0.00     0.113 C 
ATOM      2  N   UNL d   1       3.060  -0.307   1.080  0.00  0.00    -0.385 N 
ATOM      3  HN  UNL d   1       4.078  -0.335   1.140  1.00  0.00     0.157 HD
ATOM      4  H   UNL d   1       2.411  -0.328   1.883  0.00  0.00     0.157 HD
ENDROOT
BRANCH   1   5
ATOM      5  N   UNL d   1       0.994  -0.151  -0.013  0.00  0.00    -0.294 N 
ATOM      6  C   UNL d   1       0.211  -0.392   1.094  0.00  0.00     0.324 C 
ATOM      7  N   UNL d   1      -1.129  -0.090   0.985  0.00  0.00    -0.330 N 
ATOM      8  O   UNL d   1       0.675  -0.868   2.133  0.00  0.00    -0.247 OA
ATOM      9  C   UNL d   1      -1.774   0.723  -0.048  0.00  0.00     0.153 C 
ATOM     10  C   UNL d   1      -2.033  -0.504   2.067  0.00  0.00     0.153 C 
ATOM     11  C   UNL d   1      -2.605   1.855   0.579  0.00  0.00     0.187 C 
ATOM     12  O   UNL d   1      -3.515   1.361   1.573  0.00  0.00    -0.388 OA
ATOM     13  C   UNL d   1      -2.798   0.696   2.626  0.00  0.00     0.187 C 
ATOM     14  H   UNL d   1       0.527  -0.199  -0.900  0.00  0.00     0.172 HD
ENDBRANCH   1   5
BRANCH   1  15
ATOM     15  C   UNL d   1       3.084  -0.328  -1.319  0.00  0.00     0.008 A 
ATOM     16  C   UNL d   1       2.670   0.299  -2.493  0.00  0.00     0.016 A 
ATOM     17  C   UNL d   1       3.404   0.108  -3.681  0.00  0.00     0.009 A 
ATOM     18  C   UNL d   1       4.550  -0.719  -3.724  0.00  0.00    -0.051 A 
ATOM     19  C   UNL d   1       4.952  -1.311  -2.520  0.00  0.00     0.009 A 
ATOM     20  C   UNL d   1       4.235  -1.117  -1.340  0.00  0.00     0.016 A 
BRANCH  18  21
ATOM     21  C   UNL d   1       5.311  -0.980  -5.039  0.00  0.00    -0.024 C 
ATOM     22  C   UNL d   1       6.513  -1.943  -4.872  0.00  0.00     0.019 C 
ATOM     23  C   UNL d   1       4.359  -1.623  -6.068  0.00  0.00     0.019 C 
ATOM     24  C   UNL d   1       5.867   0.337  -5.617  0.00  0.00     0.019 C 
ENDBRANCH  18  21
ENDBRANCH   1  15
TORSDOF 3
