REMARK  6 active torsions:
REMARK  status: ('A' for Active; 'I' for Inactive)
REMARK    1  A    between atoms: N_2  and  C_1 
REMARK    2  A    between atoms: C_3  and  C_1 
REMARK    3  A    between atoms: C_4  and  C_1 
REMARK    4  A    between atoms: N_6  and  C_1 
REMARK       I    between atoms: C_5  and  N_2 
REMARK    5  A    between atoms: C_7  and  C_5 
REMARK    6  A    between atoms: C_17  and  N_6 
ROOT
ATOM      1  C   UNL d   1       0.936   0.049  -0.018  0.00  0.00     0.306 C 
ENDROOT
BRANCH   1   2
ATOM      2  N   UNL d   1       0.425  -1.131  -0.756  0.00  0.00    -0.315 N 
ATOM      3  C   UNL d   1       0.370  -2.401  -0.254  0.00  0.00     0.255 C 
ATOM      4  O   UNL d   1       0.654  -2.694   0.894  0.00  0.00    -0.268 OA
ATOM      5  H   UNL d   1       0.138  -0.961  -1.710  0.00  0.00     0.165 HD
BRANCH   3   6
ATOM      6  C   UNL d   1      -0.126  -3.420  -1.201  0.00  0.00     0.047 A 
ATOM      7  C   UNL d   1      -1.032  -4.371  -0.756  0.00  0.00     0.104 A 
ATOM      8  N   UNL d   1      -1.608  -5.288  -1.570  0.00  0.00    -0.374 N 
ATOM      9  C   UNL d   1      -1.238  -5.269  -2.870  0.00  0.00     0.087 A 
ATOM     10  HN  UNL d   1      -2.289  -5.962  -1.218  1.00  0.00     0.164 HD
ATOM     11  C   UNL d   1      -0.311  -4.382  -3.396  0.00  0.00     0.018 A 
ATOM     12  C   UNL d   1       0.257  -3.440  -2.544  0.00  0.00     0.020 A 
ENDBRANCH   3   6
ENDBRANCH   1   2
BRANCH   1  13
ATOM     13  C   UNL d   1       0.438   0.189   1.464  0.00  0.00     0.441 C 
ATOM     14  F   UNL d   1      -0.867  -0.146   1.596  0.00  0.00    -0.166 F 
ATOM     15  F   UNL d   1       1.150  -0.596   2.312  0.00  0.00    -0.166 F 
ATOM     16  F   UNL d   1       0.577   1.453   1.937  0.00  0.00    -0.166 F 
ENDBRANCH   1  13
BRANCH   1  17
ATOM     17  C   UNL d   1       0.382   1.366  -0.644  0.00  0.00     0.441 C 
ATOM     18  F   UNL d   1       0.286   1.250  -2.000  0.00  0.00    -0.166 F 
ATOM     19  F   UNL d   1      -0.875   1.654  -0.230  0.00  0.00    -0.166 F 
ATOM     20  F   UNL d   1       1.154   2.446  -0.398  0.00  0.00    -0.166 F 
ENDBRANCH   1  17
BRANCH   1  21
ATOM     21  N   UNL d   1       2.427  -0.092  -0.043  0.00  0.00    -0.349 N 
ATOM     22  H   UNL d   1       2.735  -0.661   0.751  0.00  0.00     0.162 HD
BRANCH  21  23
ATOM     23  C   UNL d   1       3.298  -0.174  -1.111  0.00  0.00     0.030 A 
ATOM     24  C   UNL d   1       2.947  -0.021  -2.455  0.00  0.00     0.032 A 
ATOM     25  C   UNL d   1       3.912  -0.051  -3.470  0.00  0.00     0.044 A 
ATOM     26  C   UNL d   1       5.250  -0.211  -3.145  0.00  0.00     0.116 A 
ATOM     27  C   UNL d   1       5.641  -0.336  -1.823  0.00  0.00     0.044 A 
ATOM     28  F   UNL d   1       6.170  -0.234  -4.117  0.00  0.00    -0.206 F 
ATOM     29  C   UNL d   1       4.669  -0.309  -0.819  0.00  0.00     0.032 A 
ENDBRANCH  21  23
ENDBRANCH   1  21
TORSDOF 6
