REMARK  5 active torsions:
REMARK  status: ('A' for Active; 'I' for Inactive)
REMARK    1  A    between atoms: C_8  and  C_1 
REMARK    2  A    between atoms: N_7  and  C_3 
REMARK       I    between atoms: C_6  and  N_7 
REMARK    3  A    between atoms: C_11  and  C_6 
REMARK       I    between atoms: C_12  and  N_13 
REMARK    4  A    between atoms: C_17  and  C_12 
REMARK    5  A    between atoms: N_13  and  C_14 
ROOT
ATOM      1  C   UNL d   1       2.618  -2.180   0.008  0.00  0.00     0.059 A 
ATOM      2  C   UNL d   1       2.561  -1.148   0.958  0.00  0.00     0.050 A 
ATOM      3  C   UNL d   1       3.789  -2.365  -0.755  0.00  0.00     0.019 A 
ATOM      4  C   UNL d   1       3.686  -0.319   1.116  0.00  0.00     0.030 A 
ATOM      5  C   UNL d   1       4.895  -1.536  -0.581  0.00  0.00     0.001 A 
ATOM      6  C   UNL d   1       4.843  -0.512   0.355  0.00  0.00     0.002 A 
ENDROOT
BRANCH   1   7
ATOM      7  C   UNL d   1       1.472  -3.056  -0.355  0.00  0.00     0.259 C 
ATOM      8  N   UNL d   1       0.238  -2.443  -0.383  0.00  0.00    -0.302 N 
ATOM      9  H   UNL d   1       0.175  -1.442  -0.239  0.00  0.00     0.171 HD
ATOM     10  O   UNL d   1       1.724  -4.214  -0.668  0.00  0.00    -0.267 OA
BRANCH   8  11
ATOM     11  C   UNL d   1      -0.917  -3.006  -0.883  0.00  0.00     0.168 C 
ATOM     12  S   UNL d   1      -1.041  -4.648  -1.320  0.00  0.00    -0.029 SA
ATOM     13  C   UNL d   1      -2.575  -4.290  -2.004  0.00  0.00     0.177 C 
ATOM     14  N   UNL d   1      -2.982  -3.058  -1.747  0.00  0.00    -0.288 N 
ATOM     15  N   UNL d   1      -2.018  -2.317  -1.085  0.00  0.00    -0.279 N 
ATOM     16  HN  UNL d   1      -3.899  -2.695  -2.008  1.00  0.00     0.187 HD
ATOM     17  HN  UNL d   1      -2.147  -1.350  -0.788  1.00  0.00     0.189 HD
BRANCH  13  18
ATOM     18  C   UNL d   1      -3.293  -5.300  -2.835  0.00  0.00     0.440 C 
ATOM     19  F   UNL d   1      -2.658  -6.504  -2.892  0.00  0.00    -0.164 F 
ATOM     20  F   UNL d   1      -4.547  -5.556  -2.377  0.00  0.00    -0.164 F 
ATOM     21  F   UNL d   1      -3.425  -4.886  -4.125  0.00  0.00    -0.164 F 
ENDBRANCH  13  18
ENDBRANCH   8  11
ENDBRANCH   1   7
BRANCH   2  22
ATOM     22  N   UNL d   1       1.429  -0.938   1.793  0.00  0.00    -0.322 N 
ATOM     23  C   UNL d   1       0.942   0.339   2.034  0.00  0.00     0.256 C 
ATOM     24  O   UNL d   1       1.342   1.351   1.456  0.00  0.00    -0.267 OA
ATOM     25  H   UNL d   1       0.831  -1.728   2.009  0.00  0.00     0.169 HD
BRANCH  23  26
ATOM     26  C   UNL d   1      -0.200   0.476   2.973  0.00  0.00     0.032 A 
ATOM     27  C   UNL d   1      -0.292  -0.275   4.150  0.00  0.00     0.017 A 
ATOM     28  C   UNL d   1      -1.329  -0.014   5.052  0.00  0.00     0.001 A 
ATOM     29  C   UNL d   1      -2.265   0.983   4.781  0.00  0.00     0.000 A 
ATOM     30  C   UNL d   1      -2.177   1.726   3.605  0.00  0.00     0.001 A 
ATOM     31  C   UNL d   1      -1.145   1.477   2.705  0.00  0.00     0.017 A 
ENDBRANCH  23  26
ENDBRANCH   2  22
TORSDOF 5
