REMARK  2 active torsions:
REMARK  status: ('A' for Active; 'I' for Inactive)
REMARK    1  A    between atoms: C_13  and  N_1 
REMARK    2  A    between atoms: S_14  and  C_7 
ROOT
ATOM      1  N   UNL d   1      -1.540  -1.109  -0.059  0.00  0.00    -0.239 N 
ATOM      2  C   UNL d   1      -0.220  -0.660   0.007  0.00  0.00     0.142 A 
ATOM      3  N   UNL d   1      -2.409  -0.056  -0.160  0.00  0.00    -0.302 N 
ATOM      4  HN  UNL d   1      -3.426  -0.093  -0.239  1.00  0.00     0.186 HD
ATOM      5  C   UNL d   1      -0.268   0.727  -0.031  0.00  0.00     0.060 A 
ATOM      6  C   UNL d   1      -1.635   1.028  -0.132  0.00  0.00     0.126 A 
ATOM      7  C   UNL d   1       0.950   1.401   0.032  0.00  0.00     0.083 A 
ATOM      8  N   UNL d   1       0.911  -1.393   0.086  0.00  0.00    -0.336 N 
ATOM      9  HN  UNL d   1       0.922  -2.413   0.110  1.00  0.00     0.168 HD
ATOM     10  N   UNL d   1       2.100   0.698   0.112  0.00  0.00    -0.346 N 
ATOM     11  HN  UNL d   1       3.003   1.171   0.156  1.00  0.00     0.167 HD
ATOM     12  C   UNL d   1       2.018  -0.640   0.131  0.00  0.00     0.182 A 
ENDROOT
BRANCH   1  13
ATOM     13  C   UNL d   1      -2.044  -2.446  -0.033  0.00  0.00     0.058 A 
ATOM     14  C   UNL d   1      -1.202  -3.552   0.136  0.00  0.00     0.031 A 
ATOM     15  C   UNL d   1      -1.730  -4.847   0.161  0.00  0.00     0.002 A 
ATOM     16  C   UNL d   1      -3.099  -5.050   0.015  0.00  0.00     0.000 A 
ATOM     17  C   UNL d   1      -3.948  -3.959  -0.153  0.00  0.00     0.002 A 
ATOM     18  C   UNL d   1      -3.426  -2.662  -0.175  0.00  0.00     0.031 A 
ENDBRANCH   1  13
BRANCH   7  19
ATOM     19  S   UNL d   1       1.051   3.160   0.006  0.00  0.00    -0.124 SA
ATOM     20  H   UNL d   1      -0.260   3.425  -0.001  0.00  0.00     0.108 HD
ENDBRANCH   7  19
TORSDOF 2
