REMARK  6 active torsions:
REMARK  status: ('A' for Active; 'I' for Inactive)
REMARK    1  A    between atoms: C_8  and  C_1 
REMARK    2  A    between atoms: C_13  and  C_2 
REMARK    3  A    between atoms: C_3  and  O_9 
REMARK    4  A    between atoms: C_6  and  C_3 
REMARK    5  A    between atoms: O_9  and  N_4 
REMARK    6  A    between atoms: C_12  and  C_15 
ROOT
ATOM      1  C   UNL d   1      -2.056  -0.028   0.038  0.00  0.00     0.018 A 
ATOM      2  C   UNL d   1      -4.877   0.029  -0.078  0.00  0.00    -0.019 A 
ATOM      3  C   UNL d   1      -2.738   1.193  -0.017  0.00  0.00     0.021 A 
ATOM      4  C   UNL d   1      -2.786  -1.218   0.042  0.00  0.00     0.021 A 
ATOM      5  C   UNL d   1      -4.188  -1.188  -0.011  0.00  0.00     0.014 A 
ATOM      6  C   UNL d   1      -4.144   1.222  -0.078  0.00  0.00     0.014 A 
ENDROOT
BRANCH   2   7
ATOM      7  C   UNL d   1      -6.370   0.046  -0.151  0.00  0.00     0.126 C 
ATOM      8  N   UNL d   1      -7.049  -1.060  -0.149  0.00  0.00    -0.268 N 
ATOM      9  HN  UNL d   1      -6.622  -1.985  -0.105  1.00  0.00     0.194 HD
BRANCH   8  10
ATOM     10  O   UNL d   1      -8.458  -0.841  -0.216  0.00  0.00    -0.195 OA
BRANCH  10  11
ATOM     11  C   UNL d   1      -9.090  -2.068  -0.222  0.00  0.00     0.315 C 
ATOM     12  O   UNL d   1      -8.541  -3.166  -0.202  0.00  0.00    -0.257 OA
BRANCH  11  13
ATOM     13  C   UNL d   1     -10.587  -1.976  -0.243  0.00  0.00     0.041 A 
ATOM     14  C   UNL d   1     -11.323  -3.181  -0.205  0.00  0.00     0.019 A 
ATOM     15  C   UNL d   1     -12.724  -3.179  -0.198  0.00  0.00     0.025 A 
ATOM     16  C   UNL d   1     -13.407  -1.969  -0.227  0.00  0.00     0.034 A 
ATOM     17  C   UNL d   1     -12.698  -0.768  -0.282  0.00  0.00     0.025 A 
ATOM     18 CL   UNL d   1     -15.128  -1.955  -0.190  0.00  0.00    -0.084 Cl
ATOM     19  C   UNL d   1     -11.292  -0.768  -0.293  0.00  0.00     0.019 A 
ENDBRANCH  11  13
ENDBRANCH  10  11
ENDBRANCH   8  10
ENDBRANCH   2   7
BRANCH   1  20
ATOM     20  C   UNL d   1      -0.621  -0.047   0.075  0.00  0.00    -0.061 C 
ATOM     21  C   UNL d   1       0.584  -0.045   0.082  0.00  0.00    -0.061 C 
BRANCH  21  22
ATOM     22  C   UNL d   1       2.018  -0.022   0.052  0.00  0.00     0.018 A 
ATOM     23  C   UNL d   1       2.743  -1.215  -0.009  0.00  0.00     0.020 A 
ATOM     24  C   UNL d   1       4.140  -1.187  -0.074  0.00  0.00     0.001 A 
ATOM     25  C   UNL d   1       4.814   0.034  -0.077  0.00  0.00     0.000 A 
ATOM     26  C   UNL d   1       4.096   1.227  -0.006  0.00  0.00     0.001 A 
ATOM     27  C   UNL d   1       2.700   1.199   0.060  0.00  0.00     0.020 A 
ENDBRANCH  21  22
ENDBRANCH   1  20
TORSDOF 6
