REMARK  6 active torsions:
REMARK  status: ('A' for Active; 'I' for Inactive)
REMARK       I    between atoms: N_5  and  C_1 
REMARK    1  A    between atoms: O_12  and  C_1 
REMARK    2  A    between atoms: N_2  and  N_5 
REMARK    3  A    between atoms: O_13  and  C_4 
REMARK    4  A    between atoms: O_15  and  C_6 
REMARK    5  A    between atoms: C_11  and  C_10 
REMARK    6  A    between atoms: C_16  and  O_12 
ROOT
ATOM      1  C   UNL d   1       2.950  -4.653  -4.273  0.00  0.00     0.099 A 
ATOM      2  C   UNL d   1       2.581  -4.614  -5.623  0.00  0.00     0.101 A 
ATOM      3  C   UNL d   1       2.232  -3.921  -3.323  0.00  0.00     0.052 A 
ATOM      4  C   UNL d   1       1.471  -3.838  -5.996  0.00  0.00     0.040 A 
ATOM      5  C   UNL d   1       1.141  -3.140  -3.715  0.00  0.00    -0.017 A 
ATOM      6  C   UNL d   1       0.749  -3.102  -5.052  0.00  0.00     0.016 A 
ENDROOT
BRANCH   5   7
ATOM      7  C   UNL d   1       0.421  -2.327  -2.715  0.00  0.00     0.118 C 
ATOM      8  N   UNL d   1       0.802  -2.313  -1.477  0.00  0.00    -0.307 N 
ATOM      9  HN  UNL d   1       1.580  -2.883  -1.144  1.00  0.00     0.186 HD
BRANCH   8  10
ATOM     10  N   UNL d   1       0.101  -1.493  -0.648  0.00  0.00    -0.246 N 
ATOM     11  C   UNL d   1       0.430  -1.329   0.681  0.00  0.00     0.379 C 
ATOM     12  O   UNL d   1      -0.154  -0.517   1.391  0.00  0.00    -0.237 OA
ATOM     13  H   UNL d   1      -0.631  -0.893  -1.007  0.00  0.00     0.192 HD
BRANCH  11  14
ATOM     14  O   UNL d   1       1.441  -2.142   1.093  0.00  0.00    -0.303 OA
BRANCH  14  15
ATOM     15  C   UNL d   1       1.861  -1.981   2.454  0.00  0.00     0.176 C 
ATOM     16  C   UNL d   1       0.970  -2.775   3.391  0.00  0.00     0.034 C 
ENDBRANCH  14  15
ENDBRANCH  11  14
ENDBRANCH   8  10
ENDBRANCH   5   7
BRANCH   1  17
ATOM     17  O   UNL d   1       4.013  -5.394  -3.837  0.00  0.00    -0.358 OA
ATOM     18  H   UNL d   1       4.106  -5.284  -2.876  0.00  0.00     0.217 HD
ENDBRANCH   1  17
BRANCH   2  19
ATOM     19  O   UNL d   1       3.170  -5.247  -6.683  0.00  0.00    -0.353 OA
ATOM     20  C   UNL d   1       4.344  -6.008  -6.438  0.00  0.00     0.210 C 
ENDBRANCH   2  19
TORSDOF 6
