REMARK  9 active torsions:
REMARK  status: ('A' for Active; 'I' for Inactive)
REMARK    1  A    between atoms: C_12  and  C_2 
REMARK    2  A    between atoms: S_9  and  C_5 
REMARK    3  A    between atoms: C_8  and  C_15 
REMARK       I    between atoms: N_13  and  C_8 
REMARK    4  A    between atoms: C_15  and  S_9 
REMARK    5  A    between atoms: N_10  and  N_13 
REMARK    6  A    between atoms: C_20  and  C_17 
REMARK    7  A    between atoms: O_18  and  C_19 
REMARK    8  A    between atoms: C_21  and  O_18 
REMARK    9  A    between atoms: C_26  and  C_21 
ROOT
ATOM      1  C   UNL d   1       2.812  -4.532  -0.655  0.00  0.00     0.245 C 
ATOM      2  N   UNL d   1       1.907  -5.503  -0.239  0.00  0.00    -0.270 N 
ATOM      3  O   UNL d   1       2.474  -3.451  -1.147  0.00  0.00    -0.271 OA
ATOM      4  H   UNL d   1       2.230  -6.401   0.105  0.00  0.00     0.190 HD
ENDROOT
BRANCH   2   5
ATOM      5  N   UNL d   1       0.581  -5.236  -0.340  0.00  0.00    -0.308 N 
ATOM      6  C   UNL d   1      -0.266  -6.159  -0.020  0.00  0.00     0.118 C 
ATOM      7  HN  UNL d   1       0.258  -4.324  -0.664  1.00  0.00     0.186 HD
BRANCH   6   8
ATOM      8  C   UNL d   1      -1.719  -5.878  -0.098  0.00  0.00    -0.019 A 
ATOM      9  C   UNL d   1      -2.150  -4.592  -0.445  0.00  0.00     0.015 A 
ATOM     10  C   UNL d   1      -3.511  -4.306  -0.549  0.00  0.00     0.037 A 
ATOM     11  C   UNL d   1      -4.457  -5.308  -0.331  0.00  0.00     0.069 A 
ATOM     12  C   UNL d   1      -4.026  -6.584   0.053  0.00  0.00     0.037 A 
ATOM     13  C   UNL d   1      -2.658  -6.876   0.168  0.00  0.00     0.015 A 
BRANCH  11  14
ATOM     14  O   UNL d   1      -5.811  -5.157  -0.467  0.00  0.00    -0.347 OA
BRANCH  14  15
ATOM     15  C   UNL d   1      -6.232  -3.994  -1.185  0.00  0.00     0.214 C 
BRANCH  15  16
ATOM     16  C   UNL d   1      -7.666  -4.154  -1.625  0.00  0.00    -0.034 A 
ATOM     17  C   UNL d   1      -8.708  -3.517  -0.938  0.00  0.00     0.009 A 
ATOM     18  C   UNL d   1     -10.025  -3.633  -1.388  0.00  0.00     0.001 A 
ATOM     19  C   UNL d   1     -10.313  -4.392  -2.521  0.00  0.00     0.000 A 
ATOM     20  C   UNL d   1      -9.287  -5.045  -3.201  0.00  0.00     0.001 A 
ATOM     21  C   UNL d   1      -7.971  -4.932  -2.753  0.00  0.00     0.009 A 
ENDBRANCH  15  16
ENDBRANCH  14  15
ENDBRANCH  11  14
ENDBRANCH   6   8
ENDBRANCH   2   5
BRANCH   1  22
ATOM     22  C   UNL d   1       4.275  -4.810  -0.366  0.00  0.00     0.186 C 
BRANCH  22  23
ATOM     23  S   UNL d   1       4.727  -6.560  -0.539  0.00  0.00    -0.083 SA
BRANCH  23  24
ATOM     24  C   UNL d   1       6.420  -6.482  -0.169  0.00  0.00     0.163 A 
ATOM     25  N   UNL d   1       7.263  -7.563  -0.221  0.00  0.00    -0.315 N 
ATOM     26  C   UNL d   1       8.512  -7.088   0.136  0.00  0.00     0.134 A 
ATOM     27  C   UNL d   1       6.878  -8.916  -0.528  0.00  0.00     0.160 C 
ATOM     28  N   UNL d   1       8.386  -5.802   0.418  0.00  0.00    -0.283 N 
ATOM     29  N   UNL d   1       7.082  -5.421   0.215  0.00  0.00    -0.278 N 
ATOM     30  HN  UNL d   1       9.138  -5.190   0.736  1.00  0.00     0.188 HD
ATOM     31  HN  UNL d   1       6.700  -4.483   0.341  1.00  0.00     0.189 HD
BRANCH  26  32
ATOM     32  C   UNL d   1       9.760  -7.854   0.269  0.00  0.00     0.009 A 
ATOM     33  C   UNL d   1      10.116  -8.890  -0.604  0.00  0.00     0.015 A 
ATOM     34  C   UNL d   1      11.290  -9.624  -0.406  0.00  0.00     0.001 A 
ATOM     35  C   UNL d   1      12.146  -9.307   0.646  0.00  0.00     0.000 A 
ATOM     36  C   UNL d   1      11.835  -8.247   1.492  0.00  0.00     0.001 A 
ATOM     37  C   UNL d   1      10.652  -7.524   1.302  0.00  0.00     0.015 A 
ENDBRANCH  26  32
ENDBRANCH  23  24
ENDBRANCH  22  23
ENDBRANCH   1  22
TORSDOF 9
