REMARK  4 active torsions:
REMARK  status: ('A' for Active; 'I' for Inactive)
REMARK    1  A    between atoms: C_2  and  C_1 
REMARK       I    between atoms: N_3  and  C_2 
REMARK    2  A    between atoms: C_9  and  N_3 
REMARK    3  A    between atoms: N_8  and  C_4 
REMARK    4  A    between atoms: C_11  and  C_9 
ROOT
ATOM      1  C   UNL d   1       2.774  -0.300   0.617  0.00  0.00     0.254 C 
ATOM      2  N   UNL d   1       3.660   0.569   0.012  0.00  0.00    -0.353 N 
ATOM      3  O   UNL d   1       3.106  -1.051   1.535  0.00  0.00    -0.268 OA
ATOM      4  H   UNL d   1       3.372   1.087  -0.808  0.00  0.00     0.163 HD
ENDROOT
BRANCH   1   5
ATOM      5  C   UNL d   1       1.355  -0.240   0.172  0.00  0.00     0.058 A 
ATOM      6  C   UNL d   1       0.561  -1.388  -0.038  0.00  0.00     0.043 A 
ATOM      7  C   UNL d   1      -0.833  -1.185  -0.150  0.00  0.00     0.030 A 
ATOM      8  C   UNL d   1      -1.417   0.083  -0.093  0.00  0.00     0.002 A 
ATOM      9  C   UNL d   1      -0.614   1.203   0.053  0.00  0.00     0.001 A 
ATOM     10  C   UNL d   1       0.764   1.044   0.197  0.00  0.00     0.019 A 
BRANCH   6  11
ATOM     11  N   UNL d   1       0.981  -2.687  -0.315  0.00  0.00    -0.393 N 
ATOM     12  C   UNL d   1       2.356  -3.121  -0.415  0.00  0.00     0.146 C 
ATOM     13  H   UNL d   1       0.354  -3.399   0.048  0.00  0.00     0.159 HD
ENDBRANCH   6  11
ENDBRANCH   1   5
BRANCH   2  14
ATOM     14  C   UNL d   1       5.027   0.681   0.466  0.00  0.00     0.161 C 
BRANCH  14  15
ATOM     15  C   UNL d   1       5.979  -0.100  -0.401  0.00  0.00    -0.038 A 
ATOM     16  C   UNL d   1       6.662   0.509  -1.457  0.00  0.00     0.025 A 
ATOM     17  C   UNL d   1       7.528  -0.261  -2.219  0.00  0.00     0.088 A 
ATOM     18  N   UNL d   1       7.753  -1.575  -2.007  0.00  0.00    -0.375 N 
ATOM     19  C   UNL d   1       7.080  -2.146  -0.985  0.00  0.00     0.088 A 
ATOM     20  HN  UNL d   1       8.398  -2.110  -2.588  1.00  0.00     0.164 HD
ATOM     21  C   UNL d   1       6.194  -1.461  -0.168  0.00  0.00     0.025 A 
ENDBRANCH  14  15
ENDBRANCH   2  14
TORSDOF 4
