REMARK  5 active torsions:
REMARK  status: ('A' for Active; 'I' for Inactive)
REMARK    1  A    between atoms: N_4  and  S_1 
REMARK    2  A    between atoms: C_15  and  S_1 
REMARK    3  A    between atoms: C_2  and  S_7 
REMARK    4  A    between atoms: C_11  and  N_4 
REMARK    5  A    between atoms: S_7  and  C_16 
ROOT
ATOM      1  C   UNL d   1       0.863   2.604   0.707  0.00  0.00     0.040 A 
ATOM      2  C   UNL d   1       2.186   2.810   1.139  0.00  0.00     0.029 A 
ATOM      3  C   UNL d   1      -0.193   3.291   1.321  0.00  0.00     0.026 A 
ATOM      4  C   UNL d   1       2.420   3.684   2.210  0.00  0.00     0.021 A 
ATOM      5  C   UNL d   1       0.057   4.155   2.387  0.00  0.00     0.002 A 
ATOM      6  C   UNL d   1       1.361   4.346   2.835  0.00  0.00     0.001 A 
ENDROOT
BRANCH   2   7
ATOM      7  S   UNL d   1       3.579   1.952   0.423  0.00  0.00    -0.070 SA
BRANCH   7   8
ATOM      8  C   UNL d   1       4.114   3.103  -0.808  0.00  0.00     0.089 A 
ATOM      9  C   UNL d   1       4.263   2.742  -2.163  0.00  0.00     0.038 A 
ATOM     10  C   UNL d   1       4.776   3.762  -2.960  0.00  0.00     0.088 A 
ATOM     11  C   UNL d   1       4.017   1.551  -2.973  0.00  0.00    -0.040 A 
ATOM     12  S   UNL d   1       4.956   3.328  -4.594  0.00  0.00    -0.083 SA
ATOM     13  N   UNL d   1       5.130   4.999  -2.574  0.00  0.00    -0.346 N 
ATOM     14  C   UNL d   1       4.349   1.769  -4.301  0.00  0.00     0.059 A 
ATOM     15  C   UNL d   1       4.945   5.207  -1.274  0.00  0.00     0.182 A 
ATOM     16  HN  UNL d   1       5.502   5.704  -3.211  1.00  0.00     0.167 HD
ATOM     17  N   UNL d   1       4.465   4.339  -0.380  0.00  0.00    -0.346 N 
ATOM     18  HN  UNL d   1       4.364   4.601   0.601  1.00  0.00     0.167 HD
ATOM     19  C   UNL d   1       3.463   0.231  -2.533  0.00  0.00     0.049 C 
ENDBRANCH   7   8
ENDBRANCH   2   7
BRANCH   1  20
ATOM     20  N   UNL d   1       0.537   1.594  -0.267  0.00  0.00    -0.180 NA
ATOM     21  H   UNL d   1      -0.271   1.873  -0.827  0.00  0.00     0.146 HD
BRANCH  20  22
ATOM     22  S   UNL d   1       0.163   0.032   0.317  0.00  0.00     0.245 S 
ATOM     23  O   UNL d   1       1.115  -0.892  -0.256  0.00  0.00    -0.206 OA
ATOM     24  O   UNL d   1      -1.258  -0.124   0.072  0.00  0.00    -0.206 OA
BRANCH  22  25
ATOM     25  C   UNL d   1       0.391   0.050   2.085  0.00  0.00     0.075 A 
ATOM     26  C   UNL d   1      -0.682   0.374   2.926  0.00  0.00     0.028 A 
ATOM     27  C   UNL d   1      -0.474   0.447   4.304  0.00  0.00     0.044 A 
ATOM     28  C   UNL d   1       0.786   0.171   4.825  0.00  0.00     0.116 A 
ATOM     29  C   UNL d   1       1.841  -0.204   3.999  0.00  0.00     0.044 A 
ATOM     30  F   UNL d   1       0.987   0.266   6.146  0.00  0.00    -0.206 F 
ATOM     31  C   UNL d   1       1.641  -0.283   2.620  0.00  0.00     0.028 A 
ENDBRANCH  22  25
ENDBRANCH  20  22
ENDBRANCH   1  20
TORSDOF 5
