REMARK  3 active torsions:
REMARK  status: ('A' for Active; 'I' for Inactive)
REMARK    1  A    between atoms: C_4  and  N_1 
REMARK    2  A    between atoms: C_2  and  C_3 
REMARK    3  A    between atoms: C_3  and  C_9 
ROOT
ATOM      1  C   UNL d   1      -1.727  -3.609  -3.434  0.00  0.00     0.192 C 
ATOM      2  O   UNL d   1      -1.628  -4.786  -3.101  0.00  0.00    -0.287 OA
ENDROOT
BRANCH   1   3
ATOM      3  C   UNL d   1      -2.814  -3.201  -4.368  0.00  0.00     0.015 A 
ATOM      4  C   UNL d   1      -4.023  -3.910  -4.336  0.00  0.00     0.023 A 
ATOM      5  C   UNL d   1      -5.039  -3.519  -5.193  0.00  0.00    -0.051 A 
ATOM      6  C   UNL d   1      -6.420  -4.087  -5.313  0.00  0.00     0.039 C 
ATOM      7  C   UNL d   1      -4.872  -2.440  -6.068  0.00  0.00    -0.052 A 
ATOM      8  C   UNL d   1      -6.852  -3.528  -6.677  0.00  0.00     0.009 C 
ATOM      9  C   UNL d   1      -6.121  -2.190  -6.854  0.00  0.00     0.039 C 
ATOM     10  C   UNL d   1      -3.682  -1.737  -6.120  0.00  0.00     0.009 A 
ATOM     11  C   UNL d   1      -2.640  -2.139  -5.281  0.00  0.00     0.016 A 
ENDBRANCH   1   3
BRANCH   1  12
ATOM     12  C   UNL d   1      -0.754  -2.622  -2.887  0.00  0.00     0.015 A 
ATOM     13  C   UNL d   1      -1.105  -1.283  -2.664  0.00  0.00     0.018 A 
ATOM     14  C   UNL d   1      -0.159  -0.374  -2.182  0.00  0.00     0.037 A 
ATOM     15  C   UNL d   1       1.136  -0.817  -1.884  0.00  0.00     0.102 A 
ATOM     16  C   UNL d   1       1.486  -2.163  -2.061  0.00  0.00     0.037 A 
ATOM     17  C   UNL d   1       0.538  -3.061  -2.562  0.00  0.00     0.018 A 
BRANCH  15  18
ATOM     18  N   UNL d   1       2.129   0.137  -1.374  0.00  0.00    -0.116 N 
ATOM     19  O   UNL d   1       3.258  -0.293  -1.105  0.00  0.00    -0.532 OA
ATOM     20  O   UNL d   1       1.777   1.319  -1.248  0.00  0.00    -0.532 OA
ENDBRANCH  15  18
ENDBRANCH   1  12
TORSDOF 3
