REMARK  3 active torsions:
REMARK  status: ('A' for Active; 'I' for Inactive)
REMARK    1  A    between atoms: C_9  and  N_1 
REMARK    2  A    between atoms: C_11  and  N_2 
REMARK    3  A    between atoms: C_14  and  C_11 
ROOT
ATOM      1  N   UNL d   1       0.930  -1.406   0.070  0.00  0.00    -0.246 N 
ATOM      2  N   UNL d   1       2.111   0.678  -0.014  0.00  0.00    -0.258 N 
ATOM      3  C   UNL d   1       2.159  -0.728   0.108  0.00  0.00     0.338 A 
ATOM      4  C   UNL d   1      -0.247  -0.698  -0.045  0.00  0.00     0.150 A 
ATOM      5  C   UNL d   1      -0.232   0.662  -0.112  0.00  0.00     0.147 A 
ATOM      6  C   UNL d   1       0.950   1.446  -0.123  0.00  0.00     0.282 A 
ATOM      7  N   UNL d   1      -1.529  -1.171  -0.052  0.00  0.00    -0.336 N 
ATOM      8  HN  UNL d   1      -1.832  -2.145  -0.022  1.00  0.00     0.168 HD
ATOM      9  N   UNL d   1      -1.539   1.050  -0.148  0.00  0.00    -0.345 N 
ATOM     10  C   UNL d   1      -2.288  -0.095  -0.106  0.00  0.00     0.182 A 
ATOM     11  O   UNL d   1       3.243  -1.312   0.215  0.00  0.00    -0.246 OA
ATOM     12  O   UNL d   1       0.917   2.668  -0.234  0.00  0.00    -0.265 OA
ATOM     13  H   UNL d   1      -1.880   2.003  -0.179  0.00  0.00     0.167 HD
ENDROOT
BRANCH   1  14
ATOM     14  C   UNL d   1       0.853  -2.822   0.120  0.00  0.00     0.051 A 
ATOM     15  C   UNL d   1       1.357  -3.557   1.213  0.00  0.00    -0.035 A 
ATOM     16  C   UNL d   1       1.839  -2.917   2.487  0.00  0.00     0.050 C 
ATOM     17  C   UNL d   1       1.380  -4.961   1.137  0.00  0.00     0.009 A 
ATOM     18  C   UNL d   1       0.894  -5.628   0.013  0.00  0.00     0.001 A 
ATOM     19  C   UNL d   1       0.359  -4.903  -1.046  0.00  0.00     0.002 A 
ATOM     20  C   UNL d   1       0.331  -3.509  -0.990  0.00  0.00     0.031 A 
ENDBRANCH   1  14
BRANCH   2  21
ATOM     21  C   UNL d   1       3.377   1.393  -0.017  0.00  0.00     0.202 C 
BRANCH  21  22
ATOM     22  C   UNL d   1       3.704   1.845   1.363  0.00  0.00     0.071 A 
ATOM     23  O   UNL d   1       3.825   3.192   1.546  0.00  0.00    -0.325 OA
ATOM     24  C   UNL d   1       4.114   3.391   2.856  0.00  0.00     0.142 A 
ATOM     25  C   UNL d   1       4.188   2.190   3.521  0.00  0.00     0.027 A 
ATOM     26  C   UNL d   1       3.932   1.188   2.555  0.00  0.00     0.036 A 
ENDBRANCH  21  22
ENDBRANCH   2  21
TORSDOF 3
