REMARK  6 active torsions:
REMARK  status: ('A' for Active; 'I' for Inactive)
REMARK       I    between atoms: C_2  and  N_1 
REMARK       I    between atoms: C_4  and  N_1 
REMARK    1  A    between atoms: C_3  and  C_2 
REMARK    2  A    between atoms: O_13  and  C_4 
REMARK    3  A    between atoms: N_9  and  N_5 
REMARK    4  A    between atoms: C_12  and  N_9 
REMARK    5  A    between atoms: C_20  and  O_13 
REMARK    6  A    between atoms: O_19  and  C_14 
ROOT
ATOM      1  C   UNL d   1       0.974  -1.817  -1.953  0.00  0.00     0.197 C 
ATOM      2  N   UNL d   1       0.502  -2.335  -3.060  0.00  0.00    -0.286 N 
ATOM      3  HN  UNL d   1       1.129  -2.698  -3.778  1.00  0.00     0.188 HD
ATOM      4  C   UNL d   1       0.051  -1.317  -0.961  0.00  0.00     0.125 C 
ATOM      5  N   UNL d   1      -0.758  -0.941  -0.213  0.00  0.00    -0.190 NA
ENDROOT
BRANCH   1   6
ATOM      6  C   UNL d   1       2.461  -1.732  -1.712  0.00  0.00     0.288 C 
ATOM      7  N   UNL d   1       3.232  -2.228  -2.742  0.00  0.00    -0.267 N 
ATOM      8  C   UNL d   1       4.602  -2.250  -2.821  0.00  0.00     0.367 C 
ATOM      9  H   UNL d   1       2.756  -2.572  -3.567  0.00  0.00     0.174 HD
ATOM     10  O   UNL d   1       5.169  -2.653  -3.831  0.00  0.00    -0.238 OA
ATOM     11  O   UNL d   1       2.841  -1.245  -0.659  0.00  0.00    -0.265 OA
BRANCH   8  12
ATOM     12  O   UNL d   1       5.226  -1.794  -1.710  0.00  0.00    -0.304 OA
BRANCH  12  13
ATOM     13  C   UNL d   1       6.661  -1.758  -1.731  0.00  0.00     0.176 C 
ATOM     14  C   UNL d   1       7.229  -3.095  -1.295  0.00  0.00     0.034 C 
ENDBRANCH  12  13
ENDBRANCH   8  12
ENDBRANCH   1   6
BRANCH   2  15
ATOM     15  N   UNL d   1      -0.854  -2.376  -3.228  0.00  0.00    -0.300 N 
ATOM     16  H   UNL d   1      -1.524  -2.092  -2.510  0.00  0.00     0.187 HD
BRANCH  15  17
ATOM     17  C   UNL d   1      -1.456  -2.841  -4.411  0.00  0.00     0.048 A 
ATOM     18  C   UNL d   1      -0.748  -3.430  -5.462  0.00  0.00     0.034 A 
ATOM     19  C   UNL d   1      -1.407  -3.843  -6.633  0.00  0.00     0.039 A 
ATOM     20  C   UNL d   1      -2.781  -3.648  -6.773  0.00  0.00     0.068 A 
ATOM     21  C   UNL d   1      -3.497  -3.073  -5.728  0.00  0.00     0.039 A 
ATOM     22  C   UNL d   1      -2.840  -2.665  -4.565  0.00  0.00     0.034 A 
BRANCH  20  23
ATOM     23  O   UNL d   1      -3.530  -4.004  -7.859  0.00  0.00    -0.356 OA
ATOM     24  C   UNL d   1      -2.842  -4.013  -9.104  0.00  0.00     0.210 C 
ENDBRANCH  20  23
ENDBRANCH  15  17
ENDBRANCH   2  15
TORSDOF 6
