REMARK  3 active torsions:
REMARK  status: ('A' for Active; 'I' for Inactive)
REMARK    1  A    between atoms: S_8  and  C_1 
REMARK    2  A    between atoms: C_6  and  C_12 
REMARK    3  A    between atoms: C_13  and  S_8 
ROOT
ATOM      1  C   UNL d   1       2.430  -0.497  -0.077  0.00  0.00     0.096 A 
ATOM      2  C   UNL d   1       2.407   0.897  -0.140  0.00  0.00     0.085 A 
ATOM      3  N   UNL d   1       1.305  -1.241   0.042  0.00  0.00    -0.349 N 
ATOM      4  HN  UNL d   1       1.363  -2.257   0.116  1.00  0.00     0.166 HD
ATOM      5  C   UNL d   1       1.164   1.557  -0.015  0.00  0.00    -0.026 A 
ATOM      6  C   UNL d   1      -0.024   0.777   0.037  0.00  0.00    -0.002 A 
ATOM      7  C   UNL d   1       3.613   1.632  -0.403  0.00  0.00     0.103 C 
ATOM      8  C   UNL d   1       0.114  -0.628   0.062  0.00  0.00     0.043 A 
ATOM      9  N   UNL d   1       4.563   2.248  -0.649  0.00  0.00    -0.191 NA
ATOM     10  C   UNL d   1       1.072   3.066   0.023  0.00  0.00     0.050 C 
ATOM     11  C   UNL d   1      -1.331   1.326   0.035  0.00  0.00     0.014 A 
ATOM     12  C   UNL d   1      -1.027  -1.418   0.077  0.00  0.00     0.030 A 
ATOM     13  C   UNL d   1      -2.461   0.511   0.027  0.00  0.00     0.001 A 
ATOM     14  C   UNL d   1      -2.309  -0.867   0.048  0.00  0.00     0.002 A 
ENDROOT
BRANCH   1  15
ATOM     15  S   UNL d   1       3.922  -1.470  -0.246  0.00  0.00    -0.071 SA
BRANCH  15  16
ATOM     16  C   UNL d   1       4.504  -1.567   1.438  0.00  0.00     0.007 A 
ATOM     17  C   UNL d   1       3.732  -2.135   2.460  0.00  0.00     0.035 A 
ATOM     18  C   UNL d   1       4.230  -2.227   3.772  0.00  0.00     0.049 A 
ATOM     19  C   UNL d   1       5.524  -1.755   4.045  0.00  0.00     0.016 A 
ATOM     20  C   UNL d   1       6.305  -1.208   3.028  0.00  0.00     0.002 A 
ATOM     21  C   UNL d   1       5.797  -1.117   1.731  0.00  0.00     0.019 A 
BRANCH  18  22
ATOM     22  C   UNL d   1       3.404  -2.814   4.890  0.00  0.00     0.417 C 
ATOM     23  F   UNL d   1       2.186  -3.273   4.492  0.00  0.00    -0.166 F 
ATOM     24  F   UNL d   1       4.019  -3.868   5.497  0.00  0.00    -0.166 F 
ATOM     25  F   UNL d   1       3.157  -1.909   5.878  0.00  0.00    -0.166 F 
ENDBRANCH  18  22
ENDBRANCH  15  16
ENDBRANCH   1  15
TORSDOF 3
