REMARK  5 active torsions:
REMARK  status: ('A' for Active; 'I' for Inactive)
REMARK    1  A    between atoms: C_2  and  C_1 
REMARK    2  A    between atoms: C_8  and  C_2 
REMARK    3  A    between atoms: C_5  and  C_3 
REMARK    4  A    between atoms: C_4  and  C_9 
REMARK    5  A    between atoms: C_19  and  C_7 
ROOT
ATOM      1  C   UNL d   1       0.968  -0.015  -0.125  0.00  0.00     0.098 C 
ATOM      2  C   UNL d   1       0.199  -0.390   0.923  0.00  0.00     0.045 C 
ATOM      3  C   UNL d   1       0.410   0.478  -1.338  0.00  0.00     0.103 C 
ATOM      4  N   UNL d   1      -0.073   0.878  -2.314  0.00  0.00    -0.191 NA
ENDROOT
BRANCH   1   5
ATOM      5  C   UNL d   1       2.475  -0.017  -0.011  0.00  0.00     0.226 C 
ATOM      6  O   UNL d   1       2.998   0.011   1.102  0.00  0.00    -0.284 OA
BRANCH   5   7
ATOM      7  C   UNL d   1       3.263  -0.027  -1.238  0.00  0.00     0.126 A 
ATOM      8  O   UNL d   1       2.748  -0.654  -2.342  0.00  0.00    -0.319 OA
ATOM      9  C   UNL d   1       3.632  -0.497  -3.356  0.00  0.00     0.142 A 
ATOM     10  C   UNL d   1       4.736   0.199  -2.927  0.00  0.00     0.027 A 
ATOM     11  C   UNL d   1       4.520   0.467  -1.549  0.00  0.00     0.043 A 
ENDBRANCH   5   7
ENDBRANCH   1   5
BRANCH   2  12
ATOM     12  C   UNL d   1      -1.231  -0.480   0.870  0.00  0.00     0.007 A 
ATOM     13  S   UNL d   1      -2.157  -0.195   2.299  0.00  0.00    -0.081 SA
ATOM     14  C   UNL d   1      -3.639  -0.427   1.489  0.00  0.00     0.059 A 
ATOM     15  C   UNL d   1      -3.452  -0.765   0.170  0.00  0.00     0.029 A 
ATOM     16  C   UNL d   1      -2.074  -0.823  -0.176  0.00  0.00     0.021 A 
BRANCH  14  17
ATOM     17  C   UNL d   1      -4.911  -0.290   2.108  0.00  0.00    -0.054 C 
ATOM     18  C   UNL d   1      -6.002  -0.162   2.605  0.00  0.00    -0.061 C 
BRANCH  18  19
ATOM     19  C   UNL d   1      -7.294   0.011   3.184  0.00  0.00     0.018 A 
ATOM     20  C   UNL d   1      -7.411   0.370   4.529  0.00  0.00     0.020 A 
ATOM     21  C   UNL d   1      -8.673   0.556   5.096  0.00  0.00     0.001 A 
ATOM     22  C   UNL d   1      -9.819   0.383   4.320  0.00  0.00     0.000 A 
ATOM     23  C   UNL d   1      -9.705   0.022   2.978  0.00  0.00     0.001 A 
ATOM     24  C   UNL d   1      -8.444  -0.165   2.409  0.00  0.00     0.020 A 
ENDBRANCH  18  19
ENDBRANCH  14  17
ENDBRANCH   2  12
TORSDOF 5
