REMARK  6 active torsions:
REMARK  status: ('A' for Active; 'I' for Inactive)
REMARK    1  A    between atoms: N_2  and  C_1 
REMARK    2  A    between atoms: C_4  and  N_2 
REMARK    3  A    between atoms: C_12  and  N_6 
REMARK    4  A    between atoms: C_9  and  C_12 
REMARK    5  A    between atoms: C_14  and  C_9 
REMARK    6  A    between atoms: O_10  and  C_14 
ROOT
ATOM      1  C   UNL d   1       1.022  -0.025  -0.203  0.00  0.00     0.172 C 
ATOM      2  S   UNL d   1       0.122   0.515   1.093  0.00  0.00    -0.041 SA
ATOM      3  N   UNL d   1       2.373  -0.070  -0.087  0.00  0.00    -0.367 N 
ATOM      4  H   UNL d   1       2.710   0.153   0.843  0.00  0.00     0.161 HD
ENDROOT
BRANCH   1   5
ATOM      5  N   UNL d   1       0.402  -0.312  -1.374  0.00  0.00    -0.333 N 
ATOM      6  H   UNL d   1      -0.510   0.120  -1.477  0.00  0.00     0.168 HD
BRANCH   5   7
ATOM      7  C   UNL d   1       0.736  -1.272  -2.349  0.00  0.00     0.035 A 
ATOM      8  C   UNL d   1       1.527  -2.389  -2.069  0.00  0.00     0.053 A 
ATOM      9  C   UNL d   1       1.867  -3.273  -3.088  0.00  0.00     0.036 A 
ATOM     10 CL   UNL d   1       2.860  -4.636  -2.742  0.00  0.00    -0.084 Cl
ATOM     11  C   UNL d   1       1.419  -3.059  -4.391  0.00  0.00     0.024 A 
ATOM     12  C   UNL d   1       0.598  -1.966  -4.668  0.00  0.00     0.004 A 
ATOM     13  C   UNL d   1       0.240  -1.087  -3.645  0.00  0.00     0.029 A 
ENDBRANCH   5   7
ENDBRANCH   1   5
BRANCH   3  14
ATOM     14  C   UNL d   1       3.360  -0.020  -1.158  0.00  0.00     0.124 C 
BRANCH  14  15
ATOM     15  C   UNL d   1       4.308   1.165  -1.039  0.00  0.00     0.046 C 
BRANCH  15  16
ATOM     16  C   UNL d   1       5.211   1.210  -2.268  0.00  0.00     0.168 C 
BRANCH  16  17
ATOM     17  O   UNL d   1       6.125   2.296  -2.148  0.00  0.00    -0.396 OA
ATOM     18  C   UNL d   1       6.966   2.381  -3.295  0.00  0.00     0.201 C 
ENDBRANCH  16  17
ENDBRANCH  15  16
ENDBRANCH  14  15
ENDBRANCH   3  14
TORSDOF 6
