REMARK  7 active torsions:
REMARK  status: ('A' for Active; 'I' for Inactive)
REMARK    1  A    between atoms: N_10  and  C_1 
REMARK    2  A    between atoms: C_5  and  C_2 
REMARK    3  A    between atoms: C_9  and  O_16 
REMARK    4  A    between atoms: C_12  and  C_9 
REMARK    5  A    between atoms: C_19  and  N_10 
REMARK    6  A    between atoms: O_16  and  C_18 
REMARK    7  A    between atoms: C_18  and  C_19 
ROOT
ATOM      1  C   UNL d   1      -1.122  -1.438   0.001  0.00  0.00     0.044 A 
ATOM      2  C   UNL d   1      -2.034   0.755  -0.577  0.00  0.00     0.119 A 
ATOM      3  N   UNL d   1      -0.910   1.390  -0.180  0.00  0.00    -0.352 N 
ATOM      4  HN  UNL d   1      -0.824   2.402  -0.276  1.00  0.00     0.166 HD
ATOM      5  C   UNL d   1      -2.161  -0.629  -0.494  0.00  0.00     0.064 A 
ATOM      6  C   UNL d   1       0.045  -0.744   0.488  0.00  0.00     0.017 A 
ATOM      7  C   UNL d   1       0.083   0.669   0.339  0.00  0.00     0.045 A 
ATOM      8  C   UNL d   1       1.165  -1.320   1.155  0.00  0.00     0.016 A 
ATOM      9  C   UNL d   1       1.186   1.400   0.754  0.00  0.00     0.030 A 
ATOM     10  C   UNL d   1       2.273  -0.567   1.565  0.00  0.00     0.001 A 
ATOM     11  C   UNL d   1       2.288   0.799   1.352  0.00  0.00     0.002 A 
ENDROOT
BRANCH   1  12
ATOM     12  N   UNL d   1      -1.284  -2.827  -0.037  0.00  0.00    -0.382 N 
ATOM     13  C   UNL d   1      -0.163  -3.754  -0.191  0.00  0.00     0.150 C 
BRANCH  12  14
ATOM     14  C   UNL d   1      -2.609  -3.480   0.057  0.00  0.00     0.149 C 
BRANCH  14  15
ATOM     15  C   UNL d   1      -3.227  -3.824  -1.309  0.00  0.00     0.199 C 
BRANCH  15  16
ATOM     16  O   UNL d   1      -4.404  -4.652  -1.152  0.00  0.00    -0.316 OA
BRANCH  16  17
ATOM     17  C   UNL d   1      -4.145  -5.988  -1.139  0.00  0.00     0.293 C 
ATOM     18  O   UNL d   1      -3.036  -6.507  -1.166  0.00  0.00    -0.259 OA
BRANCH  17  19
ATOM     19  C   UNL d   1      -5.409  -6.781  -1.131  0.00  0.00     0.039 A 
ATOM     20  C   UNL d   1      -6.606  -6.281  -0.610  0.00  0.00     0.017 A 
ATOM     21  C   UNL d   1      -7.749  -7.084  -0.608  0.00  0.00     0.001 A 
ATOM     22  C   UNL d   1      -7.701  -8.380  -1.128  0.00  0.00     0.000 A 
ATOM     23  C   UNL d   1      -6.508  -8.878  -1.648  0.00  0.00     0.001 A 
ATOM     24  C   UNL d   1      -5.361  -8.083  -1.644  0.00  0.00     0.017 A 
ENDBRANCH  17  19
ENDBRANCH  16  17
ENDBRANCH  15  16
ENDBRANCH  14  15
ENDBRANCH  12  14
ENDBRANCH   1  12
BRANCH   2  25
ATOM     25  C   UNL d   1      -3.182   1.570  -1.150  0.00  0.00     0.432 C 
ATOM     26  F   UNL d   1      -2.970   2.917  -1.159  0.00  0.00    -0.165 F 
ATOM     27  F   UNL d   1      -3.467   1.231  -2.442  0.00  0.00    -0.165 F 
ATOM     28  F   UNL d   1      -4.347   1.384  -0.462  0.00  0.00    -0.165 F 
ENDBRANCH   2  25
TORSDOF 7
