REMARK  5 active torsions:
REMARK  status: ('A' for Active; 'I' for Inactive)
REMARK    1  A    between atoms: S_12  and  C_2 
REMARK    2  A    between atoms: C_11  and  C_3 
REMARK    3  A    between atoms: C_14  and  C_8 
REMARK    4  A    between atoms: S_13  and  C_14 
REMARK    5  A    between atoms: C_15  and  S_13 
ROOT
ATOM      1  C   UNL d   1      -0.616  -0.002   0.120  0.00  0.00     0.105 A 
ATOM      2  C   UNL d   1       0.115   1.179   0.082  0.00  0.00     0.094 A 
ATOM      3  C   UNL d   1       0.120  -1.176   0.035  0.00  0.00     0.067 A 
ATOM      4  N   UNL d   1       1.463   1.207   0.003  0.00  0.00    -0.339 N 
ATOM      5  HN  UNL d   1       1.972   2.091  -0.022  1.00  0.00     0.168 HD
ATOM      6  N   UNL d   1       1.480  -1.155  -0.004  0.00  0.00    -0.343 N 
ATOM      7  HN  UNL d   1       2.012  -2.025  -0.003  1.00  0.00     0.167 HD
ATOM      8  C   UNL d   1       2.110   0.033  -0.043  0.00  0.00     0.092 A 
ATOM      9  C   UNL d   1      -2.035   0.011   0.278  0.00  0.00     0.104 C 
ATOM     10  N   UNL d   1      -3.189   0.009   0.391  0.00  0.00    -0.191 NA
ENDROOT
BRANCH   2  11
ATOM     11  S   UNL d   1      -0.701   2.781   0.118  0.00  0.00    -0.115 SA
ATOM     12  C   UNL d   1       0.718   3.902   0.009  0.00  0.00     0.097 C 
ENDBRANCH   2  11
BRANCH   3  13
ATOM     13  C   UNL d   1      -0.456  -2.549  -0.018  0.00  0.00    -0.008 A 
ATOM     14  C   UNL d   1      -1.643  -2.849  -0.714  0.00  0.00     0.014 A 
ATOM     15  C   UNL d   1      -2.199  -4.133  -0.703  0.00  0.00     0.001 A 
ATOM     16  C   UNL d   1      -1.554  -5.166  -0.035  0.00  0.00     0.000 A 
ATOM     17  C   UNL d   1      -0.346  -4.918   0.608  0.00  0.00     0.001 A 
ATOM     18  C   UNL d   1       0.194  -3.627   0.618  0.00  0.00     0.014 A 
ENDBRANCH   3  13
BRANCH   8  19
ATOM     19  C   UNL d   1       3.627   0.086  -0.076  0.00  0.00     0.156 C 
BRANCH  19  20
ATOM     20  S   UNL d   1       4.384  -1.233  -1.090  0.00  0.00    -0.122 SA
BRANCH  20  21
ATOM     21  C   UNL d   1       6.133  -0.969  -0.846  0.00  0.00     0.001 A 
ATOM     22  C   UNL d   1       6.955  -2.102  -0.809  0.00  0.00     0.019 A 
ATOM     23  C   UNL d   1       8.344  -1.979  -0.707  0.00  0.00     0.008 A 
ATOM     24  C   UNL d   1       8.940  -0.716  -0.646  0.00  0.00    -0.062 A 
ATOM     25  C   UNL d   1       8.123   0.418  -0.681  0.00  0.00     0.008 A 
ATOM     26  C   UNL d   1      10.433  -0.599  -0.556  0.00  0.00     0.048 C 
ATOM     27  C   UNL d   1       6.730   0.293  -0.783  0.00  0.00     0.019 A 
ENDBRANCH  20  21
ENDBRANCH  19  20
ENDBRANCH   8  19
TORSDOF 5
