REMARK  2 active torsions:
REMARK  status: ('A' for Active; 'I' for Inactive)
REMARK    1  A    between atoms: C_7  and  C_1 
REMARK    2  A    between atoms: C_8  and  C_5 
ROOT
ATOM      1  C   UNL d   1      -0.776   0.948   0.009  0.00  0.00     0.146 A 
ATOM      2  C   UNL d   1      -1.311  -0.320  -0.018  0.00  0.00     0.075 A 
ATOM      3  N   UNL d   1       0.944  -0.486   0.069  0.00  0.00    -0.260 N 
ATOM      4  HN  UNL d   1       1.893  -0.857   0.114  1.00  0.00     0.195 HD
ATOM      5  C   UNL d   1      -0.194  -1.196   0.002  0.00  0.00     0.068 A 
ATOM      6  O   UNL d   1       0.578   0.843   0.065  0.00  0.00    -0.234 OA
ENDROOT
BRANCH   5   7
ATOM      7  C   UNL d   1      -0.190  -2.658  -0.050  0.00  0.00    -0.007 A 
ATOM      8  C   UNL d   1      -1.248  -3.356  -0.653  0.00  0.00     0.015 A 
ATOM      9  C   UNL d   1      -1.232  -4.753  -0.721  0.00  0.00     0.024 A 
ATOM     10  C   UNL d   1      -0.161  -5.462  -0.181  0.00  0.00     0.034 A 
ATOM     11  C   UNL d   1       0.894  -4.786   0.426  0.00  0.00     0.024 A 
ATOM     12 CL   UNL d   1      -0.140  -7.179  -0.273  0.00  0.00    -0.084 Cl
ATOM     13  C   UNL d   1       0.880  -3.389   0.489  0.00  0.00     0.015 A 
ENDBRANCH   5   7
BRANCH   1  14
ATOM     14  C   UNL d   1      -1.403   2.245  -0.011  0.00  0.00     0.181 C 
ATOM     15  O   UNL d   1      -2.629   2.380  -0.037  0.00  0.00    -0.291 OA
ATOM     16  C   UNL d   1      -0.523   3.471  -0.010  0.00  0.00     0.099 C 
ENDBRANCH   1  14
TORSDOF 2
