REMARK  2 active torsions:
REMARK  status: ('A' for Active; 'I' for Inactive)
REMARK    1  A    between atoms: C_9  and  N_3 
REMARK    2  A    between atoms: C_11  and  C_9 
ROOT
ATOM      1  C   UNL d   1      -0.689   1.226   0.033  0.00  0.00     0.118 A 
ATOM      2  C   UNL d   1      -1.464  -0.053   0.100  0.00  0.00     0.269 A 
ATOM      3  N   UNL d   1      -0.735  -1.248   0.015  0.00  0.00    -0.313 N 
ATOM      4  C   UNL d   1       0.656   1.185  -0.036  0.00  0.00    -0.034 A 
ATOM      5  C   UNL d   1       0.663  -1.259  -0.038  0.00  0.00     0.012 A 
ATOM      6  C   UNL d   1       1.335  -0.096  -0.053  0.00  0.00     0.033 A 
ATOM      7  C   UNL d   1      -1.423   2.445   0.042  0.00  0.00     0.105 C 
ATOM      8  N   UNL d   1      -1.969   3.471   0.036  0.00  0.00    -0.191 NA
ATOM      9  O   UNL d   1      -2.687  -0.020   0.231  0.00  0.00    -0.266 OA
ATOM     10  C   UNL d   1       1.565   2.383  -0.105  0.00  0.00     0.050 C 
ATOM     11  C   UNL d   1       1.419  -2.562  -0.062  0.00  0.00     0.068 C 
ENDROOT
BRANCH   3  12
ATOM     12  C   UNL d   1      -1.512  -2.498   0.010  0.00  0.00     0.170 C 
BRANCH  12  13
ATOM     13  C   UNL d   1      -1.500  -3.245   1.329  0.00  0.00    -0.040 A 
ATOM     14  C   UNL d   1      -1.581  -2.570   2.557  0.00  0.00     0.010 A 
ATOM     15  C   UNL d   1      -1.522  -3.274   3.761  0.00  0.00     0.024 A 
ATOM     16  C   UNL d   1      -1.410  -4.661   3.747  0.00  0.00     0.034 A 
ATOM     17  C   UNL d   1      -1.383  -5.353   2.539  0.00  0.00     0.024 A 
ATOM     18 CL   UNL d   1      -1.297  -5.525   5.231  0.00  0.00    -0.084 Cl
ATOM     19  C   UNL d   1      -1.436  -4.648   1.334  0.00  0.00     0.010 A 
ENDBRANCH  12  13
ENDBRANCH   3  12
TORSDOF 2
