REMARK  2 active torsions:
REMARK  status: ('A' for Active; 'I' for Inactive)
REMARK    1  A    between atoms: O_5  and  C_2 
REMARK    2  A    between atoms: C_7  and  O_5 
ROOT
ATOM      1  C   UNL d   1      -0.270   0.241  -0.587  0.00  0.00     0.117 A 
ATOM      2  C   UNL d   1       0.342   1.417  -0.130  0.00  0.00     0.100 A 
ATOM      3  C   UNL d   1      -1.519   0.214  -1.281  0.00  0.00     0.105 C 
ATOM      4  N   UNL d   1      -2.536   0.162  -1.840  0.00  0.00    -0.191 NA
ATOM      5  C   UNL d   1       0.395  -0.976  -0.404  0.00  0.00     0.139 A 
ATOM      6  F   UNL d   1      -0.182  -2.125  -0.787  0.00  0.00    -0.204 F 
ATOM      7  C   UNL d   1       1.640   1.356   0.405  0.00  0.00     0.039 A 
ATOM      8  C   UNL d   1       2.305   0.137   0.542  0.00  0.00     0.006 A 
ATOM      9  C   UNL d   1       1.670  -1.036   0.154  0.00  0.00     0.044 A 
ENDROOT
BRANCH   2  10
ATOM     10  O   UNL d   1      -0.137   2.700  -0.264  0.00  0.00    -0.309 OA
BRANCH  10  11
ATOM     11  C   UNL d   1      -1.447   3.015   0.010  0.00  0.00     0.076 A 
ATOM     12  C   UNL d   1      -2.276   2.342   0.909  0.00  0.00     0.037 A 
ATOM     13  C   UNL d   1      -3.614   2.728   1.040  0.00  0.00     0.003 A 
ATOM     14  C   UNL d   1      -4.106   3.819   0.323  0.00  0.00     0.000 A 
ATOM     15  C   UNL d   1      -3.258   4.540  -0.514  0.00  0.00     0.003 A 
ATOM     16  C   UNL d   1      -1.931   4.138  -0.668  0.00  0.00     0.037 A 
ENDBRANCH  10  11
ENDBRANCH   2  10
TORSDOF 2
