REMARK  1 active torsions:
REMARK  status: ('A' for Active; 'I' for Inactive)
REMARK    1  A    between atoms: C_8  and  N_1 
ROOT
ATOM      1  N   UNL d   1       2.356  -0.743   0.030  0.00  0.00    -0.205 N 
ATOM      2  N   UNL d   1       2.328   0.619   0.200  0.00  0.00    -0.232 N 
ATOM      3  HN  UNL d   1       3.211   1.119   0.308  1.00  0.00     0.209 HD
ATOM      4  C   UNL d   1       1.202  -1.518   0.001  0.00  0.00     0.280 A 
ATOM      5  N   UNL d   1       1.261   1.268   0.226  0.00  0.00    -0.285 N 
ATOM      6  HN  UNL d   1       1.281   2.281   0.341  1.00  0.00     0.188 HD
ATOM      7  C   UNL d   1      -0.055  -0.776   0.026  0.00  0.00     0.062 A 
ATOM      8  C   UNL d   1       0.039   0.603   0.099  0.00  0.00     0.065 A 
ATOM      9  O   UNL d   1       1.139  -2.746  -0.035  0.00  0.00    -0.265 OA
ATOM     10  C   UNL d   1      -1.295  -1.426  -0.048  0.00  0.00     0.019 A 
ATOM     11  C   UNL d   1      -1.144   1.350   0.058  0.00  0.00     0.032 A 
ATOM     12  C   UNL d   1      -2.464  -0.672  -0.076  0.00  0.00     0.001 A 
ATOM     13  C   UNL d   1      -2.389   0.718  -0.034  0.00  0.00     0.002 A 
ENDROOT
BRANCH   1  14
ATOM     14  C   UNL d   1       3.675  -1.289  -0.111  0.00  0.00     0.063 A 
ATOM     15  C   UNL d   1       3.898  -2.518  -0.751  0.00  0.00     0.057 A 
ATOM     16  C   UNL d   1       5.189  -3.041  -0.900  0.00  0.00     0.053 A 
ATOM     17 CL   UNL d   1       5.348  -4.545  -1.739  0.00  0.00    -0.083 Cl
ATOM     18  C   UNL d   1       6.288  -2.343  -0.394  0.00  0.00     0.032 A 
ATOM     19  C   UNL d   1       6.087  -1.115   0.239  0.00  0.00     0.023 A 
ATOM     20 BR   UNL d   1       8.068  -2.986  -0.530  0.00  0.00    -0.049 Br
ATOM     21  C   UNL d   1       4.797  -0.588   0.365  0.00  0.00     0.033 A 
ENDBRANCH   1  14
TORSDOF 1
