REMARK  5 active torsions:
REMARK  status: ('A' for Active; 'I' for Inactive)
REMARK    1  A    between atoms: O_16  and  C_1 
REMARK    2  A    between atoms: O_17  and  C_2 
REMARK    3  A    between atoms: O_18  and  C_3 
REMARK    4  A    between atoms: C_13  and  N_5 
REMARK    5  A    between atoms: C_11  and  C_10 
ROOT
ATOM      1  C   UNL d   1       1.382  -0.367  -0.059  0.00  0.00     0.135 A 
ATOM      2  C   UNL d   1       0.438  -1.415   0.065  0.00  0.00     0.105 A 
ATOM      3  C   UNL d   1       0.939   0.964  -0.171  0.00  0.00     0.105 A 
ATOM      4  C   UNL d   1      -0.438   1.222  -0.222  0.00  0.00     0.052 A 
ATOM      5  C   UNL d   1      -0.928  -1.139  -0.044  0.00  0.00     0.052 A 
ATOM      6  C   UNL d   1      -1.362   0.179  -0.178  0.00  0.00    -0.015 A 
ENDROOT
BRANCH   6   7
ATOM      7  C   UNL d   1      -2.814   0.438  -0.237  0.00  0.00     0.100 C 
ATOM      8  N   UNL d   1      -3.301   1.633  -0.151  0.00  0.00    -0.365 N 
ATOM      9  HN  UNL d   1      -2.680   2.437  -0.067  1.00  0.00     0.165 HD
BRANCH   8  10
ATOM     10  C   UNL d   1      -4.694   1.812  -0.175  0.00  0.00     0.033 A 
ATOM     11  C   UNL d   1      -5.594   0.976   0.495  0.00  0.00     0.053 A 
ATOM     12  C   UNL d   1      -6.968   1.243   0.476  0.00  0.00     0.042 A 
ATOM     13 CL   UNL d   1      -8.010   0.143   1.307  0.00  0.00    -0.084 Cl
ATOM     14  C   UNL d   1      -7.471   2.369  -0.188  0.00  0.00    -0.040 A 
ATOM     15  C   UNL d   1      -6.569   3.211  -0.850  0.00  0.00     0.011 A 
ATOM     16  C   UNL d   1      -8.936   2.706  -0.184  0.00  0.00     0.050 C 
ATOM     17  C   UNL d   1      -5.198   2.932  -0.841  0.00  0.00     0.030 A 
ENDBRANCH   8  10
ENDBRANCH   6   7
BRANCH   3  18
ATOM     18  O   UNL d   1       1.675   2.116  -0.242  0.00  0.00    -0.353 OA
ATOM     19  C   UNL d   1       3.090   2.045  -0.191  0.00  0.00     0.210 C 
ENDBRANCH   3  18
BRANCH   2  20
ATOM     20  O   UNL d   1       0.932  -2.676   0.300  0.00  0.00    -0.353 OA
ATOM     21  C   UNL d   1       0.022  -3.643   0.812  0.00  0.00     0.210 C 
ENDBRANCH   2  20
BRANCH   1  22
ATOM     22  O   UNL d   1       2.725  -0.629   0.055  0.00  0.00    -0.351 OA
ATOM     23  C   UNL d   1       3.235  -1.512  -0.945  0.00  0.00     0.210 C 
ENDBRANCH   1  22
TORSDOF 5
