REMARK  5 active torsions:
REMARK  status: ('A' for Active; 'I' for Inactive)
REMARK    1  A    between atoms: N_2  and  C_1 
REMARK    2  A    between atoms: S_9  and  C_3 
REMARK    3  A    between atoms: C_8  and  C_4 
REMARK    4  A    between atoms: O_15  and  C_8 
REMARK    5  A    between atoms: C_14  and  S_9 
ROOT
ATOM      1  C   UNL d   1       0.846   1.184   0.252  0.00  0.00     0.137 A 
ATOM      2  C   UNL d   1      -0.538   1.208   0.125  0.00  0.00     0.108 A 
ATOM      3  C   UNL d   1       0.841  -1.209   0.018  0.00  0.00     0.057 A 
ATOM      4  C   UNL d   1       1.554  -0.023   0.189  0.00  0.00     0.058 A 
ATOM      5  N   UNL d   1      -1.235   0.050  -0.035  0.00  0.00    -0.357 N 
ATOM      6  HN  UNL d   1      -2.251   0.059  -0.119  1.00  0.00     0.166 HD
ATOM      7  C   UNL d   1      -0.541  -1.121  -0.079  0.00  0.00     0.106 A 
ENDROOT
BRANCH   2   8
ATOM      8  S   UNL d   1      -1.504   2.687  -0.086  0.00  0.00    -0.070 SA
BRANCH   8   9
ATOM      9  C   UNL d   1      -2.095   3.051   1.555  0.00  0.00     0.007 A 
ATOM     10  C   UNL d   1      -1.877   4.338   2.066  0.00  0.00     0.020 A 
ATOM     11  C   UNL d   1      -2.432   4.726   3.289  0.00  0.00     0.025 A 
ATOM     12  C   UNL d   1      -3.212   3.825   4.007  0.00  0.00     0.034 A 
ATOM     13  C   UNL d   1      -3.425   2.536   3.520  0.00  0.00     0.025 A 
ATOM     14 CL   UNL d   1      -3.938   4.316   5.487  0.00  0.00    -0.084 Cl
ATOM     15  C   UNL d   1      -2.869   2.150   2.294  0.00  0.00     0.020 A 
ENDBRANCH   8   9
ENDBRANCH   2   8
BRANCH   1  16
ATOM     16  N   UNL d   1       1.597   2.396   0.450  0.00  0.00    -0.113 N 
ATOM     17  O   UNL d   1       1.366   3.046   1.476  0.00  0.00    -0.532 OA
ATOM     18  O   UNL d   1       2.473   2.653  -0.386  0.00  0.00    -0.532 OA
ENDBRANCH   1  16
BRANCH   3  19
ATOM     19  C   UNL d   1       1.480  -2.541  -0.051  0.00  0.00     0.294 C 
ATOM     20  O   UNL d   1       0.856  -3.581  -0.193  0.00  0.00    -0.259 OA
BRANCH  19  21
ATOM     21  O   UNL d   1       2.821  -2.420   0.083  0.00  0.00    -0.322 OA
ATOM     22  C   UNL d   1       3.530  -3.662   0.074  0.00  0.00     0.213 C 
ENDBRANCH  19  21
ENDBRANCH   3  19
TORSDOF 5
