REMARK  3 active torsions:
REMARK  status: ('A' for Active; 'I' for Inactive)
REMARK    1  A    between atoms: C_8  and  C_1 
REMARK    2  A    between atoms: N_6  and  C_9 
REMARK    3  A    between atoms: N_7  and  C_8 
ROOT
ATOM      1  N   UNL d   1       4.005   1.471  -0.092  0.00  0.00     0.093 N 
ATOM      2  C   UNL d   1       3.752   4.438  -0.401  0.00  0.00     0.226 C 
ATOM      3  C   UNL d   1       4.223   3.500  -1.530  0.00  0.00     0.066 C 
ATOM      4  C   UNL d   1       4.128   3.769   0.933  0.00  0.00     0.066 C 
ATOM      5  C   UNL d   1       3.729   2.062  -1.396  0.00  0.00     0.275 C 
ATOM      6  C   UNL d   1       3.688   2.305   1.065  0.00  0.00     0.275 C 
ENDROOT
BRANCH   1   7
ATOM      7  C   UNL d   1       3.525   0.082   0.055  0.00  0.00     0.319 C 
BRANCH   7   8
ATOM      8  C   UNL d   1       2.072  -0.212  -0.286  0.00  0.00     0.018 A 
ATOM      9  S   UNL d   1       0.888  -0.198   0.957  0.00  0.00    -0.092 SA
ATOM     10  C   UNL d   1      -0.362  -0.759  -0.079  0.00  0.00     0.016 A 
ATOM     11  C   UNL d   1      -1.697  -1.049   0.267  0.00  0.00     0.019 A 
ATOM     12  C   UNL d   1       0.101  -0.922  -1.385  0.00  0.00    -0.012 A 
ATOM     13  C   UNL d   1      -2.579  -1.511  -0.719  0.00  0.00     0.001 A 
ATOM     14  C   UNL d   1      -2.146  -1.668  -2.025  0.00  0.00     0.001 A 
ATOM     15  C   UNL d   1      -0.821  -1.376  -2.364  0.00  0.00     0.013 A 
ATOM     16  C   UNL d   1       1.517  -0.611  -1.498  0.00  0.00    -0.035 A 
ATOM     17  C   UNL d   1       2.256  -0.755  -2.792  0.00  0.00     0.050 C 
ENDBRANCH   7   8
ENDBRANCH   1   7
BRANCH   2  18
ATOM     18  N   UNL d   1       2.373   4.999  -0.468  0.00  0.00     0.093 N 
ATOM     19  C   UNL d   1       1.281   4.074  -0.160  0.00  0.00     0.273 C 
ATOM     20  C   UNL d   1      -0.118   4.676  -0.278  0.00  0.00     0.030 C 
ATOM     21  C   UNL d   1      -0.311   5.339  -1.628  0.00  0.00     0.003 C 
ATOM     22  C   UNL d   1       0.761   6.403  -1.799  0.00  0.00     0.030 C 
ATOM     23  C   UNL d   1       2.157   5.784  -1.694  0.00  0.00     0.273 C 
ENDBRANCH   2  18
TORSDOF 3
