REMARK  2 active torsions:
REMARK  status: ('A' for Active; 'I' for Inactive)
REMARK    1  A    between atoms: C_2  and  C_1 
REMARK       I    between atoms: N_5  and  C_2 
REMARK    2  A    between atoms: C_6  and  C_9 
ROOT
ATOM      1  C   UNL d   1      -2.428  -0.136  -1.109  0.00  0.00     0.054 A 
ATOM      2  N   UNL d   1      -0.376  -1.161  -1.892  0.00  0.00    -0.355 N 
ATOM      3  HN  UNL d   1       0.514  -1.614  -1.685  1.00  0.00     0.166 HD
ATOM      4  C   UNL d   1      -1.217  -0.803  -0.878  0.00  0.00     0.021 A 
ATOM      5  C   UNL d   1      -0.735  -0.909  -3.179  0.00  0.00     0.117 A 
ATOM      6  C   UNL d   1      -2.810   0.057  -2.440  0.00  0.00     0.021 A 
ATOM      7  C   UNL d   1      -1.954  -0.309  -3.482  0.00  0.00     0.035 A 
ATOM      8  C   UNL d   1      -0.743  -1.200   0.492  0.00  0.00     0.069 C 
ENDROOT
BRANCH   1   9
ATOM      9  C   UNL d   1      -3.336   0.251   0.011  0.00  0.00     0.255 C 
ATOM     10  N   UNL d   1      -4.044   1.460   0.009  0.00  0.00    -0.348 N 
ATOM     11  C   UNL d   1      -3.873   2.603  -0.895  0.00  0.00     0.131 C 
ATOM     12  C   UNL d   1      -4.914   1.750   1.153  0.00  0.00     0.131 C 
ATOM     13  C   UNL d   1      -5.234   3.021  -1.450  0.00  0.00     0.088 C 
ATOM     14  C   UNL d   1      -6.191   3.361  -0.307  0.00  0.00     0.167 C 
ATOM     15  C   UNL d   1      -6.292   2.211   0.694  0.00  0.00     0.088 C 
ATOM     16  O   UNL d   1      -7.498   3.616  -0.867  0.00  0.00    -0.353 OA
ATOM     17  O   UNL d   1      -5.738   4.548   0.371  0.00  0.00    -0.353 OA
ATOM     18  C   UNL d   1      -7.924   4.841  -0.266  0.00  0.00     0.197 C 
ATOM     19  C   UNL d   1      -6.633   5.579  -0.048  0.00  0.00     0.197 C 
ATOM     20  O   UNL d   1      -3.461  -0.562   0.925  0.00  0.00    -0.267 OA
ENDBRANCH   1   9
BRANCH   5  21
ATOM     21  C   UNL d   1       0.206  -1.292  -4.313  0.00  0.00     0.432 C 
ATOM     22  F   UNL d   1       1.293  -2.012  -3.925  0.00  0.00    -0.165 F 
ATOM     23  F   UNL d   1      -0.413  -2.044  -5.271  0.00  0.00    -0.165 F 
ATOM     24  F   UNL d   1       0.694  -0.201  -4.972  0.00  0.00    -0.165 F 
ENDBRANCH   5  21
TORSDOF 2
