REMARK  11 active torsions:
REMARK  status: ('A' for Active; 'I' for Inactive)
REMARK    1  A    between atoms: C_2  and  S_1 
REMARK    2  A    between atoms: N_5  and  S_1 
REMARK    3  A    between atoms: O_9  and  C_3 
REMARK    4  A    between atoms: C_22  and  N_5 
REMARK    5  A    between atoms: C_6  and  C_18 
REMARK    6  A    between atoms: C_7  and  C_21 
REMARK    7  A    between atoms: C_18  and  O_9 
REMARK    8  A    between atoms: C_12  and  C_16 
REMARK    9  A    between atoms: O_31  and  C_12 
REMARK   10  A    between atoms: O_17  and  C_15 
REMARK   11  A    between atoms: C_21  and  O_17 
ROOT
ATOM      1  C   UNL d   1       0.442   0.690  -1.518  0.00  0.00     0.109 A 
ATOM      2  C   UNL d   1       0.627   2.054  -1.820  0.00  0.00     0.115 A 
ATOM      3  C   UNL d   1       0.254   2.506  -3.108  0.00  0.00     0.112 A 
ATOM      4  C   UNL d   1       0.300   3.896  -3.477  0.00  0.00     0.105 C 
ATOM      5  N   UNL d   1       0.374   5.019  -3.748  0.00  0.00    -0.191 NA
ATOM      6  C   UNL d   1      -0.119  -0.189  -2.454  0.00  0.00     0.030 A 
ATOM      7  C   UNL d   1      -0.218   1.589  -4.078  0.00  0.00     0.092 A 
ATOM      8  C   UNL d   1      -0.444   0.258  -3.728  0.00  0.00     0.040 A 
ENDROOT
BRANCH   2   9
ATOM      9  O   UNL d   1       1.093   2.842  -0.802  0.00  0.00    -0.339 OA
BRANCH   9  10
ATOM     10  C   UNL d   1       1.967   3.946  -1.081  0.00  0.00     0.293 C 
BRANCH  10  11
ATOM     11  C   UNL d   1       2.970   4.179   0.050  0.00  0.00     0.408 C 
ATOM     12  F   UNL d   1       3.098   3.107   0.862  0.00  0.00    -0.169 F 
ATOM     13  F   UNL d   1       4.200   4.430  -0.463  0.00  0.00    -0.169 F 
ATOM     14  F   UNL d   1       2.627   5.242   0.810  0.00  0.00    -0.169 F 
ENDBRANCH  10  11
ENDBRANCH   9  10
ENDBRANCH   2   9
BRANCH   7  15
ATOM     15  O   UNL d   1      -0.445   2.079  -5.341  0.00  0.00    -0.341 OA
BRANCH  15  16
ATOM     16  C   UNL d   1      -0.510   1.120  -6.410  0.00  0.00     0.293 C 
BRANCH  16  17
ATOM     17  C   UNL d   1      -0.281   1.765  -7.775  0.00  0.00     0.408 C 
ATOM     18  F   UNL d   1      -0.325   3.112  -7.736  0.00  0.00    -0.169 F 
ATOM     19  F   UNL d   1       0.926   1.407  -8.274  0.00  0.00    -0.169 F 
ATOM     20  F   UNL d   1      -1.219   1.350  -8.659  0.00  0.00    -0.169 F 
ENDBRANCH  16  17
ENDBRANCH  15  16
ENDBRANCH   7  15
BRANCH   1  21
ATOM     21  S   UNL d   1       0.902  -0.015   0.054  0.00  0.00     0.248 S 
ATOM     22  O   UNL d   1       0.234  -1.296   0.188  0.00  0.00    -0.205 OA
ATOM     23  O   UNL d   1       0.767   0.985   1.087  0.00  0.00    -0.205 OA
BRANCH  21  24
ATOM     24  N   UNL d   1       2.568  -0.278  -0.166  0.00  0.00    -0.181 NA
ATOM     25  H   UNL d   1       3.080   0.118   0.624  0.00  0.00     0.146 HD
BRANCH  24  26
ATOM     26  C   UNL d   1       2.987  -1.558  -0.633  0.00  0.00     0.022 A 
ATOM     27  C   UNL d   1       3.191  -1.770  -1.997  0.00  0.00     0.025 A 
ATOM     28  C   UNL d   1       3.609  -3.026  -2.454  0.00  0.00     0.020 A 
ATOM     29  C   UNL d   1       3.818  -4.075  -1.549  0.00  0.00     0.037 A 
ATOM     30  C   UNL d   1       3.570  -3.871  -0.185  0.00  0.00     0.020 A 
ATOM     31  C   UNL d   1       3.162  -2.610   0.269  0.00  0.00     0.025 A 
BRANCH  29  32
ATOM     32  C   UNL d   1       4.258  -5.389  -2.085  0.00  0.00     0.176 C 
ATOM     33  O   UNL d   1       3.950  -5.783  -3.196  0.00  0.00    -0.646 OA
BRANCH  32  34
ATOM     34  O   UNL d   1       5.070  -6.077  -1.255  0.00  0.00    -0.773 OA
ATOM     35  H   UNL d   1       5.389  -5.586  -0.476  0.00  0.00     0.167 HD
ENDBRANCH  32  34
ENDBRANCH  29  32
ENDBRANCH  24  26
ENDBRANCH  21  24
ENDBRANCH   1  21
TORSDOF 11
