REMARK  5 active torsions:
REMARK  status: ('A' for Active; 'I' for Inactive)
REMARK    1  A    between atoms: S_6  and  C_1 
REMARK    2  A    between atoms: C_4  and  C_17 
REMARK    3  A    between atoms: C_15  and  S_6 
REMARK       I    between atoms: C_7  and  N_8 
REMARK    4  A    between atoms: C_19  and  C_7 
REMARK    5  A    between atoms: N_8  and  C_16 
ROOT
ATOM      1  C   UNL d   1      -3.137  -2.947   0.748  0.00  0.00     0.033 C 
ATOM      2  C   UNL d   1      -3.511  -3.088  -0.597  0.00  0.00     0.052 C 
ATOM      3  C   UNL d   1      -4.495  -4.036  -0.952  0.00  0.00     0.031 C 
ATOM      4  C   UNL d   1      -3.644  -3.910   1.657  0.00  0.00     0.021 C 
ATOM      5  C   UNL d   1      -5.019  -4.931  -0.024  0.00  0.00     0.002 C 
ATOM      6  C   UNL d   1      -4.561  -4.894   1.280  0.00  0.00     0.002 C 
ENDROOT
BRANCH   2   7
ATOM      7  N   UNL d   1      -3.047  -2.323  -1.688  0.00  0.00    -0.322 N 
ATOM      8  C   UNL d   1      -1.716  -2.207  -2.039  0.00  0.00     0.256 C 
ATOM      9  O   UNL d   1      -0.772  -2.575  -1.348  0.00  0.00    -0.267 OA
ATOM     10  H   UNL d   1      -3.706  -2.269  -2.449  0.00  0.00     0.169 HD
BRANCH   8  11
ATOM     11  C   UNL d   1      -1.447  -1.622  -3.408  0.00  0.00     0.032 A 
ATOM     12  C   UNL d   1      -2.444  -1.454  -4.383  0.00  0.00     0.018 A 
ATOM     13  C   UNL d   1      -2.143  -0.876  -5.621  0.00  0.00     0.017 A 
ATOM     14  C   UNL d   1      -0.842  -0.457  -5.917  0.00  0.00     0.048 A 
ATOM     15  C   UNL d   1       0.163  -0.662  -4.959  0.00  0.00     0.017 A 
ATOM     16  C   UNL d   1      -0.138  -1.239  -3.718  0.00  0.00     0.018 A 
BRANCH  14  17
ATOM     17  C   UNL d   1      -0.525   0.204  -7.237  0.00  0.00     0.417 C 
ATOM     18  F   UNL d   1      -1.627   0.421  -8.009  0.00  0.00    -0.166 F 
ATOM     19  F   UNL d   1       0.065   1.421  -7.084  0.00  0.00    -0.166 F 
ATOM     20  F   UNL d   1       0.325  -0.534  -8.002  0.00  0.00    -0.166 F 
ENDBRANCH  14  17
ENDBRANCH   8  11
ENDBRANCH   2   7
BRANCH   1  21
ATOM     21  S   UNL d   1      -2.303  -1.636   1.624  0.00  0.00    -0.069 SA
BRANCH  21  22
ATOM     22  C   UNL d   1      -1.823  -0.284   0.619  0.00  0.00     0.089 C 
ATOM     23  C   UNL d   1      -2.657   0.486  -0.221  0.00  0.00     0.038 C 
ATOM     24  C   UNL d   1      -1.979   1.500  -0.898  0.00  0.00     0.088 C 
ATOM     25  C   UNL d   1      -4.076   0.543  -0.555  0.00  0.00    -0.040 C 
ATOM     26  S   UNL d   1      -2.935   2.309  -2.049  0.00  0.00    -0.083 SA
ATOM     27  N   UNL d   1      -0.700   1.879  -0.746  0.00  0.00    -0.346 N 
ATOM     28  C   UNL d   1      -4.317   1.441  -1.583  0.00  0.00     0.059 C 
ATOM     29  C   UNL d   1      -0.064   1.167   0.175  0.00  0.00     0.182 C 
ATOM     30  HN  UNL d   1      -0.265   2.632  -1.280  1.00  0.00     0.167 HD
ATOM     31  N   UNL d   1      -0.545   0.122   0.845  0.00  0.00    -0.346 N 
ATOM     32  HN  UNL d   1       0.040  -0.370   1.520  1.00  0.00     0.167 HD
ATOM     33  C   UNL d   1      -5.193  -0.220   0.079  0.00  0.00     0.049 C 
ENDBRANCH  21  22
ENDBRANCH   1  21
TORSDOF 5
