REMARK  6 active torsions:
REMARK  status: ('A' for Active; 'I' for Inactive)
REMARK    1  A    between atoms: C_2  and  S_1 
REMARK    2  A    between atoms: N_7  and  S_1 
REMARK    3  A    between atoms: C_10  and  N_7 
REMARK    4  A    between atoms: C_9  and  C_8 
REMARK       I    between atoms: N_13  and  C_9 
REMARK    5  A    between atoms: C_20  and  N_13 
REMARK    6  A    between atoms: C_14  and  C_20 
ROOT
ATOM      1  C   UNL d   1       2.152   3.079  -0.757  0.00  0.00     0.054 A 
ATOM      2  C   UNL d   1       0.850   2.539  -0.844  0.00  0.00     0.038 A 
ATOM      3  C   UNL d   1       2.297   4.471  -0.620  0.00  0.00     0.019 A 
ATOM      4  C   UNL d   1      -0.265   3.384  -0.782  0.00  0.00     0.025 A 
ATOM      5  C   UNL d   1       1.176   5.306  -0.562  0.00  0.00     0.001 A 
ATOM      6  C   UNL d   1      -0.103   4.761  -0.647  0.00  0.00     0.002 A 
ENDROOT
BRANCH   2   7
ATOM      7  N   UNL d   1       0.604   1.130  -0.991  0.00  0.00    -0.180 NA
ATOM      8  H   UNL d   1       1.391   0.642  -1.448  0.00  0.00     0.146 HD
BRANCH   7   9
ATOM      9  S   UNL d   1       0.109   0.252   0.365  0.00  0.00     0.248 S 
ATOM     10  O   UNL d   1      -0.863   0.995   1.133  0.00  0.00    -0.205 OA
ATOM     11  O   UNL d   1      -0.176  -1.090  -0.099  0.00  0.00    -0.205 OA
BRANCH   9  12
ATOM     12  C   UNL d   1       1.445   0.019   1.444  0.00  0.00     0.105 A 
ATOM     13  C   UNL d   1       1.950   0.946   2.325  0.00  0.00     0.099 A 
ATOM     14  S   UNL d   1       3.268   0.356   3.229  0.00  0.00    -0.064 SA
ATOM     15 CL   UNL d   1       1.454   2.563   2.638  0.00  0.00    -0.075 Cl
ATOM     16  C   UNL d   1       3.148  -1.159   2.488  0.00  0.00     0.077 A 
ATOM     17  C   UNL d   1       2.154  -1.227   1.548  0.00  0.00     0.058 A 
ATOM     18 CL   UNL d   1       4.214  -2.421   2.952  0.00  0.00    -0.076 Cl
ENDBRANCH   9  12
ENDBRANCH   7   9
ENDBRANCH   2   7
BRANCH   1  19
ATOM     19  C   UNL d   1       3.348   2.186  -0.867  0.00  0.00     0.253 C 
ATOM     20  N   UNL d   1       4.578   2.701  -0.515  0.00  0.00    -0.356 N 
ATOM     21  H   UNL d   1       4.650   3.567  -0.002  0.00  0.00     0.162 HD
ATOM     22  O   UNL d   1       3.203   1.025  -1.249  0.00  0.00    -0.268 OA
BRANCH  20  23
ATOM     23  C   UNL d   1       5.782   1.913  -0.657  0.00  0.00     0.127 C 
BRANCH  23  24
ATOM     24  C   UNL d   1       6.986   2.787  -0.492  0.00  0.00     0.003 A 
ATOM     25  C   UNL d   1       7.327   3.850  -1.509  0.00  0.00     0.007 A 
ATOM     26  C   UNL d   1       8.175   2.614  -1.405  0.00  0.00     0.007 A 
ENDBRANCH  23  24
ENDBRANCH  20  23
ENDBRANCH   1  19
TORSDOF 6
