REMARK  7 active torsions:
REMARK  status: ('A' for Active; 'I' for Inactive)
REMARK    1  A    between atoms: C_2  and  C_1 
REMARK       I    between atoms: N_8  and  C_2 
REMARK       I    between atoms: C_4  and  N_11 
REMARK       I    between atoms: N_12  and  C_4 
REMARK    2  A    between atoms: C_7  and  C_5 
REMARK    3  A    between atoms: N_11  and  N_8 
REMARK    4  A    between atoms: C_16  and  C_9 
REMARK    5  A    between atoms: C_15  and  N_12 
REMARK    6  A    between atoms: C_19  and  C_16 
REMARK    7  A    between atoms: C_20  and  C_19 
ROOT
ATOM      1  C   UNL d   1      -0.648  -2.449   0.270  0.00  0.00     0.293 C 
ATOM      2  N   UNL d   1       0.390  -3.330   0.517  0.00  0.00    -0.260 N 
ATOM      3  O   UNL d   1      -1.812  -2.867   0.180  0.00  0.00    -0.264 OA
ATOM      4  H   UNL d   1       1.317  -2.999   0.778  0.00  0.00     0.190 HD
ENDROOT
BRANCH   2   5
ATOM      5  N   UNL d   1       0.089  -4.695   0.803  0.00  0.00    -0.248 N 
ATOM      6  C   UNL d   1       1.170  -5.550   0.992  0.00  0.00     0.339 C 
ATOM      7  N   UNL d   1       0.774  -6.837   1.319  0.00  0.00    -0.308 N 
ATOM      8  O   UNL d   1       2.320  -5.129   0.917  0.00  0.00    -0.245 OA
ATOM      9  H   UNL d   1      -0.220  -7.007   1.371  0.00  0.00     0.170 HD
ATOM     10  H   UNL d   1      -0.736  -5.046   0.323  0.00  0.00     0.192 HD
BRANCH   7  11
ATOM     11  C   UNL d   1       1.620  -7.948   1.569  0.00  0.00     0.036 A 
ATOM     12  C   UNL d   1       3.015  -7.872   1.545  0.00  0.00     0.029 A 
ATOM     13  C   UNL d   1       3.801  -9.022   1.665  0.00  0.00     0.002 A 
ATOM     14  C   UNL d   1       3.204 -10.265   1.842  0.00  0.00     0.000 A 
ATOM     15  C   UNL d   1       1.817 -10.349   1.945  0.00  0.00     0.002 A 
ATOM     16  C   UNL d   1       1.029  -9.197   1.815  0.00  0.00     0.029 A 
ENDBRANCH   7  11
ENDBRANCH   2   5
BRANCH   1  17
ATOM     17  C   UNL d   1      -0.302  -1.048   0.133  0.00  0.00     0.146 A 
ATOM     18  O   UNL d   1       1.010  -0.622   0.137  0.00  0.00    -0.296 OA
ATOM     19  C   UNL d   1       0.988   0.739   0.006  0.00  0.00     0.129 A 
ATOM     20  C   UNL d   1      -0.309   1.197  -0.080  0.00  0.00     0.050 A 
ATOM     21  C   UNL d   1      -1.135   0.049  -0.018  0.00  0.00     0.046 A 
BRANCH  19  22
ATOM     22  C   UNL d   1       2.208   1.454   0.002  0.00  0.00    -0.041 C 
ATOM     23  C   UNL d   1       3.201   2.139  -0.001  0.00  0.00    -0.099 C 
BRANCH  23  24
ATOM     24  C   UNL d   1       4.375   3.025   0.008  0.00  0.00     0.094 C 
BRANCH  24  25
ATOM     25  C   UNL d   1       5.248   2.785  -1.222  0.00  0.00     0.012 C 
BRANCH  25  26
ATOM     26  C   UNL d   1       6.479   3.690  -1.224  0.00  0.00    -0.004 C 
ATOM     27  C   UNL d   1       7.344   3.441  -2.450  0.00  0.00     0.005 C 
ENDBRANCH  25  26
ENDBRANCH  24  25
ENDBRANCH  23  24
ENDBRANCH  19  22
ENDBRANCH   1  17
TORSDOF 7
