REMARK  5 active torsions:
REMARK  status: ('A' for Active; 'I' for Inactive)
REMARK    1  A    between atoms: N_2  and  C_1 
REMARK    2  A    between atoms: N_4  and  C_1 
REMARK    3  A    between atoms: C_3  and  N_2 
REMARK    4  A    between atoms: N_6  and  N_4 
REMARK    5  A    between atoms: C_9  and  N_6 
ROOT
ATOM      1  C   UNL d   1       0.842   0.154   0.228  0.00  0.00     0.187 C 
ATOM      2  S   UNL d   1       0.242   1.229  -0.913  0.00  0.00    -0.040 SA
ENDROOT
BRANCH   1   3
ATOM      3  N   UNL d   1       2.002   0.502   0.882  0.00  0.00    -0.331 N 
ATOM      4  H   UNL d   1       2.201   1.491   0.764  0.00  0.00     0.168 HD
BRANCH   3   5
ATOM      5  C   UNL d   1       2.607  -0.130   1.996  0.00  0.00     0.056 A 
ATOM      6  C   UNL d   1       2.926  -1.497   2.080  0.00  0.00     0.060 A 
ATOM      7 CL   UNL d   1       2.775  -2.580   0.740  0.00  0.00    -0.082 Cl
ATOM      8  C   UNL d   1       3.487  -2.022   3.251  0.00  0.00     0.026 A 
ATOM      9  C   UNL d   1       3.760  -1.190   4.335  0.00  0.00     0.002 A 
ATOM     10  C   UNL d   1       3.497   0.174   4.242  0.00  0.00     0.002 A 
ATOM     11  C   UNL d   1       2.940   0.703   3.074  0.00  0.00     0.031 A 
ENDBRANCH   3   5
ENDBRANCH   1   3
BRANCH   1  12
ATOM     12  N   UNL d   1       0.185  -0.963   0.677  0.00  0.00    -0.293 N 
ATOM     13  H   UNL d   1       0.751  -1.763   0.941  0.00  0.00     0.183 HD
BRANCH  12  14
ATOM     14  N   UNL d   1      -1.067  -1.331   0.168  0.00  0.00    -0.204 NA
ATOM     15  H   UNL d   1      -1.467  -0.633  -0.464  0.00  0.00     0.153 HD
BRANCH  14  16
ATOM     16  C   UNL d   1      -1.995  -1.742   1.160  0.00  0.00     0.027 A 
ATOM     17  C   UNL d   1      -1.627  -2.069   2.474  0.00  0.00     0.025 A 
ATOM     18  C   UNL d   1      -2.564  -2.565   3.387  0.00  0.00     0.002 A 
ATOM     19  C   UNL d   1      -3.882  -2.767   2.991  0.00  0.00     0.000 A 
ATOM     20  C   UNL d   1      -4.262  -2.472   1.685  0.00  0.00     0.002 A 
ATOM     21  C   UNL d   1      -3.325  -1.970   0.777  0.00  0.00     0.025 A 
ENDBRANCH  14  16
ENDBRANCH  12  14
ENDBRANCH   1  12
TORSDOF 5
