REMARK  11 active torsions:
REMARK  status: ('A' for Active; 'I' for Inactive)
REMARK    1  A    between atoms: O_7  and  S_1 
REMARK    2  A    between atoms: C_13  and  S_1 
REMARK    3  A    between atoms: S_2  and  O_6 
REMARK    4  A    between atoms: C_12  and  S_2 
REMARK    5  A    between atoms: C_3  and  O_6 
REMARK    6  A    between atoms: C_4  and  O_7 
REMARK    7  A    between atoms: S_5  and  O_11 
REMARK    8  A    between atoms: C_14  and  S_5 
REMARK    9  A    between atoms: C_8  and  C_15 
REMARK   10  A    between atoms: C_9  and  O_28 
REMARK   11  A    between atoms: O_11  and  C_15 
ROOT
ATOM      1  C   UNL d   1       2.434  -1.873  -1.667  0.00  0.00     0.230 C 
ATOM      2  C   UNL d   1       0.922  -2.007  -1.464  0.00  0.00     0.209 C 
ATOM      3  C   UNL d   1       0.725  -3.524  -1.475  0.00  0.00     0.183 C 
ATOM      4  C   UNL d   1       2.691  -3.037  -2.634  0.00  0.00     0.292 C 
ATOM      5  O   UNL d   1       1.788  -4.086  -2.266  0.00  0.00    -0.348 OA
ENDROOT
BRANCH   3   6
ATOM      6  C   UNL d   1      -0.609  -3.974  -2.077  0.00  0.00     0.225 C 
BRANCH   6   7
ATOM      7  O   UNL d   1      -0.684  -5.398  -2.004  0.00  0.00    -0.269 OA
BRANCH   7   8
ATOM      8  S   UNL d   1      -1.974  -6.119  -2.693  0.00  0.00     0.298 S 
ATOM      9  O   UNL d   1      -3.122  -5.819  -1.855  0.00  0.00    -0.193 OA
ATOM     10  O   UNL d   1      -1.973  -5.810  -4.105  0.00  0.00    -0.193 OA
BRANCH   8  11
ATOM     11  C   UNL d   1      -1.653  -7.863  -2.552  0.00  0.00     0.086 A 
ATOM     12  C   UNL d   1      -2.721  -8.742  -2.341  0.00  0.00     0.026 A 
ATOM     13  C   UNL d   1      -2.481 -10.114  -2.259  0.00  0.00     0.008 A 
ATOM     14  C   UNL d   1      -1.178 -10.617  -2.382  0.00  0.00    -0.062 A 
ATOM     15  C   UNL d   1      -0.114  -9.723  -2.573  0.00  0.00     0.008 A 
ATOM     16  C   UNL d   1      -0.943 -12.099  -2.325  0.00  0.00     0.048 C 
ATOM     17  C   UNL d   1      -0.347  -8.346  -2.656  0.00  0.00     0.026 A 
ENDBRANCH   8  11
ENDBRANCH   7   8
ENDBRANCH   6   7
ENDBRANCH   3   6
BRANCH   2  18
ATOM     18  O   UNL d   1       0.416  -1.428  -0.264  0.00  0.00    -0.261 OA
BRANCH  18  19
ATOM     19  S   UNL d   1       0.388   0.199  -0.166  0.00  0.00     0.298 S 
ATOM     20  O   UNL d   1      -0.473   0.693  -1.222  0.00  0.00    -0.193 OA
ATOM     21  O   UNL d   1       1.760   0.648  -0.053  0.00  0.00    -0.193 OA
BRANCH  19  22
ATOM     22  C   UNL d   1      -0.418   0.564   1.379  0.00  0.00     0.086 A 
ATOM     23  C   UNL d   1       0.281   1.242   2.382  0.00  0.00     0.026 A 
ATOM     24  C   UNL d   1      -0.385   1.640   3.542  0.00  0.00     0.008 A 
ATOM     25  C   UNL d   1      -1.752   1.374   3.705  0.00  0.00    -0.062 A 
ATOM     26  C   UNL d   1      -2.435   0.668   2.703  0.00  0.00     0.008 A 
ATOM     27  C   UNL d   1      -2.467   1.882   4.923  0.00  0.00     0.048 C 
ATOM     28  C   UNL d   1      -1.774   0.266   1.538  0.00  0.00     0.026 A 
ENDBRANCH  19  22
ENDBRANCH  18  19
ENDBRANCH   2  18
BRANCH   1  29
ATOM     29  O   UNL d   1       3.163  -2.049  -0.441  0.00  0.00    -0.259 OA
BRANCH  29  30
ATOM     30  S   UNL d   1       4.756  -1.664  -0.501  0.00  0.00     0.298 S 
ATOM     31  O   UNL d   1       5.417  -2.658  -1.324  0.00  0.00    -0.193 OA
ATOM     32  O   UNL d   1       4.879  -0.258  -0.826  0.00  0.00    -0.193 OA
BRANCH  30  33
ATOM     33  C   UNL d   1       5.389  -1.873   1.148  0.00  0.00     0.086 A 
ATOM     34  C   UNL d   1       6.341  -2.868   1.397  0.00  0.00     0.026 A 
ATOM     35  C   UNL d   1       6.996  -2.907   2.629  0.00  0.00     0.008 A 
ATOM     36  C   UNL d   1       6.707  -1.954   3.615  0.00  0.00    -0.062 A 
ATOM     37  C   UNL d   1       5.728  -0.982   3.364  0.00  0.00     0.008 A 
ATOM     38  C   UNL d   1       7.480  -1.966   4.903  0.00  0.00     0.048 C 
ATOM     39  C   UNL d   1       5.069  -0.933   2.131  0.00  0.00     0.026 A 
ENDBRANCH  30  33
ENDBRANCH  29  30
ENDBRANCH   1  29
BRANCH   4  40
ATOM     40  O   UNL d   1       2.437  -2.618  -3.972  0.00  0.00    -0.363 OA
ATOM     41  C   UNL d   1       2.868  -3.610  -4.900  0.00  0.00     0.204 C 
ENDBRANCH   4  40
TORSDOF 11
