REMARK  9 active torsions:
REMARK  status: ('A' for Active; 'I' for Inactive)
REMARK    1  A    between atoms: C_5  and  S_1 
REMARK    2  A    between atoms: N_11  and  S_1 
REMARK    3  A    between atoms: N_2  and  C_7 
REMARK    4  A    between atoms: C_20  and  N_6 
REMARK    5  A    between atoms: N_8  and  C_26 
REMARK    6  A    between atoms: C_28  and  N_11 
REMARK    7  A    between atoms: C_25  and  C_20 
REMARK    8  A    between atoms: C_26  and  C_27 
REMARK    9  A    between atoms: C_27  and  C_28 
ROOT
ATOM      1  N   UNL d   1       2.476   0.071  -0.041  0.00  0.00    -0.315 N 
ATOM      2  H   UNL d   1       2.889   0.908  -0.447  0.00  0.00     0.172 HD
ENDROOT
BRANCH   1   3
ATOM      3  S   UNL d   1       0.793   0.073  -0.159  0.00  0.00     0.258 S 
ATOM      4  O   UNL d   1       0.472   0.559  -1.482  0.00  0.00    -0.201 OA
ATOM      5  O   UNL d   1       0.283  -1.187   0.342  0.00  0.00    -0.201 OA
BRANCH   3   6
ATOM      6  C   UNL d   1       0.356   1.349   1.000  0.00  0.00     0.079 A 
ATOM      7  C   UNL d   1       0.257   2.664   0.559  0.00  0.00     0.027 A 
ATOM      8  C   UNL d   1      -0.084   3.675   1.464  0.00  0.00     0.032 A 
ATOM      9  C   UNL d   1      -0.319   3.398   2.823  0.00  0.00     0.045 A 
ATOM     10  C   UNL d   1      -0.219   2.057   3.236  0.00  0.00     0.032 A 
ATOM     11  C   UNL d   1       0.098   1.033   2.334  0.00  0.00     0.027 A 
BRANCH   9  12
ATOM     12  N   UNL d   1      -0.646   4.439   3.744  0.00  0.00    -0.252 N 
ATOM     13  C   UNL d   1      -0.466   4.354   5.107  0.00  0.00     0.231 A 
ATOM     14  C   UNL d   1      -0.875   5.648   5.744  0.00  0.00     0.113 A 
ATOM     15  O   UNL d   1       0.005   3.438   5.769  0.00  0.00    -0.273 OA
ATOM     16  C   UNL d   1      -1.395   6.490   4.609  0.00  0.00     0.113 A 
ATOM     17  C   UNL d   1      -1.169   5.660   3.382  0.00  0.00     0.231 A 
ATOM     18  O   UNL d   1      -1.479   6.072   2.271  0.00  0.00    -0.273 OA
ENDBRANCH   9  12
ENDBRANCH   3   6
ENDBRANCH   1   3
BRANCH   1  19
ATOM     19  C   UNL d   1       3.052  -0.428   1.214  0.00  0.00     0.134 C 
BRANCH  19  20
ATOM     20  C   UNL d   1       4.573  -0.393   1.136  0.00  0.00     0.050 C 
BRANCH  20  21
ATOM     21  C   UNL d   1       5.200  -0.967   2.412  0.00  0.00     0.274 C 
BRANCH  21  22
ATOM     22  N   UNL d   1       4.751  -2.334   2.721  0.00  0.00     0.091 N 
ATOM     23  C   UNL d   1       5.172  -3.324   1.705  0.00  0.00     0.302 C 
ATOM     24  C   UNL d   1       6.677  -3.689   1.748  0.00  0.00     0.303 C 
ATOM     25  N   UNL d   1       7.161  -4.125   3.079  0.00  0.00     0.096 N 
ATOM     26  C   UNL d   1       6.747  -3.116   4.079  0.00  0.00     0.303 C 
ATOM     27  C   UNL d   1       5.242  -2.765   4.048  0.00  0.00     0.302 C 
BRANCH  25  28
ATOM     28  C   UNL d   1       6.637  -5.472   3.376  0.00  0.00     0.311 C 
BRANCH  28  29
ATOM     29  C   UNL d   1       7.059  -6.035   4.715  0.00  0.00    -0.030 A 
ATOM     30  C   UNL d   1       6.096  -6.317   5.697  0.00  0.00     0.009 A 
ATOM     31  C   UNL d   1       6.473  -6.870   6.920  0.00  0.00     0.001 A 
ATOM     32  C   UNL d   1       7.815  -7.146   7.173  0.00  0.00     0.000 A 
ATOM     33  C   UNL d   1       8.781  -6.860   6.209  0.00  0.00     0.001 A 
ATOM     34  C   UNL d   1       8.406  -6.304   4.985  0.00  0.00     0.009 A 
ENDBRANCH  28  29
ENDBRANCH  25  28
ENDBRANCH  21  22
ENDBRANCH  20  21
ENDBRANCH  19  20
ENDBRANCH   1  19
TORSDOF 9
