REMARK  6 active torsions:
REMARK  status: ('A' for Active; 'I' for Inactive)
REMARK    1  A    between atoms: N_2  and  C_1 
REMARK    2  A    between atoms: S_8  and  C_3 
REMARK    3  A    between atoms: C_9  and  C_4 
REMARK    4  A    between atoms: C_10  and  S_8 
REMARK    5  A    between atoms: O_17  and  C_9 
REMARK    6  A    between atoms: N_16  and  C_15 
ROOT
ATOM      1  C   UNL d   1       0.785   1.187   0.210  0.00  0.00     0.137 A 
ATOM      2  C   UNL d   1      -0.600   1.181   0.111  0.00  0.00     0.108 A 
ATOM      3  C   UNL d   1       0.821  -1.210   0.011  0.00  0.00     0.057 A 
ATOM      4  C   UNL d   1       1.516  -0.011   0.154  0.00  0.00     0.058 A 
ATOM      5  N   UNL d   1      -1.282   0.005   0.017  0.00  0.00    -0.357 N 
ATOM      6  HN  UNL d   1      -2.301  -0.009  -0.003  1.00  0.00     0.166 HD
ATOM      7  C   UNL d   1      -0.566  -1.150  -0.048  0.00  0.00     0.106 A 
ENDROOT
BRANCH   2   8
ATOM      8  S   UNL d   1      -1.646   2.622   0.102  0.00  0.00    -0.068 SA
BRANCH   8   9
ATOM      9  C   UNL d   1      -1.677   3.060  -1.641  0.00  0.00     0.028 A 
ATOM     10  C   UNL d   1      -2.209   2.223  -2.644  0.00  0.00     0.023 A 
ATOM     11  C   UNL d   1      -2.172   2.655  -3.978  0.00  0.00     0.024 A 
ATOM     12  C   UNL d   1      -1.713   3.930  -4.310  0.00  0.00     0.002 A 
ATOM     13  C   UNL d   1      -1.259   4.783  -3.308  0.00  0.00     0.001 A 
ATOM     14  C   UNL d   1      -1.239   4.350  -1.982  0.00  0.00     0.021 A 
BRANCH  10  15
ATOM     15  N   UNL d   1      -2.597   0.896  -2.397  0.00  0.00    -0.302 NA
ATOM     16  H   UNL d   1      -2.772   0.701  -1.409  0.00  0.00     0.124 HD
ATOM     17  H   UNL d   1      -3.337   0.556  -3.001  0.00  0.00     0.124 HD
ENDBRANCH  10  15
ENDBRANCH   8   9
ENDBRANCH   2   8
BRANCH   1  18
ATOM     18  N   UNL d   1       1.513   2.410   0.429  0.00  0.00    -0.113 N 
ATOM     19  O   UNL d   1       1.268   3.042   1.463  0.00  0.00    -0.532 OA
ATOM     20  O   UNL d   1       2.390   2.694  -0.398  0.00  0.00    -0.532 OA
ENDBRANCH   1  18
BRANCH   3  21
ATOM     21  C   UNL d   1       1.469  -2.538  -0.059  0.00  0.00     0.294 C 
ATOM     22  O   UNL d   1       0.849  -3.581  -0.181  0.00  0.00    -0.259 OA
BRANCH  21  23
ATOM     23  O   UNL d   1       2.814  -2.414   0.049  0.00  0.00    -0.322 OA
ATOM     24  C   UNL d   1       3.517  -3.657   0.012  0.00  0.00     0.213 C 
ENDBRANCH  21  23
ENDBRANCH   3  21
TORSDOF 6
