REMARK  4 active torsions:
REMARK  status: ('A' for Active; 'I' for Inactive)
REMARK    1  A    between atoms: C_2  and  N_1 
REMARK    2  A    between atoms: C_3  and  C_14 
REMARK    3  A    between atoms: S_9  and  C_6 
REMARK    4  A    between atoms: C_14  and  S_9 
ROOT
ATOM      1  S   UNL d   1      -1.454  -1.436   1.185  0.00  0.00    -0.105 SA
ENDROOT
BRANCH   1   2
ATOM      2  C   UNL d   1      -0.737   0.193   1.329  0.00  0.00     0.103 A 
ATOM      3  C   UNL d   1      -1.319   1.232   2.050  0.00  0.00     0.136 A 
ATOM      4  C   UNL d   1      -0.736   2.504   2.066  0.00  0.00     0.040 A 
ATOM      5  C   UNL d   1       0.444   2.703   1.363  0.00  0.00     0.020 A 
ATOM      6  C   UNL d   1       0.981   1.626   0.677  0.00  0.00     0.089 A 
ATOM      7  N   UNL d   1       0.419   0.393   0.644  0.00  0.00    -0.359 N 
ATOM      8  HN  UNL d   1       0.853  -0.365   0.118  1.00  0.00     0.166 HD
BRANCH   3   9
ATOM      9  N   UNL d   1      -2.534   1.040   2.801  0.00  0.00    -0.113 N 
ATOM     10  O   UNL d   1      -2.490   0.270   3.769  0.00  0.00    -0.532 OA
ATOM     11  O   UNL d   1      -3.507   1.730   2.471  0.00  0.00    -0.532 OA
ENDBRANCH   3   9
ENDBRANCH   1   2
BRANCH   1  12
ATOM     12  C   UNL d   1      -0.249  -2.287   0.100  0.00  0.00     0.121 C 
BRANCH  12  13
ATOM     13  C   UNL d   1      -0.619  -3.720  -0.233  0.00  0.00    -0.030 A 
ATOM     14  C   UNL d   1       0.219  -4.600  -1.047  0.00  0.00    -0.010 A 
ATOM     15  C   UNL d   1      -0.369  -5.858  -1.233  0.00  0.00     0.015 A 
ATOM     16  C   UNL d   1       1.483  -4.378  -1.660  0.00  0.00     0.037 A 
ATOM     17  C   UNL d   1       0.243  -6.868  -2.002  0.00  0.00     0.021 A 
ATOM     18  S   UNL d   1      -1.875  -5.978  -0.420  0.00  0.00    -0.101 SA
ATOM     19  C   UNL d   1       1.478  -6.614  -2.597  0.00  0.00     0.025 A 
ATOM     20  C   UNL d   1       2.091  -5.383  -2.421  0.00  0.00     0.035 A 
ATOM     21 CL   UNL d   1       3.621  -5.088  -3.155  0.00  0.00    -0.084 Cl
ATOM     22  C   UNL d   1      -1.768  -4.383   0.158  0.00  0.00     0.059 A 
ENDBRANCH  12  13
ENDBRANCH   1  12
TORSDOF 4
