REMARK  10 active torsions:
REMARK  status: ('A' for Active; 'I' for Inactive)
REMARK       I    between atoms: C_2  and  N_1 
REMARK    1  A    between atoms: O_16  and  C_2 
REMARK    2  A    between atoms: C_3  and  O_5 
REMARK    3  A    between atoms: C_9  and  N_4 
REMARK    4  A    between atoms: O_5  and  C_18 
REMARK    5  A    between atoms: C_17  and  C_9 
REMARK    6  A    between atoms: O_15  and  C_20 
REMARK    7  A    between atoms: C_19  and  O_15 
REMARK    8  A    between atoms: C_26  and  O_16 
REMARK    9  A    between atoms: C_20  and  C_17 
REMARK   10  A    between atoms: O_25  and  C_17 
ROOT
ATOM      1  C   UNL d   1       2.221  -1.469  -2.059  0.00  0.00     0.170 C 
ENDROOT
BRANCH   1   2
ATOM      2  C   UNL d   1       1.569  -0.116  -1.695  0.00  0.00     0.306 C 
BRANCH   2   3
ATOM      3  N   UNL d   1       1.329   0.209  -0.278  0.00  0.00     0.094 N 
ATOM      4  C   UNL d   1       2.568   0.296   0.535  0.00  0.00     0.292 C 
ATOM      5  C   UNL d   1       3.473   1.521   0.265  0.00  0.00     0.158 C 
ATOM      6  N   UNL d   1       2.704   2.767   0.229  0.00  0.00    -0.325 N 
ATOM      7  C   UNL d   1       3.182   3.989   0.661  0.00  0.00     0.362 C 
ATOM      8  C   UNL d   1       1.483   2.735  -0.564  0.00  0.00     0.158 C 
ATOM      9  O   UNL d   1       2.599   5.046   0.489  0.00  0.00    -0.238 OA
ATOM     10  C   UNL d   1       0.622   1.518  -0.176  0.00  0.00     0.292 C 
BRANCH   7  11
ATOM     11  O   UNL d   1       4.391   3.880   1.278  0.00  0.00    -0.304 OA
BRANCH  11  12
ATOM     12  C   UNL d   1       5.051   5.123   1.551  0.00  0.00     0.176 C 
ATOM     13  C   UNL d   1       5.851   5.520   0.324  0.00  0.00     0.034 C 
ENDBRANCH  11  12
ENDBRANCH   7  11
ENDBRANCH   2   3
ENDBRANCH   1   2
BRANCH   1  14
ATOM     14  C   UNL d   1       1.434  -2.697  -1.575  0.00  0.00     0.209 C 
BRANCH  14  15
ATOM     15  O   UNL d   1       2.163  -3.881  -1.946  0.00  0.00    -0.349 OA
BRANCH  15  16
ATOM     16  C   UNL d   1       1.645  -5.085  -1.555  0.00  0.00     0.069 A 
ATOM     17  C   UNL d   1       0.425  -5.270  -0.911  0.00  0.00     0.039 A 
ATOM     18  C   UNL d   1       0.016  -6.556  -0.543  0.00  0.00     0.040 A 
ATOM     19  C   UNL d   1       0.805  -7.674  -0.820  0.00  0.00     0.078 A 
ATOM     20  C   UNL d   1       2.034  -7.493  -1.448  0.00  0.00     0.040 A 
ATOM     21  C   UNL d   1       2.440  -6.204  -1.829  0.00  0.00     0.039 A 
BRANCH  19  22
ATOM     22  O   UNL d   1       0.290  -8.846  -0.362  0.00  0.00    -0.255 OA
BRANCH  22  23
ATOM     23  C   UNL d   1       0.568 -10.064  -1.033  0.00  0.00     0.530 C 
ATOM     24  F   UNL d   1       1.241  -9.921  -2.193  0.00  0.00    -0.144 F 
ATOM     25  F   UNL d   1       1.277 -10.872  -0.214  0.00  0.00    -0.144 F 
ATOM     26  F   UNL d   1      -0.607 -10.676  -1.308  0.00  0.00    -0.144 F 
ENDBRANCH  22  23
ENDBRANCH  19  22
ENDBRANCH  15  16
ENDBRANCH  14  15
ENDBRANCH   1  14
BRANCH   1  27
ATOM     27  O   UNL d   1       2.338  -1.496  -3.498  0.00  0.00    -0.392 OA
ATOM     28  H   UNL d   1       1.445  -1.614  -3.867  0.00  0.00     0.210 HD
ENDBRANCH   1  27
TORSDOF 10
