REMARK  3 active torsions:
REMARK  status: ('A' for Active; 'I' for Inactive)
REMARK    1  A    between atoms: C_12  and  C_2 
REMARK    2  A    between atoms: C_16  and  C_10 
REMARK    3  A    between atoms: C_13  and  C_11 
ROOT
ATOM      1  N   UNL d   1       0.283   0.607   0.014  0.00  0.00    -0.235 N 
ATOM      2  C   UNL d   1      -0.836   1.431   0.024  0.00  0.00     0.144 A 
ATOM      3  C   UNL d   1       0.131  -0.782   0.036  0.00  0.00     0.130 A 
ATOM      4  N   UNL d   1       1.592   0.945  -0.005  0.00  0.00    -0.291 N 
ATOM      5  HN  UNL d   1       1.979   1.889  -0.018  1.00  0.00     0.187 HD
ATOM      6  N   UNL d   1      -1.088  -1.393   0.082  0.00  0.00    -0.340 N 
ATOM      7  HN  UNL d   1      -1.175  -2.408   0.114  1.00  0.00     0.167 HD
ATOM      8  C   UNL d   1      -2.067   0.878   0.055  0.00  0.00     0.067 A 
ATOM      9  C   UNL d   1       1.398  -1.309   0.006  0.00  0.00     0.082 A 
ATOM     10  C   UNL d   1       2.280  -0.205  -0.003  0.00  0.00     0.062 A 
ATOM     11  C   UNL d   1      -2.136  -0.618   0.082  0.00  0.00     0.046 A 
ENDROOT
BRANCH  11  12
ATOM     12  C   UNL d   1      -3.494  -1.236   0.144  0.00  0.00    -0.009 A 
ATOM     13  C   UNL d   1      -3.645  -2.437   0.856  0.00  0.00     0.021 A 
ATOM     14  C   UNL d   1      -4.898  -3.025   0.907  0.00  0.00    -0.051 A 
ATOM     15  C   UNL d   1      -5.308  -4.267   1.636  0.00  0.00     0.039 C 
ATOM     16  C   UNL d   1      -5.994  -2.441   0.265  0.00  0.00    -0.052 A 
ATOM     17  C   UNL d   1      -6.641  -4.589   0.945  0.00  0.00     0.009 C 
ATOM     18  C   UNL d   1      -7.236  -3.247   0.491  0.00  0.00     0.039 C 
ATOM     19  C   UNL d   1      -5.864  -1.256  -0.438  0.00  0.00     0.008 A 
ATOM     20  C   UNL d   1      -4.602  -0.657  -0.507  0.00  0.00     0.014 A 
ENDBRANCH  11  12
BRANCH   2  21
ATOM     21  C   UNL d   1      -0.653   2.902   0.010  0.00  0.00     0.434 C 
ATOM     22  F   UNL d   1       0.619   3.364  -0.012  0.00  0.00    -0.165 F 
ATOM     23  F   UNL d   1      -1.276   3.450  -1.071  0.00  0.00    -0.165 F 
ATOM     24  F   UNL d   1      -1.245   3.468   1.099  0.00  0.00    -0.165 F 
ENDBRANCH   2  21
BRANCH  10  25
ATOM     25  C   UNL d   1       3.749  -0.217   0.005  0.00  0.00    -0.008 A 
ATOM     26  C   UNL d   1       4.474   0.986   0.047  0.00  0.00     0.015 A 
ATOM     27  C   UNL d   1       5.873   0.982   0.083  0.00  0.00     0.024 A 
ATOM     28  C   UNL d   1       6.560  -0.227   0.075  0.00  0.00     0.034 A 
ATOM     29  C   UNL d   1       5.863  -1.431   0.024  0.00  0.00     0.024 A 
ATOM     30 CL   UNL d   1       8.279  -0.239   0.135  0.00  0.00    -0.084 Cl
ATOM     31  C   UNL d   1       4.464  -1.426  -0.012  0.00  0.00     0.015 A 
ENDBRANCH  10  25
TORSDOF 3
