REMARK  4 active torsions:
REMARK  status: ('A' for Active; 'I' for Inactive)
REMARK    1  A    between atoms: N_2  and  C_1 
REMARK    2  A    between atoms: N_8  and  C_1 
REMARK    3  A    between atoms: C_3  and  N_2 
REMARK    4  A    between atoms: N_6  and  N_8 
ROOT
ATOM      1  C   UNL d   1       1.235  -0.092   0.198  0.00  0.00     0.186 C 
ATOM      2  S   UNL d   1       2.866  -0.259   0.495  0.00  0.00    -0.040 SA
ENDROOT
BRANCH   1   3
ATOM      3  N   UNL d   1       0.622   0.425  -0.912  0.00  0.00    -0.361 N 
ATOM      4  H   UNL d   1      -0.377   0.498  -0.730  0.00  0.00     0.162 HD
BRANCH   3   5
ATOM      5  C   UNL d   1       1.170   1.358  -1.892  0.00  0.00     0.092 C 
ATOM      6  C   UNL d   1       2.499   1.001  -2.619  0.00  0.00     0.031 C 
ATOM      7  C   UNL d   1       2.338  -0.276  -3.415  0.00  0.00    -0.024 C 
ATOM      8  C   UNL d   1       2.446   2.006  -3.780  0.00  0.00     0.019 C 
ATOM      9  C   UNL d   1       1.525  -0.002  -4.447  0.00  0.00    -0.026 C 
ATOM     10  C   UNL d   1       1.131   1.450  -4.328  0.00  0.00     0.010 C 
ATOM     11  C   UNL d   1       0.201   1.588  -3.099  0.00  0.00     0.034 C 
ENDBRANCH   3   5
ENDBRANCH   1   3
BRANCH   1  12
ATOM     12  N   UNL d   1       0.360  -0.539   1.164  0.00  0.00    -0.277 N 
ATOM     13  H   UNL d   1       0.791  -0.925   1.998  0.00  0.00     0.189 HD
BRANCH  12  14
ATOM     14  N   UNL d   1      -0.955  -0.167   1.188  0.00  0.00    -0.307 N 
ATOM     15  C   UNL d   1      -1.667  -0.645   2.162  0.00  0.00     0.004 C 
ATOM     16  C   UNL d   1      -3.103  -0.219   2.352  0.00  0.00     0.054 C 
ATOM     17  C   UNL d   1      -1.234  -1.645   3.205  0.00  0.00     0.054 C 
ATOM     18  C   UNL d   1      -3.509  -0.975   3.613  0.00  0.00     0.006 C 
ATOM     19  C   UNL d   1      -2.580  -2.180   3.670  0.00  0.00     0.006 C 
ATOM     20  HN  UNL d   1      -1.354   0.451   0.482  1.00  0.00     0.186 HD
ENDBRANCH  12  14
ENDBRANCH   1  12
TORSDOF 4
