REMARK  1 active torsions:
REMARK  status: ('A' for Active; 'I' for Inactive)
REMARK    1  A    between atoms: C_10  and  N_1 
ROOT
ATOM      1  C   UNL d   1       3.849   0.047  -1.506  0.00  0.00    -0.097 C 
ATOM      2  C   UNL d   1       4.251   0.028  -2.639  0.00  0.00     0.014 C 
ATOM      3  C   UNL d   1       3.363   0.060  -0.117  0.00  0.00     0.228 C 
ENDROOT
BRANCH   3   4
ATOM      4  N   UNL d   1       1.919   0.059  -0.075  0.00  0.00    -0.269 N 
ATOM      5  C   UNL d   1       1.172  -1.085  -0.036  0.00  0.00     0.262 A 
ATOM      6  C   UNL d   1      -0.228  -0.667  -0.007  0.00  0.00     0.048 A 
ATOM      7  O   UNL d   1       1.537  -2.244  -0.012  0.00  0.00    -0.267 OA
ATOM      8  C   UNL d   1      -1.386  -1.419   0.025  0.00  0.00     0.018 A 
ATOM      9  C   UNL d   1      -0.250   0.716  -0.023  0.00  0.00     0.048 A 
ATOM     10  C   UNL d   1      -2.599  -0.723   0.029  0.00  0.00     0.001 A 
ATOM     11  C   UNL d   1      -2.623   0.688   0.006  0.00  0.00     0.001 A 
ATOM     12  C   UNL d   1      -1.435   1.426  -0.015  0.00  0.00     0.018 A 
ATOM     13  C   UNL d   1       1.138   1.180  -0.048  0.00  0.00     0.262 A 
ATOM     14  O   UNL d   1       1.461   2.352  -0.025  0.00  0.00    -0.267 OA
ENDBRANCH   3   4
TORSDOF 1
