REMARK  2 active torsions:
REMARK  status: ('A' for Active; 'I' for Inactive)
REMARK    1  A    between atoms: C_6  and  C_1 
REMARK    2  A    between atoms: C_7  and  C_6 
REMARK       I    between atoms: N_11  and  C_7 
ROOT
ATOM      1  C   UNL d   1       2.412   0.103   0.043  0.00  0.00    -0.001 A 
ATOM      2  S   UNL d   1       1.500   1.548   0.073  0.00  0.00    -0.093 SA
ATOM      3  C   UNL d   1       1.599  -1.022   0.022  0.00  0.00    -0.037 A 
ATOM      4  C   UNL d   1       0.191  -0.669   0.026  0.00  0.00    -0.011 A 
ATOM      5  C   UNL d   1       0.002   0.715   0.038  0.00  0.00     0.016 A 
ATOM      6  C   UNL d   1      -0.967  -1.491   0.010  0.00  0.00     0.037 A 
ATOM      7  C   UNL d   1      -1.283   1.293   0.023  0.00  0.00     0.021 A 
ATOM      8  C   UNL d   1      -2.242  -0.919   0.000  0.00  0.00     0.035 A 
ATOM      9  C   UNL d   1      -2.402   0.458   0.003  0.00  0.00     0.025 A 
ATOM     10  C   UNL d   1       2.083  -2.440  -0.011  0.00  0.00     0.050 C 
ATOM     11 CL   UNL d   1      -3.629  -1.938  -0.015  0.00  0.00    -0.084 Cl
ENDROOT
BRANCH   1  12
ATOM     12  C   UNL d   1       3.915   0.206  -0.001  0.00  0.00     0.149 C 
BRANCH  12  13
ATOM     13  C   UNL d   1       4.621  -0.445   1.180  0.00  0.00     0.222 C 
ATOM     14  O   UNL d   1       5.736  -0.944   1.041  0.00  0.00    -0.273 OA
ATOM     15  N   UNL d   1       3.989  -0.374   2.401  0.00  0.00    -0.365 N 
ATOM     16  C   UNL d   1       4.560  -0.938   3.600  0.00  0.00     0.149 C 
ATOM     17  H   UNL d   1       3.059   0.022   2.455  0.00  0.00     0.161 HD
ENDBRANCH  12  13
ENDBRANCH   1  12
TORSDOF 2
