REMARK  1 active torsions:
REMARK  status: ('A' for Active; 'I' for Inactive)
REMARK       I    between atoms: N_2  and  C_1 
REMARK    1  A    between atoms: C_3  and  C_1 
ROOT
ATOM      1  C   UNL d   1       0.242  -0.030  -1.297  0.00  0.00     0.033 A 
ATOM      2  C   UNL d   1      -0.781   0.852  -1.651  0.00  0.00     0.030 A 
ATOM      3  C   UNL d   1      -1.462   0.692  -2.868  0.00  0.00    -0.009 A 
ATOM      4  N   UNL d   1      -1.711  -0.506  -4.947  0.00  0.00    -0.365 N 
ATOM      5  HN  UNL d   1      -1.418  -1.241  -5.591  1.00  0.00     0.165 HD
ATOM      6  C   UNL d   1      -1.081  -0.322  -3.774  0.00  0.00     0.042 A 
ATOM      7  C   UNL d   1       0.645  -1.014  -2.200  0.00  0.00     0.019 A 
ATOM      8  C   UNL d   1      -0.019  -1.148  -3.426  0.00  0.00     0.031 A 
ATOM      9  C   UNL d   1      -2.746   0.310  -5.246  0.00  0.00     0.088 A 
ATOM     10  C   UNL d   1      -2.537   1.520  -3.215  0.00  0.00     0.015 A 
ATOM     11  C   UNL d   1      -3.195   1.323  -4.422  0.00  0.00     0.018 A 
ENDROOT
BRANCH   1  12
ATOM     12  C   UNL d   1       0.964   0.109  -0.009  0.00  0.00     0.254 C 
ATOM     13  N   UNL d   1       0.245   0.296   1.166  0.00  0.00    -0.344 N 
ATOM     14  C   UNL d   1       0.955   0.720   2.376  0.00  0.00     0.152 C 
ATOM     15  C   UNL d   1      -1.204   0.129   1.346  0.00  0.00     0.152 C 
ATOM     16  C   UNL d   1       0.558  -0.136   3.580  0.00  0.00     0.187 C 
ATOM     17  O   UNL d   1      -0.868  -0.135   3.761  0.00  0.00    -0.388 OA
ATOM     18  C   UNL d   1      -1.516  -0.686   2.607  0.00  0.00     0.187 C 
ATOM     19  O   UNL d   1       2.192   0.056  -0.041  0.00  0.00    -0.267 OA
ENDBRANCH   1  12
TORSDOF 1
