REMARK  6 active torsions:
REMARK  status: ('A' for Active; 'I' for Inactive)
REMARK    1  A    between atoms: C_2  and  S_1 
REMARK    2  A    between atoms: N_3  and  S_1 
REMARK    3  A    between atoms: C_4  and  N_3 
REMARK    4  A    between atoms: C_19  and  N_3 
REMARK    5  A    between atoms: C_7  and  C_4 
REMARK    6  A    between atoms: C_18  and  C_19 
ROOT
ATOM      1  N   UNL d   1       2.891  -3.637  -1.731  0.00  0.00    -0.197 NA
ATOM      2  C   UNL d   1       2.660  -2.558  -2.093  0.00  0.00     0.060 C 
ATOM      3  C   UNL d   1       2.364  -1.205  -2.566  0.00  0.00     0.144 C 
ENDROOT
BRANCH   3   4
ATOM      4  C   UNL d   1       0.890  -0.841  -2.371  0.00  0.00     0.149 C 
BRANCH   4   5
ATOM      5  N   UNL d   1       0.384  -0.889  -0.966  0.00  0.00    -0.301 N 
BRANCH   5   6
ATOM      6  S   UNL d   1       1.069   0.159   0.193  0.00  0.00     0.267 S 
ATOM      7  O   UNL d   1       2.381   0.556  -0.261  0.00  0.00    -0.200 OA
ATOM      8  O   UNL d   1       0.109   1.155   0.617  0.00  0.00    -0.200 OA
BRANCH   6   9
ATOM      9  C   UNL d   1       1.389  -0.793   1.657  0.00  0.00     0.120 A 
ATOM     10  S   UNL d   1       2.107   0.083   2.943  0.00  0.00    -0.088 SA
ATOM     11  C   UNL d   1       2.132  -1.297   3.952  0.00  0.00     0.051 A 
ATOM     12  C   UNL d   1       1.610  -2.404   3.326  0.00  0.00     0.009 A 
ATOM     13  C   UNL d   1       1.191  -2.119   1.991  0.00  0.00     0.033 A 
ENDBRANCH   6   9
ENDBRANCH   5   6
BRANCH   5  14
ATOM     14  C   UNL d   1      -1.075  -1.190  -0.849  0.00  0.00     0.181 C 
BRANCH  14  15
ATOM     15  C   UNL d   1      -1.939  -0.014  -1.216  0.00  0.00     0.001 C 
ATOM     16  S   UNL d   1      -2.331   0.348  -2.848  0.00  0.00    -0.105 SA
ATOM     17  C   UNL d   1      -3.049   1.839  -2.413  0.00  0.00     0.050 C 
ATOM     18  C   UNL d   1      -3.096   2.007  -1.049  0.00  0.00     0.008 C 
ATOM     19  C   UNL d   1      -2.529   0.900  -0.360  0.00  0.00     0.017 C 
ENDBRANCH  14  15
ENDBRANCH   5  14
ENDBRANCH   4   5
ENDBRANCH   3   4
TORSDOF 6
