REMARK  6 active torsions:
REMARK  status: ('A' for Active; 'I' for Inactive)
REMARK    1  A    between atoms: C_3  and  S_1 
REMARK    2  A    between atoms: O_14  and  S_1 
REMARK    3  A    between atoms: C_9  and  C_2 
REMARK    4  A    between atoms: C_4  and  C_10 
REMARK    5  A    between atoms: C_20  and  O_14 
REMARK    6  A    between atoms: O_26  and  C_21 
ROOT
ATOM      1  C   UNL d   1       0.152   1.567   0.282  0.00  0.00     0.128 A 
ATOM      2  S   UNL d   1       1.082   2.926  -0.179  0.00  0.00    -0.074 SA
ATOM      3  C   UNL d   1      -0.044   4.018   0.498  0.00  0.00     0.035 A 
ATOM      4  C   UNL d   1      -1.050   1.950   0.846  0.00  0.00     0.035 A 
ATOM      5  C   UNL d   1      -1.160   3.364   0.978  0.00  0.00     0.023 A 
ENDROOT
BRANCH   1   6
ATOM      6  S   UNL d   1       0.868  -0.041   0.015  0.00  0.00     0.309 S 
ATOM      7  O   UNL d   1       0.199  -0.893   0.979  0.00  0.00    -0.192 OA
ATOM      8  O   UNL d   1       2.305   0.136   0.011  0.00  0.00    -0.192 OA
BRANCH   6   9
ATOM      9  O   UNL d   1       0.334  -0.387  -1.487  0.00  0.00    -0.229 OA
BRANCH   9  10
ATOM     10  C   UNL d   1       0.638  -1.583  -2.091  0.00  0.00     0.089 A 
ATOM     11  C   UNL d   1       1.439  -2.578  -1.528  0.00  0.00     0.041 A 
ATOM     12  C   UNL d   1       1.718  -3.752  -2.237  0.00  0.00     0.039 A 
ATOM     13  C   UNL d   1       1.204  -3.944  -3.516  0.00  0.00     0.068 A 
ATOM     14  C   UNL d   1       0.380  -2.961  -4.069  0.00  0.00     0.039 A 
ATOM     15  C   UNL d   1       0.098  -1.786  -3.362  0.00  0.00     0.041 A 
BRANCH  13  16
ATOM     16  O   UNL d   1       1.437  -5.031  -4.312  0.00  0.00    -0.356 OA
ATOM     17  C   UNL d   1       2.324  -6.018  -3.796  0.00  0.00     0.210 C 
ENDBRANCH  13  16
ENDBRANCH   9  10
ENDBRANCH   6   9
ENDBRANCH   1   6
BRANCH   3  18
ATOM     18  C   UNL d   1       0.159   5.500   0.580  0.00  0.00     0.074 A 
ATOM     19  C   UNL d   1       1.272   6.231   0.110  0.00  0.00     0.077 A 
ATOM     20  C   UNL d   1       0.998   7.536   0.452  0.00  0.00     0.184 A 
ATOM     21  O   UNL d   1      -0.206   7.585   1.081  0.00  0.00    -0.233 OA
ATOM     22  N   UNL d   1      -0.737   6.311   1.159  0.00  0.00    -0.260 N 
ATOM     23  HN  UNL d   1      -1.630   6.042   1.574  1.00  0.00     0.195 HD
BRANCH  20  24
ATOM     24  C   UNL d   1       1.706   8.815   0.286  0.00  0.00     0.441 C 
ATOM     25  F   UNL d   1       2.872   8.656  -0.395  0.00  0.00    -0.164 F 
ATOM     26  F   UNL d   1       0.974   9.723  -0.407  0.00  0.00    -0.164 F 
ATOM     27  F   UNL d   1       2.027   9.384   1.475  0.00  0.00    -0.164 F 
ENDBRANCH  20  24
ENDBRANCH   3  18
TORSDOF 6
