REMARK  4 active torsions:
REMARK  status: ('A' for Active; 'I' for Inactive)
REMARK    1  A    between atoms: C_5  and  C_1 
REMARK    2  A    between atoms: O_16  and  C_1 
REMARK    3  A    between atoms: C_7  and  C_5 
REMARK    4  A    between atoms: C_8  and  C_7 
ROOT
ATOM      1  C   UNL d   1      -1.318  -1.503   0.013  0.00  0.00     0.174 A 
ATOM      2  C   UNL d   1      -2.431  -0.448   0.313  0.00  0.00     0.262 A 
ATOM      3  C   UNL d   1      -0.063  -0.710   0.278  0.00  0.00     0.014 A 
ATOM      4  N   UNL d   1      -1.791   0.698   0.785  0.00  0.00    -0.324 N 
ATOM      5  C   UNL d   1      -0.411   0.575   0.706  0.00  0.00     0.044 A 
ATOM      6  C   UNL d   1       1.263  -1.050   0.068  0.00  0.00     0.032 A 
ATOM      7  O   UNL d   1      -3.640  -0.597   0.224  0.00  0.00    -0.269 OA
ATOM      8  C   UNL d   1       0.528   1.562   0.920  0.00  0.00     0.031 A 
ATOM      9  C   UNL d   1       2.223  -0.052   0.244  0.00  0.00     0.011 A 
ATOM     10  C   UNL d   1       1.865   1.241   0.665  0.00  0.00     0.021 A 
ATOM     11 BR   UNL d   1       4.033  -0.433  -0.155  0.00  0.00    -0.051 Br
ATOM     12  H   UNL d   1      -2.293   1.546   1.002  0.00  0.00     0.169 HD
ENDROOT
BRANCH   1  13
ATOM     13  C   UNL d   1      -1.426  -2.100  -1.390  0.00  0.00     0.137 C 
BRANCH  13  14
ATOM     14  C   UNL d   1      -1.317  -1.093  -2.525  0.00  0.00     0.163 C 
ATOM     15  O   UNL d   1      -1.217   0.110  -2.314  0.00  0.00    -0.292 OA
BRANCH  14  16
ATOM     16  C   UNL d   1      -1.255  -1.597  -3.942  0.00  0.00     0.016 A 
ATOM     17  C   UNL d   1      -1.631  -0.791  -5.037  0.00  0.00    -0.048 A 
ATOM     18  C   UNL d   1      -1.298  -1.217  -6.341  0.00  0.00     0.014 A 
ATOM     19  C   UNL d   1      -2.454   0.466  -4.932  0.00  0.00     0.049 C 
ATOM     20  C   UNL d   1      -0.623  -2.421  -6.569  0.00  0.00    -0.061 A 
ATOM     21  C   UNL d   1      -0.389  -3.272  -5.492  0.00  0.00     0.007 A 
ATOM     22  C   UNL d   1      -0.179  -2.800  -7.951  0.00  0.00     0.048 C 
ATOM     23  C   UNL d   1      -0.692  -2.860  -4.192  0.00  0.00     0.016 A 
ENDBRANCH  14  16
ENDBRANCH  13  14
ENDBRANCH   1  13
BRANCH   1  24
ATOM     24  O   UNL d   1      -1.370  -2.585   0.950  0.00  0.00    -0.375 OA
ATOM     25  H   UNL d   1      -1.260  -2.198   1.836  0.00  0.00     0.211 HD
ENDBRANCH   1  24
TORSDOF 4
