REMARK  3 active torsions:
REMARK  status: ('A' for Active; 'I' for Inactive)
REMARK    1  A    between atoms: C_3  and  C_1 
REMARK    2  A    between atoms: C_9  and  C_2 
REMARK    3  A    between atoms: C_11  and  C_6 
ROOT
ATOM      1  C   UNL d   1       0.013  -1.296   0.051  0.00  0.00     0.052 A 
ATOM      2  C   UNL d   1      -1.330  -0.857   0.254  0.00  0.00     0.083 A 
ATOM      3  N   UNL d   1      -1.341   0.453   0.567  0.00  0.00    -0.259 N 
ATOM      4  HN  UNL d   1      -2.157   1.015   0.807  1.00  0.00     0.195 HD
ATOM      5  O   UNL d   1      -0.037   0.884   0.499  0.00  0.00    -0.241 OA
ATOM      6  C   UNL d   1       0.776  -0.155   0.183  0.00  0.00     0.087 A 
ATOM      7  C   UNL d   1       2.210   0.161   0.051  0.00  0.00     0.080 C 
ENDROOT
BRANCH   1   8
ATOM      8  C   UNL d   1       0.473  -2.654  -0.226  0.00  0.00     0.054 A 
ATOM      9  N   UNL d   1      -0.385  -3.544  -0.849  0.00  0.00    -0.349 N 
ATOM     10  C   UNL d   1       0.182  -4.727  -0.972  0.00  0.00     0.086 A 
ATOM     11  HN  UNL d   1      -1.326  -3.315  -1.169  1.00  0.00     0.166 HD
ATOM     12  S   UNL d   1       1.797  -4.813  -0.364  0.00  0.00    -0.081 SA
ATOM     13  C   UNL d   1       1.696  -3.179   0.130  0.00  0.00     0.082 A 
BRANCH  10  14
ATOM     14  C   UNL d   1      -0.455  -5.917  -1.567  0.00  0.00     0.019 A 
ATOM     15  C   UNL d   1      -1.279  -5.836  -2.705  0.00  0.00     0.047 A 
ATOM     16 CL   UNL d   1      -1.591  -4.355  -3.545  0.00  0.00    -0.083 Cl
ATOM     17  C   UNL d   1      -1.874  -6.989  -3.239  0.00  0.00     0.025 A 
ATOM     18  C   UNL d   1      -1.657  -8.236  -2.654  0.00  0.00     0.002 A 
ATOM     19  C   UNL d   1      -0.851  -8.336  -1.526  0.00  0.00     0.001 A 
ATOM     20  C   UNL d   1      -0.263  -7.189  -0.986  0.00  0.00     0.016 A 
ENDBRANCH  10  14
ENDBRANCH   1   8
BRANCH   2  21
ATOM     21  C   UNL d   1      -2.589  -1.603   0.178  0.00  0.00     0.037 A 
ATOM     22  C   UNL d   1      -2.840  -2.710   1.009  0.00  0.00     0.048 A 
ATOM     23 CL   UNL d   1      -1.753  -3.221   2.263  0.00  0.00    -0.083 Cl
ATOM     24  C   UNL d   1      -4.033  -3.441   0.892  0.00  0.00     0.025 A 
ATOM     25  C   UNL d   1      -5.013  -3.053  -0.017  0.00  0.00     0.003 A 
ATOM     26  C   UNL d   1      -4.803  -1.933  -0.813  0.00  0.00     0.025 A 
ATOM     27  C   UNL d   1      -3.600  -1.218  -0.729  0.00  0.00     0.048 A 
ATOM     28 CL   UNL d   1      -3.437   0.124  -1.815  0.00  0.00    -0.083 Cl
ENDBRANCH   2  21
TORSDOF 3
