REMARK  7 active torsions:
REMARK  status: ('A' for Active; 'I' for Inactive)
REMARK    1  A    between atoms: N_3  and  C_1 
REMARK    2  A    between atoms: N_5  and  C_2 
REMARK    3  A    between atoms: C_6  and  C_9 
REMARK    4  A    between atoms: C_7  and  C_8 
REMARK    5  A    between atoms: O_19  and  C_7 
REMARK    6  A    between atoms: O_22  and  C_12 
REMARK    7  A    between atoms: C_27  and  O_19 
ROOT
ATOM      1  C   UNL d   1       1.430  -0.162   0.197  0.00  0.00     0.059 A 
ATOM      2  C   UNL d   1       0.626  -1.326   0.047  0.00  0.00     0.057 A 
ATOM      3  C   UNL d   1      -0.563   1.251   0.154  0.00  0.00     0.041 A 
ATOM      4  C   UNL d   1       0.822   1.104   0.204  0.00  0.00     0.049 A 
ATOM      5  C   UNL d   1      -0.770  -1.151  -0.041  0.00  0.00     0.033 A 
ATOM      6  C   UNL d   1      -1.362   0.117   0.023  0.00  0.00     0.020 A 
ENDROOT
BRANCH   1   7
ATOM      7  N   UNL d   1       2.845  -0.250   0.228  0.00  0.00    -0.363 N 
ATOM      8  C   UNL d   1       3.481   0.524   1.052  0.00  0.00     0.102 C 
ATOM      9  HN  UNL d   1       3.346  -0.899  -0.378  1.00  0.00     0.165 HD
BRANCH   8  10
ATOM     10  C   UNL d   1       4.949   0.596   1.047  0.00  0.00     0.014 A 
ATOM     11  C   UNL d   1       5.732  -0.370   0.407  0.00  0.00     0.077 A 
ATOM     12  C   UNL d   1       7.117  -0.243   0.386  0.00  0.00     0.039 A 
ATOM     13  C   UNL d   1       7.723   0.864   0.985  0.00  0.00     0.022 A 
ATOM     14  C   UNL d   1       6.938   1.831   1.614  0.00  0.00     0.011 A 
ATOM     15  C   UNL d   1       5.551   1.699   1.661  0.00  0.00     0.034 A 
ATOM     16 BR   UNL d   1       7.757   3.348   2.390  0.00  0.00    -0.051 Br
BRANCH  11  17
ATOM     17  O   UNL d   1       5.192  -1.459  -0.221  0.00  0.00    -0.360 OA
ATOM     18  H   UNL d   1       4.217  -1.315  -0.274  0.00  0.00     0.217 HD
ENDBRANCH  11  17
ENDBRANCH   8  10
ENDBRANCH   1   7
BRANCH   2  19
ATOM     19  N   UNL d   1       1.213  -2.598  -0.057  0.00  0.00    -0.375 N 
ATOM     20  C   UNL d   1       0.489  -3.671  -0.765  0.00  0.00     0.149 C 
ATOM     21  C   UNL d   1       1.469  -4.815  -1.071  0.00  0.00     0.187 C 
ATOM     22  O   UNL d   1       2.068  -5.322   0.134  0.00  0.00    -0.388 OA
ATOM     23  C   UNL d   1       2.789  -4.272   0.807  0.00  0.00     0.187 C 
ATOM     24  C   UNL d   1       1.866  -3.097   1.173  0.00  0.00     0.149 C 
ENDBRANCH   2  19
BRANCH   3  25
ATOM     25  C   UNL d   1      -1.103   2.622   0.332  0.00  0.00     0.293 C 
ATOM     26  O   UNL d   1      -0.398   3.608   0.462  0.00  0.00    -0.259 OA
BRANCH  25  27
ATOM     27  O   UNL d   1      -2.450   2.574   0.475  0.00  0.00    -0.318 OA
BRANCH  27  28
ATOM     28  C   UNL d   1      -3.032   3.722   1.105  0.00  0.00     0.174 C 
ATOM     29  C   UNL d   1      -3.074   3.460   2.600  0.00  0.00     0.034 C 
ENDBRANCH  27  28
ENDBRANCH  25  27
ENDBRANCH   3  25
TORSDOF 7
