REMARK  8 active torsions:
REMARK  status: ('A' for Active; 'I' for Inactive)
REMARK    1  A    between atoms: C_2  and  S_1 
REMARK    2  A    between atoms: N_3  and  S_1 
REMARK       I    between atoms: C_6  and  N_12 
REMARK    3  A    between atoms: C_18  and  C_6 
REMARK    4  A    between atoms: C_21  and  C_7 
REMARK    5  A    between atoms: C_8  and  C_15 
REMARK    6  A    between atoms: O_22  and  C_8 
REMARK    7  A    between atoms: N_12  and  C_21 
REMARK    8  A    between atoms: C_25  and  O_22 
ROOT
ATOM      1  C   UNL d   1       0.543  -1.651  -0.364  0.00  0.00     0.115 A 
ATOM      2  S   UNL d   1      -0.940  -2.068  -1.108  0.00  0.00    -0.080 SA
ATOM      3  C   UNL d   1       1.291  -2.776  -0.070  0.00  0.00     0.033 A 
ATOM      4  C   UNL d   1      -0.601  -3.745  -1.019  0.00  0.00     0.002 A 
ATOM      5  C   UNL d   1       0.627  -3.981  -0.434  0.00  0.00     0.018 A 
ENDROOT
BRANCH   1   6
ATOM      6  S   UNL d   1       0.860   0.086  -0.060  0.00  0.00     0.250 S 
ATOM      7  O   UNL d   1       0.125   0.830  -1.058  0.00  0.00    -0.205 OA
ATOM      8  O   UNL d   1       2.305   0.165   0.029  0.00  0.00    -0.205 OA
BRANCH   6   9
ATOM      9  N   UNL d   1       0.220   0.456   1.494  0.00  0.00    -0.206 NA
ATOM     10  C   UNL d   1      -1.263   0.479   1.548  0.00  0.00     0.108 C 
ATOM     11  C   UNL d   1      -1.746   0.987   2.904  0.00  0.00     0.030 C 
ATOM     12  C   UNL d   1      -1.129   0.204   4.064  0.00  0.00     0.088 C 
ATOM     13  C   UNL d   1       0.393   0.235   3.953  0.00  0.00     0.030 C 
ATOM     14  C   UNL d   1       0.867  -0.290   2.603  0.00  0.00     0.108 C 
BRANCH  12  15
ATOM     15  C   UNL d   1      -1.682  -1.211   4.132  0.00  0.00     0.263 C 
ATOM     16  O   UNL d   1      -2.523  -1.669   3.370  0.00  0.00    -0.265 OA
BRANCH  15  17
ATOM     17  O   UNL d   1      -1.189  -1.854   5.226  0.00  0.00    -0.322 OA
BRANCH  17  18
ATOM     18  C   UNL d   1      -1.921  -3.023   5.625  0.00  0.00     0.174 C 
ATOM     19  C   UNL d   1      -3.054  -2.579   6.533  0.00  0.00     0.034 C 
ENDBRANCH  17  18
ENDBRANCH  15  17
ENDBRANCH  12  15
ENDBRANCH   6   9
ENDBRANCH   1   6
BRANCH   4  20
ATOM     20  C   UNL d   1      -1.566  -4.750  -1.564  0.00  0.00     0.169 C 
BRANCH  20  21
ATOM     21  N   UNL d   1      -2.490  -5.147  -0.525  0.00  0.00    -0.352 N 
ATOM     22  C   UNL d   1      -2.258  -6.249   0.267  0.00  0.00     0.251 C 
ATOM     23  O   UNL d   1      -1.250  -6.943   0.184  0.00  0.00    -0.268 OA
ATOM     24  H   UNL d   1      -3.210  -4.489  -0.264  0.00  0.00     0.163 HD
BRANCH  22  25
ATOM     25  C   UNL d   1      -3.307  -6.577   1.273  0.00  0.00     0.032 A 
ATOM     26  C   UNL d   1      -4.659  -6.274   1.057  0.00  0.00     0.017 A 
ATOM     27  C   UNL d   1      -5.618  -6.639   2.005  0.00  0.00     0.001 A 
ATOM     28  C   UNL d   1      -5.234  -7.307   3.169  0.00  0.00     0.000 A 
ATOM     29  C   UNL d   1      -3.891  -7.617   3.385  0.00  0.00     0.001 A 
ATOM     30  C   UNL d   1      -2.933  -7.258   2.436  0.00  0.00     0.017 A 
ENDBRANCH  22  25
ENDBRANCH  20  21
ENDBRANCH   4  20
TORSDOF 8
