REMARK  6 active torsions:
REMARK  status: ('A' for Active; 'I' for Inactive)
REMARK    1  A    between atoms: N_2  and  C_1 
REMARK       I    between atoms: C_4  and  N_2 
REMARK    2  A    between atoms: C_18  and  C_4 
REMARK    3  A    between atoms: O_15  and  C_5 
REMARK    4  A    between atoms: S_9  and  C_18 
REMARK    5  A    between atoms: C_21  and  S_9 
REMARK    6  A    between atoms: C_13  and  C_21 
ROOT
ATOM      1  N   UNL d   1       2.199   2.609  -0.040  0.00  0.00    -0.324 N 
ATOM      2  C   UNL d   1       1.538   3.833  -0.045  0.00  0.00     0.231 C 
ATOM      3  O   UNL d   1       0.330   4.018  -0.144  0.00  0.00    -0.272 OA
ATOM      4  H   UNL d   1       3.182   2.694   0.152  0.00  0.00     0.169 HD
ENDROOT
BRANCH   2   5
ATOM      5  C   UNL d   1       2.501   5.019   0.072  0.00  0.00     0.177 C 
BRANCH   5   6
ATOM      6  S   UNL d   1       3.534   4.800   1.562  0.00  0.00    -0.155 SA
BRANCH   6   7
ATOM      7  C   UNL d   1       4.513   6.335   1.522  0.00  0.00     0.112 C 
BRANCH   7   8
ATOM      8  C   UNL d   1       5.419   6.372   2.731  0.00  0.00    -0.049 A 
ATOM      9  C   UNL d   1       6.676   5.745   2.704  0.00  0.00     0.009 A 
ATOM     10  C   UNL d   1       7.471   5.696   3.852  0.00  0.00     0.024 A 
ATOM     11  C   UNL d   1       7.016   6.272   5.035  0.00  0.00     0.034 A 
ATOM     12  C   UNL d   1       5.774   6.901   5.081  0.00  0.00     0.024 A 
ATOM     13 CL   UNL d   1       7.987   6.193   6.454  0.00  0.00    -0.084 Cl
ATOM     14  C   UNL d   1       4.978   6.949   3.934  0.00  0.00     0.009 A 
ENDBRANCH   7   8
ENDBRANCH   6   7
ENDBRANCH   5   6
ENDBRANCH   2   5
BRANCH   1  15
ATOM     15  C   UNL d   1       1.645   1.306  -0.022  0.00  0.00     0.070 A 
ATOM     16  C   UNL d   1       0.291   1.122  -0.365  0.00  0.00     0.056 A 
ATOM     17  C   UNL d   1      -0.301  -0.144  -0.354  0.00  0.00     0.036 A 
ATOM     18 CL   UNL d   1      -1.955  -0.321  -0.792  0.00  0.00    -0.084 Cl
ATOM     19  C   UNL d   1       0.437  -1.258   0.000  0.00  0.00     0.026 A 
ATOM     20  C   UNL d   1       1.779  -1.102   0.330  0.00  0.00     0.041 A 
ATOM     21  C   UNL d   1       2.404   0.163   0.318  0.00  0.00     0.095 A 
BRANCH  21  22
ATOM     22  O   UNL d   1       3.717   0.013   0.671  0.00  0.00    -0.354 OA
ATOM     23  C   UNL d   1       4.590   1.100   0.892  0.00  0.00     0.210 C 
ENDBRANCH  21  22
ENDBRANCH   1  15
TORSDOF 6
