REMARK  6 active torsions:
REMARK  status: ('A' for Active; 'I' for Inactive)
REMARK    1  A    between atoms: C_3  and  C_1 
REMARK    2  A    between atoms: C_11  and  N_2 
REMARK    3  A    between atoms: C_6  and  C_10 
REMARK    4  A    between atoms: S_9  and  C_6 
REMARK    5  A    between atoms: C_19  and  S_9 
REMARK    6  A    between atoms: C_15  and  C_11 
ROOT
ATOM      1  C   UNL d   1      -3.737   3.440  -1.184  0.00  0.00     0.022 A 
ATOM      2  C   UNL d   1      -3.208   2.139  -1.265  0.00  0.00     0.024 A 
ATOM      3  C   UNL d   1      -3.356   1.230  -0.206  0.00  0.00    -0.039 A 
ATOM      4  C   UNL d   1      -4.390   3.839  -0.011  0.00  0.00     0.016 A 
ATOM      5  C   UNL d   1      -4.553   2.935   1.042  0.00  0.00     0.002 A 
ATOM      6  C   UNL d   1      -4.050   1.638   0.940  0.00  0.00     0.009 A 
ENDROOT
BRANCH   3   7
ATOM      7  C   UNL d   1      -2.760  -0.158  -0.285  0.00  0.00     0.170 C 
BRANCH   7   8
ATOM      8  N   UNL d   1      -1.464  -0.261   0.392  0.00  0.00    -0.320 N 
ATOM      9  C   UNL d   1      -0.299   0.005  -0.317  0.00  0.00     0.110 A 
ATOM     10  C   UNL d   1       0.919  -0.141   0.235  0.00  0.00     0.063 A 
ATOM     11  C   UNL d   1       1.006  -0.561   1.624  0.00  0.00     0.023 A 
ATOM     12  C   UNL d   1      -0.098  -0.809   2.339  0.00  0.00     0.075 A 
ATOM     13  C   UNL d   1      -1.446  -0.670   1.724  0.00  0.00     0.247 A 
ATOM     14  O   UNL d   1      -2.437  -0.930   2.398  0.00  0.00    -0.268 OA
BRANCH  10  15
ATOM     15  C   UNL d   1       2.181   0.075  -0.552  0.00  0.00     0.418 C 
ATOM     16  F   UNL d   1       3.301  -0.278   0.131  0.00  0.00    -0.166 F 
ATOM     17  F   UNL d   1       2.181  -0.654  -1.699  0.00  0.00    -0.166 F 
ATOM     18  F   UNL d   1       2.334   1.374  -0.913  0.00  0.00    -0.166 F 
ENDBRANCH  10  15
ENDBRANCH   7   8
ENDBRANCH   3   7
BRANCH   1  19
ATOM     19  C   UNL d   1      -3.553   4.334  -2.364  0.00  0.00     0.224 C 
ATOM     20  O   UNL d   1      -2.657   4.107  -3.171  0.00  0.00    -0.279 OA
BRANCH  19  21
ATOM     21  S   UNL d   1      -4.653   5.685  -2.568  0.00  0.00    -0.048 SA
BRANCH  21  22
ATOM     22  C   UNL d   1      -5.378   5.465  -4.188  0.00  0.00     0.008 A 
ATOM     23  C   UNL d   1      -5.142   4.373  -5.032  0.00  0.00     0.021 A 
ATOM     24  C   UNL d   1      -5.797   4.265  -6.266  0.00  0.00     0.025 A 
ATOM     25  C   UNL d   1      -6.699   5.247  -6.665  0.00  0.00     0.034 A 
ATOM     26  C   UNL d   1      -6.938   6.347  -5.848  0.00  0.00     0.025 A 
ATOM     27 CL   UNL d   1      -7.525   5.097  -8.165  0.00  0.00    -0.084 Cl
ATOM     28  C   UNL d   1      -6.279   6.453  -4.618  0.00  0.00     0.021 A 
ENDBRANCH  21  22
ENDBRANCH  19  21
ENDBRANCH   1  19
TORSDOF 6
