REMARK  4 active torsions:
REMARK  status: ('A' for Active; 'I' for Inactive)
REMARK    1  A    between atoms: C_7  and  C_1 
REMARK    2  A    between atoms: C_8  and  C_4 
REMARK    3  A    between atoms: O_12  and  C_7 
REMARK    4  A    between atoms: C_17  and  O_12 
ROOT
ATOM      1  C   UNL d   1       1.326   0.782   0.054  0.00  0.00     0.115 A 
ATOM      2  N   UNL d   1       1.434  -0.611   0.075  0.00  0.00    -0.345 N 
ATOM      3  HN  UNL d   1       2.314  -1.123   0.131  1.00  0.00     0.167 HD
ATOM      4  C   UNL d   1       0.243  -1.172   0.015  0.00  0.00     0.085 A 
ATOM      5  S   UNL d   1      -1.076  -0.061   0.021  0.00  0.00    -0.081 SA
ATOM      6  C   UNL d   1       0.022   1.246   0.046  0.00  0.00     0.087 A 
ENDROOT
BRANCH   4   7
ATOM      7  C   UNL d   1       0.014  -2.624  -0.020  0.00  0.00     0.000 A 
ATOM      8  C   UNL d   1       0.918  -3.476   0.621  0.00  0.00     0.031 A 
ATOM      9  C   UNL d   1       0.692  -4.842   0.584  0.00  0.00     0.088 A 
ATOM     10  N   UNL d   1      -0.354  -5.411  -0.050  0.00  0.00    -0.375 N 
ATOM     11  C   UNL d   1      -1.206  -4.579  -0.682  0.00  0.00     0.088 A 
ATOM     12  HN  UNL d   1      -0.494  -6.421  -0.052  1.00  0.00     0.164 HD
ATOM     13  C   UNL d   1      -1.067  -3.200  -0.698  0.00  0.00     0.031 A 
ENDBRANCH   4   7
BRANCH   1  14
ATOM     14  C   UNL d   1       2.487   1.671  -0.032  0.00  0.00     0.310 C 
ATOM     15  O   UNL d   1       2.389   2.888  -0.115  0.00  0.00    -0.258 OA
BRANCH  14  16
ATOM     16  O   UNL d   1       3.661   0.980  -0.116  0.00  0.00    -0.317 OA
BRANCH  16  17
ATOM     17  C   UNL d   1       4.761   1.710  -0.671  0.00  0.00     0.175 C 
ATOM     18  C   UNL d   1       4.717   1.554  -2.181  0.00  0.00     0.034 C 
ENDBRANCH  16  17
ENDBRANCH  14  16
ENDBRANCH   1  14
TORSDOF 4
