REMARK  6 active torsions:
REMARK  status: ('A' for Active; 'I' for Inactive)
REMARK    1  A    between atoms: C_10  and  C_1 
REMARK    2  A    between atoms: C_2  and  N_11 
REMARK    3  A    between atoms: C_18  and  N_3 
REMARK    4  A    between atoms: C_24  and  C_4 
REMARK    5  A    between atoms: C_15  and  C_9 
REMARK       I    between atoms: N_11  and  C_10 
REMARK    6  A    between atoms: C_29  and  C_24 
ROOT
ATOM      1  C   UNL d   1      -0.464   2.805  -0.259  0.00  0.00     0.261 C 
ATOM      2  N   UNL d   1       0.687   3.555  -0.186  0.00  0.00    -0.303 N 
ATOM      3  O   UNL d   1      -1.579   3.264  -0.473  0.00  0.00    -0.267 OA
ATOM      4  H   UNL d   1       1.565   3.145   0.083  0.00  0.00     0.171 HD
ENDROOT
BRANCH   1   5
ATOM      5  C   UNL d   1      -0.267   1.358  -0.038  0.00  0.00     0.073 A 
ATOM      6  C   UNL d   1      -1.269   0.395   0.119  0.00  0.00     0.051 A 
ATOM      7  N   UNL d   1      -0.637  -0.840   0.311  0.00  0.00    -0.260 N 
ATOM      8  N   UNL d   1       0.713  -0.698   0.188  0.00  0.00    -0.304 N 
ATOM      9  C   UNL d   1       0.921   0.603   0.005  0.00  0.00     0.126 A 
ATOM     10  HN  UNL d   1       1.417  -1.435   0.227  1.00  0.00     0.186 HD
BRANCH   6  11
ATOM     11  C   UNL d   1      -2.749   0.608   0.030  0.00  0.00     0.060 C 
BRANCH  11  12
ATOM     12  C   UNL d   1      -3.327   1.072   1.370  0.00  0.00     0.002 C 
ATOM     13  C   UNL d   1      -4.841   1.162   1.310  0.00  0.00     0.005 C 
ENDBRANCH  11  12
ENDBRANCH   6  11
BRANCH   7  14
ATOM     14  C   UNL d   1      -1.167  -2.153   0.569  0.00  0.00     0.056 A 
ATOM     15  C   UNL d   1      -2.482  -2.381   0.993  0.00  0.00     0.031 A 
ATOM     16  C   UNL d   1      -2.974  -3.679   1.169  0.00  0.00     0.002 A 
ATOM     17  C   UNL d   1      -2.147  -4.775   0.948  0.00  0.00     0.000 A 
ATOM     18  C   UNL d   1      -0.826  -4.574   0.576  0.00  0.00     0.002 A 
ATOM     19  C   UNL d   1      -0.332  -3.272   0.394  0.00  0.00     0.031 A 
ENDBRANCH   7  14
ENDBRANCH   1   5
BRANCH   2  20
ATOM     20  C   UNL d   1       0.717   4.897  -0.462  0.00  0.00     0.152 A 
ATOM     21  N   UNL d   1      -0.216   5.709  -0.880  0.00  0.00    -0.335 N 
ATOM     22  C   UNL d   1       0.307   6.988  -1.126  0.00  0.00     0.057 A 
ATOM     23  HN  UNL d   1      -1.194   5.449  -1.011  1.00  0.00     0.168 HD
ATOM     24  C   UNL d   1       1.667   7.095  -0.837  0.00  0.00     0.010 A 
ATOM     25  S   UNL d   1       2.258   5.579  -0.259  0.00  0.00    -0.057 SA
ATOM     26  C   UNL d   1       2.650   8.208  -0.966  0.00  0.00     0.059 C 
BRANCH  22  27
ATOM     27  C   UNL d   1      -0.570   8.024  -1.716  0.00  0.00    -0.007 A 
ATOM     28  C   UNL d   1      -0.155   9.330  -2.009  0.00  0.00     0.038 A 
ATOM     29  C   UNL d   1      -0.988  10.235  -2.685  0.00  0.00     0.040 A 
ATOM     30 CL   UNL d   1      -0.339  11.798  -3.052  0.00  0.00    -0.084 Cl
ATOM     31  C   UNL d   1      -2.281   9.874  -3.071  0.00  0.00    -0.040 A 
ATOM     32  C   UNL d   1      -2.732   8.595  -2.729  0.00  0.00     0.009 A 
ATOM     33  C   UNL d   1      -3.160  10.795  -3.871  0.00  0.00     0.050 C 
ATOM     34  C   UNL d   1      -1.889   7.689  -2.062  0.00  0.00     0.014 A 
ENDBRANCH  22  27
ENDBRANCH   2  20
TORSDOF 6
