REMARK  7 active torsions:
REMARK  status: ('A' for Active; 'I' for Inactive)
REMARK    1  A    between atoms: N_3  and  C_1 
REMARK       I    between atoms: C_2  and  N_9 
REMARK    2  A    between atoms: O_5  and  C_2 
REMARK    3  A    between atoms: C_10  and  N_3 
REMARK    4  A    between atoms: C_7  and  O_5 
REMARK    5  A    between atoms: C_12  and  N_8 
REMARK    6  A    between atoms: N_9  and  C_11 
REMARK    7  A    between atoms: C_11  and  C_12 
ROOT
ATOM      1  C   UNL d   1       0.895  -0.108   0.347  0.00  0.00     0.167 C 
ATOM      2  S   UNL d   1       0.273   1.423   0.598  0.00  0.00    -0.041 SA
ATOM      3  N   UNL d   1       2.185  -0.324   0.735  0.00  0.00    -0.366 N 
ATOM      4  H   UNL d   1       2.580   0.481   1.215  0.00  0.00     0.161 HD
ENDROOT
BRANCH   3   5
ATOM      5  C   UNL d   1       3.190  -1.089   0.000  0.00  0.00     0.141 C 
BRANCH   5   6
ATOM      6  C   UNL d   1       4.182  -0.151  -0.719  0.00  0.00     0.144 C 
BRANCH   6   7
ATOM      7  N   UNL d   1       4.785   0.846   0.159  0.00  0.00    -0.335 N 
ATOM      8  C   UNL d   1       5.698   0.529   1.117  0.00  0.00     0.361 C 
ATOM      9  O   UNL d   1       6.064  -0.607   1.373  0.00  0.00    -0.238 OA
ATOM     10  H   UNL d   1       4.673   1.830  -0.043  0.00  0.00     0.164 HD
BRANCH   8  11
ATOM     11  O   UNL d   1       6.150   1.664   1.710  0.00  0.00    -0.294 OA
BRANCH  11  12
ATOM     12  C   UNL d   1       7.153   1.605   2.760  0.00  0.00     0.061 C 
ATOM     13  C   UNL d   1       8.448   0.946   2.268  0.00  0.00     0.046 C 
ATOM     14  C   UNL d   1       7.440   3.075   3.126  0.00  0.00     0.046 C 
ATOM     15  C   UNL d   1       6.600   0.890   3.999  0.00  0.00     0.046 C 
ENDBRANCH  11  12
ENDBRANCH   8  11
ENDBRANCH   6   7
ENDBRANCH   5   6
ENDBRANCH   3   5
BRANCH   1  16
ATOM     16  N   UNL d   1       0.259  -1.176  -0.225  0.00  0.00    -0.363 N 
ATOM     17  H   UNL d   1       0.578  -2.079   0.106  0.00  0.00     0.162 HD
BRANCH  16  18
ATOM     18  C   UNL d   1      -1.058  -1.139  -0.894  0.00  0.00     0.083 C 
ATOM     19  C   UNL d   1      -2.229  -1.125   0.118  0.00  0.00     0.025 C 
ATOM     20  C   UNL d   1      -3.014  -2.422   0.344  0.00  0.00     0.002 C 
ATOM     21  C   UNL d   1      -4.315  -2.522  -0.459  0.00  0.00     0.000 C 
ATOM     22  C   UNL d   1      -4.185  -2.778  -1.960  0.00  0.00     0.000 C 
ATOM     23  C   UNL d   1      -3.546  -1.645  -2.760  0.00  0.00     0.000 C 
ATOM     24  C   UNL d   1      -2.079  -1.870  -3.126  0.00  0.00     0.002 C 
ATOM     25  C   UNL d   1      -1.120  -2.217  -1.986  0.00  0.00     0.025 C 
ENDBRANCH  16  18
ENDBRANCH   1  16
TORSDOF 7
