REMARK  11 active torsions:
REMARK  status: ('A' for Active; 'I' for Inactive)
REMARK    1  A    between atoms: C_6  and  N_1 
REMARK    2  A    between atoms: C_11  and  C_6 
REMARK    3  A    between atoms: C_13  and  C_11 
REMARK    4  A    between atoms: O_22  and  C_11 
REMARK    5  A    between atoms: N_12  and  C_13 
REMARK    6  A    between atoms: C_18  and  N_12 
REMARK    7  A    between atoms: C_19  and  N_12 
REMARK    8  A    between atoms: C_23  and  C_18 
REMARK    9  A    between atoms: C_24  and  C_19 
REMARK   10  A    between atoms: C_25  and  C_23 
REMARK   11  A    between atoms: C_26  and  C_24 
ROOT
ATOM      1  C   UNL d   1       0.869  -6.417   0.752  0.00  0.00     0.163 C 
ENDROOT
BRANCH   1   2
ATOM      2  N   UNL d   1      -0.330  -6.709   1.531  0.00  0.00    -0.343 N 
ATOM      3  C   UNL d   1      -1.614  -6.839   1.021  0.00  0.00     0.046 A 
ATOM      4  C   UNL d   1      -2.442  -7.224   2.080  0.00  0.00     0.005 A 
ATOM      5  C   UNL d   1      -2.129  -6.691  -0.283  0.00  0.00     0.032 A 
ATOM      6  C   UNL d   1      -3.823  -7.422   1.853  0.00  0.00     0.033 A 
ATOM      7  C   UNL d   1      -1.613  -7.417   3.223  0.00  0.00     0.005 A 
ATOM      8  C   UNL d   1      -4.330  -7.281   0.564  0.00  0.00     0.011 A 
ATOM      9  C   UNL d   1      -3.495  -6.934  -0.494  0.00  0.00     0.021 A 
ATOM     10 BR   UNL d   1      -6.168  -7.605   0.249  0.00  0.00    -0.051 Br
ATOM     11  C   UNL d   1      -0.303  -7.110   2.859  0.00  0.00     0.046 A 
ATOM     12  C   UNL d   1      -1.874  -7.893   4.528  0.00  0.00     0.033 A 
ATOM     13  C   UNL d   1       0.766  -7.261   3.757  0.00  0.00     0.032 A 
ATOM     14  C   UNL d   1       0.492  -7.759   5.033  0.00  0.00     0.021 A 
ATOM     15  C   UNL d   1      -0.806  -8.075   5.408  0.00  0.00     0.011 A 
ATOM     16 BR   UNL d   1      -1.133  -8.808   7.122  0.00  0.00    -0.051 Br
ENDBRANCH   1   2
BRANCH   1  17
ATOM     17  C   UNL d   1       1.243  -4.934   0.601  0.00  0.00     0.164 C 
BRANCH  17  18
ATOM     18  C   UNL d   1       1.900  -4.238   1.835  0.00  0.00     0.305 C 
BRANCH  18  19
ATOM     19  N   UNL d   1       2.253  -2.812   1.606  0.00  0.00     0.091 N 
BRANCH  19  20
ATOM     20  C   UNL d   1       1.206  -1.995   0.944  0.00  0.00     0.273 C 
BRANCH  20  21
ATOM     21  C   UNL d   1      -0.071  -1.519   1.688  0.00  0.00     0.034 C 
BRANCH  21  22
ATOM     22  C   UNL d   1      -1.229  -2.519   1.917  0.00  0.00    -0.021 C 
ATOM     23  C   UNL d   1      -1.181  -3.225   3.273  0.00  0.00     0.009 C 
ATOM     24  C   UNL d   1      -2.571  -1.770   1.845  0.00  0.00     0.009 C 
ENDBRANCH  21  22
ENDBRANCH  20  21
ENDBRANCH  19  20
BRANCH  19  25
ATOM     25  C   UNL d   1       2.754  -2.084   2.795  0.00  0.00     0.273 C 
BRANCH  25  26
ATOM     26  C   UNL d   1       3.859  -2.663   3.695  0.00  0.00     0.034 C 
BRANCH  26  27
ATOM     27  C   UNL d   1       5.311  -2.706   3.179  0.00  0.00    -0.021 C 
ATOM     28  C   UNL d   1       5.834  -1.358   2.675  0.00  0.00     0.009 C 
ATOM     29  C   UNL d   1       6.222  -3.173   4.328  0.00  0.00     0.009 C 
ENDBRANCH  26  27
ENDBRANCH  25  26
ENDBRANCH  19  25
ENDBRANCH  18  19
ENDBRANCH  17  18
BRANCH  17  30
ATOM     30  O   UNL d   1       2.175  -4.833  -0.495  0.00  0.00    -0.392 OA
ATOM     31  H   UNL d   1       2.643  -3.982  -0.363  0.00  0.00     0.210 HD
ENDBRANCH  17  30
ENDBRANCH   1  17
TORSDOF 11
