REMARK  3 active torsions:
REMARK  status: ('A' for Active; 'I' for Inactive)
REMARK    1  A    between atoms: N_7  and  C_2 
REMARK    2  A    between atoms: N_11  and  N_8 
REMARK    3  A    between atoms: C_9  and  C_10 
REMARK       I    between atoms: C_10  and  N_11 
ROOT
ATOM      1  C   UNL d   1       0.533  -1.410  -0.115  0.00  0.00     0.172 A 
ATOM      2  C   UNL d   1      -0.621  -1.184   0.618  0.00  0.00     0.173 A 
ATOM      3  N   UNL d   1       0.691  -0.260  -0.864  0.00  0.00    -0.278 N 
ATOM      4  N   UNL d   1      -0.284   0.656  -0.668  0.00  0.00    -0.299 N 
ATOM      5  HN  UNL d   1      -0.385   1.569  -1.113  1.00  0.00     0.187 HD
ATOM      6  C   UNL d   1      -1.089   0.094   0.245  0.00  0.00     0.059 A 
ATOM      7  N   UNL d   1       1.400  -2.451  -0.190  0.00  0.00    -0.279 N 
ATOM      8  C   UNL d   1      -2.310   0.815   0.689  0.00  0.00     0.072 C 
ATOM      9  C   UNL d   1       1.683   0.033  -1.873  0.00  0.00     0.179 C 
ATOM     10  H   UNL d   1       2.354  -2.389  -0.564  0.00  0.00     0.189 HD
ENDROOT
BRANCH   7  11
ATOM     11  N   UNL d   1       1.102  -3.713   0.325  0.00  0.00    -0.264 N 
ATOM     12  C   UNL d   1       2.087  -4.681   0.240  0.00  0.00     0.273 C 
ATOM     13  O   UNL d   1       3.254  -4.440  -0.051  0.00  0.00    -0.266 OA
ATOM     14  H   UNL d   1       0.115  -3.982   0.320  0.00  0.00     0.190 HD
BRANCH  12  15
ATOM     15  C   UNL d   1       1.629  -6.066   0.502  0.00  0.00     0.077 A 
ATOM     16  C   UNL d   1       0.596  -6.638  -0.260  0.00  0.00     0.051 A 
ATOM     17 CL   UNL d   1      -0.193  -5.805  -1.554  0.00  0.00    -0.083 Cl
ATOM     18  C   UNL d   1       0.172  -7.947  -0.007  0.00  0.00     0.025 A 
ATOM     19  C   UNL d   1       0.778  -8.701   0.996  0.00  0.00     0.003 A 
ATOM     20  C   UNL d   1       1.809  -8.147   1.747  0.00  0.00     0.025 A 
ATOM     21  C   UNL d   1       2.238  -6.831   1.508  0.00  0.00     0.051 A 
ATOM     22 CL   UNL d   1       3.481  -6.212   2.536  0.00  0.00    -0.083 Cl
ENDBRANCH  12  15
ENDBRANCH   7  11
BRANCH   2  23
ATOM     23  N   UNL d   1      -1.211  -2.062   1.571  0.00  0.00    -0.110 N 
ATOM     24  O   UNL d   1      -1.453  -3.220   1.200  0.00  0.00    -0.532 OA
ATOM     25  O   UNL d   1      -1.453  -1.593   2.690  0.00  0.00    -0.532 OA
ENDBRANCH   2  23
TORSDOF 3
