REMARK  3 active torsions:
REMARK  status: ('A' for Active; 'I' for Inactive)
REMARK    1  A    between atoms: S_12  and  C_2 
REMARK    2  A    between atoms: C_14  and  C_6 
REMARK    3  A    between atoms: C_16  and  C_14 
ROOT
ATOM      1  C   UNL d   1      -0.728   1.270   0.029  0.00  0.00     0.084 A 
ATOM      2  C   UNL d   1      -1.429   0.068   0.027  0.00  0.00     0.088 A 
ATOM      3  N   UNL d   1      -0.796  -1.124   0.029  0.00  0.00    -0.353 N 
ATOM      4  HN  UNL d   1      -1.339  -1.988   0.036  1.00  0.00     0.166 HD
ATOM      5  C   UNL d   1       0.689   1.237   0.022  0.00  0.00    -0.030 A 
ATOM      6  C   UNL d   1       1.357  -0.020   0.006  0.00  0.00    -0.028 A 
ATOM      7  C   UNL d   1       0.558  -1.177   0.021  0.00  0.00     0.013 A 
ATOM      8  C   UNL d   1      -1.442   2.510   0.024  0.00  0.00     0.103 C 
ATOM      9  N   UNL d   1      -2.033   3.510   0.016  0.00  0.00    -0.191 NA
ATOM     10  C   UNL d   1       1.484   2.526   0.004  0.00  0.00     0.050 C 
ATOM     11  C   UNL d   1       1.075  -2.587   0.009  0.00  0.00     0.068 C 
ENDROOT
BRANCH   2  12
ATOM     12  S   UNL d   1      -3.207  -0.090   0.010  0.00  0.00    -0.124 SA
ATOM     13  H   UNL d   1      -3.537   1.208  -0.008  0.00  0.00     0.108 HD
ENDBRANCH   2  12
BRANCH   6  14
ATOM     14  C   UNL d   1       2.875  -0.096  -0.052  0.00  0.00     0.055 C 
BRANCH  14  15
ATOM     15  C   UNL d   1       3.595   0.017   1.295  0.00  0.00     0.128 C 
ATOM     16  C   UNL d   1       3.400  -1.163   2.143  0.00  0.00     0.059 C 
ATOM     17  N   UNL d   1       3.254  -2.101   2.808  0.00  0.00    -0.197 NA
ENDBRANCH  14  15
ENDBRANCH   6  14
TORSDOF 3
