REMARK  4 active torsions:
REMARK  status: ('A' for Active; 'I' for Inactive)
REMARK    1  A    between atoms: C_18  and  N_1 
REMARK    2  A    between atoms: N_21  and  C_7 
REMARK    3  A    between atoms: N_14  and  N_21 
REMARK    4  A    between atoms: C_25  and  C_24 
ROOT
ATOM      1  N   UNL d   1      -1.559  -1.141  -0.018  0.00  0.00    -0.239 N 
ATOM      2  C   UNL d   1      -0.249  -0.666   0.051  0.00  0.00     0.143 A 
ATOM      3  N   UNL d   1      -2.456  -0.106  -0.072  0.00  0.00    -0.302 N 
ATOM      4  HN  UNL d   1      -3.470  -0.163  -0.169  1.00  0.00     0.186 HD
ATOM      5  C   UNL d   1      -0.337   0.715   0.124  0.00  0.00     0.072 A 
ATOM      6  C   UNL d   1      -1.709   0.991   0.030  0.00  0.00     0.127 A 
ATOM      7  C   UNL d   1       0.852   1.449   0.237  0.00  0.00     0.136 A 
ATOM      8  N   UNL d   1       0.901  -1.371   0.057  0.00  0.00    -0.336 N 
ATOM      9  HN  UNL d   1       0.943  -2.389   0.002  1.00  0.00     0.168 HD
ATOM     10  N   UNL d   1       2.019   0.753   0.239  0.00  0.00    -0.337 N 
ATOM     11  HN  UNL d   1       2.912   1.241   0.311  1.00  0.00     0.168 HD
ATOM     12  C   UNL d   1       1.982  -0.584   0.143  0.00  0.00     0.183 A 
ENDROOT
BRANCH   7  13
ATOM     13  N   UNL d   1       0.853   2.853   0.366  0.00  0.00    -0.285 N 
ATOM     14  H   UNL d   1      -0.081   3.248   0.308  0.00  0.00     0.188 HD
BRANCH  13  15
ATOM     15  N   UNL d   1       1.835   3.506  -0.312  0.00  0.00    -0.309 N 
ATOM     16  C   UNL d   1       1.831   4.789  -0.148  0.00  0.00     0.118 C 
ATOM     17  HN  UNL d   1       2.517   3.026  -0.900  1.00  0.00     0.186 HD
BRANCH  16  18
ATOM     18  C   UNL d   1       2.752   5.663  -0.893  0.00  0.00    -0.017 A 
ATOM     19  C   UNL d   1       2.657   7.043  -0.698  0.00  0.00     0.052 A 
ATOM     20  C   UNL d   1       3.470   7.844  -1.469  0.00  0.00     0.105 A 
ATOM     21  O   UNL d   1       3.499   9.203  -1.438  0.00  0.00    -0.323 OA
ATOM     22  C   UNL d   1       4.348   7.321  -2.392  0.00  0.00     0.105 A 
ATOM     23  C   UNL d   1       4.479   9.477  -2.461  0.00  0.00     0.352 A 
ATOM     24  O   UNL d   1       5.035   8.287  -3.057  0.00  0.00    -0.323 OA
ATOM     25  C   UNL d   1       4.473   5.962  -2.590  0.00  0.00     0.040 A 
ATOM     26  C   UNL d   1       3.660   5.120  -1.827  0.00  0.00     0.016 A 
ENDBRANCH  16  18
ENDBRANCH  13  15
ENDBRANCH   7  13
BRANCH   1  27
ATOM     27  C   UNL d   1      -2.037  -2.486  -0.014  0.00  0.00     0.058 A 
ATOM     28  C   UNL d   1      -1.172  -3.579   0.123  0.00  0.00     0.031 A 
ATOM     29  C   UNL d   1      -1.681  -4.882   0.155  0.00  0.00     0.002 A 
ATOM     30  C   UNL d   1      -3.052  -5.103   0.046  0.00  0.00     0.000 A 
ATOM     31  C   UNL d   1      -3.920  -4.025  -0.095  0.00  0.00     0.002 A 
ATOM     32  C   UNL d   1      -3.418  -2.722  -0.125  0.00  0.00     0.031 A 
ENDBRANCH   1  27
TORSDOF 4
