REMARK  4 active torsions:
REMARK  status: ('A' for Active; 'I' for Inactive)
REMARK    1  A    between atoms: N_2  and  C_1 
REMARK    2  A    between atoms: N_5  and  C_1 
REMARK    3  A    between atoms: C_3  and  C_6 
REMARK    4  A    between atoms: C_8  and  N_5 
ROOT
ATOM      1  C   UNL d   1       1.163  -0.184  -0.018  0.00  0.00     0.179 C 
ATOM      2  S   UNL d   1       2.814  -0.071   0.385  0.00  0.00    -0.040 SA
ENDROOT
BRANCH   1   3
ATOM      3  N   UNL d   1       0.343  -1.179   0.552  0.00  0.00    -0.323 N 
ATOM      4  C   UNL d   1      -0.705  -1.986  -0.081  0.00  0.00     0.049 C 
ATOM      5  C   UNL d   1      -1.272  -3.042   0.701  0.00  0.00    -0.031 C 
ATOM      6  C   UNL d   1      -1.184  -1.885  -1.410  0.00  0.00    -0.035 C 
ATOM      7  C   UNL d   1      -2.407  -3.760   0.278  0.00  0.00     0.009 C 
ATOM      8  C   UNL d   1      -0.665  -3.529   2.002  0.00  0.00     0.042 C 
ATOM      9  C   UNL d   1      -2.974  -3.508  -0.952  0.00  0.00     0.001 C 
ATOM     10  C   UNL d   1      -2.353  -2.600  -1.793  0.00  0.00     0.009 C 
ATOM     11  C   UNL d   1       0.685  -2.906   2.265  0.00  0.00     0.025 C 
ATOM     12  C   UNL d   1       0.526  -1.432   2.001  0.00  0.00     0.132 C 
ATOM     13  C   UNL d   1      -0.558  -1.132  -2.547  0.00  0.00     0.050 C 
ENDBRANCH   1   3
BRANCH   1  14
ATOM     14  N   UNL d   1       0.493   0.766  -0.775  0.00  0.00    -0.333 N 
ATOM     15  H   UNL d   1      -0.468   0.926  -0.495  0.00  0.00     0.168 HD
BRANCH  14  16
ATOM     16  C   UNL d   1       1.059   1.680  -1.705  0.00  0.00     0.035 A 
ATOM     17  C   UNL d   1       2.216   1.362  -2.431  0.00  0.00     0.045 A 
ATOM     18  C   UNL d   1       2.820   2.276  -3.304  0.00  0.00     0.050 A 
ATOM     19  C   UNL d   1       2.208   3.517  -3.493  0.00  0.00     0.016 A 
ATOM     20  C   UNL d   1       1.006   3.814  -2.841  0.00  0.00     0.003 A 
ATOM     21  C   UNL d   1       0.427   2.895  -1.960  0.00  0.00     0.029 A 
BRANCH  18  22
ATOM     22  C   UNL d   1       4.122   1.931  -3.977  0.00  0.00     0.417 C 
ATOM     23  F   UNL d   1       4.456   0.612  -3.883  0.00  0.00    -0.166 F 
ATOM     24  F   UNL d   1       4.116   2.212  -5.310  0.00  0.00    -0.166 F 
ATOM     25  F   UNL d   1       5.176   2.619  -3.456  0.00  0.00    -0.166 F 
ENDBRANCH  18  22
ENDBRANCH  14  16
ENDBRANCH   1  14
TORSDOF 4
