REMARK  3 active torsions:
REMARK  status: ('A' for Active; 'I' for Inactive)
REMARK    1  A    between atoms: N_2  and  C_1 
REMARK    2  A    between atoms: N_3  and  C_1 
REMARK    3  A    between atoms: C_4  and  N_3 
ROOT
ATOM      1  C   UNL d   1       0.737   0.334  -0.385  0.00  0.00     0.170 C 
ATOM      2  S   UNL d   1       2.156  -0.231  -1.078  0.00  0.00    -0.041 SA
ENDROOT
BRANCH   1   3
ATOM      3  N   UNL d   1       0.417   1.698  -0.184  0.00  0.00    -0.358 N 
ATOM      4  C   UNL d   1      -0.912   2.138   0.278  0.00  0.00     0.129 C 
ATOM      5  C   UNL d   1      -1.365   3.453  -0.357  0.00  0.00    -0.001 C 
ATOM      6  C   UNL d   1      -2.723   3.876   0.200  0.00  0.00     0.011 C 
ATOM      7  C   UNL d   1      -0.309   4.535  -0.140  0.00  0.00     0.007 C 
ATOM      8  C   UNL d   1       1.027   4.067  -0.707  0.00  0.00     0.020 C 
ATOM      9  C   UNL d   1       1.463   2.733  -0.104  0.00  0.00     0.125 C 
ENDBRANCH   1   3
BRANCH   1  10
ATOM     10  N   UNL d   1      -0.271  -0.508   0.037  0.00  0.00    -0.362 N 
ATOM     11  H   UNL d   1      -0.731  -0.130   0.848  0.00  0.00     0.162 HD
BRANCH  10  12
ATOM     12  C   UNL d   1      -0.353  -1.970  -0.023  0.00  0.00     0.088 C 
ATOM     13  C   UNL d   1      -1.825  -2.475   0.035  0.00  0.00     0.009 C 
ATOM     14  C   UNL d   1      -1.678  -3.834   0.724  0.00  0.00     0.011 C 
ATOM     15  C   UNL d   1      -2.640  -1.732   1.111  0.00  0.00     0.007 C 
ATOM     16  C   UNL d   1      -0.949  -3.244   1.932  0.00  0.00    -0.012 C 
ATOM     17  C   UNL d   1       0.269  -2.607   1.240  0.00  0.00     0.030 C 
ATOM     18  C   UNL d   1      -1.913  -2.132   2.403  0.00  0.00     0.005 C 
ENDBRANCH  10  12
ENDBRANCH   1  10
TORSDOF 3
