REMARK  6 active torsions:
REMARK  status: ('A' for Active; 'I' for Inactive)
REMARK    1  A    between atoms: C_4  and  N_1 
REMARK    2  A    between atoms: C_3  and  C_4 
REMARK    3  A    between atoms: O_17  and  C_6 
REMARK    4  A    between atoms: O_12  and  C_11 
REMARK    5  A    between atoms: C_18  and  O_12 
REMARK    6  A    between atoms: C_19  and  C_18 
ROOT
ATOM      1  C   UNL d   1      -0.830   3.253  -1.193  0.00  0.00    -0.007 A 
ATOM      2  C   UNL d   1      -0.063   2.793  -2.280  0.00  0.00     0.078 A 
ATOM      3  C   UNL d   1       1.125   3.458  -2.620  0.00  0.00     0.074 A 
ATOM      4  C   UNL d   1      -0.433   4.434  -0.541  0.00  0.00     0.014 A 
ATOM      5  C   UNL d   1       1.541   4.587  -1.913  0.00  0.00     0.071 A 
ATOM      6  C   UNL d   1       0.729   5.109  -0.912  0.00  0.00     0.037 A 
ENDROOT
BRANCH   1   7
ATOM      7  C   UNL d   1      -2.032   2.491  -0.653  0.00  0.00     0.164 C 
BRANCH   7   8
ATOM      8  N   UNL d   1      -3.211   3.373  -0.497  0.00  0.00    -0.376 N 
ATOM      9  C   UNL d   1      -4.117   3.035   0.526  0.00  0.00     0.036 A 
ATOM     10  C   UNL d   1      -5.500   2.906   0.289  0.00  0.00    -0.031 A 
ATOM     11  C   UNL d   1      -3.676   2.855   1.847  0.00  0.00     0.030 A 
ATOM     12  C   UNL d   1      -6.383   2.557   1.329  0.00  0.00     0.016 A 
ATOM     13  C   UNL d   1      -6.081   3.177  -1.074  0.00  0.00     0.042 C 
ATOM     14  C   UNL d   1      -5.914   2.336   2.630  0.00  0.00    -0.061 A 
ATOM     15  C   UNL d   1      -4.557   2.512   2.882  0.00  0.00     0.009 A 
ATOM     16  C   UNL d   1      -6.874   1.942   3.712  0.00  0.00     0.048 C 
ATOM     17  C   UNL d   1      -5.024   3.060  -2.156  0.00  0.00     0.024 C 
ATOM     18  C   UNL d   1      -3.800   3.864  -1.752  0.00  0.00     0.123 C 
ENDBRANCH   7   8
ENDBRANCH   1   7
BRANCH   2  19
ATOM     19  O   UNL d   1      -0.498   1.665  -2.929  0.00  0.00    -0.355 OA
ATOM     20  C   UNL d   1      -0.132   1.569  -4.306  0.00  0.00     0.210 C 
ENDBRANCH   2  19
BRANCH   5  21
ATOM     21  O   UNL d   1       2.762   5.096  -2.277  0.00  0.00    -0.347 OA
BRANCH  21  22
ATOM     22  C   UNL d   1       3.443   5.809  -1.244  0.00  0.00     0.214 C 
BRANCH  22  23
ATOM     23  C   UNL d   1       4.930   5.761  -1.492  0.00  0.00    -0.034 A 
ATOM     24  C   UNL d   1       5.574   6.785  -2.197  0.00  0.00     0.009 A 
ATOM     25  C   UNL d   1       6.958   6.752  -2.382  0.00  0.00     0.001 A 
ATOM     26  C   UNL d   1       7.706   5.691  -1.874  0.00  0.00     0.000 A 
ATOM     27  C   UNL d   1       7.072   4.655  -1.192  0.00  0.00     0.001 A 
ATOM     28  C   UNL d   1       5.689   4.685  -1.007  0.00  0.00     0.009 A 
ENDBRANCH  22  23
ENDBRANCH  21  22
ENDBRANCH   5  21
TORSDOF 6
