REMARK  3 active torsions:
REMARK  status: ('A' for Active; 'I' for Inactive)
REMARK    1  A    between atoms: C_2  and  C_1 
REMARK    2  A    between atoms: O_3  and  C_1 
REMARK    3  A    between atoms: C_6  and  O_3 
ROOT
ATOM      1  C   UNL d   1       1.125  -0.061   0.022  0.00  0.00     0.299 C 
ATOM      2  O   UNL d   1       2.314  -0.322  -0.083  0.00  0.00    -0.259 OA
ENDROOT
BRANCH   1   3
ATOM      3  C   UNL d   1       0.475   0.568   1.209  0.00  0.00     0.056 A 
ATOM      4  C   UNL d   1       1.103   1.550   1.994  0.00  0.00     0.022 A 
ATOM      5  I   UNL d   1       2.999   2.366   1.600  0.00  0.00    -0.043 I 
ATOM      6  C   UNL d   1       0.431   2.096   3.101  0.00  0.00     0.019 A 
ATOM      7  C   UNL d   1      -0.861   1.681   3.425  0.00  0.00     0.001 A 
ATOM      8  C   UNL d   1      -1.492   0.716   2.649  0.00  0.00     0.001 A 
ATOM      9  C   UNL d   1      -0.829   0.159   1.553  0.00  0.00     0.019 A 
ENDBRANCH   1   3
BRANCH   1  10
ATOM     10  O   UNL d   1       0.149  -0.271  -0.942  0.00  0.00    -0.275 OA
BRANCH  10  11
ATOM     11  C   UNL d   1       0.548  -0.515  -2.269  0.00  0.00     0.079 A 
ATOM     12  C   UNL d   1      -0.110  -1.532  -2.962  0.00  0.00     0.039 A 
ATOM     13  C   UNL d   1       0.109  -1.683  -4.334  0.00  0.00     0.021 A 
ATOM     14  C   UNL d   1       0.974  -0.809  -4.997  0.00  0.00     0.006 A 
ATOM     15  C   UNL d   1       1.645   0.194  -4.295  0.00  0.00     0.021 A 
ATOM     16  I   UNL d   1       1.225  -0.968  -7.056  0.00  0.00    -0.045 I 
ATOM     17  C   UNL d   1       1.430   0.344  -2.924  0.00  0.00     0.039 A 
ENDBRANCH  10  11
ENDBRANCH   1  10
TORSDOF 3
