REMARK  1 active torsions:
REMARK  status: ('A' for Active; 'I' for Inactive)
REMARK    1  A    between atoms: C_4  and  C_3 
ROOT
ATOM      1  N   UNL d   1       1.431  -0.540   0.001  0.00  0.00    -0.324 N 
ATOM      2  HN  UNL d   1       2.385  -0.900  -0.003  1.00  0.00     0.169 HD
ATOM      3  C   UNL d   1       1.079   0.807   0.003  0.00  0.00     0.098 A 
ATOM      4  N   UNL d   1      -0.216   1.139   0.006  0.00  0.00    -0.312 N 
ATOM      5  HN  UNL d   1      -0.603   2.083   0.006  1.00  0.00     0.175 HD
ATOM      6  C   UNL d   1       0.342  -1.273   0.006  0.00  0.00     0.162 A 
ATOM      7  S   UNL d   1      -1.075  -0.287   0.011  0.00  0.00     0.024 SA
ATOM      8  N   UNL d   1       0.286  -2.620   0.003  0.00  0.00    -0.374 N 
ATOM      9  C   UNL d   1       1.482  -3.422   0.011  0.00  0.00     0.148 C 
ATOM     10  H   UNL d   1      -0.606  -3.100   0.035  0.00  0.00     0.161 HD
ENDROOT
BRANCH   3  11
ATOM     11  C   UNL d   1       2.169   1.857   0.006  0.00  0.00     0.020 C 
ATOM     12  C   UNL d   1       3.069   1.707  -1.252  0.00  0.00     0.022 C 
ATOM     13  C   UNL d   1       4.198   2.753  -1.248  0.00  0.00    -0.013 C 
ATOM     14  C   UNL d   1       3.585   4.162  -1.236  0.00  0.00     0.009 C 
ATOM     15  C   UNL d   1       5.061   2.566   0.011  0.00  0.00     0.009 C 
ATOM     16  C   UNL d   1       2.720   4.347   0.021  0.00  0.00    -0.013 C 
ATOM     17  C   UNL d   1       1.595   3.303   0.015  0.00  0.00     0.022 C 
ATOM     18  C   UNL d   1       3.585   4.148   1.275  0.00  0.00     0.009 C 
ATOM     19  C   UNL d   1       4.198   2.739   1.271  0.00  0.00    -0.013 C 
ATOM     20  C   UNL d   1       3.070   1.693   1.262  0.00  0.00     0.022 C 
ENDBRANCH   3  11
TORSDOF 1
