REMARK  5 active torsions:
REMARK  status: ('A' for Active; 'I' for Inactive)
REMARK    1  A    between atoms: S_7  and  C_1 
REMARK    2  A    between atoms: C_8  and  C_4 
REMARK    3  A    between atoms: C_10  and  S_7 
REMARK    4  A    between atoms: O_15  and  C_8 
REMARK    5  A    between atoms: N_14  and  C_13 
ROOT
ATOM      1  C   UNL d   1       0.952   1.223   0.063  0.00  0.00     0.150 A 
ATOM      2  N   UNL d   1      -0.384   1.233   0.049  0.00  0.00    -0.332 N 
ATOM      3  HN  UNL d   1      -0.920   2.101   0.037  1.00  0.00     0.168 HD
ATOM      4  C   UNL d   1      -0.982   0.020   0.051  0.00  0.00     0.112 A 
ATOM      5  N   UNL d   1       1.715   0.112   0.084  0.00  0.00    -0.340 N 
ATOM      6  HN  UNL d   1       2.733   0.170   0.109  1.00  0.00     0.167 HD
ATOM      7  C   UNL d   1      -0.292  -1.176   0.055  0.00  0.00     0.060 A 
ATOM      8  C   UNL d   1       1.081  -1.079   0.071  0.00  0.00     0.009 A 
ATOM      9  C   UNL d   1       1.944  -2.304   0.046  0.00  0.00     0.068 C 
ENDROOT
BRANCH   1  10
ATOM     10  S   UNL d   1       1.796   2.776  -0.081  0.00  0.00    -0.052 SA
BRANCH  10  11
ATOM     11  C   UNL d   1       1.919   3.271   1.636  0.00  0.00     0.029 A 
ATOM     12  C   UNL d   1       2.671   2.551   2.588  0.00  0.00     0.023 A 
ATOM     13  C   UNL d   1       2.800   3.079   3.881  0.00  0.00     0.024 A 
ATOM     14  C   UNL d   1       2.144   4.256   4.251  0.00  0.00     0.002 A 
ATOM     15  C   UNL d   1       1.377   4.945   3.317  0.00  0.00     0.001 A 
ATOM     16  C   UNL d   1       1.270   4.458   2.014  0.00  0.00     0.021 A 
BRANCH  12  17
ATOM     17  N   UNL d   1       3.491   1.463   2.229  0.00  0.00    -0.302 NA
ATOM     18  H   UNL d   1       3.170   0.976   1.390  0.00  0.00     0.124 HD
ATOM     19  H   UNL d   1       3.689   0.825   2.990  0.00  0.00     0.124 HD
ENDBRANCH  12  17
ENDBRANCH  10  11
ENDBRANCH   1  10
BRANCH   4  20
ATOM     20  C   UNL d   1      -2.474  -0.022   0.030  0.00  0.00     0.309 C 
ATOM     21  O   UNL d   1      -3.120  -1.060   0.025  0.00  0.00    -0.258 OA
BRANCH  20  22
ATOM     22  O   UNL d   1      -2.985   1.235   0.019  0.00  0.00    -0.321 OA
ATOM     23  C   UNL d   1      -4.410   1.297  -0.002  0.00  0.00     0.213 C 
ENDBRANCH  20  22
ENDBRANCH   4  20
TORSDOF 5
