REMARK  2 active torsions:
REMARK  status: ('A' for Active; 'I' for Inactive)
REMARK    1  A    between atoms: N_2  and  C_10 
REMARK    2  A    between atoms: C_13  and  C_7 
ROOT
ATOM      1  N   UNL d   1      -2.750  -2.482   0.245  0.00  0.00    -0.365 N 
ATOM      2  HN  UNL d   1      -2.336  -3.330   0.631  1.00  0.00     0.165 HD
ATOM      3  C   UNL d   1      -3.986  -2.482  -0.138  0.00  0.00     0.099 C 
ENDROOT
BRANCH   1   4
ATOM      4  C   UNL d   1      -1.979  -1.313   0.127  0.00  0.00     0.033 A 
ATOM      5  C   UNL d   1      -0.626  -1.459  -0.185  0.00  0.00     0.053 A 
ATOM      6  C   UNL d   1       0.226  -0.350  -0.266  0.00  0.00     0.042 A 
ATOM      7  C   UNL d   1      -0.265   0.943  -0.032  0.00  0.00    -0.040 A 
ATOM      8 CL   UNL d   1       1.884  -0.650  -0.648  0.00  0.00    -0.084 Cl
ATOM      9  C   UNL d   1      -1.626   1.088   0.279  0.00  0.00     0.011 A 
ATOM     10  C   UNL d   1       0.581   2.185  -0.076  0.00  0.00     0.050 C 
ATOM     11  C   UNL d   1      -2.467  -0.026   0.370  0.00  0.00     0.030 A 
ENDBRANCH   1   4
BRANCH   3  12
ATOM     12  C   UNL d   1      -4.822  -3.697  -0.048  0.00  0.00    -0.019 A 
ATOM     13  C   UNL d   1      -4.275  -4.918   0.360  0.00  0.00     0.038 A 
ATOM     14  C   UNL d   1      -5.080  -6.060   0.408  0.00  0.00     0.056 A 
ATOM     15 CL   UNL d   1      -4.346  -7.543   0.905  0.00  0.00    -0.083 Cl
ATOM     16  C   UNL d   1      -6.432  -5.978   0.052  0.00  0.00     0.055 A 
ATOM     17  C   UNL d   1      -6.975  -4.752  -0.346  0.00  0.00     0.026 A 
ATOM     18 CL   UNL d   1      -7.484  -7.349   0.077  0.00  0.00    -0.083 Cl
ATOM     19  C   UNL d   1      -6.172  -3.610  -0.398  0.00  0.00     0.014 A 
ENDBRANCH   3  12
TORSDOF 2
