REMARK  4 active torsions:
REMARK  status: ('A' for Active; 'I' for Inactive)
REMARK    1  A    between atoms: O_7  and  C_1 
REMARK    2  A    between atoms: O_8  and  C_2 
REMARK    3  A    between atoms: C_13  and  O_7 
REMARK    4  A    between atoms: C_14  and  O_8 
ROOT
ATOM      1  C   UNL d   1       0.129   1.417   0.038  0.00  0.00     0.159 A 
ATOM      2  C   UNL d   1      -0.127  -1.390   0.060  0.00  0.00     0.159 A 
ATOM      3  C   UNL d   1      -1.128   0.812   0.012  0.00  0.00     0.194 A 
ATOM      4  C   UNL d   1       1.129  -0.787   0.014  0.00  0.00     0.194 A 
ATOM      5  C   UNL d   1      -1.257  -0.574  -0.001  0.00  0.00     0.194 A 
ATOM      6  C   UNL d   1       1.259   0.601  -0.020  0.00  0.00     0.194 A 
ATOM      7  F   UNL d   1       2.488   1.128  -0.115  0.00  0.00    -0.200 F 
ATOM      8  F   UNL d   1       2.235  -1.546  -0.002  0.00  0.00    -0.200 F 
ATOM      9  F   UNL d   1      -2.488  -1.104  -0.077  0.00  0.00    -0.200 F 
ATOM     10  F   UNL d   1      -2.234   1.572  -0.005  0.00  0.00    -0.200 F 
ENDROOT
BRANCH   1  11
ATOM     11  O   UNL d   1       0.145   2.790   0.025  0.00  0.00    -0.304 OA
BRANCH  11  12
ATOM     12  C   UNL d   1       1.112   3.477   0.722  0.00  0.00     0.076 A 
ATOM     13  C   UNL d   1       1.478   4.712   0.183  0.00  0.00     0.037 A 
ATOM     14  C   UNL d   1       2.452   5.492   0.809  0.00  0.00     0.003 A 
ATOM     15  C   UNL d   1       3.057   5.040   1.980  0.00  0.00     0.000 A 
ATOM     16  C   UNL d   1       2.666   3.826   2.543  0.00  0.00     0.003 A 
ATOM     17  C   UNL d   1       1.677   3.054   1.928  0.00  0.00     0.037 A 
ENDBRANCH  11  12
ENDBRANCH   1  11
BRANCH   2  18
ATOM     18  O   UNL d   1      -0.147  -2.764   0.068  0.00  0.00    -0.304 OA
BRANCH  18  19
ATOM     19  C   UNL d   1      -1.107  -3.440   0.785  0.00  0.00     0.076 A 
ATOM     20  C   UNL d   1      -1.481  -4.682   0.268  0.00  0.00     0.037 A 
ATOM     21  C   UNL d   1      -2.451  -5.449   0.913  0.00  0.00     0.003 A 
ATOM     22  C   UNL d   1      -3.047  -4.977   2.081  0.00  0.00     0.000 A 
ATOM     23  C   UNL d   1      -2.649  -3.754   2.621  0.00  0.00     0.003 A 
ATOM     24  C   UNL d   1      -1.663  -2.995   1.988  0.00  0.00     0.037 A 
ENDBRANCH  18  19
ENDBRANCH   2  18
TORSDOF 4
