REMARK  4 active torsions:
REMARK  status: ('A' for Active; 'I' for Inactive)
REMARK    1  A    between atoms: C_5  and  N_1 
REMARK    2  A    between atoms: C_2  and  C_7 
REMARK    3  A    between atoms: C_7  and  N_3 
REMARK    4  A    between atoms: O_18  and  C_10 
ROOT
ATOM      1  N   UNL d   1      -1.262   0.137   0.584  0.00  0.00    -0.375 N 
ATOM      2  N   UNL d   1       1.416   0.031  -0.643  0.00  0.00     0.095 N 
ATOM      3  C   UNL d   1      -0.787  -1.120  -0.005  0.00  0.00     0.153 C 
ATOM      4  C   UNL d   1      -0.752   1.336  -0.107  0.00  0.00     0.153 C 
ATOM      5  C   UNL d   1       0.761  -1.127   0.020  0.00  0.00     0.292 C 
ATOM      6  C   UNL d   1       0.800   1.289  -0.141  0.00  0.00     0.292 C 
ENDROOT
BRANCH   2   7
ATOM      7  C   UNL d   1       1.329  -0.094  -2.106  0.00  0.00     0.312 C 
BRANCH   7   8
ATOM      8  C   UNL d   1       2.174   0.927  -2.843  0.00  0.00    -0.008 A 
ATOM      9  C   UNL d   1       1.646   1.812  -3.797  0.00  0.00     0.043 A 
ATOM     10  C   UNL d   1       2.476   2.709  -4.476  0.00  0.00     0.048 A 
ATOM     11 CL   UNL d   1      -0.039   1.857  -4.181  0.00  0.00    -0.084 Cl
ATOM     12  C   UNL d   1       3.840   2.735  -4.201  0.00  0.00     0.035 A 
ATOM     13  C   UNL d   1       4.385   1.880  -3.249  0.00  0.00     0.024 A 
ATOM     14 CL   UNL d   1       4.859   3.831  -5.049  0.00  0.00    -0.084 Cl
ATOM     15  C   UNL d   1       3.558   0.980  -2.574  0.00  0.00     0.012 A 
ENDBRANCH   7   8
ENDBRANCH   2   7
BRANCH   1  16
ATOM     16  C   UNL d   1      -2.540   0.211   1.138  0.00  0.00     0.064 A 
ATOM     17  C   UNL d   1      -2.855   1.116   2.180  0.00  0.00     0.094 A 
ATOM     18  C   UNL d   1      -4.143   1.160   2.737  0.00  0.00     0.039 A 
ATOM     19  C   UNL d   1      -5.139   0.299   2.280  0.00  0.00     0.003 A 
ATOM     20  C   UNL d   1      -4.858  -0.594   1.258  0.00  0.00     0.002 A 
ATOM     21  C   UNL d   1      -3.574  -0.636   0.699  0.00  0.00     0.032 A 
BRANCH  17  22
ATOM     22  O   UNL d   1      -1.987   2.065   2.669  0.00  0.00    -0.354 OA
ATOM     23  C   UNL d   1      -0.840   1.516   3.311  0.00  0.00     0.210 C 
ENDBRANCH  17  22
ENDBRANCH   1  16
TORSDOF 4
