REMARK  3 active torsions:
REMARK  status: ('A' for Active; 'I' for Inactive)
REMARK    1  A    between atoms: N_2  and  C_1 
REMARK    2  A    between atoms: N_3  and  C_1 
REMARK    3  A    between atoms: C_5  and  N_3 
ROOT
ATOM      1  N   UNL d   1       0.086  -0.795   0.559  0.00  0.00    -0.333 N 
ATOM      2  H   UNL d   1      -0.563  -0.275   1.136  0.00  0.00     0.168 HD
ENDROOT
BRANCH   1   3
ATOM      3  C   UNL d   1       0.927   0.021  -0.186  0.00  0.00     0.174 C 
ATOM      4  S   UNL d   1       2.592  -0.192  -0.278  0.00  0.00    -0.041 SA
BRANCH   3   5
ATOM      5  N   UNL d   1       0.243   1.095  -0.771  0.00  0.00    -0.354 N 
ATOM      6  C   UNL d   1      -1.181   1.024  -1.144  0.00  0.00     0.151 C 
ATOM      7  C   UNL d   1      -1.366   1.304  -2.644  0.00  0.00     0.187 C 
ATOM      8  O   UNL d   1      -0.770   2.554  -3.022  0.00  0.00    -0.388 OA
ATOM      9  C   UNL d   1       0.640   2.541  -2.746  0.00  0.00     0.187 C 
ATOM     10  C   UNL d   1       0.895   2.328  -1.251  0.00  0.00     0.151 C 
ENDBRANCH   3   5
ENDBRANCH   1   3
BRANCH   1  11
ATOM     11  C   UNL d   1       0.230  -2.164   0.870  0.00  0.00     0.037 A 
ATOM     12  C   UNL d   1       0.825  -3.069  -0.013  0.00  0.00     0.071 A 
ATOM     13  C   UNL d   1       0.866  -4.420   0.310  0.00  0.00     0.118 A 
ATOM     14  F   UNL d   1       1.413  -5.286  -0.554  0.00  0.00    -0.206 F 
ATOM     15  C   UNL d   1       0.328  -4.894   1.501  0.00  0.00     0.042 A 
ATOM     16  C   UNL d   1      -0.272  -3.998   2.382  0.00  0.00     0.005 A 
ATOM     17  C   UNL d   1      -0.335  -2.639   2.060  0.00  0.00     0.029 A 
ENDBRANCH   1  11
TORSDOF 3
