REMARK  5 active torsions:
REMARK  status: ('A' for Active; 'I' for Inactive)
REMARK    1  A    between atoms: C_2  and  C_1 
REMARK       I    between atoms: N_6  and  C_2 
REMARK    2  A    between atoms: N_9  and  C_3 
REMARK    3  A    between atoms: C_12  and  N_6 
REMARK    4  A    between atoms: C_14  and  C_12 
REMARK    5  A    between atoms: C_13  and  C_14 
ROOT
ATOM      1  C   UNL d   1       2.296   2.611  -0.505  0.00  0.00     0.253 C 
ATOM      2  O   UNL d   1       3.463   2.664  -0.895  0.00  0.00    -0.268 OA
ATOM      3  N   UNL d   1       1.627   3.753  -0.076  0.00  0.00    -0.356 N 
ATOM      4  H   UNL d   1       0.761   3.654   0.439  0.00  0.00     0.162 HD
ENDROOT
BRANCH   1   5
ATOM      5  C   UNL d   1       1.536   1.321  -0.564  0.00  0.00     0.059 A 
ATOM      6  C   UNL d   1       2.128   0.044  -0.386  0.00  0.00     0.043 A 
ATOM      7  C   UNL d   1       1.346  -1.085  -0.734  0.00  0.00     0.032 A 
ATOM      8  C   UNL d   1       0.036  -0.980  -1.200  0.00  0.00     0.026 A 
ATOM      9  C   UNL d   1      -0.539   0.275  -1.320  0.00  0.00     0.035 A 
ATOM     10  C   UNL d   1       0.205   1.418  -1.026  0.00  0.00     0.043 A 
ATOM     11 CL   UNL d   1      -2.167   0.416  -1.851  0.00  0.00    -0.084 Cl
BRANCH   6  12
ATOM     12  N   UNL d   1       3.323  -0.291   0.243  0.00  0.00    -0.393 N 
ATOM     13  C   UNL d   1       4.257   0.608   0.881  0.00  0.00     0.146 C 
ATOM     14  H   UNL d   1       3.766  -1.125  -0.134  0.00  0.00     0.159 HD
ENDBRANCH   6  12
ENDBRANCH   1   5
BRANCH   3  15
ATOM     15  C   UNL d   1       2.344   5.029  -0.051  0.00  0.00     0.127 C 
BRANCH  15  16
ATOM     16  C   UNL d   1       1.480   6.229   0.347  0.00  0.00     0.058 C 
BRANCH  16  17
ATOM     17  C   UNL d   1       2.243   7.538   0.348  0.00  0.00    -0.057 A 
ATOM     18  C   UNL d   1       2.301   8.325  -0.812  0.00  0.00     0.007 A 
ATOM     19  C   UNL d   1       2.975   9.550  -0.813  0.00  0.00     0.001 A 
ATOM     20  C   UNL d   1       3.606  10.004   0.344  0.00  0.00     0.000 A 
ATOM     21  C   UNL d   1       3.571   9.225   1.499  0.00  0.00     0.001 A 
ATOM     22  C   UNL d   1       2.897   7.998   1.501  0.00  0.00     0.007 A 
ENDBRANCH  16  17
ENDBRANCH  15  16
ENDBRANCH   3  15
TORSDOF 5
