REMARK  2 active torsions:
REMARK  status: ('A' for Active; 'I' for Inactive)
REMARK    1  A    between atoms: C_2  and  C_1 
REMARK       I    between atoms: N_6  and  C_2 
REMARK    2  A    between atoms: C_8  and  N_6 
ROOT
ATOM      1  C   UNL d   1       1.575   2.460  -0.176  0.00  0.00     0.258 C 
ATOM      2  N   UNL d   1       0.918   3.678  -0.092  0.00  0.00    -0.320 N 
ATOM      3  O   UNL d   1       2.793   2.328  -0.159  0.00  0.00    -0.267 OA
ATOM      4  H   UNL d   1      -0.058   3.648   0.159  0.00  0.00     0.169 HD
ENDROOT
BRANCH   2   5
ATOM      5  C   UNL d   1       1.549   4.946  -0.029  0.00  0.00     0.074 A 
ATOM      6  C   UNL d   1       2.832   5.229  -0.527  0.00  0.00     0.146 A 
ATOM      7  C   UNL d   1       3.423   6.476  -0.342  0.00  0.00     0.086 A 
ATOM      8  F   UNL d   1       3.506   4.348  -1.279  0.00  0.00    -0.204 F 
ATOM      9  C   UNL d   1       2.715   7.467   0.317  0.00  0.00     0.119 A 
ATOM     10  C   UNL d   1       1.419   7.240   0.764  0.00  0.00     0.044 A 
ATOM     11  F   UNL d   1       3.280   8.666   0.511  0.00  0.00    -0.206 F 
ATOM     12  C   UNL d   1       0.831   5.984   0.583  0.00  0.00     0.036 A 
ENDBRANCH   2   5
BRANCH   1  13
ATOM     13  C   UNL d   1       0.698   1.286  -0.175  0.00  0.00     0.064 A 
ATOM     14  C   UNL d   1       1.144  -0.030  -0.226  0.00  0.00     0.065 A 
ATOM     15  O   UNL d   1       0.096  -0.896  -0.140  0.00  0.00    -0.319 OA
ATOM     16  C   UNL d   1       2.470  -0.682  -0.336  0.00  0.00     0.077 C 
ATOM     17  C   UNL d   1      -1.036  -0.157  -0.045  0.00  0.00     0.050 A 
ATOM     18  C   UNL d   1      -0.730   1.185  -0.104  0.00  0.00     0.051 A 
ATOM     19  C   UNL d   1      -2.291  -0.920   0.106  0.00  0.00     0.076 C 
ENDBRANCH   1  13
TORSDOF 2
