REMARK  5 active torsions:
REMARK  status: ('A' for Active; 'I' for Inactive)
REMARK    1  A    between atoms: C_2  and  S_1 
REMARK    2  A    between atoms: N_3  and  S_1 
REMARK    3  A    between atoms: C_10  and  N_3 
REMARK    4  A    between atoms: O_16  and  C_8 
REMARK    5  A    between atoms: O_17  and  C_12 
ROOT
ATOM      1  N   UNL d   1       3.745   3.489   5.396  0.00  0.00    -0.191 NA
ATOM      2  C   UNL d   1       3.320   2.505   4.954  0.00  0.00     0.099 C 
ATOM      3  C   UNL d   1       2.264  -0.082   2.491  0.00  0.00     0.044 A 
ATOM      4  C   UNL d   1       2.798   1.288   4.407  0.00  0.00     0.046 A 
ATOM      5  C   UNL d   1       2.774   1.102   3.023  0.00  0.00     0.052 A 
ATOM      6  C   UNL d   1       1.828  -0.911   4.715  0.00  0.00     0.004 A 
ATOM      7  C   UNL d   1       1.801  -1.092   3.332  0.00  0.00     0.030 A 
ATOM      8  C   UNL d   1       2.328   0.277   5.253  0.00  0.00     0.023 A 
ENDROOT
BRANCH   3   9
ATOM      9  N   UNL d   1       2.333  -0.284   1.098  0.00  0.00    -0.281 N 
ATOM     10  H   UNL d   1       3.165  -0.694   0.679  0.00  0.00     0.179 HD
BRANCH   9  11
ATOM     11  S   UNL d   1       0.965  -0.247   0.140  0.00  0.00     0.266 S 
ATOM     12  O   UNL d   1       1.380  -0.576  -1.203  0.00  0.00    -0.200 OA
ATOM     13  O   UNL d   1      -0.062  -1.031   0.800  0.00  0.00    -0.200 OA
BRANCH  11  14
ATOM     14  C   UNL d   1       0.451   1.452   0.137  0.00  0.00     0.115 A 
ATOM     15  C   UNL d   1      -0.909   1.697   0.414  0.00  0.00     0.065 A 
ATOM     16  C   UNL d   1      -1.389   2.999   0.528  0.00  0.00     0.069 A 
ATOM     17  C   UNL d   1      -0.513   4.063   0.321  0.00  0.00     0.039 A 
ATOM     18  C   UNL d   1       0.835   3.827   0.037  0.00  0.00     0.041 A 
ATOM     19  C   UNL d   1       1.330   2.521  -0.058  0.00  0.00     0.091 A 
BRANCH  16  20
ATOM     20  O   UNL d   1      -2.670   3.355   0.849  0.00  0.00    -0.356 OA
ATOM     21  C   UNL d   1      -3.549   2.306   1.244  0.00  0.00     0.210 C 
ENDBRANCH  16  20
BRANCH  19  22
ATOM     22  O   UNL d   1       2.690   2.435  -0.167  0.00  0.00    -0.354 OA
ATOM     23  C   UNL d   1       3.165   1.826  -1.365  0.00  0.00     0.210 C 
ENDBRANCH  19  22
ENDBRANCH  11  14
ENDBRANCH   9  11
ENDBRANCH   3   9
TORSDOF 5
