REMARK  6 active torsions:
REMARK  status: ('A' for Active; 'I' for Inactive)
REMARK    1  A    between atoms: N_4  and  C_1 
REMARK    2  A    between atoms: N_7  and  C_1 
REMARK    3  A    between atoms: N_2  and  N_7 
REMARK    4  A    between atoms: C_13  and  N_4 
REMARK    5  A    between atoms: C_5  and  C_10 
REMARK    6  A    between atoms: C_15  and  C_8 
ROOT
ATOM      1  C   UNL d   1      -0.927   0.920   0.385  0.00  0.00     0.191 C 
ATOM      2  S   UNL d   1      -2.401   1.591  -0.041  0.00  0.00    -0.039 SA
ENDROOT
BRANCH   1   3
ATOM      3  N   UNL d   1       0.315   1.246  -0.107  0.00  0.00    -0.332 N 
ATOM      4  H   UNL d   1       0.962   0.469  -0.114  0.00  0.00     0.168 HD
BRANCH   3   5
ATOM      5  C   UNL d   1       0.778   2.486  -0.582  0.00  0.00     0.034 A 
ATOM      6  C   UNL d   1       0.307   3.691  -0.061  0.00  0.00     0.030 A 
ATOM      7  C   UNL d   1       0.891   4.903  -0.434  0.00  0.00     0.010 A 
ATOM      8  C   UNL d   1       1.947   4.942  -1.355  0.00  0.00    -0.055 A 
ATOM      9  C   UNL d   1       2.389   3.732  -1.906  0.00  0.00     0.010 A 
ATOM     10  C   UNL d   1       1.826   2.513  -1.505  0.00  0.00     0.030 A 
BRANCH   8  11
ATOM     11  C   UNL d   1       2.650   6.247  -1.687  0.00  0.00     0.010 C 
ATOM     12  C   UNL d   1       1.691   7.312  -2.226  0.00  0.00     0.015 C 
ATOM     13  C   UNL d   1       3.410   6.771  -0.464  0.00  0.00     0.015 C 
ENDBRANCH   8  11
ENDBRANCH   3   5
ENDBRANCH   1   3
BRANCH   1  14
ATOM     14  N   UNL d   1      -0.929  -0.111   1.303  0.00  0.00    -0.276 N 
ATOM     15  H   UNL d   1      -1.835  -0.343   1.698  0.00  0.00     0.189 HD
BRANCH  14  16
ATOM     16  N   UNL d   1       0.207  -0.449   1.988  0.00  0.00    -0.309 N 
ATOM     17  C   UNL d   1      -0.003  -1.203   3.028  0.00  0.00     0.120 C 
ATOM     18  HN  UNL d   1       1.136  -0.138   1.708  1.00  0.00     0.186 HD
BRANCH  17  19
ATOM     19  C   UNL d   1       1.083  -1.573   3.961  0.00  0.00     0.002 A 
ATOM     20  C   UNL d   1       0.890  -2.518   4.980  0.00  0.00     0.045 A 
ATOM     21 CL   UNL d   1      -0.600  -3.364   5.207  0.00  0.00    -0.083 Cl
ATOM     22  C   UNL d   1       1.934  -2.813   5.865  0.00  0.00     0.024 A 
ATOM     23  C   UNL d   1       3.163  -2.167   5.744  0.00  0.00     0.002 A 
ATOM     24  C   UNL d   1       3.357  -1.221   4.739  0.00  0.00     0.001 A 
ATOM     25  C   UNL d   1       2.322  -0.926   3.852  0.00  0.00     0.014 A 
ENDBRANCH  17  19
ENDBRANCH  14  16
ENDBRANCH   1  14
TORSDOF 6
