REMARK  5 active torsions:
REMARK  status: ('A' for Active; 'I' for Inactive)
REMARK    1  A    between atoms: C_15  and  N_1 
REMARK    2  A    between atoms: C_6  and  C_2 
REMARK    3  A    between atoms: C_19  and  N_5 
REMARK    4  A    between atoms: C_14  and  C_9 
REMARK    5  A    between atoms: C_21  and  C_15 
ROOT
ATOM      1  N   UNL d   1      -0.690   1.183  -0.003  0.00  0.00    -0.261 N 
ATOM      2  C   UNL d   1       1.453   0.003   0.092  0.00  0.00     0.094 C 
ATOM      3  C   UNL d   1      -1.384  -0.013  -0.181  0.00  0.00     0.332 C 
ATOM      4  C   UNL d   1       0.693   1.283   0.094  0.00  0.00     0.267 C 
ATOM      5  N   UNL d   1      -0.632  -1.179  -0.006  0.00  0.00    -0.304 N 
ATOM      6  C   UNL d   1       0.745  -1.131   0.056  0.00  0.00     0.117 C 
ATOM      7  O   UNL d   1      -2.579  -0.048  -0.486  0.00  0.00    -0.246 OA
ATOM      8  O   UNL d   1       1.275   2.367   0.130  0.00  0.00    -0.267 OA
ENDROOT
BRANCH   2   9
ATOM      9  C   UNL d   1       2.885   0.021   0.098  0.00  0.00     0.145 A 
ATOM     10  N   UNL d   1       3.542  -1.012  -0.535  0.00  0.00    -0.318 N 
ATOM     11  C   UNL d   1       4.809  -0.701  -0.369  0.00  0.00     0.183 A 
ATOM     12  HN  UNL d   1       3.143  -1.820  -1.014  1.00  0.00     0.169 HD
ATOM     13  O   UNL d   1       4.978   0.450   0.347  0.00  0.00    -0.217 OA
ATOM     14  N   UNL d   1       3.705   0.915   0.667  0.00  0.00    -0.242 N 
ATOM     15  HN  UNL d   1       3.455   1.742   1.208  1.00  0.00     0.196 HD
BRANCH  11  16
ATOM     16  C   UNL d   1       6.010  -1.364  -0.854  0.00  0.00     0.039 A 
ATOM     17  C   UNL d   1       6.079  -2.757  -1.027  0.00  0.00     0.048 A 
ATOM     18 CL   UNL d   1       4.796  -3.828  -0.569  0.00  0.00    -0.083 Cl
ATOM     19  C   UNL d   1       7.225  -3.351  -1.564  0.00  0.00     0.025 A 
ATOM     20  C   UNL d   1       8.317  -2.568  -1.940  0.00  0.00     0.002 A 
ATOM     21  C   UNL d   1       8.273  -1.189  -1.759  0.00  0.00     0.001 A 
ATOM     22  C   UNL d   1       7.132  -0.592  -1.215  0.00  0.00     0.017 A 
ENDBRANCH  11  16
ENDBRANCH   2   9
BRANCH   1  23
ATOM     23  C   UNL d   1      -1.457   2.429   0.004  0.00  0.00     0.175 C 
BRANCH  23  24
ATOM     24  C   UNL d   1      -2.066   2.706   1.366  0.00  0.00    -0.040 A 
ATOM     25  C   UNL d   1      -1.365   3.437   2.336  0.00  0.00     0.009 A 
ATOM     26  C   UNL d   1      -1.892   3.593   3.622  0.00  0.00     0.001 A 
ATOM     27  C   UNL d   1      -3.122   3.024   3.948  0.00  0.00     0.000 A 
ATOM     28  C   UNL d   1      -3.843   2.328   2.982  0.00  0.00     0.001 A 
ATOM     29  C   UNL d   1      -3.320   2.174   1.698  0.00  0.00     0.009 A 
ENDBRANCH  23  24
ENDBRANCH   1  23
BRANCH   5  30
ATOM     30  C   UNL d   1      -1.332  -2.486  -0.043  0.00  0.00     0.086 C 
ATOM     31  C   UNL d   1      -1.330  -3.086  -1.450  0.00  0.00     0.032 C 
ATOM     32  C   UNL d   1      -0.813  -3.512   0.977  0.00  0.00     0.032 C 
ENDBRANCH   5  30
TORSDOF 5
