REMARK  3 active torsions:
REMARK  status: ('A' for Active; 'I' for Inactive)
REMARK    1  A    between atoms: N_2  and  S_1 
REMARK    2  A    between atoms: C_3  and  S_1 
REMARK    3  A    between atoms: S_15  and  C_4 
ROOT
ATOM      1  S   UNL d   1       0.731   0.015   0.081  0.00  0.00     0.268 S 
ATOM      2  O   UNL d   1       0.053  -0.426  -1.122  0.00  0.00    -0.200 OA
ATOM      3  O   UNL d   1       2.169   0.191   0.071  0.00  0.00    -0.200 OA
ENDROOT
BRANCH   1   4
ATOM      4  N   UNL d   1       0.349  -1.044   1.292  0.00  0.00    -0.250 N 
ATOM      5  C   UNL d   1       0.929  -1.253   2.544  0.00  0.00     0.151 C 
ATOM      6  N   UNL d   1       0.567  -2.348   3.135  0.00  0.00    -0.368 N 
ATOM      7  C   UNL d   1      -0.290  -3.074   2.158  0.00  0.00     0.143 C 
ATOM      8  HN  UNL d   1       0.819  -2.651   4.076  1.00  0.00     0.161 HD
ATOM      9  C   UNL d   1      -0.618  -2.107   1.020  0.00  0.00     0.163 C 
BRANCH   5  10
ATOM     10  S   UNL d   1       1.964  -0.080   3.270  0.00  0.00    -0.098 SA
ATOM     11  C   UNL d   1       2.201  -0.826   4.899  0.00  0.00     0.099 C 
ENDBRANCH   5  10
ENDBRANCH   1   4
BRANCH   1  12
ATOM     12  C   UNL d   1       0.059   1.628   0.395  0.00  0.00     0.103 A 
ATOM     13  C   UNL d   1       0.478   2.601  -0.540  0.00  0.00     0.052 A 
ATOM     14  C   UNL d   1       0.070   3.931  -0.435  0.00  0.00     0.057 A 
ATOM     15 CL   UNL d   1       0.603   5.040  -1.646  0.00  0.00    -0.083 Cl
ATOM     16  C   UNL d   1      -0.750   4.312   0.624  0.00  0.00     0.057 A 
ATOM     17  C   UNL d   1      -1.187   3.349   1.540  0.00  0.00     0.051 A 
ATOM     18 CL   UNL d   1      -1.273   5.941   0.855  0.00  0.00    -0.082 Cl
ATOM     19  C   UNL d   1      -0.807   1.999   1.419  0.00  0.00     0.059 A 
ATOM     20 CL   UNL d   1      -1.543   0.937   2.555  0.00  0.00    -0.083 Cl
ENDBRANCH   1  12
TORSDOF 3
