REMARK  3 active torsions:
REMARK  status: ('A' for Active; 'I' for Inactive)
REMARK    1  A    between atoms: C_2  and  C_1 
REMARK    2  A    between atoms: C_14  and  N_3 
REMARK    3  A    between atoms: C_13  and  C_8 
ROOT
ATOM      1  C   UNL d   1      -0.398  -2.695  -0.123  0.00  0.00     0.065 A 
ATOM      2  C   UNL d   1      -1.254  -3.245  -1.054  0.00  0.00     0.124 A 
ATOM      3  N   UNL d   1      -0.576  -4.925   0.292  0.00  0.00    -0.271 N 
ATOM      4  HN  UNL d   1      -0.454  -5.850   0.704  1.00  0.00     0.194 HD
ATOM      5  O   UNL d   1      -1.360  -4.586  -0.799  0.00  0.00    -0.236 OA
ATOM      6  C   UNL d   1      -0.016  -3.782   0.689  0.00  0.00     0.132 A 
ENDROOT
BRANCH   1   7
ATOM      7  C   UNL d   1      -0.026  -1.268   0.020  0.00  0.00     0.153 C 
ATOM      8  N   UNL d   1       1.100  -0.722   0.619  0.00  0.00    -0.224 N 
ATOM      9  N   UNL d   1       0.844   0.586   0.863  0.00  0.00     0.001 NA
ATOM     10  N   UNL d   1      -0.283   0.858   0.224  0.00  0.00    -0.007 NA
ATOM     11  N   UNL d   1      -0.821  -0.273  -0.326  0.00  0.00    -0.269 N 
ATOM     12  HN  UNL d   1      -1.667  -0.336  -0.892  1.00  0.00     0.185 HD
BRANCH   8  13
ATOM     13  C   UNL d   1       2.385  -1.271   0.847  0.00  0.00     0.056 A 
ATOM     14  C   UNL d   1       2.845  -2.366   0.100  0.00  0.00     0.031 A 
ATOM     15  C   UNL d   1       4.125  -2.877   0.323  0.00  0.00     0.002 A 
ATOM     16  C   UNL d   1       4.952  -2.295   1.280  0.00  0.00     0.000 A 
ATOM     17  C   UNL d   1       4.511  -1.189   2.005  0.00  0.00     0.002 A 
ATOM     18  C   UNL d   1       3.235  -0.667   1.784  0.00  0.00     0.031 A 
ENDBRANCH   8  13
ENDBRANCH   1   7
BRANCH   2  19
ATOM     19  C   UNL d   1      -1.967  -2.787  -2.239  0.00  0.00     0.001 A 
ATOM     20  C   UNL d   1      -1.417  -1.805  -3.076  0.00  0.00     0.016 A 
ATOM     21  C   UNL d   1      -2.089  -1.384  -4.228  0.00  0.00     0.024 A 
ATOM     22  C   UNL d   1      -3.318  -1.948  -4.555  0.00  0.00     0.034 A 
ATOM     23  C   UNL d   1      -3.880  -2.929  -3.742  0.00  0.00     0.024 A 
ATOM     24 CL   UNL d   1      -4.142  -1.437  -5.975  0.00  0.00    -0.084 Cl
ATOM     25  C   UNL d   1      -3.206  -3.347  -2.590  0.00  0.00     0.016 A 
ENDBRANCH   2  19
TORSDOF 3
