REMARK  3 active torsions:
REMARK  status: ('A' for Active; 'I' for Inactive)
REMARK    1  A    between atoms: C_9  and  N_1 
REMARK    2  A    between atoms: C_12  and  N_2 
REMARK    3  A    between atoms: C_16  and  C_12 
ROOT
ATOM      1  N   UNL d   1       0.930  -1.400   0.076  0.00  0.00    -0.246 N 
ATOM      2  N   UNL d   1       2.105   0.688  -0.021  0.00  0.00    -0.260 N 
ATOM      3  C   UNL d   1       2.158  -0.721   0.091  0.00  0.00     0.338 A 
ATOM      4  C   UNL d   1      -0.251  -0.697  -0.031  0.00  0.00     0.150 A 
ATOM      5  C   UNL d   1      -0.240   0.665  -0.093  0.00  0.00     0.147 A 
ATOM      6  C   UNL d   1       0.939   1.451  -0.110  0.00  0.00     0.282 A 
ATOM      7  N   UNL d   1      -1.532  -1.174  -0.036  0.00  0.00    -0.336 N 
ATOM      8  HN  UNL d   1      -1.832  -2.148  -0.009  1.00  0.00     0.168 HD
ATOM      9  N   UNL d   1      -1.549   1.048  -0.120  0.00  0.00    -0.345 N 
ATOM     10  C   UNL d   1      -2.295  -0.100  -0.085  0.00  0.00     0.182 A 
ATOM     11  O   UNL d   1       3.243  -1.307   0.161  0.00  0.00    -0.246 OA
ATOM     12  O   UNL d   1       0.903   2.673  -0.209  0.00  0.00    -0.265 OA
ATOM     13  H   UNL d   1      -1.894   1.999  -0.145  0.00  0.00     0.167 HD
ENDROOT
BRANCH   2  14
ATOM     14  C   UNL d   1       3.374   1.404  -0.061  0.00  0.00     0.175 C 
BRANCH  14  15
ATOM     15  C   UNL d   1       3.832   1.827   1.318  0.00  0.00    -0.040 A 
ATOM     16  C   UNL d   1       4.673   1.000   2.076  0.00  0.00     0.010 A 
ATOM     17  C   UNL d   1       5.046   1.365   3.372  0.00  0.00     0.024 A 
ATOM     18  C   UNL d   1       4.575   2.556   3.919  0.00  0.00     0.034 A 
ATOM     19  C   UNL d   1       3.750   3.395   3.174  0.00  0.00     0.024 A 
ATOM     20 CL   UNL d   1       5.002   2.987   5.529  0.00  0.00    -0.084 Cl
ATOM     21  C   UNL d   1       3.382   3.034   1.878  0.00  0.00     0.010 A 
ENDBRANCH  14  15
ENDBRANCH   2  14
BRANCH   1  22
ATOM     22  C   UNL d   1       0.860  -2.814   0.121  0.00  0.00     0.051 A 
ATOM     23  C   UNL d   1       1.341  -3.545   1.227  0.00  0.00    -0.035 A 
ATOM     24  C   UNL d   1       1.780  -2.901   2.513  0.00  0.00     0.050 C 
ATOM     25  C   UNL d   1       1.381  -4.948   1.150  0.00  0.00     0.009 A 
ATOM     26  C   UNL d   1       0.940  -5.618   0.009  0.00  0.00     0.001 A 
ATOM     27  C   UNL d   1       0.430  -4.896  -1.066  0.00  0.00     0.002 A 
ATOM     28  C   UNL d   1       0.381  -3.503  -1.006  0.00  0.00     0.031 A 
ENDBRANCH   1  22
TORSDOF 3
