REMARK  6 active torsions:
REMARK  status: ('A' for Active; 'I' for Inactive)
REMARK    1  A    between atoms: C_4  and  S_1 
REMARK    2  A    between atoms: N_5  and  S_1 
REMARK       I    between atoms: C_3  and  N_2 
REMARK    3  A    between atoms: O_22  and  C_3 
REMARK    4  A    between atoms: C_19  and  N_5 
REMARK    5  A    between atoms: N_7  and  C_8 
REMARK       I    between atoms: C_12  and  N_7 
REMARK    6  A    between atoms: C_25  and  O_22 
ROOT
ATOM      1  S   UNL d   1       1.358  -0.564   1.127  0.00  0.00     0.259 S 
ATOM      2  O   UNL d   1       0.422   0.324   1.777  0.00  0.00    -0.201 OA
ATOM      3  O   UNL d   1       2.291  -1.358   1.893  0.00  0.00    -0.201 OA
ENDROOT
BRANCH   1   4
ATOM      4  C   UNL d   1       2.281   0.396  -0.047  0.00  0.00     0.081 A 
ATOM      5  C   UNL d   1       1.829   1.668  -0.411  0.00  0.00     0.051 A 
ATOM      6  C   UNL d   1       2.606   2.452  -1.270  0.00  0.00     0.062 A 
ATOM      7 CL   UNL d   1       2.017   4.024  -1.694  0.00  0.00    -0.082 Cl
ATOM      8  C   UNL d   1       3.827   1.976  -1.787  0.00  0.00     0.056 A 
ATOM      9  C   UNL d   1       4.271   0.713  -1.381  0.00  0.00     0.033 A 
ATOM     10  C   UNL d   1       3.511  -0.071  -0.506  0.00  0.00     0.027 A 
BRANCH   8  11
ATOM     11  N   UNL d   1       4.579   2.802  -2.663  0.00  0.00    -0.326 N 
ATOM     12  C   UNL d   1       5.651   2.414  -3.443  0.00  0.00     0.218 C 
ATOM     13  O   UNL d   1       6.075   1.270  -3.571  0.00  0.00    -0.274 OA
ATOM     14  C   UNL d   1       6.308   3.551  -4.186  0.00  0.00     0.117 C 
ATOM     15  H   UNL d   1       4.216   3.741  -2.789  0.00  0.00     0.169 HD
ENDBRANCH   8  11
ENDBRANCH   1   4
BRANCH   1  16
ATOM     16  N   UNL d   1       0.419  -1.583   0.180  0.00  0.00    -0.310 N 
ATOM     17  H   UNL d   1      -0.512  -1.200   0.013  0.00  0.00     0.172 HD
BRANCH  16  18
ATOM     18  C   UNL d   1       0.965  -2.558  -0.785  0.00  0.00     0.096 C 
ATOM     19  C   UNL d   1      -0.201  -3.155  -1.601  0.00  0.00     0.045 C 
ATOM     20  C   UNL d   1      -1.013  -4.174  -0.806  0.00  0.00     0.130 C 
ATOM     21  N   UNL d   1      -0.131  -5.175  -0.234  0.00  0.00    -0.328 N 
ATOM     22  C   UNL d   1       0.910  -4.658   0.647  0.00  0.00     0.130 C 
ATOM     23  C   UNL d   1      -0.349  -6.516  -0.477  0.00  0.00     0.362 C 
ATOM     24  C   UNL d   1       1.784  -3.675  -0.124  0.00  0.00     0.045 C 
ATOM     25  O   UNL d   1      -1.268  -6.945  -1.166  0.00  0.00    -0.238 OA
BRANCH  23  26
ATOM     26  O   UNL d   1       0.550  -7.309   0.162  0.00  0.00    -0.304 OA
BRANCH  26  27
ATOM     27  C   UNL d   1       0.200  -8.695   0.260  0.00  0.00     0.176 C 
ATOM     28  C   UNL d   1      -0.642  -8.876   1.510  0.00  0.00     0.034 C 
ENDBRANCH  26  27
ENDBRANCH  23  26
ENDBRANCH  16  18
ENDBRANCH   1  16
TORSDOF 6
