REMARK  2 active torsions:
REMARK  status: ('A' for Active; 'I' for Inactive)
REMARK       I    between atoms: N_2  and  C_1 
REMARK       I    between atoms: N_4  and  C_1 
REMARK    1  A    between atoms: C_3  and  C_5 
REMARK    2  A    between atoms: C_14  and  N_4 
ROOT
ATOM      1  C   UNL d   1       0.919  -0.244  -0.003  0.00  0.00     0.322 C 
ATOM      2  N   UNL d   1       0.075  -1.181  -0.605  0.00  0.00    -0.334 N 
ATOM      3  N   UNL d   1       0.600   1.071  -0.223  0.00  0.00    -0.309 N 
ATOM      4  C   UNL d   1      -2.063  -3.112  -1.042  0.00  0.00     0.096 C 
ATOM      5  O   UNL d   1       1.871  -0.609   0.686  0.00  0.00    -0.247 OA
ATOM      6  C   UNL d   1      -0.911  -0.923  -1.650  0.00  0.00     0.128 C 
ATOM      7  C   UNL d   1       0.361  -2.600  -0.379  0.00  0.00     0.128 C 
ATOM      8  C   UNL d   1      -2.225  -1.604  -1.287  0.00  0.00     0.033 C 
ATOM      9  C   UNL d   1      -0.919  -3.374  -0.046  0.00  0.00     0.033 C 
ATOM     10  H   UNL d   1      -0.332   1.258  -0.552  0.00  0.00     0.170 HD
ENDROOT
BRANCH   3  11
ATOM     11  C   UNL d   1       1.336   2.215   0.161  0.00  0.00     0.036 A 
ATOM     12  C   UNL d   1       2.604   2.169   0.748  0.00  0.00     0.031 A 
ATOM     13  C   UNL d   1       3.275   3.347   1.095  0.00  0.00     0.026 A 
ATOM     14  C   UNL d   1       2.685   4.582   0.844  0.00  0.00     0.034 A 
ATOM     15  C   UNL d   1       1.427   4.649   0.252  0.00  0.00     0.026 A 
ATOM     16 CL   UNL d   1       3.515   6.029   1.263  0.00  0.00    -0.084 Cl
ATOM     17  C   UNL d   1       0.756   3.468  -0.086  0.00  0.00     0.031 A 
ENDBRANCH   3  11
BRANCH   4  18
ATOM     18  C   UNL d   1      -1.875  -3.897  -2.334  0.00  0.00     0.391 C 
ATOM     19  F   UNL d   1      -2.780  -3.522  -3.264  0.00  0.00    -0.171 F 
ATOM     20  F   UNL d   1      -0.651  -3.732  -2.871  0.00  0.00    -0.171 F 
ATOM     21  F   UNL d   1      -2.049  -5.220  -2.112  0.00  0.00    -0.171 F 
ENDBRANCH   4  18
TORSDOF 2
