REMARK  5 active torsions:
REMARK  status: ('A' for Active; 'I' for Inactive)
REMARK    1  A    between atoms: C_2  and  S_1 
REMARK    2  A    between atoms: N_8  and  S_1 
REMARK    3  A    between atoms: C_4  and  N_14 
REMARK    4  A    between atoms: C_5  and  C_11 
REMARK    5  A    between atoms: C_32  and  C_6 
ROOT
ATOM      1  N   UNL d   1       1.193   2.479   1.451  0.00  0.00    -0.304 N 
ATOM      2  N   UNL d   1       2.300   4.951   2.510  0.00  0.00    -0.265 NA
ATOM      3  C   UNL d   1       0.748   3.769   0.910  0.00  0.00     0.150 C 
ATOM      4  C   UNL d   1       1.524   2.527   2.881  0.00  0.00     0.150 C 
ATOM      5  C   UNL d   1       2.595   3.605   3.140  0.00  0.00     0.117 C 
ATOM      6  C   UNL d   1       1.869   4.811   1.087  0.00  0.00     0.117 C 
ENDROOT
BRANCH   2   7
ATOM      7  C   UNL d   1       3.542   5.674   2.519  0.00  0.00     0.097 C 
ATOM      8  C   UNL d   1       3.781   6.959   3.093  0.00  0.00     0.048 A 
ATOM      9  C   UNL d   1       2.987   8.100   3.565  0.00  0.00    -0.003 A 
ATOM     10  C   UNL d   1       5.138   7.266   3.241  0.00  0.00     0.089 A 
ATOM     11  C   UNL d   1       3.802   9.085   4.115  0.00  0.00     0.065 A 
ATOM     12  S   UNL d   1       5.451   8.713   4.071  0.00  0.00    -0.082 SA
ATOM     13  N   UNL d   1       6.198   6.561   2.821  0.00  0.00    -0.346 N 
ATOM     14  C   UNL d   1       5.853   5.467   2.170  0.00  0.00     0.182 C 
ATOM     15  HN  UNL d   1       7.165   6.841   2.988  1.00  0.00     0.167 HD
ATOM     16  N   UNL d   1       4.615   5.006   2.000  0.00  0.00    -0.342 N 
ATOM     17  HN  UNL d   1       4.467   4.143   1.476  1.00  0.00     0.167 HD
BRANCH   9  18
ATOM     18  C   UNL d   1       1.579   8.483   3.365  0.00  0.00    -0.024 A 
ATOM     19  C   UNL d   1       0.999   8.383   2.098  0.00  0.00     0.012 A 
ATOM     20  C   UNL d   1      -0.219   9.018   1.815  0.00  0.00     0.001 A 
ATOM     21  C   UNL d   1      -0.857   9.783   2.789  0.00  0.00     0.000 A 
ATOM     22  C   UNL d   1      -0.304   9.879   4.062  0.00  0.00     0.001 A 
ATOM     23  C   UNL d   1       0.893   9.216   4.354  0.00  0.00     0.012 A 
ENDBRANCH   9  18
ENDBRANCH   2   7
BRANCH   1  24
ATOM     24  S   UNL d   1       1.197   1.086   0.541  0.00  0.00     0.267 S 
ATOM     25  O   UNL d   1       1.646  -0.022   1.355  0.00  0.00    -0.200 OA
ATOM     26  O   UNL d   1      -0.051   1.038  -0.186  0.00  0.00    -0.200 OA
BRANCH  24  27
ATOM     27  C   UNL d   1       2.429   1.262  -0.746  0.00  0.00     0.121 A 
ATOM     28  S   UNL d   1       4.073   1.231  -0.271  0.00  0.00    -0.074 SA
ATOM     29  C   UNL d   1       4.622   1.390  -1.885  0.00  0.00     0.033 A 
ATOM     30  C   UNL d   1       3.569   1.500  -2.770  0.00  0.00     0.023 A 
ATOM     31  C   UNL d   1       2.305   1.417  -2.116  0.00  0.00     0.034 A 
BRANCH  29  32
ATOM     32  C   UNL d   1       6.059   1.412  -2.327  0.00  0.00     0.056 A 
ATOM     33  N   UNL d   1       6.394   1.641  -3.656  0.00  0.00    -0.353 N 
ATOM     34  C   UNL d   1       7.700   1.629  -3.804  0.00  0.00     0.047 A 
ATOM     35  HN  UNL d   1       5.723   1.797  -4.408  1.00  0.00     0.166 HD
ATOM     36  C   UNL d   1       8.412   1.859  -5.092  0.00  0.00     0.076 C 
ATOM     37  S   UNL d   1       8.602   1.315  -2.373  0.00  0.00    -0.087 SA
ATOM     38  C   UNL d   1       7.136   1.210  -1.488  0.00  0.00     0.082 A 
ENDBRANCH  29  32
ENDBRANCH  24  27
ENDBRANCH   1  24
TORSDOF 5
