REMARK  6 active torsions:
REMARK  status: ('A' for Active; 'I' for Inactive)
REMARK    1  A    between atoms: C_6  and  N_1 
REMARK    2  A    between atoms: C_9  and  C_6 
REMARK    3  A    between atoms: N_7  and  C_10 
REMARK    4  A    between atoms: C_8  and  N_7 
REMARK    5  A    between atoms: C_10  and  C_9 
REMARK    6  A    between atoms: O_15  and  C_9 
ROOT
ATOM      1  N   UNL d   1       0.169  -1.538  -0.341  0.00  0.00    -0.343 N 
ATOM      2  C   UNL d   1      -0.575  -0.671   0.438  0.00  0.00     0.046 A 
ATOM      3  C   UNL d   1       1.011  -0.834  -1.186  0.00  0.00     0.046 A 
ATOM      4  C   UNL d   1      -0.123   0.621   0.156  0.00  0.00     0.003 A 
ATOM      5  C   UNL d   1       0.889   0.514  -0.846  0.00  0.00     0.003 A 
ATOM      6  C   UNL d   1      -1.605  -0.900   1.369  0.00  0.00     0.030 A 
ATOM      7  C   UNL d   1       1.879  -1.261  -2.206  0.00  0.00     0.030 A 
ATOM      8  C   UNL d   1       1.696   1.462  -1.511  0.00  0.00     0.014 A 
ATOM      9  C   UNL d   1      -0.708   1.713   0.832  0.00  0.00     0.014 A 
ATOM     10  C   UNL d   1       2.663  -0.302  -2.853  0.00  0.00     0.002 A 
ATOM     11  C   UNL d   1      -1.736   1.492   1.752  0.00  0.00     0.001 A 
ATOM     12  C   UNL d   1       2.583   1.042  -2.506  0.00  0.00     0.001 A 
ATOM     13  C   UNL d   1      -2.180   0.201   2.012  0.00  0.00     0.002 A 
ENDROOT
BRANCH   1  14
ATOM     14  C   UNL d   1       0.087  -2.988  -0.271  0.00  0.00     0.163 C 
BRANCH  14  15
ATOM     15  C   UNL d   1       1.383  -3.704   0.137  0.00  0.00     0.164 C 
BRANCH  15  16
ATOM     16  C   UNL d   1       2.079  -3.103   1.379  0.00  0.00     0.303 C 
BRANCH  16  17
ATOM     17  N   UNL d   1       3.305  -3.882   1.659  0.00  0.00     0.094 N 
ATOM     18  H   UNL d   1       3.900  -3.846   0.827  0.00  0.00     0.317 HD
BRANCH  17  19
ATOM     19  C   UNL d   1       4.104  -3.417   2.815  0.00  0.00     0.147 C 
ATOM     20  C   UNL d   1       3.346  -3.637   4.133  0.00  0.00     0.048 C 
ATOM     21  C   UNL d   1       5.382  -4.281   2.841  0.00  0.00     0.048 C 
ATOM     22  C   UNL d   1       4.531  -1.944   2.692  0.00  0.00     0.048 C 
ENDBRANCH  17  19
ENDBRANCH  16  17
ENDBRANCH  15  16
BRANCH  15  23
ATOM     23  O   UNL d   1       1.071  -5.083   0.410  0.00  0.00    -0.392 OA
ATOM     24  H   UNL d   1       1.770  -5.383   1.026  0.00  0.00     0.210 HD
ENDBRANCH  15  23
ENDBRANCH  14  15
ENDBRANCH   1  14
TORSDOF 6
