REMARK  3 active torsions:
REMARK  status: ('A' for Active; 'I' for Inactive)
REMARK    1  A    between atoms: N_3  and  N_1 
REMARK    2  A    between atoms: C_7  and  C_5 
REMARK    3  A    between atoms: C_8  and  C_6 
ROOT
ATOM      1  N   UNL d   1       0.947  -0.032  -0.074  0.00  0.00    -0.304 N 
ATOM      2  HN  UNL d   1       0.430  -0.911  -0.058  1.00  0.00     0.186 HD
ATOM      3  C   UNL d   1       2.249   0.015  -0.068  0.00  0.00     0.032 C 
ATOM      4  C   UNL d   1       3.047   1.307  -0.079  0.00  0.00     0.070 C 
ENDROOT
BRANCH   1   5
ATOM      5  N   UNL d   1       0.316   1.201  -0.104  0.00  0.00    -0.304 N 
ATOM      6  C   UNL d   1      -0.986   1.154  -0.118  0.00  0.00     0.032 C 
ATOM      7  C   UNL d   1      -1.785  -0.138  -0.090  0.00  0.00     0.070 C 
ATOM      8  HN  UNL d   1       0.832   2.081  -0.114  1.00  0.00     0.186 HD
BRANCH   6   9
ATOM      9  C   UNL d   1      -1.756   2.449  -0.168  0.00  0.00    -0.013 A 
ATOM     10  C   UNL d   1      -1.058   3.663  -0.203  0.00  0.00     0.014 A 
ATOM     11  C   UNL d   1      -1.747   4.880  -0.263  0.00  0.00     0.007 A 
ATOM     12  C   UNL d   1      -3.146   4.904  -0.289  0.00  0.00    -0.062 A 
ATOM     13  C   UNL d   1      -3.844   3.694  -0.250  0.00  0.00     0.007 A 
ATOM     14  C   UNL d   1      -3.873   6.214  -0.363  0.00  0.00     0.048 C 
ATOM     15  C   UNL d   1      -3.156   2.476  -0.189  0.00  0.00     0.014 A 
ENDBRANCH   6   9
ENDBRANCH   1   5
BRANCH   3  16
ATOM     16  C   UNL d   1       3.018  -1.279  -0.054  0.00  0.00    -0.013 A 
ATOM     17  C   UNL d   1       2.322  -2.495  -0.051  0.00  0.00     0.014 A 
ATOM     18  C   UNL d   1       3.010  -3.713  -0.052  0.00  0.00     0.007 A 
ATOM     19  C   UNL d   1       4.409  -3.738  -0.055  0.00  0.00    -0.062 A 
ATOM     20  C   UNL d   1       5.107  -2.527  -0.053  0.00  0.00     0.007 A 
ATOM     21  C   UNL d   1       5.138  -5.050  -0.064  0.00  0.00     0.048 C 
ATOM     22  C   UNL d   1       4.419  -1.308  -0.052  0.00  0.00     0.014 A 
ENDBRANCH   3  16
TORSDOF 3
