REMARK  3 active torsions:
REMARK  status: ('A' for Active; 'I' for Inactive)
REMARK    1  A    between atoms: N_4  and  C_3 
REMARK    2  A    between atoms: C_8  and  N_4 
REMARK    3  A    between atoms: C_9  and  C_5 
ROOT
ATOM      1  N   UNL d   1       1.664   3.032  -4.961  0.00  0.00    -0.195 NA
ATOM      2  C   UNL d   1       1.338   2.638  -3.914  0.00  0.00     0.085 C 
ATOM      3  C   UNL d   1       0.922   2.165  -2.560  0.00  0.00     0.105 C 
ATOM      4  C   UNL d   1       1.780   2.827  -1.454  0.00  0.00     0.041 C 
ATOM      5  C   UNL d   1      -0.564   2.581  -2.357  0.00  0.00     0.041 C 
ATOM      6  C   UNL d   1       1.573   4.342  -1.347  0.00  0.00     0.003 C 
ATOM      7  C   UNL d   1      -0.766   4.094  -2.247  0.00  0.00     0.003 C 
ATOM      8  C   UNL d   1       0.104   4.696  -1.152  0.00  0.00     0.000 C 
ENDROOT
BRANCH   3   9
ATOM      9  N   UNL d   1       0.974   0.679  -2.403  0.00  0.00    -0.271 NA
ATOM     10  H   UNL d   1       0.051   0.260  -2.487  0.00  0.00     0.129 HD
BRANCH   9  11
ATOM     11  C   UNL d   1       1.921  -0.112  -3.068  0.00  0.00     0.009 A 
ATOM     12  C   UNL d   1       3.221   0.310  -3.348  0.00  0.00     0.024 A 
ATOM     13  C   UNL d   1       4.122  -0.505  -4.039  0.00  0.00     0.009 A 
ATOM     14  C   UNL d   1       3.769  -1.799  -4.431  0.00  0.00    -0.055 A 
ATOM     15  C   UNL d   1       2.495  -2.262  -4.090  0.00  0.00     0.009 A 
ATOM     16  C   UNL d   1       1.591  -1.433  -3.407  0.00  0.00     0.024 A 
BRANCH  14  17
ATOM     17  C   UNL d   1       4.740  -2.673  -5.202  0.00  0.00     0.010 C 
ATOM     18  C   UNL d   1       5.117  -2.039  -6.546  0.00  0.00     0.015 C 
ATOM     19  C   UNL d   1       5.998  -2.972  -4.383  0.00  0.00     0.015 C 
ENDBRANCH  14  17
ENDBRANCH   9  11
ENDBRANCH   3   9
TORSDOF 3
