REMARK  5 active torsions:
REMARK  status: ('A' for Active; 'I' for Inactive)
REMARK    1  A    between atoms: N_2  and  S_1 
REMARK    2  A    between atoms: C_16  and  S_1 
REMARK    3  A    between atoms: C_6  and  C_5 
REMARK    4  A    between atoms: C_10  and  C_11 
REMARK    5  A    between atoms: C_18  and  C_12 
ROOT
ATOM      1  N   UNL d   1       0.669  -0.701  -1.552  0.00  0.00    -0.188 N 
ATOM      2  N   UNL d   1       0.252  -0.049  -2.681  0.00  0.00    -0.284 N 
ATOM      3  HN  UNL d   1       0.228   0.955  -2.860  1.00  0.00     0.188 HD
ATOM      4  C   UNL d   1      -0.117  -1.048  -3.494  0.00  0.00     0.067 C 
ATOM      5  C   UNL d   1       0.764  -2.059  -1.736  0.00  0.00     0.132 C 
ATOM      6  C   UNL d   1       0.254  -2.312  -2.980  0.00  0.00     0.052 C 
ENDROOT
BRANCH   4   7
ATOM      7  C   UNL d   1      -0.852  -0.852  -4.780  0.00  0.00     0.034 A 
ATOM      8  S   UNL d   1      -1.339  -2.164  -5.758  0.00  0.00    -0.079 SA
ATOM      9  C   UNL d   1      -2.091  -1.135  -6.884  0.00  0.00     0.059 A 
ATOM     10  C   UNL d   1      -1.924   0.193  -6.559  0.00  0.00     0.029 A 
ATOM     11  C   UNL d   1      -1.236   0.359  -5.314  0.00  0.00     0.023 A 
BRANCH   9  12
ATOM     12  C   UNL d   1      -2.796  -1.661  -8.006  0.00  0.00    -0.054 C 
ATOM     13  C   UNL d   1      -3.385  -2.218  -8.883  0.00  0.00    -0.061 C 
BRANCH  13  14
ATOM     14  C   UNL d   1      -4.086  -2.976  -9.876  0.00  0.00     0.018 A 
ATOM     15  C   UNL d   1      -3.464  -4.070 -10.483  0.00  0.00     0.020 A 
ATOM     16  C   UNL d   1      -4.152  -4.827 -11.432  0.00  0.00     0.001 A 
ATOM     17  C   UNL d   1      -5.463  -4.493 -11.771  0.00  0.00     0.000 A 
ATOM     18  C   UNL d   1      -6.088  -3.406 -11.159  0.00  0.00     0.001 A 
ATOM     19  C   UNL d   1      -5.400  -2.647 -10.211  0.00  0.00     0.020 A 
ENDBRANCH  13  14
ENDBRANCH   9  12
ENDBRANCH   4   7
BRANCH   1  20
ATOM     20  S   UNL d   1       1.090   0.025  -0.036  0.00  0.00     0.282 S 
ATOM     21  O   UNL d   1       1.416  -1.083   0.848  0.00  0.00    -0.198 OA
ATOM     22  O   UNL d   1       0.028   0.963   0.275  0.00  0.00    -0.198 OA
BRANCH  20  23
ATOM     23  C   UNL d   1       2.574   0.928  -0.363  0.00  0.00     0.081 A 
ATOM     24  C   UNL d   1       2.570   1.942  -1.324  0.00  0.00     0.025 A 
ATOM     25  C   UNL d   1       3.718   2.711  -1.509  0.00  0.00     0.002 A 
ATOM     26  C   UNL d   1       4.860   2.465  -0.745  0.00  0.00     0.000 A 
ATOM     27  C   UNL d   1       4.862   1.446   0.207  0.00  0.00     0.002 A 
ATOM     28  C   UNL d   1       3.716   0.678   0.407  0.00  0.00     0.025 A 
ENDBRANCH  20  23
ENDBRANCH   1  20
TORSDOF 5
