REMARK  4 active torsions:
REMARK  status: ('A' for Active; 'I' for Inactive)
REMARK    1  A    between atoms: C_5  and  C_16 
REMARK    2  A    between atoms: C_15  and  C_6 
REMARK    3  A    between atoms: N_25  and  C_23 
REMARK    4  A    between atoms: N_26  and  C_24 
ROOT
ATOM      1  C   UNL d   1      -3.883  -0.058  -0.080  0.00  0.00     0.008 A 
ATOM      2  C   UNL d   1      -6.713  -0.257  -0.196  0.00  0.00     0.008 A 
ATOM      3  C   UNL d   1      -6.010  -0.719   0.923  0.00  0.00     0.016 A 
ATOM      4  C   UNL d   1      -5.990   0.325  -1.243  0.00  0.00     0.016 A 
ATOM      5  C   UNL d   1      -4.613  -0.620   0.977  0.00  0.00     0.016 A 
ATOM      6  C   UNL d   1      -4.595   0.432  -1.184  0.00  0.00     0.016 A 
ENDROOT
BRANCH   1   7
ATOM      7  C   UNL d   1      -2.414  -0.044  -0.017  0.00  0.00     0.116 A 
ATOM      8  N   UNL d   1      -1.670  -0.554   0.952  0.00  0.00    -0.340 N 
ATOM      9  C   UNL d   1      -0.361  -0.377   0.568  0.00  0.00     0.062 A 
ATOM     10  HN  UNL d   1      -2.001  -0.991   1.812  1.00  0.00     0.167 HD
ATOM     11  C   UNL d   1      -0.293   0.276  -0.652  0.00  0.00     0.060 A 
ATOM     12  C   UNL d   1       0.831  -0.744   1.213  0.00  0.00     0.055 A 
ATOM     13  C   UNL d   1       0.906   0.606  -1.282  0.00  0.00     0.034 A 
ATOM     14  N   UNL d   1      -1.602   0.486  -0.994  0.00  0.00    -0.340 N 
ATOM     15  C   UNL d   1       2.081   0.229  -0.620  0.00  0.00     0.026 A 
ATOM     16  C   UNL d   1       2.060  -0.483   0.586  0.00  0.00     0.008 A 
ATOM     17  H   UNL d   1      -1.914   0.942  -1.836  0.00  0.00     0.167 HD
BRANCH  16  18
ATOM     18  N   UNL d   1       3.262  -0.726   1.269  0.00  0.00    -0.303 NA
ATOM     19  H   UNL d   1       3.200  -1.487   1.940  0.00  0.00     0.124 HD
ATOM     20  H   UNL d   1       4.069  -0.814   0.660  0.00  0.00     0.124 HD
ENDBRANCH  16  18
ENDBRANCH   1   7
BRANCH   2  21
ATOM     21  C   UNL d   1      -8.165  -0.401  -0.315  0.00  0.00     0.116 A 
ATOM     22  N   UNL d   1      -8.843  -0.571  -1.437  0.00  0.00    -0.340 N 
ATOM     23  C   UNL d   1     -10.164  -0.679  -1.072  0.00  0.00     0.062 A 
ATOM     24  HN  UNL d   1      -8.462  -0.613  -2.382  1.00  0.00     0.167 HD
ATOM     25  C   UNL d   1     -11.305  -0.888  -1.863  0.00  0.00     0.055 A 
ATOM     26  C   UNL d   1     -10.308  -0.533   0.300  0.00  0.00     0.060 A 
ATOM     27  C   UNL d   1     -12.561  -0.978  -1.245  0.00  0.00     0.008 A 
ATOM     28  C   UNL d   1     -12.668  -0.757   0.134  0.00  0.00     0.026 A 
ATOM     29  C   UNL d   1     -11.543  -0.555   0.946  0.00  0.00     0.034 A 
ATOM     30  N   UNL d   1      -9.028  -0.358   0.756  0.00  0.00    -0.340 N 
ATOM     31  H   UNL d   1      -8.759  -0.199   1.714  0.00  0.00     0.167 HD
BRANCH  27  32
ATOM     32  N   UNL d   1     -13.723  -1.054  -2.029  0.00  0.00    -0.303 NA
ATOM     33  H   UNL d   1     -13.580  -1.513  -2.924  0.00  0.00     0.124 HD
ATOM     34  H   UNL d   1     -14.529  -1.422  -1.533  0.00  0.00     0.124 HD
ENDBRANCH  27  32
ENDBRANCH   2  21
TORSDOF 4
