REMARK  6 active torsions:
REMARK  status: ('A' for Active; 'I' for Inactive)
REMARK    1  A    between atoms: C_2  and  C_1 
REMARK       I    between atoms: N_6  and  C_1 
REMARK    2  A    between atoms: C_3  and  C_7 
REMARK    3  A    between atoms: O_18  and  C_5 
REMARK    4  A    between atoms: C_15  and  N_6 
REMARK    5  A    between atoms: N_9  and  C_16 
REMARK    6  A    between atoms: O_20  and  C_12 
ROOT
ATOM      1  C   UNL d   1      -1.123   1.343  -0.166  0.00  0.00     0.035 A 
ATOM      2  C   UNL d   1      -3.952   1.488  -0.042  0.00  0.00     0.032 A 
ATOM      3  C   UNL d   1      -1.824   0.804   0.911  0.00  0.00     0.032 A 
ATOM      4  C   UNL d   1      -1.846   2.012  -1.159  0.00  0.00     0.032 A 
ATOM      5  C   UNL d   1      -3.219   0.881   0.977  0.00  0.00     0.031 A 
ATOM      6  C   UNL d   1      -3.246   2.082  -1.092  0.00  0.00     0.031 A 
ENDROOT
BRANCH   2   7
ATOM      7  N   UNL d   1      -5.354   1.567  -0.058  0.00  0.00    -0.365 N 
ATOM      8  C   UNL d   1      -6.059   0.593   0.425  0.00  0.00     0.102 C 
ATOM      9  HN  UNL d   1      -5.816   2.388  -0.449  1.00  0.00     0.165 HD
BRANCH   8  10
ATOM     10  C   UNL d   1      -7.537   0.626   0.380  0.00  0.00     0.016 A 
ATOM     11  C   UNL d   1      -8.297  -0.416   0.926  0.00  0.00     0.099 A 
ATOM     12  C   UNL d   1      -9.693  -0.372   0.834  0.00  0.00     0.069 A 
ATOM     13 CL   UNL d   1     -10.649  -1.650   1.492  0.00  0.00    -0.081 Cl
ATOM     14  C   UNL d   1     -10.332   0.697   0.207  0.00  0.00     0.050 A 
ATOM     15  C   UNL d   1      -9.567   1.730  -0.326  0.00  0.00     0.036 A 
ATOM     16  C   UNL d   1      -8.177   1.704  -0.244  0.00  0.00     0.039 A 
ATOM     17 CL   UNL d   1     -10.348   3.055  -1.100  0.00  0.00    -0.084 Cl
BRANCH  11  18
ATOM     18  O   UNL d   1      -7.670  -1.465   1.541  0.00  0.00    -0.358 OA
ATOM     19  H   UNL d   1      -8.364  -2.082   1.862  0.00  0.00     0.217 HD
ENDBRANCH  11  18
ENDBRANCH   8  10
ENDBRANCH   2   7
BRANCH   1  20
ATOM     20  N   UNL d   1       0.279   1.226  -0.323  0.00  0.00    -0.323 N 
ATOM     21  C   UNL d   1       1.133   0.506   0.497  0.00  0.00     0.259 C 
ATOM     22  O   UNL d   1       0.822  -0.105   1.518  0.00  0.00    -0.267 OA
ATOM     23  H   UNL d   1       0.652   1.605  -1.182  0.00  0.00     0.169 HD
BRANCH  21  24
ATOM     24  C   UNL d   1       2.553   0.388   0.063  0.00  0.00     0.065 A 
ATOM     25  C   UNL d   1       3.293  -0.742   0.454  0.00  0.00     0.081 A 
ATOM     26  C   UNL d   1       4.605  -0.921   0.025  0.00  0.00     0.037 A 
ATOM     27  C   UNL d   1       5.204   0.042  -0.785  0.00  0.00     0.003 A 
ATOM     28  C   UNL d   1       4.498   1.190  -1.145  0.00  0.00     0.001 A 
ATOM     29  C   UNL d   1       3.177   1.370  -0.719  0.00  0.00     0.020 A 
BRANCH  25  30
ATOM     30  O   UNL d   1       2.790  -1.726   1.266  0.00  0.00    -0.360 OA
ATOM     31  H   UNL d   1       1.935  -1.402   1.631  0.00  0.00     0.217 HD
ENDBRANCH  25  30
ENDBRANCH  21  24
ENDBRANCH   1  20
TORSDOF 6
