REMARK  6 active torsions:
REMARK  status: ('A' for Active; 'I' for Inactive)
REMARK    1  A    between atoms: C_2  and  N_1 
REMARK    2  A    between atoms: C_3  and  C_7 
REMARK    3  A    between atoms: O_16  and  C_3 
REMARK    4  A    between atoms: N_4  and  C_11 
REMARK    5  A    between atoms: C_11  and  C_10 
REMARK    6  A    between atoms: C_20  and  O_16 
ROOT
ATOM      1  N   UNL d   1       1.362   2.631  -4.062  0.00  0.00     0.092 N 
ATOM      2  C   UNL d   1       3.578   0.657  -3.950  0.00  0.00     0.089 C 
ATOM      3  C   UNL d   1       3.808   2.157  -3.755  0.00  0.00     0.045 C 
ATOM      4  C   UNL d   1       2.367   0.469  -4.865  0.00  0.00     0.045 C 
ATOM      5  C   UNL d   1       1.124   1.206  -4.352  0.00  0.00     0.273 C 
ATOM      6  C   UNL d   1       2.553   2.853  -3.228  0.00  0.00     0.273 C 
ENDROOT
BRANCH   1   7
ATOM      7  C   UNL d   1       0.190   3.215  -3.368  0.00  0.00     0.311 C 
BRANCH   7   8
ATOM      8  C   UNL d   1      -1.057   3.308  -4.222  0.00  0.00    -0.028 A 
ATOM      9  C   UNL d   1      -2.254   2.697  -3.815  0.00  0.00     0.045 A 
ATOM     10  C   UNL d   1      -3.407   2.828  -4.603  0.00  0.00     0.103 A 
ATOM     11  C   UNL d   1      -3.381   3.564  -5.793  0.00  0.00     0.036 A 
ATOM     12  C   UNL d   1      -2.193   4.172  -6.197  0.00  0.00     0.003 A 
ATOM     13  C   UNL d   1      -1.042   4.045  -5.416  0.00  0.00     0.009 A 
BRANCH  10  14
ATOM     14  N   UNL d   1      -4.661   2.196  -4.169  0.00  0.00    -0.116 N 
ATOM     15  O   UNL d   1      -4.668   1.617  -3.074  0.00  0.00    -0.532 OA
ATOM     16  O   UNL d   1      -5.642   2.284  -4.923  0.00  0.00    -0.532 OA
ENDBRANCH  10  14
ENDBRANCH   7   8
ENDBRANCH   1   7
BRANCH   2  17
ATOM     17  C   UNL d   1       3.392  -0.045  -2.611  0.00  0.00     0.263 C 
ATOM     18  O   UNL d   1       2.389  -0.645  -2.260  0.00  0.00    -0.265 OA
BRANCH  17  19
ATOM     19  O   UNL d   1       4.500   0.137  -1.836  0.00  0.00    -0.322 OA
BRANCH  19  20
ATOM     20  C   UNL d   1       4.337  -0.167  -0.443  0.00  0.00     0.174 C 
ATOM     21  C   UNL d   1       3.888   1.098   0.266  0.00  0.00     0.034 C 
ENDBRANCH  19  20
ENDBRANCH  17  19
ENDBRANCH   2  17
TORSDOF 6
