REMARK  7 active torsions:
REMARK  status: ('A' for Active; 'I' for Inactive)
REMARK       I    between atoms: N_8  and  C_1 
REMARK    1  A    between atoms: CA_3  and  C_1 
REMARK    2  A    between atoms: N_4  and  CA_3 
REMARK    3  A    between atoms: CA_9  and  N_8 
REMARK    4  A    between atoms: C_10  and  CA_9 
REMARK    5  A    between atoms: CB_12  and  CA_9 
REMARK    6  A    between atoms: OXT_13  and  C_10 
REMARK    7  A    between atoms: CG_14  and  CB_12 
ROOT
ATOM      1  C   ALA d   1       0.856  -0.079  -1.073  0.00  0.00     0.251 C 
ATOM      2  O   ALA d   1       1.914  -0.201  -1.690  0.00  0.00    -0.271 OA
ATOM      3  N   LEU d   2       0.265  -1.152  -0.443  0.00  0.00    -0.345 N 
ATOM      4  H   LEU d   2      -0.397  -0.957   0.299  0.00  0.00     0.163 HD
ENDROOT
BRANCH   3   5
ATOM      5  CA  LEU d   2       0.901  -2.471  -0.420  0.00  0.00     0.182 C 
BRANCH   5   6
ATOM      6  C   LEU d   2       1.251  -2.819   1.031  0.00  0.00     0.163 C 
ATOM      7  O   LEU d   2       0.606  -2.421   1.996  0.00  0.00    -0.648 OA
BRANCH   6   8
ATOM      8  OXT LEU d   2       2.312  -3.646   1.163  0.00  0.00    -0.775 OA
ATOM      9  HXT LEU d   2       2.768  -3.866   0.327  0.00  0.00     0.167 HD
ENDBRANCH   6   8
ENDBRANCH   5   6
BRANCH   5  10
ATOM     10  CB  LEU d   2      -0.038  -3.541  -0.996  0.00  0.00     0.040 C 
BRANCH  10  11
ATOM     11  CG  LEU d   2      -0.440  -3.302  -2.468  0.00  0.00    -0.020 C 
ATOM     12  CD1 LEU d   2       0.759  -3.337  -3.417  0.00  0.00     0.009 C 
ATOM     13  CD2 LEU d   2      -1.472  -4.343  -2.909  0.00  0.00     0.009 C 
ENDBRANCH  10  11
ENDBRANCH   5  10
ENDBRANCH   3   5
BRANCH   1  14
ATOM     14  CA  ALA d   1       0.042   1.237  -1.077  0.00  0.00     0.304 C 
ATOM     15  CB  ALA d   1       0.974   2.432  -1.247  0.00  0.00     0.053 C 
BRANCH  14  16
ATOM     16  N   ALA d   1      -0.767   1.426   0.137  0.00  0.00     0.091 N 
ATOM     17  H1  ALA d   1      -0.180   1.412   0.969  0.00  0.00     0.313 HD
ATOM     18  H2  ALA d   1      -1.488   0.716   0.221  0.00  0.00     0.313 HD
ENDBRANCH  14  16
ENDBRANCH   1  14
TORSDOF 7
