REMARK  6 active torsions:
REMARK  status: ('A' for Active; 'I' for Inactive)
REMARK    1  A    between atoms: N_2  and  C_1 
REMARK    2  A    between atoms: N_3  and  C_5 
REMARK    3  A    between atoms: O_9  and  C_6 
REMARK    4  A    between atoms: N_7  and  O_9 
REMARK    5  A    between atoms: O_17  and  C_14 
REMARK    6  A    between atoms: C_19  and  O_17 
ROOT
ATOM      1  C   UNL d   1       2.606  -1.490  -0.617  0.00  0.00     0.141 A 
ATOM      2  C   UNL d   1       1.591  -2.403  -0.295  0.00  0.00     0.075 A 
ATOM      3  C   UNL d   1       0.634  -2.031   0.656  0.00  0.00     0.105 A 
ATOM      4  C   UNL d   1       2.664  -0.220  -0.034  0.00  0.00     0.132 A 
ATOM      5  C   UNL d   1       0.690  -0.772   1.273  0.00  0.00     0.039 A 
ATOM      6  C   UNL d   1       1.705   0.125   0.927  0.00  0.00     0.044 A 
ENDROOT
BRANCH   4   7
ATOM      7  O   UNL d   1       3.684   0.644  -0.353  0.00  0.00    -0.234 OA
BRANCH   7   8
ATOM      8  N   UNL d   1       3.173   1.944  -0.478  0.00  0.00    -0.243 N 
ATOM      9  C   UNL d   1       4.057   2.831  -0.147  0.00  0.00     0.134 C 
ATOM     10  C   UNL d   1       5.451   2.598   0.356  0.00  0.00     0.099 C 
ATOM     11  HN  UNL d   1       2.227   2.163  -0.789  1.00  0.00     0.196 HD
BRANCH   9  12
ATOM     12  O   UNL d   1       3.796   4.168  -0.185  0.00  0.00    -0.338 OA
BRANCH  12  13
ATOM     13  C   UNL d   1       2.577   4.579  -0.825  0.00  0.00     0.172 C 
ATOM     14  C   UNL d   1       2.400   6.068  -0.592  0.00  0.00     0.034 C 
ENDBRANCH  12  13
ENDBRANCH   9  12
ENDBRANCH   7   8
ENDBRANCH   4   7
BRANCH   1  15
ATOM     15  N   UNL d   1       3.614  -1.895  -1.579  0.00  0.00    -0.113 N 
ATOM     16  O   UNL d   1       3.207  -2.374  -2.646  0.00  0.00    -0.532 OA
ATOM     17  O   UNL d   1       4.800  -1.787  -1.245  0.00  0.00    -0.532 OA
ENDBRANCH   1  15
BRANCH   3  18
ATOM     18  N   UNL d   1      -0.433  -2.970   1.029  0.00  0.00    -0.116 N 
ATOM     19  O   UNL d   1      -0.442  -4.074   0.469  0.00  0.00    -0.532 OA
ATOM     20  O   UNL d   1      -1.250  -2.603   1.881  0.00  0.00    -0.532 OA
ENDBRANCH   3  18
TORSDOF 6
