REMARK  4 active torsions:
REMARK  status: ('A' for Active; 'I' for Inactive)
REMARK    1  A    between atoms: C_6  and  C_1 
REMARK    2  A    between atoms: N_10  and  N_7 
REMARK       I    between atoms: C_9  and  N_10 
REMARK    3  A    between atoms: O_15  and  C_9 
REMARK    4  A    between atoms: C_20  and  O_15 
ROOT
ATOM      1  C   UNL d   1       4.501   1.166   0.020  0.00  0.00     0.036 A 
ATOM      2  S   UNL d   1       3.797   2.519  -0.759  0.00  0.00    -0.087 SA
ATOM      3  C   UNL d   1       5.759   1.483   0.534  0.00  0.00    -0.031 A 
ATOM      4  C   UNL d   1       6.109   2.878   0.300  0.00  0.00    -0.010 A 
ATOM      5  C   UNL d   1       5.109   3.553  -0.397  0.00  0.00     0.016 A 
ATOM      6  C   UNL d   1       7.270   3.612   0.664  0.00  0.00     0.037 A 
ATOM      7  C   UNL d   1       5.226   4.917  -0.735  0.00  0.00     0.021 A 
ATOM      8  C   UNL d   1       7.387   4.965   0.330  0.00  0.00     0.035 A 
ATOM      9  C   UNL d   1       6.689   0.560   1.269  0.00  0.00     0.050 C 
ATOM     10  C   UNL d   1       6.377   5.613  -0.362  0.00  0.00     0.025 A 
ATOM     11 CL   UNL d   1       8.801   5.835   0.785  0.00  0.00    -0.084 Cl
ENDROOT
BRANCH   1  12
ATOM     12  C   UNL d   1       3.780  -0.112   0.026  0.00  0.00     0.039 C 
ATOM     13  N   UNL d   1       4.490  -1.202   0.056  0.00  0.00    -0.300 N 
ATOM     14  HN  UNL d   1       5.508  -1.142   0.055  1.00  0.00     0.186 HD
ATOM     15  C   UNL d   1       2.260  -0.138   0.009  0.00  0.00     0.071 C 
BRANCH  13  16
ATOM     16  N   UNL d   1       3.883  -2.421   0.088  0.00  0.00    -0.245 N 
ATOM     17  C   UNL d   1       4.646  -3.563   0.004  0.00  0.00     0.379 C 
ATOM     18  O   UNL d   1       5.864  -3.618  -0.048  0.00  0.00    -0.237 OA
ATOM     19  H   UNL d   1       2.882  -2.529   0.016  0.00  0.00     0.192 HD
BRANCH  17  20
ATOM     20  O   UNL d   1       3.817  -4.640  -0.102  0.00  0.00    -0.303 OA
BRANCH  20  21
ATOM     21  C   UNL d   1       4.435  -5.803  -0.671  0.00  0.00     0.176 C 
ATOM     22  C   UNL d   1       4.294  -5.697  -2.179  0.00  0.00     0.034 C 
ENDBRANCH  20  21
ENDBRANCH  17  20
ENDBRANCH  13  16
ENDBRANCH   1  12
TORSDOF 4
