REMARK  6 active torsions:
REMARK  status: ('A' for Active; 'I' for Inactive)
REMARK    1  A    between atoms: C_7  and  C_1 
REMARK    2  A    between atoms: O_17  and  C_2 
REMARK    3  A    between atoms: O_20  and  C_3 
REMARK    4  A    between atoms: O_19  and  C_4 
REMARK    5  A    between atoms: O_18  and  C_6 
REMARK    6  A    between atoms: C_13  and  N_8 
ROOT
ATOM      1  C   UNL d   1       0.595   3.647   1.035  0.00  0.00     0.102 C 
ATOM      2  N   UNL d   1       0.691   4.368  -0.038  0.00  0.00    -0.365 N 
ATOM      3  HN  UNL d   1       0.903   3.940  -0.939  1.00  0.00     0.165 HD
ENDROOT
BRANCH   2   4
ATOM      4  C   UNL d   1       0.497   5.757   0.075  0.00  0.00     0.037 A 
ATOM      5  C   UNL d   1       1.383   6.608  -0.585  0.00  0.00     0.069 A 
ATOM      6  C   UNL d   1       1.253   8.003  -0.526  0.00  0.00     0.106 A 
ATOM      7  C   UNL d   1       0.209   8.555   0.235  0.00  0.00     0.135 A 
ATOM      8  C   UNL d   1      -0.739   7.706   0.850  0.00  0.00     0.106 A 
ATOM      9  C   UNL d   1      -0.582   6.318   0.767  0.00  0.00     0.069 A 
BRANCH   6  10
ATOM     10  O   UNL d   1       2.225   8.648  -1.244  0.00  0.00    -0.353 OA
ATOM     11  C   UNL d   1       2.148  10.056  -1.397  0.00  0.00     0.210 C 
ENDBRANCH   6  10
BRANCH   7  12
ATOM     12  O   UNL d   1       0.061   9.918   0.301  0.00  0.00    -0.351 OA
ATOM     13  C   UNL d   1       0.139  10.434   1.631  0.00  0.00     0.210 C 
ENDBRANCH   7  12
BRANCH   8  14
ATOM     14  O   UNL d   1      -1.783   8.319   1.502  0.00  0.00    -0.353 OA
ATOM     15  C   UNL d   1      -2.841   7.492   1.967  0.00  0.00     0.210 C 
ENDBRANCH   8  14
ENDBRANCH   2   4
BRANCH   1  16
ATOM     16  C   UNL d   1       0.795   2.184   1.009  0.00  0.00     0.016 A 
ATOM     17  C   UNL d   1       0.453   1.411   2.123  0.00  0.00     0.099 A 
ATOM     18  C   UNL d   1       0.672   0.029   2.101  0.00  0.00     0.069 A 
ATOM     19 CL   UNL d   1       0.251  -0.941   3.465  0.00  0.00    -0.081 Cl
ATOM     20  C   UNL d   1       1.232  -0.583   0.981  0.00  0.00     0.050 A 
ATOM     21  C   UNL d   1       1.565   0.197  -0.127  0.00  0.00     0.036 A 
ATOM     22  C   UNL d   1       1.347   1.573  -0.122  0.00  0.00     0.039 A 
ATOM     23 CL   UNL d   1       2.262  -0.554  -1.510  0.00  0.00    -0.084 Cl
BRANCH  17  24
ATOM     24  O   UNL d   1      -0.108   2.011   3.221  0.00  0.00    -0.358 OA
ATOM     25  H   UNL d   1      -0.293   1.313   3.880  0.00  0.00     0.217 HD
ENDBRANCH  17  24
ENDBRANCH   1  16
TORSDOF 6
