REMARK  5 active torsions:
REMARK  status: ('A' for Active; 'I' for Inactive)
REMARK    1  A    between atoms: C_5  and  C_1 
REMARK    2  A    between atoms: C_7  and  C_2 
REMARK    3  A    between atoms: O_14  and  C_7 
REMARK    4  A    between atoms: N_9  and  O_14 
REMARK    5  A    between atoms: C_18  and  C_11 
ROOT
ATOM      1  N   UNL d   1       2.143  -4.005  -1.122  0.00  0.00    -0.246 N 
ATOM      2  HN  UNL d   1       1.676  -4.303  -1.979  1.00  0.00     0.196 HD
ATOM      3  C   UNL d   1       3.274  -4.505  -0.698  0.00  0.00     0.145 C 
ATOM      4  N   UNL d   1       4.188  -3.729   1.627  0.00  0.00    -0.190 NA
ATOM      5  C   UNL d   1       3.769  -4.072   0.596  0.00  0.00     0.120 C 
ENDROOT
BRANCH   3   6
ATOM      6  C   UNL d   1       4.085  -5.464  -1.486  0.00  0.00     0.003 A 
ATOM      7  C   UNL d   1       3.728  -5.726  -2.817  0.00  0.00     0.014 A 
ATOM      8  C   UNL d   1       4.494  -6.595  -3.598  0.00  0.00     0.001 A 
ATOM      9  C   UNL d   1       5.620  -7.213  -3.058  0.00  0.00     0.000 A 
ATOM     10  C   UNL d   1       5.987  -6.959  -1.739  0.00  0.00     0.001 A 
ATOM     11  C   UNL d   1       5.228  -6.087  -0.953  0.00  0.00     0.014 A 
ENDBRANCH   3   6
BRANCH   1  12
ATOM     12  O   UNL d   1       1.642  -3.005  -0.260  0.00  0.00    -0.194 OA
BRANCH  12  13
ATOM     13  C   UNL d   1       0.397  -2.554  -0.645  0.00  0.00     0.320 C 
ATOM     14  O   UNL d   1      -0.406  -3.175  -1.330  0.00  0.00    -0.257 OA
BRANCH  13  15
ATOM     15  C   UNL d   1       0.139  -1.228  -0.119  0.00  0.00     0.102 A 
ATOM     16  C   UNL d   1      -1.092  -0.615   0.290  0.00  0.00     0.087 A 
ATOM     17  N   UNL d   1      -0.859   0.638   0.719  0.00  0.00    -0.259 N 
ATOM     18  O   UNL d   1       0.480   0.873   0.558  0.00  0.00    -0.241 OA
ATOM     19  HN  UNL d   1      -1.548   1.289   1.094  1.00  0.00     0.195 HD
ATOM     20  C   UNL d   1       1.087  -0.238   0.076  0.00  0.00     0.091 A 
ATOM     21  C   UNL d   1       2.542  -0.097  -0.143  0.00  0.00     0.080 C 
BRANCH  16  22
ATOM     22  C   UNL d   1      -2.458  -1.146   0.378  0.00  0.00     0.037 A 
ATOM     23  C   UNL d   1      -2.748  -2.310   1.116  0.00  0.00     0.048 A 
ATOM     24 CL   UNL d   1      -1.537  -3.221   1.959  0.00  0.00    -0.083 Cl
ATOM     25  C   UNL d   1      -4.069  -2.760   1.269  0.00  0.00     0.025 A 
ATOM     26  C   UNL d   1      -5.129  -2.043   0.725  0.00  0.00     0.003 A 
ATOM     27  C   UNL d   1      -4.870  -0.880   0.008  0.00  0.00     0.025 A 
ATOM     28  C   UNL d   1      -3.550  -0.441  -0.179  0.00  0.00     0.048 A 
ATOM     29 CL   UNL d   1      -3.365   0.997  -1.133  0.00  0.00    -0.083 Cl
ENDBRANCH  16  22
ENDBRANCH  13  15
ENDBRANCH  12  13
ENDBRANCH   1  12
TORSDOF 5
