REMARK  6 active torsions:
REMARK  status: ('A' for Active; 'I' for Inactive)
REMARK    1  A    between atoms: C_4  and  C_1 
REMARK       I    between atoms: C_2  and  N_5 
REMARK       I    between atoms: N_7  and  C_2 
REMARK    2  A    between atoms: O_6  and  C_3 
REMARK    3  A    between atoms: N_5  and  C_4 
REMARK    4  A    between atoms: C_10  and  O_6 
REMARK    5  A    between atoms: C_12  and  N_7 
REMARK    6  A    between atoms: O_19  and  C_13 
ROOT
ATOM      1  C   UNL d   1       0.349   1.032  -0.167  0.00  0.00     0.015 C 
ATOM      2  C   UNL d   1       1.743   0.849  -0.070  0.00  0.00     0.085 C 
ATOM      3  C   UNL d   1      -0.470  -0.092   0.077  0.00  0.00     0.044 C 
ATOM      4 CL   UNL d   1      -2.194  -0.020  -0.060  0.00  0.00    -0.084 Cl
ATOM      5  C   UNL d   1       2.261  -0.368   0.416  0.00  0.00     0.038 C 
ATOM      6  C   UNL d   1       1.440  -1.462   0.644  0.00  0.00     0.004 C 
ATOM      7  C   UNL d   1       0.072  -1.332   0.440  0.00  0.00     0.024 C 
ENDROOT
BRANCH   1   8
ATOM      8  C   UNL d   1      -0.252   2.404  -0.387  0.00  0.00     0.167 C 
BRANCH   8   9
ATOM      9  N   UNL d   1      -0.463   3.058   0.897  0.00  0.00    -0.338 N 
ATOM     10  C   UNL d   1      -1.163   4.165   1.251  0.00  0.00     0.320 C 
ATOM     11  N   UNL d   1      -1.774   4.870   0.254  0.00  0.00    -0.309 N 
ATOM     12  O   UNL d   1      -1.148   4.461   2.442  0.00  0.00    -0.247 OA
ATOM     13  H   UNL d   1      -1.534   4.612  -0.689  0.00  0.00     0.170 HD
ATOM     14  H   UNL d   1       0.009   2.666   1.695  0.00  0.00     0.164 HD
BRANCH  11  15
ATOM     15  C   UNL d   1      -2.479   6.091   0.411  0.00  0.00     0.036 A 
ATOM     16  C   UNL d   1      -2.677   6.882  -0.727  0.00  0.00     0.029 A 
ATOM     17  C   UNL d   1      -3.278   8.143  -0.626  0.00  0.00     0.002 A 
ATOM     18  C   UNL d   1      -3.717   8.612   0.609  0.00  0.00     0.000 A 
ATOM     19  C   UNL d   1      -3.575   7.812   1.739  0.00  0.00     0.002 A 
ATOM     20  C   UNL d   1      -2.962   6.556   1.638  0.00  0.00     0.029 A 
ENDBRANCH  11  15
ENDBRANCH   8   9
ENDBRANCH   1   8
BRANCH   2  21
ATOM     21  O   UNL d   1       2.590   1.878  -0.478  0.00  0.00    -0.310 OA
BRANCH  21  22
ATOM     22  C   UNL d   1       3.865   1.491  -0.857  0.00  0.00     0.076 C 
ATOM     23  C   UNL d   1       4.069   0.508  -1.831  0.00  0.00     0.040 C 
ATOM     24  C   UNL d   1       5.315  -0.114  -1.923  0.00  0.00     0.039 C 
ATOM     25  C   UNL d   1       6.370   0.285  -1.097  0.00  0.00     0.068 C 
ATOM     26  C   UNL d   1       6.200   1.384  -0.252  0.00  0.00     0.039 C 
ATOM     27  C   UNL d   1       4.943   1.990  -0.129  0.00  0.00     0.040 C 
BRANCH  25  28
ATOM     28  O   UNL d   1       7.489  -0.495  -1.191  0.00  0.00    -0.356 OA
ATOM     29  C   UNL d   1       8.502  -0.305  -0.210  0.00  0.00     0.210 C 
ENDBRANCH  25  28
ENDBRANCH  21  22
ENDBRANCH   2  21
TORSDOF 6
