REMARK  4 active torsions:
REMARK  status: ('A' for Active; 'I' for Inactive)
REMARK    1  A    between atoms: C_14  and  N_1 
REMARK    2  A    between atoms: C_8  and  C_3 
REMARK    3  A    between atoms: C_7  and  N_4 
REMARK       I    between atoms: N_15  and  C_8 
REMARK    4  A    between atoms: C_16  and  C_14 
ROOT
ATOM      1  N   UNL d   1      -0.748   1.118  -0.087  0.00  0.00    -0.265 N 
ATOM      2  C   UNL d   1      -1.420  -0.109  -0.049  0.00  0.00     0.331 A 
ATOM      3  C   UNL d   1       1.429   0.004  -0.099  0.00  0.00     0.115 A 
ATOM      4  N   UNL d   1      -0.596  -1.236   0.041  0.00  0.00    -0.304 N 
ATOM      5  C   UNL d   1       0.634   1.252  -0.120  0.00  0.00     0.268 A 
ATOM      6  C   UNL d   1       0.775  -1.157  -0.022  0.00  0.00     0.118 A 
ATOM      7  O   UNL d   1      -2.649  -0.192  -0.079  0.00  0.00    -0.246 OA
ATOM      8  O   UNL d   1       1.204   2.347  -0.154  0.00  0.00    -0.267 OA
ENDROOT
BRANCH   3   9
ATOM      9  C   UNL d   1       2.918  -0.055  -0.104  0.00  0.00     0.256 C 
ATOM     10  O   UNL d   1       3.540  -1.113  -0.077  0.00  0.00    -0.268 OA
ATOM     11  N   UNL d   1       3.573   1.132  -0.125  0.00  0.00    -0.366 N 
ATOM     12  H   UNL d   1       3.078   2.022  -0.134  0.00  0.00     0.159 HD
ATOM     13  H   UNL d   1       4.584   1.133  -0.103  0.00  0.00     0.159 HD
ENDBRANCH   3   9
BRANCH   1  14
ATOM     14  C   UNL d   1      -1.547   2.341  -0.019  0.00  0.00     0.137 C 
BRANCH  14  15
ATOM     15  C   UNL d   1      -1.772   3.026  -1.370  0.00  0.00     0.016 C 
ATOM     16  C   UNL d   1      -2.674   2.240  -2.307  0.00  0.00     0.006 C 
ENDBRANCH  14  15
ENDBRANCH   1  14
BRANCH   4  17
ATOM     17  C   UNL d   1      -1.182  -2.553   0.182  0.00  0.00     0.094 A 
ATOM     18  C   UNL d   1      -2.004  -2.924   1.394  0.00  0.00     0.028 A 
ATOM     19  C   UNL d   1      -0.664  -3.556   1.192  0.00  0.00     0.028 A 
ENDBRANCH   4  17
TORSDOF 4
