REMARK  4 active torsions:
REMARK  status: ('A' for Active; 'I' for Inactive)
REMARK    1  A    between atoms: C_2  and  C_1 
REMARK       I    between atoms: N_4  and  C_1 
REMARK    2  A    between atoms: S_5  and  C_3 
REMARK    3  A    between atoms: C_11  and  N_4 
REMARK    4  A    between atoms: C_16  and  S_5 
ROOT
ATOM      1  C   UNL d   1       0.056  -0.612   0.797  0.00  0.00     0.066 A 
ATOM      2  C   UNL d   1      -0.747  -1.534   0.128  0.00  0.00     0.090 A 
ATOM      3  N   UNL d   1      -1.239  -2.635   0.761  0.00  0.00    -0.359 N 
ATOM      4  HN  UNL d   1      -1.798  -3.323   0.257  1.00  0.00     0.166 HD
ATOM      5  C   UNL d   1       0.355  -0.817   2.150  0.00  0.00     0.021 A 
ATOM      6  C   UNL d   1      -0.965  -2.790   2.075  0.00  0.00     0.089 A 
ATOM      7  C   UNL d   1      -0.168  -1.926   2.803  0.00  0.00     0.018 A 
ENDROOT
BRANCH   1   8
ATOM      8  C   UNL d   1       0.493   0.659   0.198  0.00  0.00     0.259 C 
ATOM      9  N   UNL d   1       1.861   0.827   0.095  0.00  0.00    -0.323 N 
ATOM     10  H   UNL d   1       2.441  -0.004   0.090  0.00  0.00     0.169 HD
ATOM     11  O   UNL d   1      -0.372   1.472  -0.107  0.00  0.00    -0.267 OA
BRANCH   9  12
ATOM     12  C   UNL d   1       2.499   2.058  -0.181  0.00  0.00     0.037 A 
ATOM     13  C   UNL d   1       3.789   2.043  -0.722  0.00  0.00     0.069 A 
ATOM     14  C   UNL d   1       4.429   3.245  -1.039  0.00  0.00     0.104 A 
ATOM     15  O   UNL d   1       5.660   3.148  -1.637  0.00  0.00    -0.346 OA
ATOM     16  C   UNL d   1       3.801   4.466  -0.777  0.00  0.00     0.102 A 
ATOM     17  C   UNL d   1       6.320   4.418  -1.734  0.00  0.00     0.202 C 
ATOM     18  C   UNL d   1       5.350   5.527  -2.108  0.00  0.00     0.202 C 
ATOM     19  O   UNL d   1       4.354   5.680  -1.093  0.00  0.00    -0.346 OA
ATOM     20  C   UNL d   1       2.549   4.489  -0.175  0.00  0.00     0.042 A 
ATOM     21  C   UNL d   1       1.894   3.288   0.106  0.00  0.00     0.032 A 
ENDBRANCH   9  12
ENDBRANCH   1   8
BRANCH   2  22
ATOM     22  S   UNL d   1      -1.013  -1.476  -1.636  0.00  0.00    -0.072 SA
BRANCH  22  23
ATOM     23  C   UNL d   1      -2.781  -1.292  -1.790  0.00  0.00     0.007 A 
ATOM     24  C   UNL d   1      -3.276  -0.220  -2.543  0.00  0.00     0.019 A 
ATOM     25  C   UNL d   1      -4.648  -0.075  -2.760  0.00  0.00     0.001 A 
ATOM     26  C   UNL d   1      -5.541  -1.002  -2.226  0.00  0.00     0.000 A 
ATOM     27  C   UNL d   1      -5.059  -2.077  -1.482  0.00  0.00     0.001 A 
ATOM     28  C   UNL d   1      -3.685  -2.226  -1.273  0.00  0.00     0.019 A 
ENDBRANCH  22  23
ENDBRANCH   2  22
TORSDOF 4
