REMARK  6 active torsions:
REMARK  status: ('A' for Active; 'I' for Inactive)
REMARK    1  A    between atoms: C_4  and  C_1 
REMARK    2  A    between atoms: C_16  and  N_2 
REMARK    3  A    between atoms: C_14  and  C_3 
REMARK    4  A    between atoms: O_25  and  C_14 
REMARK    5  A    between atoms: C_15  and  O_17 
REMARK    6  A    between atoms: O_17  and  C_24 
ROOT
ATOM      1  C   UNL d   1      -0.238  -1.216  -0.033  0.00  0.00     0.096 C 
ATOM      2  N   UNL d   1       1.021  -0.607  -0.025  0.00  0.00    -0.254 N 
ATOM      3  C   UNL d   1      -1.153  -0.156  -0.062  0.00  0.00     0.091 C 
ATOM      4  N   UNL d   1       0.930   0.717   0.227  0.00  0.00    -0.297 N 
ATOM      5  HN  UNL d   1       1.684   1.352   0.492  1.00  0.00     0.187 HD
ATOM      6  C   UNL d   1      -0.357   1.014   0.056  0.00  0.00     0.042 C 
ATOM      7  C   UNL d   1      -0.768   2.445   0.073  0.00  0.00     0.071 C 
ENDROOT
BRANCH   2   8
ATOM      8  C   UNL d   1       2.311  -1.178  -0.198  0.00  0.00     0.057 A 
ATOM      9  C   UNL d   1       2.524  -2.285  -1.027  0.00  0.00     0.034 A 
ATOM     10  C   UNL d   1       3.782  -2.899  -1.067  0.00  0.00     0.039 A 
ATOM     11  C   UNL d   1       4.819  -2.427  -0.263  0.00  0.00     0.078 A 
ATOM     12  C   UNL d   1       4.627  -1.262   0.485  0.00  0.00     0.039 A 
ATOM     13  C   UNL d   1       3.386  -0.628   0.510  0.00  0.00     0.034 A 
BRANCH  11  14
ATOM     14  O   UNL d   1       6.059  -2.974  -0.145  0.00  0.00    -0.255 OA
BRANCH  14  15
ATOM     15  C   UNL d   1       6.213  -4.376  -0.313  0.00  0.00     0.530 C 
ATOM     16  F   UNL d   1       5.056  -5.066  -0.233  0.00  0.00    -0.144 F 
ATOM     17  F   UNL d   1       6.795  -4.626  -1.504  0.00  0.00    -0.144 F 
ATOM     18  F   UNL d   1       7.030  -4.834   0.663  0.00  0.00    -0.144 F 
ENDBRANCH  14  15
ENDBRANCH  11  14
ENDBRANCH   2   8
BRANCH   1  19
ATOM     19  C   UNL d   1      -0.455  -2.644  -0.013  0.00  0.00     0.076 A 
ATOM     20  C   UNL d   1       0.135  -3.667   0.737  0.00  0.00     0.043 A 
ATOM     21  N   UNL d   1      -0.365  -4.939   0.474  0.00  0.00    -0.298 N 
ATOM     22  C   UNL d   1       1.223  -3.604   1.752  0.00  0.00     0.071 C 
ATOM     23  N   UNL d   1      -1.299  -4.931  -0.455  0.00  0.00    -0.269 N 
ATOM     24  HN  UNL d   1      -0.044  -5.784   0.947  1.00  0.00     0.187 HD
ATOM     25  S   UNL d   1      -1.592  -3.412  -1.067  0.00  0.00     0.006 SA
ATOM     26  HN  UNL d   1      -1.792  -5.768  -0.766  1.00  0.00     0.195 HD
ENDBRANCH   1  19
BRANCH   3  27
ATOM     27  C   UNL d   1      -2.607  -0.170  -0.177  0.00  0.00     0.180 C 
ATOM     28  O   UNL d   1      -3.224   0.669  -0.820  0.00  0.00    -0.646 OA
BRANCH  27  29
ATOM     29  O   UNL d   1      -3.240  -1.142   0.515  0.00  0.00    -0.773 OA
ATOM     30  H   UNL d   1      -2.649  -1.690   1.059  0.00  0.00     0.167 HD
ENDBRANCH  27  29
ENDBRANCH   3  27
TORSDOF 6
