REMARK  2 active torsions:
REMARK  status: ('A' for Active; 'I' for Inactive)
REMARK       I    between atoms: N_2  and  C_1 
REMARK       I    between atoms: N_6  and  C_1 
REMARK    1  A    between atoms: C_3  and  N_2 
REMARK    2  A    between atoms: C_9  and  N_6 
ROOT
ATOM      1  C   UNL d   1       1.031   0.209   0.035  0.00  0.00     0.326 C 
ATOM      2  N   UNL d   1       0.345   0.513   1.187  0.00  0.00    -0.294 N 
ATOM      3  N   UNL d   1       0.260  -0.201  -1.020  0.00  0.00    -0.309 N 
ATOM      4  O   UNL d   1       2.248   0.379   0.017  0.00  0.00    -0.247 OA
ATOM      5  H   UNL d   1       0.925   0.923   1.902  0.00  0.00     0.172 HD
ATOM      6  H   UNL d   1      -0.737  -0.175  -0.826  0.00  0.00     0.170 HD
ENDROOT
BRANCH   2   7
ATOM      7  C   UNL d   1      -1.004   0.275   1.466  0.00  0.00     0.109 A 
ATOM      8  N   UNL d   1      -1.734  -0.437   0.579  0.00  0.00    -0.346 N 
ATOM      9  C   UNL d   1      -3.025  -0.710   0.864  0.00  0.00     0.007 A 
ATOM     10  HN  UNL d   1      -1.315  -0.764  -0.292  1.00  0.00     0.167 HD
ATOM     11  C   UNL d   1      -3.755  -1.582  -0.111  0.00  0.00     0.068 C 
ATOM     12  C   UNL d   1      -3.647  -0.223   2.002  0.00  0.00     0.025 A 
ATOM     13  C   UNL d   1      -2.896   0.535   2.897  0.00  0.00     0.006 A 
ATOM     14  C   UNL d   1      -1.546   0.771   2.639  0.00  0.00     0.049 A 
ENDBRANCH   2   7
BRANCH   3  15
ATOM     15  C   UNL d   1       0.648  -0.609  -2.298  0.00  0.00     0.038 A 
ATOM     16  C   UNL d   1       1.954  -0.964  -2.627  0.00  0.00     0.054 A 
ATOM     17  C   UNL d   1       2.251  -1.415  -3.916  0.00  0.00     0.042 A 
ATOM     18 CL   UNL d   1       3.881  -1.898  -4.243  0.00  0.00    -0.084 Cl
ATOM     19  C   UNL d   1       1.258  -1.495  -4.903  0.00  0.00    -0.040 A 
ATOM     20  C   UNL d   1      -0.052  -1.124  -4.565  0.00  0.00     0.011 A 
ATOM     21  C   UNL d   1       1.555  -1.976  -6.294  0.00  0.00     0.050 C 
ATOM     22  C   UNL d   1      -0.356  -0.704  -3.268  0.00  0.00     0.030 A 
ENDBRANCH   3  15
TORSDOF 2
