REMARK  6 active torsions:
REMARK  status: ('A' for Active; 'I' for Inactive)
REMARK    1  A    between atoms: N_2  and  C_3 
REMARK       I    between atoms: C_5  and  N_2 
REMARK    2  A    between atoms: C_12  and  C_5 
REMARK    3  A    between atoms: C_6  and  C_13 
REMARK    4  A    between atoms: O_11  and  C_6 
REMARK    5  A    between atoms: S_10  and  C_12 
REMARK    6  A    between atoms: C_13  and  S_10 
ROOT
ATOM      1  N   UNL d   1       1.351   2.308   0.960  0.00  0.00    -0.347 N 
ATOM      2  C   UNL d   1       1.270   3.085   2.086  0.00  0.00     0.227 C 
ATOM      3  O   UNL d   1       0.466   2.858   2.996  0.00  0.00    -0.273 OA
ATOM      4  H   UNL d   1       2.125   2.411   0.308  0.00  0.00     0.163 HD
ENDROOT
BRANCH   1   5
ATOM      5  C   UNL d   1       0.449   1.182   0.733  0.00  0.00     0.176 C 
ATOM      6  C   UNL d   1       1.234   0.050   0.057  0.00  0.00     0.240 C 
ATOM      7  N   UNL d   1       0.595  -1.145  -0.111  0.00  0.00    -0.359 N 
ATOM      8  O   UNL d   1       2.387   0.196  -0.351  0.00  0.00    -0.271 OA
ATOM      9  C   UNL d   1      -0.741  -1.472   0.340  0.00  0.00     0.122 C 
ATOM     10  H   UNL d   1       1.153  -1.861  -0.563  0.00  0.00     0.162 HD
ATOM     11  C   UNL d   1      -1.814  -0.702  -0.420  0.00  0.00     0.020 C 
ATOM     12  C   UNL d   1      -1.970   0.754   0.023  0.00  0.00     0.004 C 
ATOM     13  C   UNL d   1      -0.724   1.622  -0.149  0.00  0.00     0.035 C 
ENDBRANCH   1   5
BRANCH   2  14
ATOM     14  C   UNL d   1       2.214   4.273   2.140  0.00  0.00     0.177 C 
BRANCH  14  15
ATOM     15  S   UNL d   1       1.294   5.848   2.037  0.00  0.00    -0.149 SA
BRANCH  15  16
ATOM     16  C   UNL d   1       0.181   5.742   3.481  0.00  0.00     0.184 C 
BRANCH  16  17
ATOM     17  C   UNL d   1       0.911   5.484   4.779  0.00  0.00     0.149 C 
ATOM     18  O   UNL d   1       1.438   6.358   5.454  0.00  0.00    -0.649 OA
BRANCH  17  19
ATOM     19  O   UNL d   1       0.958   4.180   5.142  0.00  0.00    -0.776 OA
ATOM     20  H   UNL d   1       0.548   3.564   4.484  0.00  0.00     0.167 HD
ENDBRANCH  17  19
ENDBRANCH  16  17
ENDBRANCH  15  16
ENDBRANCH  14  15
ENDBRANCH   2  14
TORSDOF 6
