REMARK  3 active torsions:
REMARK  status: ('A' for Active; 'I' for Inactive)
REMARK    1  A    between atoms: C_2  and  C_1 
REMARK       I    between atoms: N_3  and  C_1 
REMARK    2  A    between atoms: C_8  and  N_3 
REMARK    3  A    between atoms: N_6  and  C_4 
ROOT
ATOM      1  C   UNL d   1       0.388  -0.427  -1.160  0.00  0.00     0.052 A 
ATOM      2  C   UNL d   1      -0.887  -1.036  -1.135  0.00  0.00     0.021 A 
ATOM      3  C   UNL d   1       1.106  -0.352  -2.365  0.00  0.00     0.019 A 
ATOM      4  C   UNL d   1      -1.463  -1.425  -2.353  0.00  0.00     0.024 A 
ATOM      5  C   UNL d   1       0.541  -0.812  -3.554  0.00  0.00     0.001 A 
ATOM      6  C   UNL d   1      -0.749  -1.335  -3.550  0.00  0.00     0.002 A 
ENDROOT
BRANCH   1   7
ATOM      7  C   UNL d   1       1.056   0.117   0.062  0.00  0.00     0.253 C 
ATOM      8  N   UNL d   1       0.211   0.606   1.033  0.00  0.00    -0.353 N 
ATOM      9  H   UNL d   1      -0.761   0.747   0.766  0.00  0.00     0.163 HD
ATOM     10  O   UNL d   1       2.279   0.115   0.161  0.00  0.00    -0.268 OA
BRANCH   8  11
ATOM     11  C   UNL d   1       0.673   1.122   2.310  0.00  0.00     0.076 C 
ATOM     12  C   UNL d   1       0.956   2.618   2.227  0.00  0.00     0.032 C 
ATOM     13  C   UNL d   1      -0.369   0.821   3.382  0.00  0.00     0.032 C 
ENDBRANCH   8  11
ENDBRANCH   1   7
BRANCH   2  14
ATOM     14  N   UNL d   1      -1.690  -1.096   0.028  0.00  0.00    -0.302 NA
ATOM     15  H   UNL d   1      -1.120  -1.224   0.866  0.00  0.00     0.124 HD
ATOM     16  H   UNL d   1      -2.411  -1.812  -0.028  0.00  0.00     0.124 HD
ENDBRANCH   2  14
TORSDOF 3
