REMARK  2 active torsions:
REMARK  status: ('A' for Active; 'I' for Inactive)
REMARK    1  A    between atoms: C_5  and  C_3 
REMARK    2  A    between atoms: O_13  and  C_7 
ROOT
ATOM      1  N   UNL d   1       1.207  -1.311   0.065  0.00  0.00    -0.351 N 
ATOM      2  HN  UNL d   1       1.223  -2.330   0.118  1.00  0.00     0.166 HD
ATOM      3  C   UNL d   1       2.377  -0.618  -0.015  0.00  0.00     0.119 A 
ATOM      4  C   UNL d   1       0.027  -0.657   0.074  0.00  0.00     0.051 A 
ATOM      5  C   UNL d   1      -0.038   0.753   0.005  0.00  0.00     0.024 A 
ATOM      6  C   UNL d   1       1.190   1.443  -0.027  0.00  0.00     0.080 A 
ATOM      7  C   UNL d   1       2.400   0.765  -0.045  0.00  0.00     0.071 A 
ATOM      8  C   UNL d   1      -1.168  -1.386   0.139  0.00  0.00    -0.034 A 
ATOM      9  C   UNL d   1      -1.304   1.387  -0.044  0.00  0.00     0.016 A 
ATOM     10  C   UNL d   1      -2.481   0.646  -0.012  0.00  0.00     0.002 A 
ATOM     11  C   UNL d   1      -2.413  -0.736   0.086  0.00  0.00     0.009 A 
ATOM     12  C   UNL d   1      -1.171  -2.888   0.258  0.00  0.00     0.050 C 
ENDROOT
BRANCH   3  13
ATOM     13  C   UNL d   1       3.695  -1.376  -0.088  0.00  0.00     0.432 C 
ATOM     14  F   UNL d   1       3.565  -2.733  -0.100  0.00  0.00    -0.165 F 
ATOM     15  F   UNL d   1       4.411  -1.065  -1.210  0.00  0.00    -0.165 F 
ATOM     16  F   UNL d   1       4.522  -1.092   0.960  0.00  0.00    -0.165 F 
ENDBRANCH   3  13
BRANCH   6  17
ATOM     17  O   UNL d   1       1.297   2.809  -0.045  0.00  0.00    -0.360 OA
ATOM     18  H   UNL d   1       0.449   3.207   0.202  0.00  0.00     0.217 HD
ENDBRANCH   6  17
TORSDOF 2
