REMARK  3 active torsions:
REMARK  status: ('A' for Active; 'I' for Inactive)
REMARK    1  A    between atoms: C_3  and  O_11 
REMARK       I    between atoms: N_9  and  C_3 
REMARK    2  A    between atoms: O_11  and  N_4 
REMARK    3  A    between atoms: C_13  and  N_9 
ROOT
ATOM      1  C   UNL d   1       2.228   0.769   0.349  0.00  0.00     0.020 A 
ATOM      2  C   UNL d   1       2.030  -0.374   1.097  0.00  0.00     0.065 A 
ATOM      3  N   UNL d   1       1.054   2.672  -0.664  0.00  0.00    -0.260 N 
ATOM      4  HN  UNL d   1       0.264   3.064  -1.177  1.00  0.00     0.194 HD
ATOM      5  C   UNL d   1       1.073   1.464  -0.191  0.00  0.00     0.045 C 
ATOM      6  O   UNL d   1       3.200  -0.926   1.489  0.00  0.00    -0.326 OA
ATOM      7  C   UNL d   1       3.634   0.925   0.275  0.00  0.00     0.040 A 
ATOM      8  C   UNL d   1       4.178  -0.128   0.980  0.00  0.00     0.143 A 
ATOM      9  C   UNL d   1       0.749  -1.030   1.451  0.00  0.00     0.066 C 
ATOM     10  C   UNL d   1      -0.238   0.674  -0.176  0.00  0.00     0.060 C 
ATOM     11  C   UNL d   1      -0.404  -0.047   1.174  0.00  0.00     0.013 C 
ENDROOT
BRANCH   3  12
ATOM     12  O   UNL d   1       2.235   3.385  -0.398  0.00  0.00    -0.181 OA
BRANCH  12  13
ATOM     13  C   UNL d   1       2.240   4.566  -1.089  0.00  0.00     0.387 C 
ATOM     14  N   UNL d   1       2.846   5.622  -0.449  0.00  0.00    -0.301 N 
ATOM     15  H   UNL d   1       2.901   6.428  -1.058  0.00  0.00     0.171 HD
ATOM     16  O   UNL d   1       1.781   4.719  -2.220  0.00  0.00    -0.236 OA
BRANCH  14  17
ATOM     17  C   UNL d   1       3.172   5.822   0.906  0.00  0.00     0.036 A 
ATOM     18  C   UNL d   1       2.970   4.891   1.927  0.00  0.00     0.029 A 
ATOM     19  C   UNL d   1       3.236   5.224   3.260  0.00  0.00     0.002 A 
ATOM     20  C   UNL d   1       3.708   6.492   3.588  0.00  0.00     0.000 A 
ATOM     21  C   UNL d   1       3.932   7.423   2.580  0.00  0.00     0.002 A 
ATOM     22  C   UNL d   1       3.669   7.089   1.248  0.00  0.00     0.029 A 
ENDBRANCH  14  17
ENDBRANCH  12  13
ENDBRANCH   3  12
TORSDOF 3
