REMARK  8 active torsions:
REMARK  status: ('A' for Active; 'I' for Inactive)
REMARK       I    between atoms: N_5  and  C_1 
REMARK    1  A    between atoms: C_6  and  C_1 
REMARK    2  A    between atoms: C_2  and  C_6 
REMARK    3  A    between atoms: C_8  and  C_2 
REMARK    4  A    between atoms: C_12  and  C_2 
REMARK    5  A    between atoms: C_3  and  C_8 
REMARK    6  A    between atoms: O_15  and  C_3 
REMARK       I    between atoms: C_4  and  N_7 
REMARK    7  A    between atoms: C_13  and  N_5 
REMARK    8  A    between atoms: N_7  and  C_14 
ROOT
ATOM      1  C   UNL d   1       0.996   0.062  -0.030  0.00  0.00     0.222 C 
ATOM      2  N   UNL d   1       2.352   0.105   0.263  0.00  0.00    -0.327 N 
ATOM      3  O   UNL d   1       0.463   0.336  -1.097  0.00  0.00    -0.273 OA
ATOM      4  H   UNL d   1       2.614  -0.071   1.226  0.00  0.00     0.169 HD
ENDROOT
BRANCH   1   5
ATOM      5  C   UNL d   1       0.207  -0.344   1.199  0.00  0.00     0.113 C 
BRANCH   5   6
ATOM      6  C   UNL d   1      -1.320  -0.482   1.021  0.00  0.00     0.037 C 
BRANCH   6   7
ATOM      7  C   UNL d   1      -1.736  -1.526  -0.039  0.00  0.00     0.119 C 
BRANCH   7   8
ATOM      8  C   UNL d   1      -1.411  -2.949   0.350  0.00  0.00     0.140 C 
ATOM      9  O   UNL d   1      -0.291  -3.342   0.633  0.00  0.00    -0.650 OA
BRANCH   8  10
ATOM     10  O   UNL d   1      -2.477  -3.781   0.320  0.00  0.00    -0.776 OA
ATOM     11  H   UNL d   1      -3.323  -3.352   0.094  0.00  0.00     0.167 HD
ENDBRANCH   8  10
ENDBRANCH   7   8
ENDBRANCH   6   7
BRANCH   6  12
ATOM     12  C   UNL d   1      -2.052  -0.711   2.353  0.00  0.00    -0.053 A 
ATOM     13  C   UNL d   1      -1.369  -0.907   3.567  0.00  0.00     0.007 A 
ATOM     14  C   UNL d   1      -2.056  -1.095   4.767  0.00  0.00     0.001 A 
ATOM     15  C   UNL d   1      -3.445  -1.109   4.778  0.00  0.00     0.000 A 
ATOM     16  C   UNL d   1      -4.145  -0.921   3.590  0.00  0.00     0.001 A 
ATOM     17  C   UNL d   1      -3.457  -0.710   2.391  0.00  0.00     0.007 A 
ENDBRANCH   6  12
ENDBRANCH   5   6
ENDBRANCH   1   5
BRANCH   2  18
ATOM     18  C   UNL d   1       3.418   0.343  -0.621  0.00  0.00     0.034 A 
ATOM     19  C   UNL d   1       3.265   0.488  -1.996  0.00  0.00     0.032 A 
ATOM     20  C   UNL d   1       4.387   0.662  -2.817  0.00  0.00     0.032 A 
ATOM     21  C   UNL d   1       5.676   0.694  -2.275  0.00  0.00     0.034 A 
ATOM     22  C   UNL d   1       5.824   0.580  -0.894  0.00  0.00     0.032 A 
ATOM     23  C   UNL d   1       4.704   0.401  -0.074  0.00  0.00     0.032 A 
BRANCH  21  24
ATOM     24  N   UNL d   1       6.750   0.820  -3.179  0.00  0.00    -0.328 N 
ATOM     25  C   UNL d   1       8.100   0.803  -2.886  0.00  0.00     0.218 C 
ATOM     26  O   UNL d   1       8.611   0.713  -1.774  0.00  0.00    -0.274 OA
ATOM     27  C   UNL d   1       8.971   0.895  -4.115  0.00  0.00     0.117 C 
ATOM     28  H   UNL d   1       6.492   0.887  -4.154  0.00  0.00     0.169 HD
ENDBRANCH  21  24
ENDBRANCH   2  18
TORSDOF 8
