REMARK  3 active torsions:
REMARK  status: ('A' for Active; 'I' for Inactive)
REMARK    1  A    between atoms: C_6  and  C_1 
REMARK    2  A    between atoms: C_7  and  C_2 
REMARK       I    between atoms: N_13  and  C_6 
REMARK    3  A    between atoms: N_15  and  N_13 
ROOT
ATOM      1  C   UNL d   1      -0.000  -1.347  -0.044  0.00  0.00     0.096 A 
ATOM      2  C   UNL d   1      -1.314  -0.895  -0.053  0.00  0.00     0.150 A 
ATOM      3  O   UNL d   1      -1.294   0.471  -0.139  0.00  0.00    -0.234 OA
ATOM      4  N   UNL d   1      -0.000   0.938  -0.123  0.00  0.00    -0.264 N 
ATOM      5  HN  UNL d   1       0.305   1.910  -0.164  1.00  0.00     0.194 HD
ATOM      6  C   UNL d   1       0.774  -0.148  -0.043  0.00  0.00     0.047 A 
ATOM      7  C   UNL d   1       2.250   0.000   0.002  0.00  0.00     0.071 C 
ENDROOT
BRANCH   1   8
ATOM      8  C   UNL d   1       0.529  -2.701  -0.038  0.00  0.00     0.270 C 
ATOM      9  O   UNL d   1       1.679  -2.945   0.329  0.00  0.00    -0.266 OA
ATOM     10  N   UNL d   1      -0.296  -3.708  -0.535  0.00  0.00    -0.290 N 
ATOM     11  H   UNL d   1      -1.282  -3.530  -0.711  0.00  0.00     0.183 HD
BRANCH  10  12
ATOM     12  N   UNL d   1       0.141  -5.056  -0.527  0.00  0.00    -0.247 NA
ATOM     13  H   UNL d   1       0.938  -5.109   0.122  0.00  0.00     0.143 HD
ATOM     14  H   UNL d   1       0.552  -5.257  -1.443  0.00  0.00     0.143 HD
ENDBRANCH  10  12
ENDBRANCH   1   8
BRANCH   2  15
ATOM     15  C   UNL d   1      -2.552  -1.606   0.034  0.00  0.00     0.112 A 
ATOM     16  O   UNL d   1      -2.663  -2.829   0.645  0.00  0.00    -0.320 OA
ATOM     17  C   UNL d   1      -3.957  -3.221   0.568  0.00  0.00     0.142 A 
ATOM     18  C   UNL d   1      -4.698  -2.286  -0.111  0.00  0.00     0.027 A 
ATOM     19  C   UNL d   1      -3.799  -1.242  -0.442  0.00  0.00     0.042 A 
ENDBRANCH   2  15
TORSDOF 3
