REMARK  7 active torsions:
REMARK  status: ('A' for Active; 'I' for Inactive)
REMARK    1  A    between atoms: S_2  and  C_1 
REMARK    2  A    between atoms: C_13  and  S_2 
REMARK    3  A    between atoms: N_7  and  C_3 
REMARK    4  A    between atoms: S_16  and  C_4 
REMARK       I    between atoms: C_6  and  N_7 
REMARK       I    between atoms: N_12  and  C_6 
REMARK    5  A    between atoms: C_9  and  O_14 
REMARK    6  A    between atoms: C_20  and  N_12 
REMARK    7  A    between atoms: O_14  and  C_21 
ROOT
ATOM      1  C   UNL d   1       3.843  -1.326  -0.161  0.00  0.00     0.325 C 
ATOM      2  N   UNL d   1       2.508  -1.364   0.192  0.00  0.00    -0.307 N 
ATOM      3  N   UNL d   1       4.582  -2.150   0.669  0.00  0.00    -0.309 N 
ATOM      4  O   UNL d   1       4.269  -0.641  -1.081  0.00  0.00    -0.247 OA
ATOM      5  H   UNL d   1       2.163  -2.314   0.252  0.00  0.00     0.170 HD
ATOM      6  H   UNL d   1       4.055  -2.615   1.393  0.00  0.00     0.170 HD
ENDROOT
BRANCH   2   7
ATOM      7  C   UNL d   1       1.593  -0.434  -0.313  0.00  0.00     0.066 C 
ATOM      8  C   UNL d   1       1.552   1.019  -0.152  0.00  0.00     0.110 C 
ATOM      9  C   UNL d   1       0.363   1.529  -0.678  0.00  0.00     0.064 C 
ATOM     10  S   UNL d   1      -0.549   0.321  -1.499  0.00  0.00    -0.091 SA
ATOM     11  C   UNL d   1       0.473  -0.913  -0.955  0.00  0.00     0.082 C 
BRANCH   8  12
ATOM     12  S   UNL d   1       2.667   1.918   0.873  0.00  0.00     0.183 S 
ATOM     13  O   UNL d   1       2.112   3.250   1.001  0.00  0.00    -0.222 OA
ATOM     14  O   UNL d   1       2.795   1.068   2.043  0.00  0.00    -0.222 OA
BRANCH  12  15
ATOM     15  C   UNL d   1       4.268   2.082   0.111  0.00  0.00     0.105 C 
ATOM     16  C   UNL d   1       4.216   2.509  -1.348  0.00  0.00     0.026 C 
ATOM     17  C   UNL d   1       5.119   3.072   0.915  0.00  0.00     0.026 C 
ENDBRANCH  12  15
ENDBRANCH   8  12
BRANCH   9  18
ATOM     18  S   UNL d   1      -0.441   3.094  -0.513  0.00  0.00    -0.126 SA
ATOM     19  C   UNL d   1       0.448   4.119  -1.693  0.00  0.00     0.096 C 
ENDBRANCH   9  18
ENDBRANCH   2   7
BRANCH   3  20
ATOM     20  C   UNL d   1       5.984  -2.215   0.784  0.00  0.00     0.036 A 
ATOM     21  C   UNL d   1       6.500  -3.012   1.811  0.00  0.00     0.032 A 
ATOM     22  C   UNL d   1       7.876  -3.055   2.050  0.00  0.00     0.039 A 
ATOM     23  C   UNL d   1       8.762  -2.311   1.269  0.00  0.00     0.078 A 
ATOM     24  C   UNL d   1       8.251  -1.533   0.232  0.00  0.00     0.039 A 
ATOM     25  C   UNL d   1       6.871  -1.497  -0.016  0.00  0.00     0.032 A 
BRANCH  23  26
ATOM     26  O   UNL d   1      10.073  -2.446   1.621  0.00  0.00    -0.255 OA
BRANCH  26  27
ATOM     27  C   UNL d   1      11.041  -1.718   0.886  0.00  0.00     0.530 C 
ATOM     28  F   UNL d   1      10.970  -1.992  -0.434  0.00  0.00    -0.144 F 
ATOM     29  F   UNL d   1      10.896  -0.390   1.080  0.00  0.00    -0.144 F 
ATOM     30  F   UNL d   1      12.270  -2.076   1.319  0.00  0.00    -0.144 F 
ENDBRANCH  26  27
ENDBRANCH  23  26
ENDBRANCH   3  20
TORSDOF 7
