REMARK  0 active torsions:
REMARK  status: ('A' for Active; 'I' for Inactive)
ROOT
ATOM      1  C   UNL d   1       1.235  -0.315   0.421  0.00  0.00     0.071 A 
ATOM      2  C   UNL d   1      -0.212  -0.547   0.403  0.00  0.00     0.108 A 
ATOM      3  C   UNL d   1       1.726   0.953   0.180  0.00  0.00    -0.016 A 
ATOM      4  N   UNL d   1       2.262  -1.178   0.621  0.00  0.00    -0.353 N 
ATOM      5  N   UNL d   1      -0.890  -1.659   0.653  0.00  0.00    -0.238 N 
ATOM      6  HN  UNL d   1      -0.530  -2.569   0.940  1.00  0.00     0.197 HD
ATOM      7  C   UNL d   1      -1.067   0.494   0.019  0.00  0.00     0.065 A 
ATOM      8  O   UNL d   1      -2.228  -1.279   0.428  0.00  0.00    -0.156 OA
ATOM      9  C   UNL d   1       3.143   0.827   0.120  0.00  0.00    -0.001 A 
ATOM     10  C   UNL d   1       3.453  -0.508   0.423  0.00  0.00     0.043 A 
ATOM     11  N   UNL d   1      -2.329   0.065   0.021  0.00  0.00    -0.243 N 
ATOM     12  HN  UNL d   1      -3.171   0.589  -0.218  1.00  0.00     0.196 HD
ATOM     13  C   UNL d   1       0.838   2.166   0.051  0.00  0.00     0.048 C 
ATOM     14  C   UNL d   1      -0.601   1.836  -0.437  0.00  0.00     0.066 C 
ATOM     15  C   UNL d   1       4.198   1.718  -0.157  0.00  0.00     0.014 A 
ATOM     16  C   UNL d   1       4.770  -0.978   0.484  0.00  0.00     0.030 A 
ATOM     17  C   UNL d   1       5.516   1.253  -0.127  0.00  0.00     0.001 A 
ATOM     18  C   UNL d   1       5.796  -0.073   0.198  0.00  0.00     0.002 A 
ATOM     19  H   UNL d   1       2.170  -2.163   0.832  0.00  0.00     0.166 HD
ENDROOT
TORSDOF 0
