REMARK  4 active torsions:
REMARK  status: ('A' for Active; 'I' for Inactive)
REMARK    1  A    between atoms: C_10  and  N_1 
REMARK    2  A    between atoms: C_6  and  C_2 
REMARK    3  A    between atoms: S_15  and  C_5 
REMARK    4  A    between atoms: C_12  and  C_10 
ROOT
ATOM      1  N   UNL d   1      -0.141  -1.219  -0.025  0.00  0.00    -0.305 N 
ATOM      2  C   UNL d   1       1.062  -0.554  -0.208  0.00  0.00     0.136 A 
ATOM      3  N   UNL d   1       0.792   0.740  -0.279  0.00  0.00    -0.283 N 
ATOM      4  HN  UNL d   1       1.479   1.478  -0.438  1.00  0.00     0.188 HD
ATOM      5  C   UNL d   1      -1.103  -0.242   0.047  0.00  0.00     0.160 A 
ATOM      6  N   UNL d   1      -0.550   0.934  -0.106  0.00  0.00    -0.278 N 
ATOM      7  HN  UNL d   1      -1.033   1.832  -0.098  1.00  0.00     0.189 HD
ENDROOT
BRANCH   2   8
ATOM      8  C   UNL d   1       2.417  -1.121  -0.326  0.00  0.00     0.031 A 
ATOM      9  C   UNL d   1       3.535  -0.517   0.291  0.00  0.00     0.049 A 
ATOM     10  C   UNL d   1       4.829  -1.022   0.100  0.00  0.00     0.048 A 
ATOM     11 CL   UNL d   1       3.404   0.852   1.344  0.00  0.00    -0.083 Cl
ATOM     12  C   UNL d   1       5.025  -2.148  -0.690  0.00  0.00     0.035 A 
ATOM     13  C   UNL d   1       3.943  -2.770  -1.300  0.00  0.00     0.025 A 
ATOM     14 CL   UNL d   1       6.611  -2.769  -0.925  0.00  0.00    -0.084 Cl
ATOM     15  C   UNL d   1       2.654  -2.248  -1.133  0.00  0.00     0.018 A 
ENDBRANCH   2   8
BRANCH   1  16
ATOM     16  C   UNL d   1      -0.349  -2.646   0.133  0.00  0.00     0.198 C 
BRANCH  16  17
ATOM     17  C   UNL d   1      -0.684  -3.297  -1.163  0.00  0.00     0.070 A 
ATOM     18  O   UNL d   1      -0.393  -4.630  -1.243  0.00  0.00    -0.325 OA
ATOM     19  C   UNL d   1      -0.738  -5.045  -2.489  0.00  0.00     0.142 A 
ATOM     20  C   UNL d   1      -1.249  -4.001  -3.219  0.00  0.00     0.027 A 
ATOM     21  C   UNL d   1      -1.219  -2.870  -2.366  0.00  0.00     0.036 A 
ENDBRANCH  16  17
ENDBRANCH   1  16
BRANCH   5  22
ATOM     22  S   UNL d   1      -2.796  -0.496   0.289  0.00  0.00    -0.105 SA
ATOM     23  H   UNL d   1      -2.925  -1.740  -0.189  0.00  0.00     0.110 HD
ENDBRANCH   5  22
TORSDOF 4
