REMARK  4 active torsions:
REMARK  status: ('A' for Active; 'I' for Inactive)
REMARK    1  A    between atoms: N_15  and  C_1 
REMARK    2  A    between atoms: C_2  and  N_11 
REMARK    3  A    between atoms: C_19  and  C_3 
REMARK    4  A    between atoms: C_16  and  C_8 
REMARK       I    between atoms: N_11  and  C_13 
REMARK       I    between atoms: C_13  and  N_15 
ROOT
ATOM      1  N   UNL d   1       2.610  -2.139  -0.126  0.00  0.00    -0.288 N 
ATOM      2  C   UNL d   1       1.391  -2.774  -0.321  0.00  0.00     0.326 C 
ATOM      3  N   UNL d   1       1.604  -4.147  -0.183  0.00  0.00    -0.304 N 
ATOM      4  O   UNL d   1       0.311  -2.231  -0.458  0.00  0.00    -0.247 OA
ATOM      5  H   UNL d   1       3.279  -2.658   0.413  0.00  0.00     0.172 HD
ATOM      6  H   UNL d   1       2.565  -4.455  -0.153  0.00  0.00     0.171 HD
ENDROOT
BRANCH   1   7
ATOM      7  C   UNL d   1       2.723  -0.792   0.086  0.00  0.00     0.153 C 
ATOM      8  N   UNL d   1       2.165   0.246  -0.483  0.00  0.00    -0.335 N 
ATOM      9  C   UNL d   1       2.694   1.410   0.086  0.00  0.00     0.057 C 
ATOM     10  HN  UNL d   1       1.460   0.212  -1.220  1.00  0.00     0.168 HD
ATOM     11  C   UNL d   1       3.509   1.194   1.196  0.00  0.00     0.010 C 
ATOM     12  S   UNL d   1       3.865  -0.476   1.313  0.00  0.00    -0.057 SA
ATOM     13  C   UNL d   1       4.099   2.129   2.194  0.00  0.00     0.059 C 
BRANCH   9  14
ATOM     14  C   UNL d   1       2.380   2.739  -0.440  0.00  0.00    -0.007 A 
ATOM     15  C   UNL d   1       3.347   3.756  -0.450  0.00  0.00     0.038 A 
ATOM     16  C   UNL d   1       3.036   5.046  -0.887  0.00  0.00     0.040 A 
ATOM     17 CL   UNL d   1       4.277   6.247  -0.791  0.00  0.00    -0.084 Cl
ATOM     18  C   UNL d   1       1.758   5.347  -1.370  0.00  0.00    -0.040 A 
ATOM     19  C   UNL d   1       0.807   4.315  -1.418  0.00  0.00     0.009 A 
ATOM     20  C   UNL d   1       1.392   6.733  -1.821  0.00  0.00     0.050 C 
ATOM     21  C   UNL d   1       1.115   3.025  -0.960  0.00  0.00     0.014 A 
ENDBRANCH   9  14
ENDBRANCH   1   7
BRANCH   3  22
ATOM     22  C   UNL d   1       0.671  -5.144   0.071  0.00  0.00     0.097 A 
ATOM     23  C   UNL d   1       0.968  -6.417   0.684  0.00  0.00     0.094 A 
ATOM     24  N   UNL d   1      -0.134  -7.180   0.727  0.00  0.00    -0.258 N 
ATOM     25  O   UNL d   1      -1.156  -6.412   0.223  0.00  0.00    -0.240 OA
ATOM     26  HN  UNL d   1      -0.201  -8.139   1.067  1.00  0.00     0.195 HD
ATOM     27  C   UNL d   1      -0.687  -5.190  -0.154  0.00  0.00     0.101 A 
ATOM     28  C   UNL d   1      -1.713  -4.298  -0.724  0.00  0.00     0.081 C 
BRANCH  23  29
ATOM     29  C   UNL d   1       2.220  -6.892   1.292  0.00  0.00    -0.005 A 
ATOM     30  C   UNL d   1       3.085  -6.008   1.959  0.00  0.00     0.014 A 
ATOM     31  C   UNL d   1       4.254  -6.471   2.571  0.00  0.00     0.001 A 
ATOM     32  C   UNL d   1       4.559  -7.829   2.553  0.00  0.00     0.000 A 
ATOM     33  C   UNL d   1       3.700  -8.723   1.919  0.00  0.00     0.001 A 
ATOM     34  C   UNL d   1       2.540  -8.258   1.289  0.00  0.00     0.014 A 
ENDBRANCH  23  29
ENDBRANCH   3  22
TORSDOF 4
