REMARK  5 active torsions:
REMARK  status: ('A' for Active; 'I' for Inactive)
REMARK    1  A    between atoms: O_4  and  C_1 
REMARK       I    between atoms: N_9  and  C_1 
REMARK    2  A    between atoms: C_6  and  O_4 
REMARK    3  A    between atoms: C_5  and  C_8 
REMARK    4  A    between atoms: S_12  and  C_7 
REMARK    5  A    between atoms: C_8  and  S_12 
ROOT
ATOM      1  N   UNL d   1      -1.745  -1.844   0.927  0.00  0.00    -0.317 N 
ATOM      2  HN  UNL d   1      -1.212  -2.263   1.689  1.00  0.00     0.170 HD
ATOM      3  C   UNL d   1      -1.143  -1.169  -0.069  0.00  0.00     0.156 A 
ATOM      4  C   UNL d   1      -3.082  -1.939   0.866  0.00  0.00     0.146 A 
ATOM      5  N   UNL d   1      -3.847  -1.395  -0.093  0.00  0.00    -0.347 N 
ATOM      6  HN  UNL d   1      -4.862  -1.498  -0.094  1.00  0.00     0.167 HD
ATOM      7  C   UNL d   1      -1.837  -0.555  -1.087  0.00  0.00     0.073 A 
ATOM      8  C   UNL d   1      -3.204  -0.708  -1.051  0.00  0.00     0.094 A 
ENDROOT
BRANCH   4   9
ATOM      9  S   UNL d   1      -3.931  -2.848   2.127  0.00  0.00    -0.089 SA
BRANCH   9  10
ATOM     10  C   UNL d   1      -2.742  -2.645   3.490  0.00  0.00     0.126 C 
BRANCH  10  11
ATOM     11  C   UNL d   1      -3.239  -3.327   4.738  0.00  0.00     0.012 A 
ATOM     12  C   UNL d   1      -2.868  -4.657   4.975  0.00  0.00     0.125 A 
ATOM     13  F   UNL d   1      -2.020  -5.272   4.137  0.00  0.00    -0.205 F 
ATOM     14  C   UNL d   1      -3.356  -5.376   6.063  0.00  0.00     0.043 A 
ATOM     15  C   UNL d   1      -4.240  -4.770   6.948  0.00  0.00     0.005 A 
ATOM     16  C   UNL d   1      -4.610  -3.440   6.748  0.00  0.00     0.024 A 
ATOM     17  C   UNL d   1      -4.111  -2.722   5.654  0.00  0.00     0.044 A 
ATOM     18 CL   UNL d   1      -4.609  -1.075   5.490  0.00  0.00    -0.084 Cl
ENDBRANCH  10  11
ENDBRANCH   9  10
ENDBRANCH   4   9
BRANCH   3  19
ATOM     19  O   UNL d   1       0.254  -1.025   0.104  0.00  0.00    -0.244 OA
BRANCH  19  20
ATOM     20  C   UNL d   1       1.127  -0.925  -0.975  0.00  0.00     0.368 C 
ATOM     21  N   UNL d   1       2.457  -0.762  -0.599  0.00  0.00    -0.336 N 
ATOM     22  C   UNL d   1       3.458  -0.516  -1.621  0.00  0.00     0.154 C 
ATOM     23  C   UNL d   1       2.893  -0.630   0.781  0.00  0.00     0.154 C 
ATOM     24  O   UNL d   1       0.766  -0.971  -2.150  0.00  0.00    -0.238 OA
ENDBRANCH  19  20
ENDBRANCH   3  19
TORSDOF 5
