REMARK  3 active torsions:
REMARK  status: ('A' for Active; 'I' for Inactive)
REMARK    1  A    between atoms: C_6  and  C_1 
REMARK    2  A    between atoms: C_5  and  C_2 
REMARK       I    between atoms: N_9  and  C_5 
REMARK    3  A    between atoms: N_10  and  N_9 
ROOT
ATOM      1  C   UNL d   1       0.232  -0.348  -1.647  0.00  0.00     0.086 A 
ATOM      2  C   UNL d   1      -0.116  -1.385  -0.710  0.00  0.00     0.094 A 
ATOM      3  N   UNL d   1      -0.793   0.510  -1.779  0.00  0.00    -0.259 N 
ATOM      4  HN  UNL d   1      -0.850   1.299  -2.422  1.00  0.00     0.195 HD
ATOM      5  O   UNL d   1      -1.754   0.113  -0.874  0.00  0.00    -0.241 OA
ATOM      6  C   UNL d   1      -1.350  -1.008  -0.233  0.00  0.00     0.090 A 
ATOM      7  C   UNL d   1      -2.258  -1.485   0.833  0.00  0.00     0.080 C 
ENDROOT
BRANCH   2   8
ATOM      8  C   UNL d   1       0.714  -2.489  -0.292  0.00  0.00     0.271 C 
ATOM      9  N   UNL d   1       0.058  -3.730  -0.178  0.00  0.00    -0.285 N 
ATOM     10  H   UNL d   1      -0.896  -3.825  -0.501  0.00  0.00     0.184 HD
ATOM     11  O   UNL d   1       1.913  -2.345  -0.110  0.00  0.00    -0.266 OA
BRANCH   9  12
ATOM     12  N   UNL d   1       0.863  -4.879  -0.033  0.00  0.00    -0.229 NA
ATOM     13  C   UNL d   1       0.767  -5.502   1.280  0.00  0.00     0.113 C 
ATOM     14  C   UNL d   1       2.119  -5.994   1.793  0.00  0.00     0.016 C 
ATOM     15  C   UNL d   1       3.081  -6.742   0.862  0.00  0.00     0.001 C 
ATOM     16  C   UNL d   1       3.263  -6.265  -0.578  0.00  0.00     0.001 C 
ATOM     17  C   UNL d   1       2.082  -6.424  -1.539  0.00  0.00     0.016 C 
ATOM     18  C   UNL d   1       0.731  -5.851  -1.112  0.00  0.00     0.113 C 
ENDBRANCH   9  12
ENDBRANCH   2   8
BRANCH   1  19
ATOM     19  C   UNL d   1       1.486  -0.162  -2.390  0.00  0.00     0.037 A 
ATOM     20  C   UNL d   1       2.050  -1.205  -3.152  0.00  0.00     0.048 A 
ATOM     21 CL   UNL d   1       1.194  -2.670  -3.521  0.00  0.00    -0.083 Cl
ATOM     22  C   UNL d   1       3.331  -1.086  -3.712  0.00  0.00     0.025 A 
ATOM     23  C   UNL d   1       4.044   0.102  -3.591  0.00  0.00     0.003 A 
ATOM     24  C   UNL d   1       3.473   1.178  -2.923  0.00  0.00     0.025 A 
ATOM     25  C   UNL d   1       2.211   1.048  -2.313  0.00  0.00     0.048 A 
ATOM     26 CL   UNL d   1       1.644   2.450  -1.464  0.00  0.00    -0.083 Cl
ENDBRANCH   1  19
TORSDOF 3
