REMARK  1 active torsions:
REMARK  status: ('A' for Active; 'I' for Inactive)
REMARK    1  A    between atoms: C_12  and  C_10 
ROOT
ATOM      1  N   UNL d   1      -1.129   1.574   0.169  0.00  0.00    -0.255 N 
ATOM      2  C   UNL d   1      -0.248   0.546   0.162  0.00  0.00     0.160 A 
ATOM      3  C   UNL d   1      -2.471   1.276   0.134  0.00  0.00     0.271 A 
ATOM      4  C   UNL d   1      -2.584  -0.211   0.068  0.00  0.00     0.077 A 
ATOM      5  N   UNL d   1       1.001   0.923   0.201  0.00  0.00    -0.334 N 
ATOM      6  HN  UNL d   1       1.837   0.339   0.208  1.00  0.00     0.168 HD
ATOM      7  S   UNL d   1      -1.013  -0.994   0.101  0.00  0.00    -0.048 SA
ATOM      8  C   UNL d   1      -0.412   2.740   0.207  0.00  0.00     0.071 A 
ATOM      9  C   UNL d   1       0.917   2.303   0.230  0.00  0.00     0.061 A 
ATOM     10  C   UNL d   1      -3.731  -0.900  -0.018  0.00  0.00     0.036 C 
ATOM     11  O   UNL d   1      -3.326   2.141   0.155  0.00  0.00    -0.266 OA
ATOM     12  C   UNL d   1      -0.780   4.089   0.219  0.00  0.00     0.032 A 
ATOM     13  C   UNL d   1       1.942   3.261   0.274  0.00  0.00     0.032 A 
ATOM     14  C   UNL d   1       0.258   5.023   0.260  0.00  0.00     0.002 A 
ATOM     15  C   UNL d   1       1.595   4.620   0.289  0.00  0.00     0.002 A 
ENDROOT
BRANCH  10  16
ATOM     16  C   UNL d   1      -5.066  -0.301  -0.071  0.00  0.00    -0.035 A 
ATOM     17  C   UNL d   1      -5.609   0.102  -1.297  0.00  0.00     0.013 A 
ATOM     18  C   UNL d   1      -6.896   0.645  -1.351  0.00  0.00     0.024 A 
ATOM     19  C   UNL d   1      -7.637   0.787  -0.180  0.00  0.00     0.034 A 
ATOM     20  C   UNL d   1      -7.097   0.407   1.048  0.00  0.00     0.024 A 
ATOM     21 CL   UNL d   1      -9.234   1.423  -0.251  0.00  0.00    -0.084 Cl
ATOM     22  C   UNL d   1      -5.810  -0.136   1.103  0.00  0.00     0.013 A 
ENDBRANCH  10  16
TORSDOF 1
