REMARK  2 active torsions:
REMARK  status: ('A' for Active; 'I' for Inactive)
REMARK    1  A    between atoms: C_14  and  C_1 
REMARK    2  A    between atoms: C_4  and  C_9 
ROOT
ATOM      1  C   UNL d   1       1.591   0.826  -0.050  0.00  0.00     0.147 A 
ATOM      2  N   UNL d   1       0.380   1.431  -0.006  0.00  0.00    -0.342 N 
ATOM      3  HN  UNL d   1       0.286   2.447   0.009  1.00  0.00     0.167 HD
ATOM      4  N   UNL d   1       1.749  -0.516  -0.058  0.00  0.00    -0.283 N 
ATOM      5  HN  UNL d   1       2.684  -0.922  -0.081  1.00  0.00     0.188 HD
ATOM      6  N   UNL d   1       0.651  -1.325  -0.035  0.00  0.00    -0.302 N 
ATOM      7  HN  UNL d   1       0.757  -2.340  -0.042  1.00  0.00     0.186 HD
ATOM      8  C   UNL d   1      -0.699   0.613   0.015  0.00  0.00     0.030 A 
ATOM      9  C   UNL d   1      -0.574  -0.769  -0.005  0.00  0.00     0.044 A 
ATOM     10  C   UNL d   1      -1.743  -1.699  -0.018  0.00  0.00     0.072 C 
ATOM     11  C   UNL d   1      -2.040   1.284   0.054  0.00  0.00     0.070 C 
ENDROOT
BRANCH   1  12
ATOM     12  C   UNL d   1       2.799   1.679  -0.139  0.00  0.00     0.078 A 
ATOM     13  N   UNL d   1       4.010   1.053  -0.186  0.00  0.00    -0.362 N 
ATOM     14  C   UNL d   1       5.127   1.806  -0.311  0.00  0.00     0.104 A 
ATOM     15  HN  UNL d   1       4.072   0.037  -0.128  1.00  0.00     0.165 HD
ATOM     16  C   UNL d   1       5.122   3.188  -0.395  0.00  0.00     0.063 A 
ATOM     17  C   UNL d   1       3.884   3.829  -0.331  0.00  0.00     0.020 A 
ATOM     18  C   UNL d   1       2.718   3.073  -0.201  0.00  0.00     0.034 A 
BRANCH  16  19
ATOM     19  C   UNL d   1       6.399   3.951  -0.558  0.00  0.00     0.418 C 
ATOM     20  F   UNL d   1       7.508   3.163  -0.604  0.00  0.00    -0.166 F 
ATOM     21  F   UNL d   1       6.419   4.689  -1.703  0.00  0.00    -0.166 F 
ATOM     22  F   UNL d   1       6.611   4.834   0.456  0.00  0.00    -0.166 F 
ENDBRANCH  16  19
ENDBRANCH   1  12
TORSDOF 2
