REMARK  8 active torsions:
REMARK  status: ('A' for Active; 'I' for Inactive)
REMARK    1  A    between atoms: C_6  and  C_3 
REMARK    2  A    between atoms: C_5  and  C_4 
REMARK    3  A    between atoms: O_15  and  C_5 
REMARK    4  A    between atoms: O_14  and  C_6 
REMARK    5  A    between atoms: S_10  and  C_7 
REMARK    6  A    between atoms: C_13  and  S_10 
REMARK    7  A    between atoms: C_21  and  O_14 
REMARK    8  A    between atoms: C_22  and  O_15 
ROOT
ATOM      1  N   UNL d   1      -1.348  -0.044  -0.012  0.00  0.00    -0.346 N 
ATOM      2  HN  UNL d   1      -2.368  -0.082  -0.002  1.00  0.00     0.166 HD
ATOM      3  C   UNL d   1      -0.688   1.138  -0.047  0.00  0.00     0.110 A 
ATOM      4  C   UNL d   1      -0.602  -1.173   0.009  0.00  0.00     0.110 A 
ATOM      5  C   UNL d   1       1.442   0.058  -0.064  0.00  0.00     0.010 A 
ATOM      6  C   UNL d   1       0.697   1.235  -0.085  0.00  0.00     0.054 A 
ATOM      7  C   UNL d   1       0.784  -1.169  -0.001  0.00  0.00     0.054 A 
ENDROOT
BRANCH   5   8
ATOM      8  S   UNL d   1       3.221   0.116  -0.010  0.00  0.00    -0.090 SA
BRANCH   8   9
ATOM      9  C   UNL d   1       3.665   0.113  -1.739  0.00  0.00     0.005 A 
ATOM     10  C   UNL d   1       4.469   1.145  -2.232  0.00  0.00     0.019 A 
ATOM     11  C   UNL d   1       4.897   1.138  -3.563  0.00  0.00     0.008 A 
ATOM     12  C   UNL d   1       4.531   0.094  -4.421  0.00  0.00    -0.062 A 
ATOM     13  C   UNL d   1       3.731  -0.941  -3.926  0.00  0.00     0.008 A 
ATOM     14  C   UNL d   1       5.013   0.088  -5.842  0.00  0.00     0.048 C 
ATOM     15  C   UNL d   1       3.306  -0.934  -2.593  0.00  0.00     0.019 A 
ENDBRANCH   8   9
ENDBRANCH   5   8
BRANCH   4  16
ATOM     16  C   UNL d   1      -1.318  -2.481  -0.034  0.00  0.00     0.310 C 
ATOM     17  O   UNL d   1      -0.749  -3.561  -0.098  0.00  0.00    -0.258 OA
BRANCH  16  18
ATOM     18  O   UNL d   1      -2.655  -2.271  -0.106  0.00  0.00    -0.317 OA
BRANCH  18  19
ATOM     19  C   UNL d   1      -3.434  -3.364  -0.604  0.00  0.00     0.175 C 
ATOM     20  C   UNL d   1      -3.491  -3.247  -2.117  0.00  0.00     0.034 C 
ENDBRANCH  18  19
ENDBRANCH  16  18
ENDBRANCH   4  16
BRANCH   3  21
ATOM     21  C   UNL d   1      -1.503   2.385   0.057  0.00  0.00     0.310 C 
ATOM     22  O   UNL d   1      -1.020   3.507   0.122  0.00  0.00    -0.258 OA
BRANCH  21  23
ATOM     23  O   UNL d   1      -2.816   2.068   0.172  0.00  0.00    -0.317 OA
BRANCH  23  24
ATOM     24  C   UNL d   1      -3.674   3.098   0.679  0.00  0.00     0.175 C 
ATOM     25  C   UNL d   1      -3.707   2.984   2.192  0.00  0.00     0.034 C 
ENDBRANCH  23  24
ENDBRANCH  21  23
ENDBRANCH   3  21
TORSDOF 8
