REMARK  10 active torsions:
REMARK  status: ('A' for Active; 'I' for Inactive)
REMARK    1  A    between atoms: C_7  and  S_1 
REMARK    2  A    between atoms: N_18  and  S_1 
REMARK    3  A    between atoms: S_2  and  C_8 
REMARK    4  A    between atoms: N_19  and  S_2 
REMARK    5  A    between atoms: C_22  and  N_18 
REMARK    6  A    between atoms: C_23  and  N_19 
REMARK    7  A    between atoms: C_24  and  C_22 
REMARK    8  A    between atoms: C_25  and  C_23 
REMARK    9  A    between atoms: C_26  and  C_24 
REMARK   10  A    between atoms: C_27  and  C_25 
ROOT
ATOM      1  C   UNL d   1      -0.578  -2.722   2.607  0.00  0.00    -0.041 A 
ATOM      2  C   UNL d   1      -1.300  -4.478   4.012  0.00  0.00    -0.041 A 
ATOM      3  C   UNL d   1      -0.119  -3.950   2.078  0.00  0.00    -0.019 A 
ATOM      4  C   UNL d   1      -0.559  -5.027   2.941  0.00  0.00    -0.019 A 
ATOM      5  C   UNL d   1       0.488  -1.547   0.826  0.00  0.00     0.080 A 
ATOM      6  C   UNL d   1      -1.625  -6.664   4.913  0.00  0.00     0.080 A 
ATOM      7  C   UNL d   1      -1.369  -2.967   3.880  0.00  0.00     0.078 A 
ATOM      8  C   UNL d   1      -0.282  -1.512   1.996  0.00  0.00     0.033 A 
ATOM      9  C   UNL d   1      -1.838  -5.282   5.009  0.00  0.00     0.033 A 
ATOM     10  C   UNL d   1      -0.345  -6.395   2.858  0.00  0.00     0.014 A 
ATOM     11  C   UNL d   1       0.639  -3.979   0.917  0.00  0.00     0.014 A 
ATOM     12  C   UNL d   1       0.944  -2.767   0.287  0.00  0.00     0.026 A 
ATOM     13  C   UNL d   1      -0.882  -7.219   3.854  0.00  0.00     0.026 A 
ENDROOT
BRANCH   5  14
ATOM     14  S   UNL d   1       0.981  -0.020   0.062  0.00  0.00     0.258 S 
ATOM     15  O   UNL d   1       1.716  -0.316  -1.148  0.00  0.00    -0.201 OA
ATOM     16  O   UNL d   1       1.532   0.822   1.101  0.00  0.00    -0.201 OA
BRANCH  14  17
ATOM     17  N   UNL d   1      -0.489   0.690  -0.385  0.00  0.00    -0.315 N 
ATOM     18  H   UNL d   1      -0.491   1.682  -0.144  0.00  0.00     0.172 HD
BRANCH  17  19
ATOM     19  C   UNL d   1      -1.031   0.305  -1.693  0.00  0.00     0.132 C 
BRANCH  19  20
ATOM     20  C   UNL d   1      -2.376   0.994  -1.938  0.00  0.00     0.024 C 
BRANCH  20  21
ATOM     21  C   UNL d   1      -2.957   0.657  -3.327  0.00  0.00    -0.021 C 
ATOM     22  C   UNL d   1      -3.223  -0.840  -3.498  0.00  0.00     0.009 C 
ATOM     23  C   UNL d   1      -4.249   1.438  -3.578  0.00  0.00     0.009 C 
ENDBRANCH  20  21
ENDBRANCH  19  20
ENDBRANCH  17  19
ENDBRANCH  14  17
ENDBRANCH   5  14
BRANCH   6  24
ATOM     24  S   UNL d   1      -2.228  -7.744   6.190  0.00  0.00     0.258 S 
ATOM     25  O   UNL d   1      -1.129  -8.605   6.575  0.00  0.00    -0.201 OA
ATOM     26  O   UNL d   1      -2.955  -6.962   7.161  0.00  0.00    -0.201 OA
BRANCH  24  27
ATOM     27  N   UNL d   1      -3.333  -8.738   5.377  0.00  0.00    -0.315 N 
ATOM     28  H   UNL d   1      -3.208  -9.714   5.645  0.00  0.00     0.172 HD
BRANCH  27  29
ATOM     29  C   UNL d   1      -4.704  -8.229   5.276  0.00  0.00     0.132 C 
BRANCH  29  30
ATOM     30  C   UNL d   1      -5.592  -9.188   4.477  0.00  0.00     0.024 C 
BRANCH  30  31
ATOM     31  C   UNL d   1      -7.056  -8.697   4.419  0.00  0.00    -0.021 C 
ATOM     32  C   UNL d   1      -7.186  -7.339   3.728  0.00  0.00     0.009 C 
ATOM     33  C   UNL d   1      -7.949  -9.718   3.711  0.00  0.00     0.009 C 
ENDBRANCH  30  31
ENDBRANCH  29  30
ENDBRANCH  27  29
ENDBRANCH  24  27
ENDBRANCH   6  24
TORSDOF 10
