REMARK  5 active torsions:
REMARK  status: ('A' for Active; 'I' for Inactive)
REMARK    1  A    between atoms: C_7  and  C_1 
REMARK    2  A    between atoms: C_9  and  C_6 
REMARK    3  A    between atoms: O_16  and  C_7 
REMARK    4  A    between atoms: C_8  and  C_14 
REMARK    5  A    between atoms: N_10  and  O_16 
ROOT
ATOM      1  C   UNL d   1      -0.370  -2.671   0.015  0.00  0.00     0.333 C 
ATOM      2  O   UNL d   1      -1.548  -3.007   0.012  0.00  0.00    -0.256 OA
ENDROOT
BRANCH   1   3
ATOM      3  C   UNL d   1       0.101  -1.304  -0.014  0.00  0.00     0.129 A 
ATOM      4  N   UNL d   1      -0.676  -0.172  -0.044  0.00  0.00    -0.291 N 
ATOM      5  N   UNL d   1       0.043   0.972  -0.067  0.00  0.00    -0.302 N 
ATOM      6  C   UNL d   1      -2.114  -0.031  -0.067  0.00  0.00     0.178 C 
ATOM      7  C   UNL d   1       1.322   0.580  -0.038  0.00  0.00     0.036 A 
ATOM      8  HN  UNL d   1      -0.312   1.927  -0.101  1.00  0.00     0.186 HD
ATOM      9  C   UNL d   1       1.403  -0.831  -0.024  0.00  0.00     0.065 A 
BRANCH   7  10
ATOM     10  C   UNL d   1       2.456   1.590  -0.069  0.00  0.00    -0.007 C 
ATOM     11  C   UNL d   1       2.810   1.922  -1.531  0.00  0.00     0.021 C 
ATOM     12  C   UNL d   1       2.072   2.898   0.657  0.00  0.00     0.021 C 
ATOM     13  C   UNL d   1       3.715   1.028   0.625  0.00  0.00     0.021 C 
ENDBRANCH   7  10
ENDBRANCH   1   3
BRANCH   1  14
ATOM     14  O   UNL d   1       0.713  -3.533   0.050  0.00  0.00    -0.194 OA
BRANCH  14  15
ATOM     15  N   UNL d   1       0.264  -4.867   0.066  0.00  0.00    -0.268 N 
ATOM     16  C   UNL d   1       1.261  -5.689   0.016  0.00  0.00     0.129 C 
ATOM     17  HN  UNL d   1      -0.716  -5.148   0.111  1.00  0.00     0.194 HD
BRANCH  16  18
ATOM     18  C   UNL d   1       1.048  -7.155  -0.001  0.00  0.00     0.025 A 
ATOM     19  C   UNL d   1      -0.071  -7.736  -0.623  0.00  0.00     0.047 A 
ATOM     20 CL   UNL d   1      -1.220  -6.851  -1.567  0.00  0.00    -0.083 Cl
ATOM     21  C   UNL d   1      -0.275  -9.121  -0.563  0.00  0.00     0.025 A 
ATOM     22  C   UNL d   1       0.636  -9.943   0.094  0.00  0.00     0.003 A 
ATOM     23  C   UNL d   1       1.766  -9.382   0.682  0.00  0.00     0.025 A 
ATOM     24  C   UNL d   1       1.977  -7.997   0.635  0.00  0.00     0.047 A 
ATOM     25 CL   UNL d   1       3.402  -7.402   1.416  0.00  0.00    -0.083 Cl
ENDBRANCH  16  18
ENDBRANCH  14  15
ENDBRANCH   1  14
TORSDOF 5
