REMARK  3 active torsions:
REMARK  status: ('A' for Active; 'I' for Inactive)
REMARK    1  A    between atoms: N_5  and  C_1 
REMARK    2  A    between atoms: C_11  and  C_2 
REMARK    3  A    between atoms: N_12  and  C_10 
ROOT
ATOM      1  C   UNL d   1      -0.775   1.017   0.026  0.00  0.00     0.158 A 
ATOM      2  C   UNL d   1       0.643   1.062  -0.015  0.00  0.00     0.112 A 
ATOM      3  N   UNL d   1      -1.208  -0.243  -0.001  0.00  0.00    -0.223 N 
ATOM      4  HN  UNL d   1      -2.172  -0.573   0.043  1.00  0.00     0.198 HD
ATOM      5  N   UNL d   1       1.077  -0.207  -0.111  0.00  0.00    -0.237 N 
ATOM      6  HN  UNL d   1       2.046  -0.520  -0.178  1.00  0.00     0.197 HD
ATOM      7  O   UNL d   1      -0.055  -1.004  -0.102  0.00  0.00    -0.155 OA
ENDROOT
BRANCH   1   8
ATOM      8  N   UNL d   1      -1.638   2.117   0.156  0.00  0.00    -0.335 N 
ATOM      9  C   UNL d   1      -2.775   1.961  -0.438  0.00  0.00     0.179 C 
ATOM     10  HN  UNL d   1      -1.390   2.961   0.671  1.00  0.00     0.168 HD
BRANCH   9  11
ATOM     11  N   UNL d   1      -3.798   2.885  -0.482  0.00  0.00    -0.386 N 
ATOM     12  C   UNL d   1      -3.738   4.128   0.270  0.00  0.00     0.149 C 
ATOM     13  C   UNL d   1      -5.089   2.564  -1.068  0.00  0.00     0.149 C 
ENDBRANCH   9  11
ENDBRANCH   1   8
BRANCH   2  14
ATOM     14  C   UNL d   1       1.593   2.184   0.018  0.00  0.00    -0.004 A 
ATOM     15  C   UNL d   1       1.177   3.515   0.157  0.00  0.00     0.014 A 
ATOM     16  C   UNL d   1       2.104   4.564   0.170  0.00  0.00     0.001 A 
ATOM     17  C   UNL d   1       3.465   4.300   0.046  0.00  0.00     0.000 A 
ATOM     18  C   UNL d   1       3.901   2.986  -0.085  0.00  0.00     0.001 A 
ATOM     19  C   UNL d   1       2.975   1.940  -0.097  0.00  0.00     0.014 A 
ENDBRANCH   2  14
TORSDOF 3
