REMARK  4 active torsions:
REMARK  status: ('A' for Active; 'I' for Inactive)
REMARK    1  A    between atoms: C_2  and  C_1 
REMARK       I    between atoms: N_6  and  C_1 
REMARK    2  A    between atoms: O_7  and  C_8 
REMARK    3  A    between atoms: C_9  and  O_7 
REMARK    4  A    between atoms: C_12  and  C_9 
ROOT
ATOM      1  C   UNL d   1       0.232  -1.118  -0.504  0.00  0.00     0.032 A 
ATOM      2  C   UNL d   1       0.645  -2.372  -0.042  0.00  0.00     0.020 A 
ATOM      3  C   UNL d   1      -0.872  -1.024  -1.357  0.00  0.00     0.020 A 
ATOM      4  C   UNL d   1      -1.231  -3.415  -1.169  0.00  0.00     0.069 A 
ATOM      5  C   UNL d   1      -0.087  -3.517  -0.375  0.00  0.00     0.038 A 
ATOM      6  C   UNL d   1      -1.592  -2.171  -1.696  0.00  0.00     0.038 A 
ENDROOT
BRANCH   4   7
ATOM      7  O   UNL d   1      -1.933  -4.578  -1.363  0.00  0.00    -0.347 OA
BRANCH   7   8
ATOM      8  C   UNL d   1      -3.299  -4.387  -1.747  0.00  0.00     0.214 C 
BRANCH   8   9
ATOM      9  C   UNL d   1      -4.147  -5.608  -1.482  0.00  0.00    -0.034 A 
ATOM     10  C   UNL d   1      -5.474  -5.436  -1.056  0.00  0.00     0.009 A 
ATOM     11  C   UNL d   1      -6.309  -6.535  -0.859  0.00  0.00     0.001 A 
ATOM     12  C   UNL d   1      -5.829  -7.820  -1.096  0.00  0.00     0.000 A 
ATOM     13  C   UNL d   1      -4.516  -8.004  -1.530  0.00  0.00     0.001 A 
ATOM     14  C   UNL d   1      -3.678  -6.904  -1.726  0.00  0.00     0.009 A 
ENDBRANCH   8   9
ENDBRANCH   7   8
ENDBRANCH   4   7
BRANCH   1  15
ATOM     15  C   UNL d   1       0.978   0.093  -0.080  0.00  0.00     0.249 C 
ATOM     16  O   UNL d   1       2.155   0.042   0.252  0.00  0.00    -0.268 OA
ATOM     17  N   UNL d   1       0.275   1.265  -0.025  0.00  0.00    -0.366 N 
ATOM     18  H   UNL d   1      -0.735   1.288  -0.025  0.00  0.00     0.159 HD
ATOM     19  H   UNL d   1       0.758   2.059   0.375  0.00  0.00     0.159 HD
ENDBRANCH   1  15
TORSDOF 4
