REMARK  4 active torsions:
REMARK  status: ('A' for Active; 'I' for Inactive)
REMARK    1  A    between atoms: N_6  and  C_1 
REMARK    2  A    between atoms: N_4  and  C_2 
REMARK    3  A    between atoms: N_5  and  C_3 
REMARK    4  A    between atoms: C_14  and  N_6 
ROOT
ATOM      1  C   UNL d   1       2.442   0.069  -0.057  0.00  0.00     0.099 A 
ATOM      2  C   UNL d   1       1.760  -1.180   0.013  0.00  0.00     0.133 A 
ATOM      3  C   UNL d   1       1.600   1.202  -0.159  0.00  0.00     0.133 A 
ATOM      4  C   UNL d   1       0.194   1.122  -0.171  0.00  0.00     0.062 A 
ATOM      5  C   UNL d   1       0.349  -1.266   0.006  0.00  0.00     0.062 A 
ATOM      6  C   UNL d   1      -0.419  -0.115  -0.083  0.00  0.00     0.038 A 
ATOM      7 CL   UNL d   1      -2.133  -0.221  -0.064  0.00  0.00    -0.084 Cl
ENDROOT
BRANCH   1   8
ATOM      8  N   UNL d   1       3.853   0.119  -0.050  0.00  0.00    -0.352 N 
ATOM      9  H   UNL d   1       4.312  -0.719   0.326  0.00  0.00     0.166 HD
BRANCH   8  10
ATOM     10  C   UNL d   1       4.798   1.037  -0.539  0.00  0.00     0.032 A 
ATOM     11  C   UNL d   1       5.949   1.287   0.224  0.00  0.00     0.029 A 
ATOM     12  C   UNL d   1       6.866   2.267  -0.162  0.00  0.00     0.002 A 
ATOM     13  C   UNL d   1       6.644   3.008  -1.319  0.00  0.00     0.000 A 
ATOM     14  C   UNL d   1       5.522   2.748  -2.102  0.00  0.00     0.002 A 
ATOM     15  C   UNL d   1       4.611   1.761  -1.718  0.00  0.00     0.029 A 
ENDBRANCH   8  10
ENDBRANCH   1   8
BRANCH   2  16
ATOM     16  N   UNL d   1       2.492  -2.462   0.107  0.00  0.00    -0.113 N 
ATOM     17  O   UNL d   1       3.717  -2.429   0.288  0.00  0.00    -0.532 OA
ATOM     18  O   UNL d   1       1.833  -3.507   0.019  0.00  0.00    -0.532 OA
ENDBRANCH   2  16
BRANCH   3  19
ATOM     19  N   UNL d   1       2.111   2.562  -0.147  0.00  0.00    -0.113 N 
ATOM     20  O   UNL d   1       2.623   2.961   0.908  0.00  0.00    -0.532 OA
ATOM     21  O   UNL d   1       1.881   3.247  -1.154  0.00  0.00    -0.532 OA
ENDBRANCH   3  19
TORSDOF 4
