REMARK  5 active torsions:
REMARK  status: ('A' for Active; 'I' for Inactive)
REMARK    1  A    between atoms: C_2  and  C_1 
REMARK    2  A    between atoms: O_5  and  C_1 
REMARK    3  A    between atoms: C_3  and  C_10 
REMARK    4  A    between atoms: C_12  and  C_4 
REMARK    5  A    between atoms: C_13  and  O_5 
ROOT
ATOM      1  C   UNL d   1       0.275   1.207  -0.539  0.00  0.00     0.056 A 
ATOM      2  N   UNL d   1      -1.523   2.831  -0.558  0.00  0.00    -0.373 N 
ATOM      3  HN  UNL d   1      -2.317   3.275  -0.098  1.00  0.00     0.164 HD
ATOM      4  C   UNL d   1       0.661   1.623  -1.825  0.00  0.00     0.041 A 
ATOM      5  C   UNL d   1      -0.049   2.634  -2.473  0.00  0.00     0.034 A 
ATOM      6  C   UNL d   1      -0.807   1.849   0.049  0.00  0.00     0.105 A 
ATOM      7  C   UNL d   1      -1.131   3.193  -1.806  0.00  0.00     0.108 A 
ENDROOT
BRANCH   1   8
ATOM      8  C   UNL d   1       1.009   0.093   0.108  0.00  0.00     0.300 C 
ATOM      9  O   UNL d   1       1.920  -0.488  -0.464  0.00  0.00    -0.259 OA
BRANCH   8  10
ATOM     10  O   UNL d   1       0.495  -0.197   1.368  0.00  0.00    -0.275 OA
BRANCH  10  11
ATOM     11  C   UNL d   1       0.970  -1.300   2.120  0.00  0.00     0.079 A 
ATOM     12  C   UNL d   1       2.293  -1.742   2.091  0.00  0.00     0.037 A 
ATOM     13  C   UNL d   1       2.666  -2.862   2.840  0.00  0.00     0.003 A 
ATOM     14  C   UNL d   1       1.730  -3.518   3.639  0.00  0.00     0.000 A 
ATOM     15  C   UNL d   1       0.419  -3.044   3.704  0.00  0.00     0.003 A 
ATOM     16  C   UNL d   1       0.038  -1.932   2.947  0.00  0.00     0.037 A 
ENDBRANCH  10  11
ENDBRANCH   8  10
ENDBRANCH   1   8
BRANCH   5  17
ATOM     17  C   UNL d   1       0.320   3.101  -3.777  0.00  0.00    -0.060 C 
ATOM     18  C   UNL d   1       0.593   3.554  -4.855  0.00  0.00    -0.061 C 
BRANCH  18  19
ATOM     19  C   UNL d   1       0.876   4.157  -6.125  0.00  0.00     0.018 A 
ATOM     20  C   UNL d   1       0.760   5.543  -6.274  0.00  0.00     0.020 A 
ATOM     21  C   UNL d   1       1.013   6.141  -7.511  0.00  0.00     0.001 A 
ATOM     22  C   UNL d   1       1.384   5.355  -8.602  0.00  0.00     0.000 A 
ATOM     23  C   UNL d   1       1.506   3.973  -8.456  0.00  0.00     0.001 A 
ATOM     24  C   UNL d   1       1.253   3.374  -7.218  0.00  0.00     0.020 A 
ENDBRANCH  18  19
ENDBRANCH   5  17
TORSDOF 5
