REMARK  3 active torsions:
REMARK  status: ('A' for Active; 'I' for Inactive)
REMARK    1  A    between atoms: C_4  and  C_1 
REMARK    2  A    between atoms: N_5  and  N_8 
REMARK    3  A    between atoms: N_8  and  C_7 
ROOT
ATOM      1  N   UNL d   1       0.924   2.512  -0.745  0.00  0.00    -0.338 N 
ATOM      2  HN  UNL d   1       1.323   2.749   0.164  1.00  0.00     0.167 HD
ATOM      3  C   UNL d   1       0.645   1.216  -1.060  0.00  0.00     0.118 A 
ATOM      4  C   UNL d   1       0.667   3.479  -1.652  0.00  0.00     0.120 A 
ATOM      5  C   UNL d   1       0.103   0.862  -2.294  0.00  0.00     0.034 A 
ATOM      6  C   UNL d   1      -0.159   1.862  -3.222  0.00  0.00     0.006 A 
ATOM      7  C   UNL d   1       0.125   3.187  -2.897  0.00  0.00     0.050 A 
ENDROOT
BRANCH   4   8
ATOM      8  N   UNL d   1       0.985   4.773  -1.244  0.00  0.00    -0.286 N 
ATOM      9  H   UNL d   1       1.356   4.763  -0.302  0.00  0.00     0.188 HD
BRANCH   8  10
ATOM     10  N   UNL d   1       0.755   5.864  -2.000  0.00  0.00    -0.307 N 
ATOM     11  C   UNL d   1       0.994   7.036  -1.486  0.00  0.00     0.005 C 
ATOM     12  C   UNL d   1       0.767   8.252  -2.365  0.00  0.00     0.064 C 
ATOM     13  C   UNL d   1       1.510   7.329  -0.090  0.00  0.00     0.064 C 
ATOM     14  C   UNL d   1       2.080   8.981  -2.607  0.00  0.00     0.079 C 
ATOM     15  S   UNL d   1       2.873   9.520  -1.055  0.00  0.00    -0.168 SA
ATOM     16  C   UNL d   1       2.908   7.913  -0.195  0.00  0.00     0.079 C 
ATOM     17  HN  UNL d   1       0.402   5.774  -2.952  1.00  0.00     0.186 HD
ENDBRANCH   8  10
ENDBRANCH   4   8
BRANCH   3  18
ATOM     18  C   UNL d   1       0.931   0.128  -0.036  0.00  0.00     0.432 C 
ATOM     19  F   UNL d   1       1.448   0.585   1.140  0.00  0.00    -0.165 F 
ATOM     20  F   UNL d   1       1.824  -0.800  -0.495  0.00  0.00    -0.165 F 
ATOM     21  F   UNL d   1      -0.186  -0.581   0.302  0.00  0.00    -0.165 F 
ENDBRANCH   3  18
TORSDOF 3
