REMARK  5 active torsions:
REMARK  status: ('A' for Active; 'I' for Inactive)
REMARK    1  A    between atoms: N_3  and  S_1 
REMARK    2  A    between atoms: C_2  and  C_8 
REMARK    3  A    between atoms: N_11  and  C_2 
REMARK    4  A    between atoms: C_12  and  N_3 
REMARK    5  A    between atoms: O_14  and  N_6 
ROOT
ATOM      1  C   UNL d   1       2.906   7.056   1.972  0.00  0.00     0.004 A 
ATOM      2  C   UNL d   1       3.231   8.342   2.429  0.00  0.00     0.016 A 
ATOM      3  C   UNL d   1       3.907   6.076   1.924  0.00  0.00     0.016 A 
ATOM      4  C   UNL d   1       5.522   7.655   2.778  0.00  0.00     0.022 A 
ATOM      5  C   UNL d   1       4.534   8.635   2.845  0.00  0.00     0.025 A 
ATOM      6  C   UNL d   1       5.213   6.374   2.327  0.00  0.00     0.025 A 
ENDROOT
BRANCH   1   7
ATOM      7  C   UNL d   1       1.511   6.719   1.535  0.00  0.00     0.108 C 
ATOM      8  N   UNL d   1       1.263   5.518   1.092  0.00  0.00    -0.258 N 
ATOM      9  HN  UNL d   1       1.964   4.783   0.993  1.00  0.00     0.195 HD
BRANCH   8  10
ATOM     10  O   UNL d   1      -0.097   5.367   0.769  0.00  0.00    -0.289 OA
ATOM     11  H   UNL d   1      -0.125   4.450   0.439  0.00  0.00     0.244 HD
ENDBRANCH   8  10
BRANCH   7  12
ATOM     12  N   UNL d   1       0.517   7.670   1.615  0.00  0.00    -0.287 NA
ATOM     13  H   UNL d   1       0.486   8.189   2.483  0.00  0.00     0.125 HD
ATOM     14  H   UNL d   1      -0.377   7.220   1.425  0.00  0.00     0.125 HD
ENDBRANCH   7  12
ENDBRANCH   1   7
BRANCH   4  15
ATOM     15  N   UNL d   1       6.844   7.965   3.210  0.00  0.00    -0.186 NA
ATOM     16  H   UNL d   1       7.585   7.605   2.603  0.00  0.00     0.145 HD
BRANCH  15  17
ATOM     17  S   UNL d   1       7.244   7.596   4.814  0.00  0.00     0.210 S 
ATOM     18  O   UNL d   1       8.660   7.286   4.787  0.00  0.00    -0.211 OA
ATOM     19  O   UNL d   1       6.284   6.677   5.379  0.00  0.00    -0.211 OA
ATOM     20  C   UNL d   1       7.060   9.185   5.593  0.00  0.00     0.180 C 
ENDBRANCH  15  17
ENDBRANCH   4  15
TORSDOF 5
