REMARK  5 active torsions:
REMARK  status: ('A' for Active; 'I' for Inactive)
REMARK    1  A    between atoms: C_7  and  N_2 
REMARK    2  A    between atoms: C_8  and  C_5 
REMARK    3  A    between atoms: S_13  and  C_6 
REMARK    4  A    between atoms: C_10  and  C_7 
REMARK       I    between atoms: N_18  and  C_10 
REMARK    5  A    between atoms: N_19  and  N_18 
ROOT
ATOM      1  C   UNL d   1      -0.313  -1.191  -0.116  0.00  0.00     0.109 A 
ATOM      2  N   UNL d   1      -0.276   1.000   0.057  0.00  0.00    -0.275 N 
ATOM      3  N   UNL d   1       1.017   0.632   0.144  0.00  0.00    -0.294 N 
ATOM      4  HN  UNL d   1       1.828   1.240   0.257  1.00  0.00     0.187 HD
ATOM      5  C   UNL d   1       1.009  -0.706   0.051  0.00  0.00     0.089 A 
ATOM      6  C   UNL d   1      -1.126  -0.076  -0.077  0.00  0.00     0.110 A 
ATOM      7  C   UNL d   1      -0.731  -2.541  -0.285  0.00  0.00     0.104 C 
ATOM      8  N   UNL d   1      -1.099  -3.634  -0.415  0.00  0.00    -0.191 NA
ENDROOT
BRANCH   5   9
ATOM      9  C   UNL d   1       2.308  -1.464   0.111  0.00  0.00     0.034 A 
ATOM     10  S   UNL d   1       2.505  -3.133  -0.191  0.00  0.00    -0.100 SA
ATOM     11  C   UNL d   1       4.190  -3.060   0.078  0.00  0.00     0.050 A 
ATOM     12  C   UNL d   1       4.602  -1.791   0.415  0.00  0.00     0.008 A 
ATOM     13  C   UNL d   1       3.515  -0.867   0.424  0.00  0.00     0.022 A 
ENDBRANCH   5   9
BRANCH   6  14
ATOM     14  S   UNL d   1      -2.847   0.172  -0.216  0.00  0.00    -0.114 SA
ATOM     15  C   UNL d   1      -3.571  -1.296   0.550  0.00  0.00     0.097 C 
ENDBRANCH   6  14
BRANCH   2  16
ATOM     16  C   UNL d   1      -0.626   2.418   0.046  0.00  0.00     0.254 C 
BRANCH  16  17
ATOM     17  C   UNL d   1       0.530   3.388   0.185  0.00  0.00     0.251 C 
ATOM     18  O   UNL d   1       0.483   4.355   0.949  0.00  0.00    -0.270 OA
ATOM     19  N   UNL d   1       1.585   3.196  -0.707  0.00  0.00    -0.292 N 
ATOM     20  H   UNL d   1       1.759   2.220  -0.973  0.00  0.00     0.183 HD
BRANCH  19  21
ATOM     21  N   UNL d   1       2.720   4.043  -0.607  0.00  0.00    -0.247 NA
ATOM     22  H   UNL d   1       2.629   4.564   0.277  0.00  0.00     0.143 HD
ATOM     23  H   UNL d   1       2.638   4.762  -1.329  0.00  0.00     0.143 HD
ENDBRANCH  19  21
ENDBRANCH  16  17
ENDBRANCH   2  16
TORSDOF 5
