REMARK  2 active torsions:
REMARK  status: ('A' for Active; 'I' for Inactive)
REMARK    1  A    between atoms: C_6  and  C_3 
REMARK    2  A    between atoms: C_8  and  C_4 
ROOT
ATOM      1  N   UNL d   1       0.694   0.346   1.127  0.00  0.00    -0.348 N 
ATOM      2  HN  UNL d   1       0.990   0.626   2.062  1.00  0.00     0.166 HD
ATOM      3  C   UNL d   1      -0.335  -0.442   0.867  0.00  0.00     0.091 A 
ATOM      4  C   UNL d   1       1.315   0.739  -0.051  0.00  0.00     0.050 A 
ATOM      5  S   UNL d   1      -0.626  -0.713  -0.809  0.00  0.00    -0.081 SA
ATOM      6  C   UNL d   1       0.713   0.272  -1.202  0.00  0.00     0.082 A 
ENDROOT
BRANCH   4   7
ATOM      7  C   UNL d   1       2.497   1.598  -0.053  0.00  0.00    -0.006 A 
ATOM      8  C   UNL d   1       3.433   1.543  -1.097  0.00  0.00     0.053 A 
ATOM      9  C   UNL d   1       4.549   2.380  -1.093  0.00  0.00     0.103 A 
ATOM     10  O   UNL d   1       5.414   2.246  -2.149  0.00  0.00    -0.346 OA
ATOM     11  C   UNL d   1       4.735   3.299  -0.058  0.00  0.00     0.102 A 
ATOM     12  C   UNL d   1       6.667   2.886  -1.879  0.00  0.00     0.202 C 
ATOM     13  C   UNL d   1       6.446   4.266  -1.284  0.00  0.00     0.202 C 
ATOM     14  O   UNL d   1       5.790   4.173  -0.013  0.00  0.00    -0.346 OA
ATOM     15  C   UNL d   1       3.828   3.345   0.998  0.00  0.00     0.040 A 
ATOM     16  C   UNL d   1       2.715   2.496   1.002  0.00  0.00     0.017 A 
ENDBRANCH   4   7
BRANCH   3  17
ATOM     17  C   UNL d   1      -1.142  -1.017   1.922  0.00  0.00     0.038 A 
ATOM     18  S   UNL d   1      -2.470  -2.073   1.637  0.00  0.00    -0.099 SA
ATOM     19  C   UNL d   1      -2.802  -2.241   3.303  0.00  0.00     0.050 A 
ATOM     20  C   UNL d   1      -1.926  -1.516   4.077  0.00  0.00     0.008 A 
ATOM     21  C   UNL d   1      -0.971  -0.815   3.282  0.00  0.00     0.022 A 
ENDBRANCH   3  17
TORSDOF 2
