REMARK  2 active torsions:
REMARK  status: ('A' for Active; 'I' for Inactive)
REMARK    1  A    between atoms: C_5  and  C_6 
REMARK    2  A    between atoms: O_13  and  C_5 
ROOT
ATOM      1  N   UNL d   1      -1.514   1.111  -0.004  0.00  0.00    -0.350 N 
ATOM      2  HN  UNL d   1      -1.847   2.075  -0.003  1.00  0.00     0.166 HD
ATOM      3  C   UNL d   1      -0.210   0.679  -0.005  0.00  0.00     0.061 A 
ATOM      4  C   UNL d   1      -2.241   0.017  -0.003  0.00  0.00     0.181 A 
ATOM      5  C   UNL d   1       2.205   0.736  -0.018  0.00  0.00     0.041 A 
ATOM      6  N   UNL d   1      -1.462  -1.106  -0.001  0.00  0.00    -0.351 N 
ATOM      7  C   UNL d   1       0.978   1.422  -0.012  0.00  0.00     0.049 A 
ATOM      8  C   UNL d   1      -0.148  -0.710  -0.001  0.00  0.00     0.060 A 
ATOM      9  C   UNL d   1       2.232  -0.669  -0.009  0.00  0.00     0.020 A 
ATOM     10  C   UNL d   1       1.050  -1.425   0.000  0.00  0.00     0.033 A 
ATOM     11  H   UNL d   1      -1.798  -2.058  -0.004  0.00  0.00     0.166 HD
ENDROOT
BRANCH   5  12
ATOM     12  C   UNL d   1       3.447   1.557  -0.041  0.00  0.00     0.293 C 
ATOM     13  O   UNL d   1       3.449   2.778  -0.049  0.00  0.00    -0.259 OA
BRANCH  12  14
ATOM     14  O   UNL d   1       4.551   0.767  -0.057  0.00  0.00    -0.323 OA
ATOM     15  C   UNL d   1       5.778   1.497  -0.095  0.00  0.00     0.213 C 
ENDBRANCH  12  14
ENDBRANCH   5  12
TORSDOF 2
