REMARK  8 active torsions:
REMARK  status: ('A' for Active; 'I' for Inactive)
REMARK    1  A    between atoms: C_5  and  C_1 
REMARK    2  A    between atoms: N_2  and  C_4 
REMARK    3  A    between atoms: S_10  and  C_3 
REMARK       I    between atoms: C_7  and  N_12 
REMARK       I    between atoms: N_16  and  C_7 
REMARK    4  A    between atoms: C_13  and  S_10 
REMARK    5  A    between atoms: C_11  and  O_19 
REMARK    6  A    between atoms: N_12  and  C_14 
REMARK    7  A    between atoms: C_27  and  N_16 
REMARK    8  A    between atoms: O_19  and  C_28 
ROOT
ATOM      1  C   UNL d   1      -0.822   4.283  -0.822  0.00  0.00     0.028 A 
ATOM      2  C   UNL d   1       0.354   4.126  -1.578  0.00  0.00     0.034 A 
ATOM      3  C   UNL d   1      -1.023   5.513  -0.178  0.00  0.00     0.021 A 
ATOM      4  C   UNL d   1       1.224   5.209  -1.783  0.00  0.00     0.025 A 
ATOM      5  C   UNL d   1       1.001   6.420  -1.137  0.00  0.00     0.002 A 
ATOM      6  C   UNL d   1      -0.101   6.559  -0.301  0.00  0.00     0.001 A 
ENDROOT
BRANCH   2   7
ATOM      7  N   UNL d   1       0.765   2.875  -2.098  0.00  0.00    -0.209 NA
ATOM      8  C   UNL d   1       1.401   2.022  -1.176  0.00  0.00     0.303 C 
ATOM      9  N   UNL d   1       2.249   1.167  -1.869  0.00  0.00    -0.313 N 
ATOM     10  O   UNL d   1       1.324   2.126   0.041  0.00  0.00    -0.253 OA
ATOM     11  H   UNL d   1       1.956   0.915  -2.802  0.00  0.00     0.170 HD
ATOM     12  H   UNL d   1       1.373   2.965  -2.907  0.00  0.00     0.138 HD
BRANCH   9  13
ATOM     13  C   UNL d   1       3.528   0.754  -1.452  0.00  0.00     0.036 A 
ATOM     14  C   UNL d   1       4.069   1.038  -0.198  0.00  0.00     0.032 A 
ATOM     15  C   UNL d   1       5.406   0.728   0.095  0.00  0.00     0.039 A 
ATOM     16  C   UNL d   1       6.220   0.138  -0.871  0.00  0.00     0.078 A 
ATOM     17  C   UNL d   1       5.668  -0.180  -2.114  0.00  0.00     0.039 A 
ATOM     18  C   UNL d   1       4.332   0.116  -2.401  0.00  0.00     0.032 A 
BRANCH  16  19
ATOM     19  O   UNL d   1       7.540  -0.174  -0.743  0.00  0.00    -0.255 OA
BRANCH  19  20
ATOM     20  C   UNL d   1       8.226   0.305   0.406  0.00  0.00     0.530 C 
ATOM     21  F   UNL d   1       7.751  -0.272   1.525  0.00  0.00    -0.144 F 
ATOM     22  F   UNL d   1       9.533  -0.005   0.289  0.00  0.00    -0.144 F 
ATOM     23  F   UNL d   1       8.122   1.651   0.509  0.00  0.00    -0.144 F 
ENDBRANCH  19  20
ENDBRANCH  16  19
ENDBRANCH   9  13
ENDBRANCH   2   7
BRANCH   1  24
ATOM     24  S   UNL d   1      -2.218   3.180  -1.014  0.00  0.00    -0.070 SA
BRANCH  24  25
ATOM     25  C   UNL d   1      -2.189   2.046   0.352  0.00  0.00     0.089 A 
ATOM     26  C   UNL d   1      -2.680   2.321   1.630  0.00  0.00     0.084 A 
ATOM     27  C   UNL d   1      -2.787   1.250   2.546  0.00  0.00     0.056 A 
ATOM     28  C   UNL d   1      -2.470  -0.046   2.144  0.00  0.00     0.119 A 
ATOM     29  C   UNL d   1      -2.018  -0.241   0.857  0.00  0.00     0.124 A 
ATOM     30  N   UNL d   1      -1.878   0.774  -0.031  0.00  0.00    -0.357 N 
ATOM     31  HN  UNL d   1      -1.543   0.588  -0.977  1.00  0.00     0.166 HD
BRANCH  26  32
ATOM     32  C   UNL d   1      -3.123   3.680   2.078  0.00  0.00     0.420 C 
ATOM     33  F   UNL d   1      -3.784   4.409   1.141  0.00  0.00    -0.166 F 
ATOM     34  F   UNL d   1      -3.990   3.618   3.134  0.00  0.00    -0.166 F 
ATOM     35  F   UNL d   1      -2.091   4.453   2.513  0.00  0.00    -0.166 F 
ENDBRANCH  26  32
BRANCH  28  36
ATOM     36  N   UNL d   1      -2.660  -1.179   3.037  0.00  0.00    -0.114 N 
ATOM     37  O   UNL d   1      -2.892  -0.934   4.229  0.00  0.00    -0.532 OA
ATOM     38  O   UNL d   1      -2.600  -2.315   2.548  0.00  0.00    -0.532 OA
ENDBRANCH  28  36
ENDBRANCH  24  25
ENDBRANCH   1  24
TORSDOF 8
