REMARK  0 active torsions:
REMARK  status: ('A' for Active; 'I' for Inactive)
ROOT
ATOM      1  C   UNL d   1       0.017  -1.537   0.002  0.00  0.00     0.056 A 
ATOM      2  N   UNL d   1       0.010   1.310   0.009  0.00  0.00    -0.355 N 
ATOM      3  C   UNL d   1      -1.282  -0.756   0.001  0.00  0.00     0.013 A 
ATOM      4  C   UNL d   1       1.313  -0.749   0.001  0.00  0.00     0.013 A 
ATOM      5  C   UNL d   1       1.246   0.655  -0.001  0.00  0.00     0.044 A 
ATOM      6  C   UNL d   1      -1.222   0.649  -0.000  0.00  0.00     0.044 A 
ATOM      7  S   UNL d   1       0.022  -3.241   0.003  0.00  0.00    -0.078 SA
ATOM      8  C   UNL d   1      -2.543  -1.381  -0.001  0.00  0.00     0.015 A 
ATOM      9  C   UNL d   1       2.577  -1.368  -0.000  0.00  0.00     0.015 A 
ATOM     10  C   UNL d   1       2.430   1.408   0.001  0.00  0.00     0.030 A 
ATOM     11  C   UNL d   1      -2.410   1.397   0.002  0.00  0.00     0.030 A 
ATOM     12  C   UNL d   1      -3.718  -0.626  -0.001  0.00  0.00     0.001 A 
ATOM     13  C   UNL d   1       3.748  -0.608  -0.001  0.00  0.00     0.001 A 
ATOM     14  C   UNL d   1       3.675   0.780  -0.000  0.00  0.00     0.002 A 
ATOM     15  C   UNL d   1      -3.651   0.762   0.001  0.00  0.00     0.002 A 
ATOM     16  H   UNL d   1       0.008   2.320  -0.018  0.00  0.00     0.166 HD
ENDROOT
TORSDOF 0
