REMARK  4 active torsions:
REMARK  status: ('A' for Active; 'I' for Inactive)
REMARK    1  A    between atoms: C_5  and  C_1 
REMARK    2  A    between atoms: S_2  and  C_8 
REMARK    3  A    between atoms: N_15  and  S_2 
REMARK       I    between atoms: N_9  and  C_5 
REMARK    4  A    between atoms: C_13  and  N_9 
ROOT
ATOM      1  C   UNL d   1       3.854  -0.067   0.130  0.00  0.00     0.264 C 
ATOM      2  N   UNL d   1       4.582  -1.254   0.138  0.00  0.00    -0.322 N 
ATOM      3  O   UNL d   1       2.644  -0.030  -0.064  0.00  0.00    -0.267 OA
ATOM      4  H   UNL d   1       5.545  -1.188   0.442  0.00  0.00     0.169 HD
ENDROOT
BRANCH   2   5
ATOM      5  C   UNL d   1       4.062  -2.548  -0.082  0.00  0.00     0.036 A 
ATOM      6  C   UNL d   1       2.808  -2.780  -0.646  0.00  0.00     0.054 A 
ATOM      7  C   UNL d   1       2.309  -4.081  -0.738  0.00  0.00     0.076 A 
ATOM      8  C   UNL d   1       3.062  -5.172  -0.312  0.00  0.00     0.025 A 
ATOM      9  C   UNL d   1       4.339  -4.950   0.200  0.00  0.00     0.004 A 
ATOM     10  C   UNL d   1       4.841  -3.646   0.307  0.00  0.00     0.029 A 
BRANCH   7  11
ATOM     11  S   UNL d   1       0.680  -4.306  -1.380  0.00  0.00     0.239 S 
ATOM     12  O   UNL d   1       0.599  -3.675  -2.677  0.00  0.00    -0.206 OA
ATOM     13  O   UNL d   1       0.261  -5.669  -1.151  0.00  0.00    -0.206 OA
BRANCH  11  14
ATOM     14  N   UNL d   1      -0.242  -3.373  -0.332  0.00  0.00    -0.225 NA
ATOM     15  H   UNL d   1      -0.653  -2.578  -0.822  0.00  0.00     0.136 HD
ATOM     16  H   UNL d   1      -0.911  -3.954   0.169  0.00  0.00     0.136 HD
ENDBRANCH  11  14
ENDBRANCH   7  11
ENDBRANCH   2   5
BRANCH   1  17
ATOM     17  C   UNL d   1       4.622   1.152   0.386  0.00  0.00     0.096 A 
ATOM     18  S   UNL d   1       6.322   1.127   0.578  0.00  0.00    -0.082 SA
ATOM     19  C   UNL d   1       6.430   2.839   0.699  0.00  0.00     0.017 A 
ATOM     20  C   UNL d   1       7.600   3.608   0.859  0.00  0.00     0.020 A 
ATOM     21  C   UNL d   1       5.171   3.434   0.611  0.00  0.00     0.004 A 
ATOM     22  C   UNL d   1       7.497   5.001   0.886  0.00  0.00     0.001 A 
ATOM     23  C   UNL d   1       6.263   5.620   0.763  0.00  0.00     0.001 A 
ATOM     24  C   UNL d   1       5.104   4.853   0.641  0.00  0.00     0.014 A 
ATOM     25  C   UNL d   1       4.135   2.443   0.503  0.00  0.00     0.068 A 
ATOM     26 CL   UNL d   1       2.474   2.901   0.493  0.00  0.00    -0.082 Cl
ENDBRANCH   1  17
TORSDOF 4
