REMARK  4 active torsions:
REMARK  status: ('A' for Active; 'I' for Inactive)
REMARK    1  A    between atoms: N_2  and  C_1 
REMARK    2  A    between atoms: N_3  and  C_1 
REMARK       I    between atoms: C_4  and  N_2 
REMARK    3  A    between atoms: O_7  and  C_4 
REMARK    4  A    between atoms: C_10  and  O_7 
ROOT
ATOM      1  C   UNL d   1       1.082  -0.107   0.115  0.00  0.00     0.178 C 
ATOM      2  S   UNL d   1       2.663  -0.574   0.430  0.00  0.00    -0.041 SA
ENDROOT
BRANCH   1   3
ATOM      3  N   UNL d   1       0.465  -0.285  -1.114  0.00  0.00    -0.279 N 
ATOM      4  C   UNL d   1       0.993  -0.242  -2.382  0.00  0.00     0.366 C 
ATOM      5  O   UNL d   1       2.107   0.126  -2.709  0.00  0.00    -0.238 OA
ATOM      6  H   UNL d   1      -0.525  -0.453  -1.107  0.00  0.00     0.173 HD
BRANCH   4   7
ATOM      7  O   UNL d   1      -0.018  -0.515  -3.249  0.00  0.00    -0.304 OA
BRANCH   7   8
ATOM      8  C   UNL d   1       0.209  -0.130  -4.615  0.00  0.00     0.176 C 
ATOM      9  C   UNL d   1      -0.379   1.256  -4.819  0.00  0.00     0.034 C 
ENDBRANCH   7   8
ENDBRANCH   4   7
ENDBRANCH   1   3
BRANCH   1  10
ATOM     10  N   UNL d   1       0.249   0.510   1.055  0.00  0.00    -0.358 N 
ATOM     11  C   UNL d   1      -1.016   1.175   0.741  0.00  0.00     0.125 C 
ATOM     12  C   UNL d   1      -1.066   2.351   1.699  0.00  0.00     0.021 C 
ATOM     13  C   UNL d   1      -0.427   1.778   2.954  0.00  0.00     0.021 C 
ATOM     14  C   UNL d   1       0.682   0.887   2.405  0.00  0.00     0.125 C 
ENDBRANCH   1  10
TORSDOF 4
