REMARK  1 active torsions:
REMARK  status: ('A' for Active; 'I' for Inactive)
REMARK    1  A    between atoms: C_7  and  C_3 
ROOT
ATOM      1  C   UNL d   1       1.288   0.330  -0.027  0.00  0.00     0.058 C 
ATOM      2  C   UNL d   1      -1.276   0.342  -0.026  0.00  0.00     0.058 C 
ATOM      3  C   UNL d   1       0.010   1.161  -0.176  0.00  0.00     0.110 C 
ATOM      4  N   UNL d   1      -0.003  -1.661  -0.059  0.00  0.00    -0.361 N 
ATOM      5  C   UNL d   1      -1.225  -1.011  -0.011  0.00  0.00     0.023 C 
ATOM      6  C   UNL d   1       1.224  -1.021   0.003  0.00  0.00     0.023 C 
ATOM      7  C   UNL d   1      -2.515   1.049   0.075  0.00  0.00     0.098 C 
ATOM      8  C   UNL d   1       2.532   1.026   0.065  0.00  0.00     0.098 C 
ATOM      9  N   UNL d   1       3.540   1.594   0.146  0.00  0.00    -0.192 NA
ATOM     10  N   UNL d   1      -3.518   1.622   0.175  0.00  0.00    -0.192 NA
ATOM     11  C   UNL d   1      -2.459  -1.877   0.042  0.00  0.00     0.069 C 
ATOM     12  C   UNL d   1       2.449  -1.898   0.092  0.00  0.00     0.069 C 
ATOM     13  H   UNL d   1      -0.007  -2.678  -0.014  0.00  0.00     0.165 HD
ENDROOT
BRANCH   3  14
ATOM     14  C   UNL d   1       0.012   1.900  -1.517  0.00  0.00    -0.042 A 
ATOM     15  C   UNL d   1      -0.050   1.183  -2.727  0.00  0.00     0.032 A 
ATOM     16  C   UNL d   1      -0.055   1.855  -3.947  0.00  0.00     0.034 A 
ATOM     17 CL   UNL d   1      -0.136   0.956  -5.411  0.00  0.00    -0.084 Cl
ATOM     18  C   UNL d   1       0.004   3.245  -3.984  0.00  0.00     0.024 A 
ATOM     19  C   UNL d   1       0.073   3.967  -2.792  0.00  0.00     0.002 A 
ATOM     20  C   UNL d   1       0.079   3.301  -1.563  0.00  0.00     0.008 A 
ENDBRANCH   3  14
TORSDOF 1
