REMARK  7 active torsions:
REMARK  status: ('A' for Active; 'I' for Inactive)
REMARK    1  A    between atoms: S_2  and  C_1 
REMARK    2  A    between atoms: C_8  and  C_1 
REMARK    3  A    between atoms: C_4  and  S_2 
REMARK    4  A    between atoms: C_3  and  C_4 
REMARK    5  A    between atoms: C_5  and  C_3 
REMARK    6  A    between atoms: C_6  and  C_4 
REMARK    7  A    between atoms: C_10  and  C_5 
ROOT
ATOM      1  C   UNL d   1       1.156  -2.782   0.031  0.00  0.00     0.095 C 
ENDROOT
BRANCH   1   2
ATOM      2  C   UNL d   1       1.952  -2.734   1.354  0.00  0.00     0.104 C 
BRANCH   2   3
ATOM      3  C   UNL d   1       1.153  -2.526   2.629  0.00  0.00     0.161 C 
ATOM      4  O   UNL d   1      -0.017  -2.144   2.629  0.00  0.00    -0.292 OA
BRANCH   3   5
ATOM      5  C   UNL d   1       1.816  -2.749   3.954  0.00  0.00     0.010 A 
ATOM      6  C   UNL d   1       3.172  -3.070   4.086  0.00  0.00     0.015 A 
ATOM      7  C   UNL d   1       3.730  -3.255   5.357  0.00  0.00     0.001 A 
ATOM      8  C   UNL d   1       2.941  -3.118   6.499  0.00  0.00     0.000 A 
ATOM      9  C   UNL d   1       1.593  -2.797   6.377  0.00  0.00     0.001 A 
ATOM     10  C   UNL d   1       1.033  -2.615   5.111  0.00  0.00     0.015 A 
ENDBRANCH   3   5
ENDBRANCH   2   3
ENDBRANCH   1   2
BRANCH   1  11
ATOM     11  S   UNL d   1       0.129  -1.316  -0.392  0.00  0.00    -0.077 SA
BRANCH  11  12
ATOM     12  C   UNL d   1       1.330  -0.079  -0.705  0.00  0.00     0.219 C 
ATOM     13  O   UNL d   1       2.518  -0.273  -0.476  0.00  0.00    -0.280 OA
BRANCH  12  14
ATOM     14  C   UNL d   1       0.861   1.228  -1.273  0.00  0.00     0.021 A 
ATOM     15  C   UNL d   1       1.806   2.258  -1.413  0.00  0.00     0.016 A 
ATOM     16  C   UNL d   1       1.446   3.490  -1.969  0.00  0.00     0.001 A 
ATOM     17  C   UNL d   1       0.137   3.709  -2.392  0.00  0.00     0.000 A 
ATOM     18  C   UNL d   1      -0.814   2.702  -2.251  0.00  0.00     0.001 A 
ATOM     19  C   UNL d   1      -0.458   1.469  -1.694  0.00  0.00     0.016 A 
ENDBRANCH  12  14
ENDBRANCH  11  12
ENDBRANCH   1  11
BRANCH   1  20
ATOM     20  C   UNL d   1       0.345  -4.081  -0.083  0.00  0.00    -0.043 A 
ATOM     21  C   UNL d   1      -0.955  -4.202   0.439  0.00  0.00     0.010 A 
ATOM     22  C   UNL d   1      -1.674  -5.394   0.323  0.00  0.00     0.024 A 
ATOM     23  C   UNL d   1      -1.095  -6.492  -0.302  0.00  0.00     0.034 A 
ATOM     24  C   UNL d   1       0.200  -6.407  -0.809  0.00  0.00     0.024 A 
ATOM     25 CL   UNL d   1      -1.979  -7.960  -0.447  0.00  0.00    -0.084 Cl
ATOM     26  C   UNL d   1       0.916  -5.209  -0.699  0.00  0.00     0.010 A 
ENDBRANCH   1  20
TORSDOF 7
