REMARK  4 active torsions:
REMARK  status: ('A' for Active; 'I' for Inactive)
REMARK    1  A    between atoms: C_14  and  C_2 
REMARK    2  A    between atoms: C_15  and  C_3 
REMARK    3  A    between atoms: S_19  and  C_6 
REMARK    4  A    between atoms: C_13  and  C_14 
ROOT
ATOM      1  C   UNL d   1       1.455  -4.688  -1.013  0.00  0.00     0.156 A 
ATOM      2  N   UNL d   1       1.513  -3.347  -1.345  0.00  0.00    -0.321 N 
ATOM      3  HN  UNL d   1       1.182  -2.887  -2.193  1.00  0.00     0.169 HD
ATOM      4  N   UNL d   1       2.042  -4.972   0.164  0.00  0.00    -0.241 N 
ATOM      5  HN  UNL d   1       2.153  -5.885   0.606  1.00  0.00     0.196 HD
ATOM      6  C   UNL d   1       2.099  -2.812  -0.300  0.00  0.00     0.155 A 
ATOM      7  O   UNL d   1       2.464  -3.731   0.640  0.00  0.00    -0.222 OA
ENDROOT
BRANCH   6   8
ATOM      8  C   UNL d   1       2.302  -1.380   0.023  0.00  0.00     0.164 C 
BRANCH   8   9
ATOM      9  C   UNL d   1       3.661  -0.868  -0.303  0.00  0.00     0.107 A 
ATOM     10  N   UNL d   1       4.206  -0.729  -1.563  0.00  0.00    -0.319 N 
ATOM     11  C   UNL d   1       5.428  -0.141  -1.368  0.00  0.00     0.159 A 
ATOM     12  C   UNL d   1       3.607  -1.112  -2.816  0.00  0.00     0.159 C 
ATOM     13  N   UNL d   1       5.619   0.070  -0.088  0.00  0.00    -0.279 N 
ATOM     14  N   UNL d   1       4.514  -0.390   0.582  0.00  0.00    -0.286 N 
ATOM     15  HN  UNL d   1       6.442   0.500   0.334  1.00  0.00     0.189 HD
ATOM     16  HN  UNL d   1       4.376  -0.367   1.592  1.00  0.00     0.188 HD
BRANCH  11  17
ATOM     17  S   UNL d   1       6.552   0.283  -2.610  0.00  0.00    -0.105 SA
ATOM     18  H   UNL d   1       6.090  -0.468  -3.615  0.00  0.00     0.110 HD
ENDBRANCH  11  17
ENDBRANCH   8   9
ENDBRANCH   6   8
BRANCH   1  19
ATOM     19  C   UNL d   1       0.756  -5.669  -1.839  0.00  0.00     0.094 A 
ATOM     20  N   UNL d   1       0.281  -5.249  -3.048  0.00  0.00    -0.360 N 
ATOM     21  C   UNL d   1      -0.422  -6.162  -3.756  0.00  0.00     0.105 A 
ATOM     22  HN  UNL d   1       0.447  -4.305  -3.397  1.00  0.00     0.165 HD
ATOM     23  C   UNL d   1      -0.652  -7.447  -3.295  0.00  0.00     0.104 A 
ATOM     24  N   UNL d   1      -0.177  -7.881  -2.107  0.00  0.00    -0.372 N 
ATOM     25  C   UNL d   1       0.528  -6.966  -1.393  0.00  0.00     0.121 A 
ATOM     26  HN  UNL d   1      -0.338  -8.830  -1.769  1.00  0.00     0.164 HD
ENDBRANCH   1  19
TORSDOF 4
