REMARK  11 active torsions:
REMARK  status: ('A' for Active; 'I' for Inactive)
REMARK    1  A    between atoms: C_14  and  N_1 
REMARK    2  A    between atoms: C_13  and  N_2 
REMARK    3  A    between atoms: C_21  and  N_5 
REMARK    4  A    between atoms: N_6  and  C_22 
REMARK    5  A    between atoms: C_23  and  C_13 
REMARK    6  A    between atoms: C_24  and  C_14 
REMARK    7  A    between atoms: C_29  and  C_21 
REMARK    8  A    between atoms: C_22  and  C_30 
REMARK    9  A    between atoms: C_32  and  C_29 
REMARK   10  A    between atoms: C_30  and  C_31 
REMARK   11  A    between atoms: C_31  and  C_32 
ROOT
ATOM      1  C   UNL d   1       6.113   0.273  -0.213  0.00  0.00     0.002 C 
ENDROOT
BRANCH   1   2
ATOM      2  C   UNL d   1       7.411   1.074  -0.231  0.00  0.00     0.020 C 
BRANCH   2   3
ATOM      3  C   UNL d   1       8.627   0.149  -0.289  0.00  0.00     0.137 C 
BRANCH   3   4
ATOM      4  N   UNL d   1       9.875   0.906  -0.208  0.00  0.00    -0.269 N 
ATOM      5  C   UNL d   1      10.349   1.213   1.058  0.00  0.00     0.334 C 
ATOM      6  N   UNL d   1      11.520   1.947   1.130  0.00  0.00    -0.265 N 
ATOM      7  O   UNL d   1       9.756   0.833   2.071  0.00  0.00    -0.246 OA
ATOM      8  C   UNL d   1      12.294   2.282   0.040  0.00  0.00     0.236 C 
ATOM      9  C   UNL d   1      11.677   2.139  -1.307  0.00  0.00     0.206 C 
ATOM     10  O   UNL d   1      13.450   2.701   0.134  0.00  0.00    -0.272 OA
ATOM     11  C   UNL d   1      10.375   1.425  -1.383  0.00  0.00     0.236 C 
ATOM     12  O   UNL d   1       9.801   1.317  -2.468  0.00  0.00    -0.272 OA
BRANCH   6  13
ATOM     13  C   UNL d   1      12.040   2.256   2.461  0.00  0.00     0.175 C 
BRANCH  13  14
ATOM     14  C   UNL d   1      11.450   3.535   3.018  0.00  0.00    -0.040 A 
ATOM     15  C   UNL d   1      10.277   3.504   3.789  0.00  0.00     0.009 A 
ATOM     16  C   UNL d   1       9.714   4.684   4.278  0.00  0.00     0.001 A 
ATOM     17  C   UNL d   1      10.318   5.909   4.006  0.00  0.00     0.000 A 
ATOM     18  C   UNL d   1      11.488   5.954   3.248  0.00  0.00     0.001 A 
ATOM     19  C   UNL d   1      12.050   4.775   2.752  0.00  0.00     0.009 A 
ENDBRANCH  13  14
ENDBRANCH   6  13
ENDBRANCH   3   4
ENDBRANCH   2   3
ENDBRANCH   1   2
BRANCH   1  20
ATOM     20  C   UNL d   1       4.899   1.202  -0.162  0.00  0.00     0.002 C 
BRANCH  20  21
ATOM     21  C   UNL d   1       3.568   0.448  -0.185  0.00  0.00     0.020 C 
BRANCH  21  22
ATOM     22  C   UNL d   1       3.363  -0.421   1.060  0.00  0.00     0.137 C 
BRANCH  22  23
ATOM     23  N   UNL d   1       2.136  -1.208   0.988  0.00  0.00    -0.269 N 
ATOM     24  C   UNL d   1       2.203  -2.424   0.324  0.00  0.00     0.334 C 
ATOM     25  N   UNL d   1       1.042  -3.174   0.269  0.00  0.00    -0.265 N 
ATOM     26  O   UNL d   1       3.259  -2.821  -0.174  0.00  0.00    -0.246 OA
ATOM     27  C   UNL d   1      -0.113  -2.865   0.955  0.00  0.00     0.236 C 
ATOM     28  C   UNL d   1      -0.228  -1.493   1.521  0.00  0.00     0.206 C 
ATOM     29  O   UNL d   1      -1.036  -3.666   1.116  0.00  0.00    -0.272 OA
ATOM     30  C   UNL d   1       0.976  -0.625   1.454  0.00  0.00     0.236 C 
ATOM     31  O   UNL d   1       0.911   0.546   1.824  0.00  0.00    -0.272 OA
BRANCH  25  32
ATOM     32  C   UNL d   1       1.105  -4.459  -0.427  0.00  0.00     0.175 C 
BRANCH  32  33
ATOM     33  C   UNL d   1       0.850  -4.306  -1.912  0.00  0.00    -0.040 A 
ATOM     34  C   UNL d   1       1.914  -4.084  -2.800  0.00  0.00     0.009 A 
ATOM     35  C   UNL d   1       1.678  -3.906  -4.163  0.00  0.00     0.001 A 
ATOM     36  C   UNL d   1       0.376  -3.951  -4.656  0.00  0.00     0.000 A 
ATOM     37  C   UNL d   1      -0.689  -4.178  -3.787  0.00  0.00     0.001 A 
ATOM     38  C   UNL d   1      -0.456  -4.351  -2.421  0.00  0.00     0.009 A 
ENDBRANCH  32  33
ENDBRANCH  25  32
ENDBRANCH  22  23
ENDBRANCH  21  22
ENDBRANCH  20  21
ENDBRANCH   1  20
TORSDOF 11
