REMARK  4 active torsions:
REMARK  status: ('A' for Active; 'I' for Inactive)
REMARK    1  A    between atoms: C_8  and  C_1 
REMARK    2  A    between atoms: N_7  and  C_2 
REMARK    3  A    between atoms: C_11  and  C_3 
REMARK       I    between atoms: C_9  and  N_7 
REMARK    4  A    between atoms: C_10  and  C_9 
ROOT
ATOM      1  C   UNL d   1       1.565   0.791   0.216  0.00  0.00     0.147 A 
ATOM      2  C   UNL d   1       0.224  -1.003   0.235  0.00  0.00     0.138 A 
ATOM      3  C   UNL d   1       1.561  -0.639   0.142  0.00  0.00     0.053 A 
ATOM      4  N   UNL d   1       0.309   1.261   0.334  0.00  0.00    -0.292 N 
ATOM      5  HN  UNL d   1       0.016   2.237   0.370  1.00  0.00     0.187 HD
ATOM      6  N   UNL d   1      -0.478   0.171   0.394  0.00  0.00    -0.280 N 
ATOM      7  C   UNL d   1      -1.904   0.404   0.370  0.00  0.00     0.179 C 
ENDROOT
BRANCH   2   8
ATOM      8  N   UNL d   1      -0.227  -2.319   0.118  0.00  0.00    -0.307 N 
ATOM      9  C   UNL d   1      -1.264  -2.856   0.946  0.00  0.00     0.258 C 
ATOM     10  O   UNL d   1      -1.676  -2.213   1.896  0.00  0.00    -0.267 OA
ATOM     11  H   UNL d   1       0.363  -2.950  -0.413  0.00  0.00     0.170 HD
BRANCH   9  12
ATOM     12  C   UNL d   1      -1.732  -4.225   0.661  0.00  0.00     0.047 A 
ATOM     13  C   UNL d   1      -2.462  -4.883   1.643  0.00  0.00     0.104 A 
ATOM     14  N   UNL d   1      -2.957  -6.135   1.496  0.00  0.00    -0.374 N 
ATOM     15  C   UNL d   1      -2.726  -6.752   0.317  0.00  0.00     0.087 A 
ATOM     16  HN  UNL d   1      -3.480  -6.592   2.243  1.00  0.00     0.164 HD
ATOM     17  C   UNL d   1      -2.019  -6.175  -0.723  0.00  0.00     0.018 A 
ATOM     18  C   UNL d   1      -1.513  -4.884  -0.551  0.00  0.00     0.020 A 
ENDBRANCH   9  12
ENDBRANCH   2   8
BRANCH   3  19
ATOM     19  C   UNL d   1       2.672  -1.583   0.102  0.00  0.00    -0.020 A 
ATOM     20  C   UNL d   1       3.729  -1.419  -0.800  0.00  0.00     0.012 A 
ATOM     21  C   UNL d   1       4.831  -2.279  -0.760  0.00  0.00     0.001 A 
ATOM     22  C   UNL d   1       4.872  -3.328   0.157  0.00  0.00     0.000 A 
ATOM     23  C   UNL d   1       3.814  -3.517   1.041  0.00  0.00     0.001 A 
ATOM     24  C   UNL d   1       2.727  -2.642   1.023  0.00  0.00     0.012 A 
ENDBRANCH   3  19
BRANCH   1  25
ATOM     25  C   UNL d   1       2.739   1.742   0.165  0.00  0.00     0.434 C 
ATOM     26  F   UNL d   1       3.930   1.134   0.405  0.00  0.00    -0.165 F 
ATOM     27  F   UNL d   1       2.849   2.324  -1.061  0.00  0.00    -0.165 F 
ATOM     28  F   UNL d   1       2.638   2.747   1.074  0.00  0.00    -0.165 F 
ENDBRANCH   1  25
TORSDOF 4
