REMARK  8 active torsions:
REMARK  status: ('A' for Active; 'I' for Inactive)
REMARK    1  A    between atoms: C_2  and  C_1 
REMARK       I    between atoms: N_6  and  C_2 
REMARK    2  A    between atoms: S_4  and  C_3 
REMARK    3  A    between atoms: C_5  and  S_4 
REMARK    4  A    between atoms: C_13  and  N_6 
REMARK    5  A    between atoms: C_10  and  C_7 
REMARK    6  A    between atoms: C_8  and  O_11 
REMARK    7  A    between atoms: O_11  and  C_10 
REMARK    8  A    between atoms: C_15  and  C_13 
ROOT
ATOM      1  C   UNL d   1       1.325   0.013  -0.638  0.00  0.00     0.049 A 
ATOM      2  C   UNL d   1       0.631  -1.215  -0.620  0.00  0.00     0.021 A 
ATOM      3  C   UNL d   1       0.643   1.225  -0.397  0.00  0.00     0.018 A 
ATOM      4  C   UNL d   1      -0.771  -1.158  -0.458  0.00  0.00     0.020 A 
ATOM      5  C   UNL d   1      -0.738   1.241  -0.212  0.00  0.00     0.001 A 
ATOM      6  C   UNL d   1      -1.449   0.050  -0.271  0.00  0.00     0.001 A 
ENDROOT
BRANCH   2   7
ATOM      7  S   UNL d   1       1.234  -2.896  -0.826  0.00  0.00    -0.089 SA
BRANCH   7   8
ATOM      8  C   UNL d   1       2.917  -3.049  -0.250  0.00  0.00     0.014 C 
ATOM      9  C   UNL d   1       3.779  -4.030  -0.795  0.00  0.00    -0.017 C 
ATOM     10  C   UNL d   1       5.151  -4.002  -0.473  0.00  0.00     0.011 C 
ATOM     11  C   UNL d   1       5.660  -3.057   0.408  0.00  0.00     0.001 C 
ATOM     12  C   UNL d   1       4.789  -2.192   1.054  0.00  0.00     0.001 C 
ATOM     13  C   UNL d   1       3.425  -2.213   0.751  0.00  0.00     0.019 C 
BRANCH   9  14
ATOM     14  C   UNL d   1       3.299  -5.165  -1.676  0.00  0.00     0.218 C 
BRANCH  14  15
ATOM     15  O   UNL d   1       2.423  -6.052  -0.955  0.00  0.00    -0.317 OA
BRANCH  15  16
ATOM     16  C   UNL d   1       3.025  -6.983  -0.169  0.00  0.00     0.255 C 
ATOM     17  O   UNL d   1       4.231  -7.135  -0.030  0.00  0.00    -0.266 OA
ATOM     18  C   UNL d   1       2.001  -7.846   0.508  0.00  0.00     0.126 C 
ENDBRANCH  15  16
ENDBRANCH  14  15
ENDBRANCH   9  14
ENDBRANCH   7   8
ENDBRANCH   2   7
BRANCH   1  19
ATOM     19  C   UNL d   1       2.751   0.144  -1.041  0.00  0.00     0.253 C 
ATOM     20  N   UNL d   1       3.552   0.893  -0.195  0.00  0.00    -0.353 N 
ATOM     21  H   UNL d   1       3.176   1.239   0.676  0.00  0.00     0.163 HD
ATOM     22  O   UNL d   1       3.138  -0.390  -2.063  0.00  0.00    -0.268 OA
BRANCH  20  23
ATOM     23  C   UNL d   1       4.994   0.871  -0.341  0.00  0.00     0.161 C 
BRANCH  23  24
ATOM     24  C   UNL d   1       5.577   2.143  -0.894  0.00  0.00    -0.041 A 
ATOM     25  C   UNL d   1       5.513   3.346  -0.178  0.00  0.00     0.009 A 
ATOM     26  C   UNL d   1       6.143   4.494  -0.665  0.00  0.00     0.001 A 
ATOM     27  C   UNL d   1       6.846   4.449  -1.869  0.00  0.00     0.000 A 
ATOM     28  C   UNL d   1       6.912   3.261  -2.591  0.00  0.00     0.001 A 
ATOM     29  C   UNL d   1       6.278   2.115  -2.110  0.00  0.00     0.009 A 
ENDBRANCH  23  24
ENDBRANCH  20  23
ENDBRANCH   1  19
TORSDOF 8
