REMARK  9 active torsions:
REMARK  status: ('A' for Active; 'I' for Inactive)
REMARK    1  A    between atoms: C_15  and  C_1 
REMARK    2  A    between atoms: C_8  and  C_2 
REMARK    3  A    between atoms: S_14  and  C_5 
REMARK       I    between atoms: C_7  and  N_11 
REMARK    4  A    between atoms: C_13  and  C_7 
REMARK    5  A    between atoms: C_9  and  C_12 
REMARK    6  A    between atoms: N_11  and  C_18 
REMARK    7  A    between atoms: C_19  and  S_14 
REMARK    8  A    between atoms: O_28  and  C_15 
REMARK    9  A    between atoms: C_33  and  O_28 
ROOT
ATOM      1  C   UNL d   1       0.550   2.580  -2.566  0.00  0.00     0.072 A 
ATOM      2  C   UNL d   1       1.626   1.785  -2.951  0.00  0.00     0.134 A 
ATOM      3  N   UNL d   1       1.708   0.469  -2.548  0.00  0.00    -0.345 N 
ATOM      4  HN  UNL d   1       2.514  -0.095  -2.814  1.00  0.00     0.166 HD
ATOM      5  C   UNL d   1       0.711  -0.079  -1.794  0.00  0.00     0.096 A 
ATOM      6  C   UNL d   1      -0.405   0.653  -1.417  0.00  0.00     0.079 A 
ATOM      7  C   UNL d   1      -0.466   2.005  -1.792  0.00  0.00     0.045 A 
ATOM      8  C   UNL d   1      -1.521   0.124  -0.707  0.00  0.00     0.102 C 
ATOM      9  N   UNL d   1      -2.493  -0.186  -0.151  0.00  0.00    -0.191 NA
ENDROOT
BRANCH   5  10
ATOM     10  S   UNL d   1       0.839  -1.827  -1.478  0.00  0.00    -0.069 SA
BRANCH  10  11
ATOM     11  C   UNL d   1       2.384  -1.972  -0.586  0.00  0.00     0.033 A 
ATOM     12  C   UNL d   1       2.681  -1.559   0.732  0.00  0.00     0.052 A 
ATOM     13  C   UNL d   1       4.023  -1.637   1.169  0.00  0.00     0.031 A 
ATOM     14  C   UNL d   1       5.026  -2.208   0.385  0.00  0.00     0.002 A 
ATOM     15  C   UNL d   1       4.713  -2.702  -0.869  0.00  0.00     0.002 A 
ATOM     16  C   UNL d   1       3.411  -2.570  -1.353  0.00  0.00     0.021 A 
BRANCH  12  17
ATOM     17  N   UNL d   1       1.798  -1.094   1.749  0.00  0.00    -0.322 N 
ATOM     18  C   UNL d   1       0.453  -1.358   1.901  0.00  0.00     0.257 C 
ATOM     19  O   UNL d   1      -0.253  -2.013   1.150  0.00  0.00    -0.267 OA
ATOM     20  H   UNL d   1       2.273  -0.789   2.589  0.00  0.00     0.169 HD
BRANCH  18  21
ATOM     21  C   UNL d   1      -0.141  -0.948   3.213  0.00  0.00     0.047 A 
ATOM     22  C   UNL d   1       0.132   0.250   3.894  0.00  0.00     0.063 A 
ATOM     23  C   UNL d   1      -0.357   0.400   5.212  0.00  0.00     0.017 A 
ATOM     24  C   UNL d   1      -1.166  -0.572   5.801  0.00  0.00     0.001 A 
ATOM     25  C   UNL d   1      -1.518  -1.704   5.080  0.00  0.00     0.001 A 
ATOM     26  C   UNL d   1      -1.004  -1.894   3.799  0.00  0.00     0.018 A 
BRANCH  22  27
ATOM     27  C   UNL d   1       0.898   1.400   3.301  0.00  0.00     0.418 C 
ATOM     28  F   UNL d   1       0.947   1.418   1.943  0.00  0.00    -0.166 F 
ATOM     29  F   UNL d   1       0.382   2.612   3.654  0.00  0.00    -0.166 F 
ATOM     30  F   UNL d   1       2.192   1.409   3.726  0.00  0.00    -0.166 F 
ENDBRANCH  22  27
ENDBRANCH  18  21
ENDBRANCH  12  17
ENDBRANCH  10  11
ENDBRANCH   5  10
BRANCH   1  31
ATOM     31  C   UNL d   1       0.438   4.013  -2.901  0.00  0.00     0.295 C 
ATOM     32  O   UNL d   1       1.359   4.799  -2.815  0.00  0.00    -0.259 OA
BRANCH  31  33
ATOM     33  O   UNL d   1      -0.844   4.263  -3.256  0.00  0.00    -0.318 OA
BRANCH  33  34
ATOM     34  C   UNL d   1      -1.201   5.635  -3.492  0.00  0.00     0.174 C 
ATOM     35  C   UNL d   1      -1.067   5.957  -4.966  0.00  0.00     0.034 C 
ENDBRANCH  33  34
ENDBRANCH  31  33
ENDBRANCH   1  31
BRANCH   2  36
ATOM     36  C   UNL d   1       2.728   2.310  -3.862  0.00  0.00     0.433 C 
ATOM     37  F   UNL d   1       2.345   3.324  -4.689  0.00  0.00    -0.165 F 
ATOM     38  F   UNL d   1       3.819   2.754  -3.180  0.00  0.00    -0.165 F 
ATOM     39  F   UNL d   1       3.195   1.346  -4.714  0.00  0.00    -0.165 F 
ENDBRANCH   2  36
TORSDOF 9
