REMARK  4 active torsions:
REMARK  status: ('A' for Active; 'I' for Inactive)
REMARK       I    between atoms: N_5  and  C_1 
REMARK    1  A    between atoms: O_9  and  C_1 
REMARK    2  A    between atoms: N_2  and  N_5 
REMARK    3  A    between atoms: C_4  and  C_8 
REMARK    4  A    between atoms: C_13  and  O_9 
ROOT
ATOM      1  N   UNL d   1       1.143   1.683   1.778  0.00  0.00    -0.307 N 
ATOM      2  HN  UNL d   1       2.157   1.765   1.693  1.00  0.00     0.186 HD
ATOM      3  C   UNL d   1       0.475   2.332   2.680  0.00  0.00     0.120 C 
ENDROOT
BRANCH   1   4
ATOM      4  N   UNL d   1       0.411   0.886   0.953  0.00  0.00    -0.246 N 
ATOM      5  C   UNL d   1       0.988   0.107  -0.027  0.00  0.00     0.379 C 
ATOM      6  O   UNL d   1       0.315  -0.628  -0.744  0.00  0.00    -0.237 OA
ATOM      7  H   UNL d   1      -0.594   0.820   1.048  0.00  0.00     0.192 HD
BRANCH   5   8
ATOM      8  O   UNL d   1       2.342   0.239  -0.099  0.00  0.00    -0.303 OA
BRANCH   8   9
ATOM      9  C   UNL d   1       3.006  -0.597  -1.054  0.00  0.00     0.176 C 
ATOM     10  C   UNL d   1       3.009   0.052  -2.425  0.00  0.00     0.034 C 
ENDBRANCH   8   9
ENDBRANCH   5   8
ENDBRANCH   1   4
BRANCH   3  11
ATOM     11  C   UNL d   1       1.166   3.239   3.626  0.00  0.00     0.002 A 
ATOM     12  C   UNL d   1       0.475   3.960   4.608  0.00  0.00     0.045 A 
ATOM     13 CL   UNL d   1      -1.234   3.841   4.835  0.00  0.00    -0.083 Cl
ATOM     14  C   UNL d   1       1.177   4.824   5.458  0.00  0.00     0.024 A 
ATOM     15  C   UNL d   1       2.561   4.968   5.336  0.00  0.00     0.002 A 
ATOM     16  C   UNL d   1       3.251   4.242   4.370  0.00  0.00     0.001 A 
ATOM     17  C   UNL d   1       2.558   3.381   3.519  0.00  0.00     0.014 A 
ENDBRANCH   3  11
TORSDOF 4
