REMARK  8 active torsions:
REMARK  status: ('A' for Active; 'I' for Inactive)
REMARK    1  A    between atoms: C_7  and  C_1 
REMARK    2  A    between atoms: N_2  and  C_7 
REMARK    3  A    between atoms: O_25  and  C_3 
REMARK    4  A    between atoms: C_15  and  N_4 
REMARK    5  A    between atoms: C_13  and  C_15 
REMARK    6  A    between atoms: O_18  and  C_16 
REMARK    7  A    between atoms: C_26  and  O_18 
REMARK    8  A    between atoms: C_27  and  C_26 
ROOT
ATOM      1  C   UNL d   1       2.916  -0.330   0.325  0.00  0.00     0.314 C 
ENDROOT
BRANCH   1   2
ATOM      2  N   UNL d   1       3.193  -1.701  -0.134  0.00  0.00     0.096 N 
ATOM      3  C   UNL d   1       4.641  -1.977  -0.068  0.00  0.00     0.303 C 
ATOM      4  C   UNL d   1       5.452  -1.366  -1.235  0.00  0.00     0.303 C 
ATOM      5  N   UNL d   1       5.011  -1.818  -2.571  0.00  0.00     0.096 N 
ATOM      6  C   UNL d   1       3.557  -1.558  -2.692  0.00  0.00     0.303 C 
ATOM      7  C   UNL d   1       2.686  -2.018  -1.488  0.00  0.00     0.303 C 
BRANCH   5   8
ATOM      8  C   UNL d   1       5.329  -3.247  -2.749  0.00  0.00     0.311 C 
BRANCH   8   9
ATOM      9  C   UNL d   1       5.694  -3.688  -4.154  0.00  0.00    -0.027 A 
ATOM     10  C   UNL d   1       5.920  -5.064  -4.348  0.00  0.00     0.048 A 
ATOM     11  C   UNL d   1       6.507  -5.473  -5.523  0.00  0.00     0.105 A 
ATOM     12  O   UNL d   1       6.913  -6.742  -5.805  0.00  0.00    -0.323 OA
ATOM     13  C   UNL d   1       6.821  -4.586  -6.524  0.00  0.00     0.105 A 
ATOM     14  C   UNL d   1       7.700  -6.497  -6.988  0.00  0.00     0.352 C 
ATOM     15  O   UNL d   1       7.469  -5.190  -7.557  0.00  0.00    -0.323 OA
ATOM     16  C   UNL d   1       6.542  -3.241  -6.411  0.00  0.00     0.040 A 
ATOM     17  C   UNL d   1       5.986  -2.788  -5.207  0.00  0.00     0.012 A 
ENDBRANCH   8   9
ENDBRANCH   5   8
ENDBRANCH   1   2
BRANCH   1  18
ATOM     18  C   UNL d   1       1.459   0.092   0.320  0.00  0.00     0.003 C 
ATOM     19  C   UNL d   1       0.411  -0.665   0.867  0.00  0.00     0.078 C 
ATOM     20  C   UNL d   1      -0.918  -0.327   0.593  0.00  0.00     0.074 C 
ATOM     21  C   UNL d   1      -1.214   0.821  -0.140  0.00  0.00     0.071 C 
ATOM     22  C   UNL d   1      -0.179   1.687  -0.489  0.00  0.00     0.037 C 
ATOM     23  C   UNL d   1       1.145   1.313  -0.289  0.00  0.00     0.014 C 
BRANCH  19  24
ATOM     24  O   UNL d   1       0.605  -1.792   1.610  0.00  0.00    -0.355 OA
ATOM     25  C   UNL d   1       1.231  -1.500   2.865  0.00  0.00     0.210 C 
ENDBRANCH  19  24
BRANCH  21  26
ATOM     26  O   UNL d   1      -2.529   1.008  -0.486  0.00  0.00    -0.347 OA
BRANCH  26  27
ATOM     27  C   UNL d   1      -2.722   1.875  -1.611  0.00  0.00     0.214 C 
BRANCH  27  28
ATOM     28  C   UNL d   1      -3.974   1.565  -2.398  0.00  0.00    -0.034 A 
ATOM     29  C   UNL d   1      -4.577   2.594  -3.142  0.00  0.00     0.009 A 
ATOM     30  C   UNL d   1      -5.643   2.322  -3.995  0.00  0.00     0.001 A 
ATOM     31  C   UNL d   1      -6.112   1.016  -4.127  0.00  0.00     0.000 A 
ATOM     32  C   UNL d   1      -5.517  -0.014  -3.401  0.00  0.00     0.001 A 
ATOM     33  C   UNL d   1      -4.446   0.254  -2.544  0.00  0.00     0.009 A 
ENDBRANCH  27  28
ENDBRANCH  26  27
ENDBRANCH  21  26
ENDBRANCH   1  18
TORSDOF 8
