REMARK  7 active torsions:
REMARK  status: ('A' for Active; 'I' for Inactive)
REMARK    1  A    between atoms: C_10  and  C_3 
REMARK    2  A    between atoms: C_6  and  C_4 
REMARK    3  A    between atoms: N_12  and  N_8 
REMARK    4  A    between atoms: C_11  and  C_23 
REMARK    5  A    between atoms: C_13  and  N_12 
REMARK    6  A    between atoms: O_22  and  C_18 
REMARK    7  A    between atoms: C_23  and  O_22 
ROOT
ATOM      1  N   UNL d   1       4.001  -0.309   0.128  0.00  0.00    -0.348 N 
ATOM      2  HN  UNL d   1       3.258  -1.000   0.231  1.00  0.00     0.166 HD
ATOM      3  C   UNL d   1       3.794   1.062  -0.006  0.00  0.00     0.063 A 
ATOM      4  C   UNL d   1       5.290  -0.593   0.104  0.00  0.00     0.086 A 
ATOM      5  S   UNL d   1       6.325   0.777  -0.033  0.00  0.00    -0.081 SA
ATOM      6  C   UNL d   1       4.958   1.802  -0.110  0.00  0.00     0.083 A 
ENDROOT
BRANCH   3   7
ATOM      7  C   UNL d   1       2.442   1.625  -0.033  0.00  0.00     0.044 C 
ATOM      8  N   UNL d   1       2.321   2.814  -0.554  0.00  0.00    -0.319 N 
ATOM      9  HN  UNL d   1       3.132   3.304  -0.931  1.00  0.00     0.181 HD
ATOM     10  C   UNL d   1       1.321   0.789   0.538  0.00  0.00     0.071 C 
BRANCH   8  11
ATOM     11  N   UNL d   1       1.086   3.385  -0.582  0.00  0.00    -0.204 NA
ATOM     12  H   UNL d   1       0.550   3.393   0.292  0.00  0.00     0.153 HD
BRANCH  11  13
ATOM     13  C   UNL d   1       0.982   4.641  -1.236  0.00  0.00     0.049 A 
ATOM     14  C   UNL d   1      -0.046   5.546  -0.899  0.00  0.00     0.058 A 
ATOM     15  C   UNL d   1      -0.183   6.766  -1.561  0.00  0.00     0.049 A 
ATOM     16 CL   UNL d   1      -1.156   5.176   0.378  0.00  0.00    -0.082 Cl
ATOM     17  C   UNL d   1       0.695   7.090  -2.591  0.00  0.00     0.035 A 
ATOM     18  C   UNL d   1       1.695   6.197  -2.972  0.00  0.00     0.026 A 
ATOM     19 CL   UNL d   1       0.541   8.596  -3.406  0.00  0.00    -0.084 Cl
ATOM     20  C   UNL d   1       1.829   4.978  -2.304  0.00  0.00     0.028 A 
ENDBRANCH  11  13
ENDBRANCH   8  11
ENDBRANCH   3   7
BRANCH   4  21
ATOM     21  C   UNL d   1       5.830  -1.955   0.102  0.00  0.00     0.013 A 
ATOM     22  C   UNL d   1       7.048  -2.307   0.675  0.00  0.00     0.104 A 
ATOM     23  N   UNL d   1       7.582  -3.555   0.647  0.00  0.00    -0.346 N 
ATOM     24  C   UNL d   1       6.875  -4.519   0.023  0.00  0.00     0.142 A 
ATOM     25  HN  UNL d   1       8.483  -3.755   1.080  1.00  0.00     0.167 HD
ATOM     26  C   UNL d   1       5.646  -4.279  -0.568  0.00  0.00     0.057 A 
ATOM     27  C   UNL d   1       5.117  -2.988  -0.517  0.00  0.00     0.020 A 
BRANCH  24  28
ATOM     28  O   UNL d   1       7.525  -5.718  -0.052  0.00  0.00    -0.327 OA
BRANCH  28  29
ATOM     29  C   UNL d   1       6.692  -6.863   0.169  0.00  0.00     0.294 C 
BRANCH  29  30
ATOM     30  C   UNL d   1       7.524  -8.135   0.320  0.00  0.00     0.408 C 
ATOM     31  F   UNL d   1       8.835  -7.895   0.523  0.00  0.00    -0.169 F 
ATOM     32  F   UNL d   1       7.079  -8.869   1.367  0.00  0.00    -0.169 F 
ATOM     33  F   UNL d   1       7.413  -8.910  -0.783  0.00  0.00    -0.169 F 
ENDBRANCH  29  30
ENDBRANCH  28  29
ENDBRANCH  24  28
ENDBRANCH   4  21
TORSDOF 7
