REMARK  7 active torsions:
REMARK  status: ('A' for Active; 'I' for Inactive)
REMARK    1  A    between atoms: C_3  and  C_1 
REMARK    2  A    between atoms: C_2  and  N_4 
REMARK    3  A    between atoms: N_11  and  C_2 
REMARK    4  A    between atoms: N_4  and  C_7 
REMARK    5  A    between atoms: C_16  and  N_11 
REMARK    6  A    between atoms: O_13  and  C_17 
REMARK    7  A    between atoms: C_17  and  C_16 
ROOT
ATOM      1  C   UNL d   1      -0.193  -1.489   0.254  0.00  0.00     0.050 A 
ATOM      2  C   UNL d   1       0.868  -2.360   0.536  0.00  0.00     0.045 A 
ATOM      3  C   UNL d   1       1.040  -3.549  -0.179  0.00  0.00     0.035 A 
ATOM      4  C   UNL d   1      -1.098  -1.831  -0.762  0.00  0.00     0.016 A 
ATOM      5  C   UNL d   1      -0.951  -3.030  -1.461  0.00  0.00     0.003 A 
ATOM      6  C   UNL d   1       0.107  -3.893  -1.161  0.00  0.00     0.029 A 
ENDROOT
BRANCH   3   7
ATOM      7  N   UNL d   1       2.070  -4.465   0.124  0.00  0.00    -0.333 N 
ATOM      8  H   UNL d   1       1.968  -5.400  -0.250  0.00  0.00     0.168 HD
BRANCH   7   9
ATOM      9  C   UNL d   1       3.288  -4.200   0.733  0.00  0.00     0.172 C 
ATOM     10  S   UNL d   1       4.205  -2.816   0.509  0.00  0.00    -0.041 SA
BRANCH   9  11
ATOM     11  N   UNL d   1       3.652  -5.244   1.560  0.00  0.00    -0.365 N 
ATOM     12  H   UNL d   1       3.131  -6.109   1.501  0.00  0.00     0.161 HD
BRANCH  11  13
ATOM     13  C   UNL d   1       4.811  -5.277   2.451  0.00  0.00     0.148 C 
BRANCH  13  14
ATOM     14  C   UNL d   1       4.607  -6.278   3.586  0.00  0.00     0.183 C 
BRANCH  14  15
ATOM     15  O   UNL d   1       4.502  -7.597   3.054  0.00  0.00    -0.399 OA
ATOM     16  H   UNL d   1       4.532  -8.207   3.811  0.00  0.00     0.209 HD
ENDBRANCH  14  15
ENDBRANCH  13  14
ENDBRANCH  11  13
ENDBRANCH   9  11
ENDBRANCH   7   9
ENDBRANCH   3   7
BRANCH   1  17
ATOM     17  C   UNL d   1      -0.370  -0.213   1.037  0.00  0.00     0.417 C 
ATOM     18  F   UNL d   1       0.540  -0.049   2.037  0.00  0.00    -0.166 F 
ATOM     19  F   UNL d   1      -1.592  -0.139   1.636  0.00  0.00    -0.166 F 
ATOM     20  F   UNL d   1      -0.271   0.899   0.257  0.00  0.00    -0.166 F 
ENDBRANCH   1  17
TORSDOF 7
