REMARK  2 active torsions:
REMARK  status: ('A' for Active; 'I' for Inactive)
REMARK    1  A    between atoms: C_2  and  N_1 
REMARK    2  A    between atoms: N_6  and  C_5 
ROOT
ATOM      1  C   UNL d   1       0.095   2.221  -0.165  0.00  0.00     0.071 A 
ATOM      2  C   UNL d   1      -0.675   2.897   0.822  0.00  0.00     0.058 A 
ATOM      3  C   UNL d   1       0.878   2.943  -1.086  0.00  0.00     0.032 A 
ATOM      4  C   UNL d   1      -0.626   4.305   0.801  0.00  0.00     0.031 A 
ATOM      5  C   UNL d   1       0.880   4.334  -1.085  0.00  0.00     0.002 A 
ATOM      6  C   UNL d   1       0.129   5.016  -0.139  0.00  0.00     0.002 A 
ENDROOT
BRANCH   1   7
ATOM      7  N   UNL d   1       0.076   0.812  -0.286  0.00  0.00    -0.250 N 
ATOM      8  C   UNL d   1      -1.070   0.068  -0.438  0.00  0.00     0.231 C 
ATOM      9  C   UNL d   1      -0.693  -1.386  -0.377  0.00  0.00     0.113 C 
ATOM     10  O   UNL d   1      -2.212   0.440  -0.646  0.00  0.00    -0.273 OA
ATOM     11  C   UNL d   1       0.819  -1.397  -0.302  0.00  0.00     0.113 C 
ATOM     12  C   UNL d   1       1.216   0.049  -0.311  0.00  0.00     0.231 C 
ATOM     13  O   UNL d   1       2.380   0.414  -0.289  0.00  0.00    -0.273 OA
ENDBRANCH   1   7
BRANCH   2  14
ATOM     14  N   UNL d   1      -1.445   2.232   1.769  0.00  0.00    -0.375 N 
ATOM     15  C   UNL d   1      -2.643   2.860   2.353  0.00  0.00     0.149 C 
ATOM     16  C   UNL d   1      -3.685   1.759   2.618  0.00  0.00     0.187 C 
ATOM     17  O   UNL d   1      -3.161   0.740   3.491  0.00  0.00    -0.388 OA
ATOM     18  C   UNL d   1      -1.996   0.137   2.901  0.00  0.00     0.187 C 
ATOM     19  C   UNL d   1      -0.891   1.181   2.639  0.00  0.00     0.149 C 
ENDBRANCH   2  14
TORSDOF 2
