REMARK  2 active torsions:
REMARK  status: ('A' for Active; 'I' for Inactive)
REMARK    1  A    between atoms: C_8  and  N_1 
REMARK    2  A    between atoms: C_11  and  C_8 
ROOT
ATOM      1  N   UNL d   1      -1.122  -0.638  -0.548  0.00  0.00     0.099 N 
ATOM      2  C   UNL d   1       0.060  -1.095   0.242  0.00  0.00     0.241 C 
ATOM      3  C   UNL d   1       1.414  -0.738  -0.428  0.00  0.00     0.126 C 
ATOM      4  C   UNL d   1       2.546  -1.337   0.300  0.00  0.00     0.066 C 
ATOM      5  N   UNL d   1       3.439  -1.810   0.869  0.00  0.00    -0.197 NA
ATOM      6  C   UNL d   1      -1.079   0.839  -0.497  0.00  0.00     0.278 C 
ATOM      7  C   UNL d   1       0.113   1.107   0.433  0.00  0.00     0.017 C 
ATOM      8  C   UNL d   1       1.418   0.802  -0.338  0.00  0.00     0.027 C 
ATOM      9  C   UNL d   1       0.009  -0.076   1.385  0.00  0.00     0.043 C 
ENDROOT
BRANCH   1  10
ATOM     10  C   UNL d   1      -1.179  -1.195  -1.904  0.00  0.00     0.311 C 
BRANCH  10  11
ATOM     11  C   UNL d   1      -2.396  -0.826  -2.729  0.00  0.00    -0.030 A 
ATOM     12  C   UNL d   1      -2.255  -0.694  -4.123  0.00  0.00     0.009 A 
ATOM     13  C   UNL d   1      -3.358  -0.423  -4.933  0.00  0.00     0.001 A 
ATOM     14  C   UNL d   1      -4.620  -0.287  -4.361  0.00  0.00     0.000 A 
ATOM     15  C   UNL d   1      -4.777  -0.422  -2.982  0.00  0.00     0.001 A 
ATOM     16  C   UNL d   1      -3.673  -0.698  -2.171  0.00  0.00     0.009 A 
ENDBRANCH  10  11
ENDBRANCH   1  10
TORSDOF 2
