REMARK  3 active torsions:
REMARK  status: ('A' for Active; 'I' for Inactive)
REMARK    1  A    between atoms: O_11  and  C_2 
REMARK    2  A    between atoms: C_14  and  O_11 
REMARK    3  A    between atoms: C_15  and  C_14 
ROOT
ATOM      1  C   UNL d   1       0.110   0.712  -0.326  0.00  0.00     0.042 A 
ATOM      2  C   UNL d   1       1.220   1.417   0.144  0.00  0.00     0.156 A 
ATOM      3  C   UNL d   1       0.200  -0.678  -0.194  0.00  0.00     0.049 A 
ATOM      4  N   UNL d   1       2.306   0.849   0.694  0.00  0.00    -0.332 N 
ATOM      5  HN  UNL d   1       3.102   1.394   1.025  1.00  0.00     0.168 HD
ATOM      6  N   UNL d   1       1.266  -1.277   0.353  0.00  0.00    -0.351 N 
ATOM      7  HN  UNL d   1       1.316  -2.291   0.447  1.00  0.00     0.166 HD
ATOM      8  C   UNL d   1      -1.033   1.307  -0.909  0.00  0.00     0.020 A 
ATOM      9  C   UNL d   1      -0.860  -1.450  -0.651  0.00  0.00     0.054 A 
ATOM     10  C   UNL d   1       2.264  -0.485   0.773  0.00  0.00     0.182 A 
ATOM     11  C   UNL d   1      -1.986  -0.867  -1.234  0.00  0.00     0.036 A 
ATOM     12  C   UNL d   1      -2.080   0.513  -1.366  0.00  0.00     0.025 A 
ATOM     13 CL   UNL d   1      -3.272  -1.863  -1.797  0.00  0.00    -0.084 Cl
ENDROOT
BRANCH   2  14
ATOM     14  O   UNL d   1       1.147   2.793   0.087  0.00  0.00    -0.330 OA
BRANCH  14  15
ATOM     15  C   UNL d   1       2.414   3.442   0.107  0.00  0.00     0.216 C 
BRANCH  15  16
ATOM     16  C   UNL d   1       2.123   4.923   0.054  0.00  0.00    -0.034 A 
ATOM     17  C   UNL d   1       2.071   5.675   1.235  0.00  0.00     0.010 A 
ATOM     18  C   UNL d   1       1.715   7.024   1.200  0.00  0.00     0.007 A 
ATOM     19  C   UNL d   1       1.396   7.644  -0.014  0.00  0.00    -0.062 A 
ATOM     20  C   UNL d   1       1.448   6.895  -1.194  0.00  0.00     0.007 A 
ATOM     21  C   UNL d   1       0.974   9.083  -0.028  0.00  0.00     0.048 C 
ATOM     22  C   UNL d   1       1.807   5.545  -1.161  0.00  0.00     0.010 A 
ENDBRANCH  15  16
ENDBRANCH  14  15
ENDBRANCH   2  14
TORSDOF 3
