REMARK  5 active torsions:
REMARK  status: ('A' for Active; 'I' for Inactive)
REMARK    1  A    between atoms: N_6  and  C_1 
REMARK    2  A    between atoms: C_13  and  C_2 
REMARK       I    between atoms: C_5  and  N_6 
REMARK       I    between atoms: N_9  and  C_5 
REMARK    3  A    between atoms: C_14  and  N_9 
REMARK    4  A    between atoms: C_16  and  N_9 
REMARK    5  A    between atoms: C_15  and  C_16 
ROOT
ATOM      1  N   UNL d   1      -1.599  -6.889  -1.931  0.00  0.00    -0.197 NA
ATOM      2  C   UNL d   1      -0.808  -6.047  -1.864  0.00  0.00     0.060 C 
ATOM      3  C   UNL d   1       0.214  -4.976  -1.746  0.00  0.00     0.144 C 
ENDROOT
BRANCH   3   4
ATOM      4  C   UNL d   1       0.875  -5.015  -0.363  0.00  0.00     0.142 C 
BRANCH   4   5
ATOM      5  N   UNL d   1       1.947  -4.008  -0.172  0.00  0.00    -0.329 N 
ATOM      6  C   UNL d   1       1.721  -2.608  -0.130  0.00  0.00     0.323 C 
ATOM      7  N   UNL d   1       0.398  -2.276   0.081  0.00  0.00    -0.304 N 
ATOM      8  O   UNL d   1       2.628  -1.784  -0.200  0.00  0.00    -0.247 OA
ATOM      9  H   UNL d   1      -0.084  -2.940   0.668  0.00  0.00     0.171 HD
BRANCH   7  10
ATOM     10  C   UNL d   1      -0.111  -0.981   0.234  0.00  0.00     0.097 C 
ATOM     11  C   UNL d   1      -1.014  -0.579   1.280  0.00  0.00     0.094 C 
ATOM     12  N   UNL d   1      -1.505   0.644   1.032  0.00  0.00    -0.258 N 
ATOM     13  O   UNL d   1      -0.817   1.116  -0.053  0.00  0.00    -0.240 OA
ATOM     14  HN  UNL d   1      -2.242   1.125   1.548  1.00  0.00     0.195 HD
ATOM     15  C   UNL d   1       0.071   0.179  -0.495  0.00  0.00     0.101 C 
ATOM     16  C   UNL d   1       0.887   0.665  -1.621  0.00  0.00     0.081 C 
BRANCH  11  17
ATOM     17  C   UNL d   1      -1.297  -1.220   2.566  0.00  0.00    -0.005 A 
ATOM     18  C   UNL d   1      -0.290  -1.931   3.240  0.00  0.00     0.014 A 
ATOM     19  C   UNL d   1      -0.468  -2.329   4.568  0.00  0.00     0.001 A 
ATOM     20  C   UNL d   1      -1.648  -2.015   5.236  0.00  0.00     0.000 A 
ATOM     21  C   UNL d   1      -2.668  -1.340   4.568  0.00  0.00     0.001 A 
ATOM     22  C   UNL d   1      -2.498  -0.953   3.238  0.00  0.00     0.014 A 
ENDBRANCH  11  17
ENDBRANCH   7  10
BRANCH   5  23
ATOM     23  C   UNL d   1       3.345  -4.507  -0.039  0.00  0.00     0.080 C 
ATOM     24  C   UNL d   1       3.517  -5.411   1.191  0.00  0.00     0.032 C 
ATOM     25  C   UNL d   1       3.827  -5.239  -1.294  0.00  0.00     0.032 C 
ENDBRANCH   5  23
ENDBRANCH   4   5
ENDBRANCH   3   4
TORSDOF 5
