REMARK  7 active torsions:
REMARK  status: ('A' for Active; 'I' for Inactive)
REMARK    1  A    between atoms: N_2  and  C_1 
REMARK    2  A    between atoms: N_8  and  C_1 
REMARK    3  A    between atoms: C_3  and  N_2 
REMARK    4  A    between atoms: C_14  and  N_8 
REMARK    5  A    between atoms: C_11  and  C_14 
REMARK    6  A    between atoms: C_15  and  C_11 
REMARK    7  A    between atoms: O_12  and  C_15 
ROOT
ATOM      1  N   UNL d   1       0.397  -1.254   0.052  0.00  0.00    -0.333 N 
ATOM      2  H   UNL d   1      -0.580  -1.152  -0.197  0.00  0.00     0.168 HD
ENDROOT
BRANCH   1   3
ATOM      3  C   UNL d   1       1.175  -0.139  -0.104  0.00  0.00     0.172 C 
ATOM      4  S   UNL d   1       2.744  -0.098  -0.685  0.00  0.00    -0.041 SA
BRANCH   3   5
ATOM      5  N   UNL d   1       0.580   1.058   0.188  0.00  0.00    -0.367 N 
ATOM      6  H   UNL d   1       1.196   1.846   0.040  0.00  0.00     0.161 HD
BRANCH   5   7
ATOM      7  C   UNL d   1      -0.484   1.256   1.164  0.00  0.00     0.124 C 
BRANCH   7   8
ATOM      8  C   UNL d   1      -1.715   1.920   0.557  0.00  0.00     0.046 C 
BRANCH   8   9
ATOM      9  C   UNL d   1      -2.420   1.027  -0.459  0.00  0.00     0.168 C 
BRANCH   9  10
ATOM     10  O   UNL d   1      -2.732  -0.222   0.155  0.00  0.00    -0.396 OA
ATOM     11  C   UNL d   1      -3.406  -1.097  -0.737  0.00  0.00     0.201 C 
ENDBRANCH   9  10
ENDBRANCH   8   9
ENDBRANCH   7   8
ENDBRANCH   5   7
ENDBRANCH   3   5
ENDBRANCH   1   3
BRANCH   1  12
ATOM     12  C   UNL d   1       0.805  -2.533   0.496  0.00  0.00     0.040 A 
ATOM     13  C   UNL d   1       0.134  -3.693   0.074  0.00  0.00    -0.035 A 
ATOM     14  C   UNL d   1       0.399  -4.912   0.729  0.00  0.00     0.015 A 
ATOM     15  C   UNL d   1      -0.827  -3.725  -1.082  0.00  0.00     0.050 C 
ATOM     16  C   UNL d   1       1.324  -4.991   1.776  0.00  0.00    -0.061 A 
ATOM     17  C   UNL d   1       2.035  -3.847   2.133  0.00  0.00     0.009 A 
ATOM     18  C   UNL d   1       1.499  -6.273   2.533  0.00  0.00     0.048 C 
ATOM     19  C   UNL d   1       1.781  -2.631   1.495  0.00  0.00     0.030 A 
ENDBRANCH   1  12
TORSDOF 7
