REMARK  3 active torsions:
REMARK  status: ('A' for Active; 'I' for Inactive)
REMARK    1  A    between atoms: C_2  and  C_10 
REMARK    2  A    between atoms: C_12  and  C_7 
REMARK    3  A    between atoms: C_10  and  C_12 
ROOT
ATOM      1  C   UNL d   1      -2.947  -2.277   0.270  0.00  0.00     0.058 C 
ATOM      2  S   UNL d   1      -3.336  -0.613   0.180  0.00  0.00    -0.085 SA
ATOM      3  C   UNL d   1      -3.646  -2.898   1.301  0.00  0.00    -0.030 C 
ATOM      4  C   UNL d   1      -4.312  -1.927   2.155  0.00  0.00    -0.010 A 
ATOM      5  C   UNL d   1      -4.167  -0.627   1.673  0.00  0.00     0.016 A 
ATOM      6  C   UNL d   1      -5.030  -2.104   3.367  0.00  0.00     0.037 A 
ATOM      7  C   UNL d   1      -4.673   0.490   2.367  0.00  0.00     0.021 A 
ATOM      8  C   UNL d   1      -5.524  -0.998   4.063  0.00  0.00     0.035 A 
ATOM      9  C   UNL d   1      -3.673  -4.368   1.603  0.00  0.00     0.050 C 
ATOM     10  C   UNL d   1      -5.340   0.287   3.576  0.00  0.00     0.025 A 
ATOM     11 CL   UNL d   1      -6.353  -1.234   5.552  0.00  0.00    -0.084 Cl
ENDROOT
BRANCH   1  12
ATOM     12  C   UNL d   1      -2.019  -2.870  -0.697  0.00  0.00     0.169 C 
ATOM     13  O   UNL d   1      -2.030  -4.071  -0.976  0.00  0.00    -0.292 OA
BRANCH  12  14
ATOM     14  C   UNL d   1      -0.980  -1.998  -1.388  0.00  0.00     0.122 C 
BRANCH  14  15
ATOM     15  C   UNL d   1      -0.040  -1.239  -0.452  0.00  0.00     0.186 A 
ATOM     16  C   UNL d   1       0.906  -2.035   0.360  0.00  0.00     0.069 A 
ATOM     17  C   UNL d   1       2.167  -1.731   0.084  0.00  0.00     0.129 A 
ATOM     18 CL   UNL d   1       0.366  -3.066   1.602  0.00  0.00    -0.084 Cl
ATOM     19  C   UNL d   1       2.134  -0.714  -0.971  0.00  0.00     0.307 A 
ATOM     20 CL   UNL d   1       3.590  -2.280   0.805  0.00  0.00    -0.076 Cl
ATOM     21  O   UNL d   1       0.833  -0.438  -1.274  0.00  0.00    -0.305 OA
ATOM     22  O   UNL d   1       3.095  -0.181  -1.497  0.00  0.00    -0.258 OA
ENDBRANCH  14  15
ENDBRANCH  12  14
ENDBRANCH   1  12
TORSDOF 3
