REMARK  1 active torsions:
REMARK  status: ('A' for Active; 'I' for Inactive)
REMARK    1  A    between atoms: C_6  and  C_2 
ROOT
ATOM      1  N   UNL d   1       1.514   1.272   0.135  0.00  0.00    -0.260 NA
ATOM      2  C   UNL d   1       2.329   0.043   0.067  0.00  0.00     0.239 A 
ATOM      3  O   UNL d   1       1.507  -1.157   0.051  0.00  0.00    -0.324 OA
ATOM      4  C   UNL d   1       0.218   0.720   0.096  0.00  0.00     0.044 A 
ATOM      5  C   UNL d   1       0.235  -0.661   0.068  0.00  0.00     0.092 A 
ATOM      6  C   UNL d   1      -0.977   1.410   0.072  0.00  0.00     0.026 A 
ATOM      7  C   UNL d   1      -0.917  -1.417   0.014  0.00  0.00     0.039 A 
ATOM      8  C   UNL d   1      -2.134  -0.735  -0.013  0.00  0.00     0.003 A 
ATOM      9  C   UNL d   1      -2.164   0.671   0.018  0.00  0.00     0.002 A 
ATOM     10  H   UNL d   1       1.653   1.871  -0.675  0.00  0.00     0.130 HD
ENDROOT
BRANCH   2  11
ATOM     11  C   UNL d   1       3.244   0.080  -1.149  0.00  0.00    -0.015 A 
ATOM     12  C   UNL d   1       4.524   0.651  -1.048  0.00  0.00     0.013 A 
ATOM     13  C   UNL d   1       5.377   0.688  -2.155  0.00  0.00     0.024 A 
ATOM     14  C   UNL d   1       4.954   0.166  -3.375  0.00  0.00     0.034 A 
ATOM     15  C   UNL d   1       3.680  -0.382  -3.503  0.00  0.00     0.024 A 
ATOM     16 CL   UNL d   1       6.010   0.197  -4.732  0.00  0.00    -0.084 Cl
ATOM     17  C   UNL d   1       2.827  -0.419  -2.397  0.00  0.00     0.013 A 
ENDBRANCH   2  11
TORSDOF 1
