REMARK  2 active torsions:
REMARK  status: ('A' for Active; 'I' for Inactive)
REMARK    1  A    between atoms: N_4  and  C_1 
REMARK    2  A    between atoms: N_15  and  C_12 
ROOT
ATOM      1  C   UNL d   1       2.133  -0.740   0.014  0.00  0.00     0.132 A 
ATOM      2  C   UNL d   1      -0.177   0.564   0.019  0.00  0.00     0.135 A 
ATOM      3  C   UNL d   1      -0.250  -0.826   0.037  0.00  0.00     0.062 A 
ATOM      4  C   UNL d   1       0.967  -1.551   0.035  0.00  0.00    -0.009 A 
ATOM      5  N   UNL d   1       0.915   1.346  -0.002  0.00  0.00    -0.342 N 
ATOM      6  HN  UNL d   1       0.870   2.365  -0.017  1.00  0.00     0.167 HD
ATOM      7  N   UNL d   1      -2.382   0.041   0.061  0.00  0.00    -0.283 N 
ATOM      8  HN  UNL d   1      -3.398   0.133   0.073  1.00  0.00     0.188 HD
ATOM      9  N   UNL d   1      -1.462   1.016   0.032  0.00  0.00    -0.283 N 
ATOM     10  C   UNL d   1       2.083   0.659  -0.001  0.00  0.00     0.040 A 
ATOM     11  C   UNL d   1      -1.657  -1.076   0.069  0.00  0.00     0.128 A 
ATOM     12  C   UNL d   1       1.070  -3.050   0.058  0.00  0.00     0.052 C 
ATOM     13  C   UNL d   1       3.320   1.514  -0.017  0.00  0.00     0.071 C 
ATOM     14  H   UNL d   1      -1.765   1.983   0.025  0.00  0.00     0.188 HD
ENDROOT
BRANCH   1  15
ATOM     15  N   UNL d   1       3.435  -1.373   0.005  0.00  0.00    -0.113 N 
ATOM     16  O   UNL d   1       3.782  -1.931  -1.043  0.00  0.00    -0.532 OA
ATOM     17  O   UNL d   1       4.101  -1.308   1.046  0.00  0.00    -0.532 OA
ENDBRANCH   1  15
BRANCH  11  18
ATOM     18  N   UNL d   1      -2.249  -2.278   0.104  0.00  0.00    -0.384 N 
ATOM     19  H   UNL d   1      -3.255  -2.271  -0.036  0.00  0.00     0.157 HD
ATOM     20  H   UNL d   1      -1.807  -3.097  -0.290  0.00  0.00     0.157 HD
ENDBRANCH  11  18
TORSDOF 2
