REMARK  3 active torsions:
REMARK  status: ('A' for Active; 'I' for Inactive)
REMARK    1  A    between atoms: C_3  and  C_1 
REMARK    2  A    between atoms: C_2  and  C_4 
REMARK    3  A    between atoms: O_15  and  C_3 
ROOT
ATOM      1  C   UNL d   1       0.723   1.243  -0.013  0.00  0.00     0.053 A 
ATOM      2  C   UNL d   1       0.802  -1.185  -0.011  0.00  0.00    -0.003 A 
ATOM      3  C   UNL d   1       1.462   0.054   0.005  0.00  0.00     0.034 A 
ATOM      4  N   UNL d   1      -1.337  -0.014  -0.041  0.00  0.00    -0.373 N 
ATOM      5  HN  UNL d   1      -2.356  -0.043  -0.062  1.00  0.00     0.164 HD
ATOM      6  C   UNL d   1      -0.661   1.158  -0.019  0.00  0.00     0.105 A 
ATOM      7  C   UNL d   1      -0.594  -1.149  -0.033  0.00  0.00     0.100 A 
ENDROOT
BRANCH   2   8
ATOM      8  C   UNL d   1       1.567  -2.443   0.026  0.00  0.00     0.016 A 
ATOM      9  S   UNL d   1       0.974  -3.858  -0.754  0.00  0.00    -0.101 SA
ATOM     10  C   UNL d   1       2.329  -4.783  -0.286  0.00  0.00     0.050 A 
ATOM     11  C   UNL d   1       3.235  -4.040   0.434  0.00  0.00     0.008 A 
ATOM     12  C   UNL d   1       2.797  -2.695   0.612  0.00  0.00     0.020 A 
ENDBRANCH   2   8
BRANCH   1  13
ATOM     13  C   UNL d   1       1.337   2.585   0.035  0.00  0.00     0.177 C 
ATOM     14  O   UNL d   1       0.777   3.544   0.535  0.00  0.00    -0.646 OA
BRANCH  13  15
ATOM     15  O   UNL d   1       2.554   2.662  -0.542  0.00  0.00    -0.773 OA
ATOM     16  H   UNL d   1       2.824   1.895  -1.080  0.00  0.00     0.167 HD
ENDBRANCH  13  15
ENDBRANCH   1  13
TORSDOF 3
