REMARK  4 active torsions:
REMARK  status: ('A' for Active; 'I' for Inactive)
REMARK       I    between atoms: N_2  and  C_1 
REMARK    1  A    between atoms: C_7  and  C_1 
REMARK    2  A    between atoms: N_5  and  N_2 
REMARK    3  A    between atoms: C_3  and  C_4 
REMARK    4  A    between atoms: C_10  and  N_5 
ROOT
ATOM      1  C   UNL d   1      -1.276   4.453   4.081  0.00  0.00    -0.051 A 
ATOM      2  C   UNL d   1      -0.214   4.990   3.334  0.00  0.00     0.010 A 
ATOM      3  C   UNL d   1      -1.525   3.080   3.935  0.00  0.00     0.010 A 
ATOM      4  C   UNL d   1       0.325   2.821   2.360  0.00  0.00     0.027 A 
ATOM      5  C   UNL d   1       0.555   4.194   2.479  0.00  0.00     0.026 A 
ATOM      6  C   UNL d   1      -0.746   2.283   3.080  0.00  0.00     0.026 A 
ENDROOT
BRANCH   4   7
ATOM      7  N   UNL d   1       1.044   2.017   1.457  0.00  0.00    -0.203 NA
ATOM      8  H   UNL d   1       0.893   1.010   1.555  0.00  0.00     0.153 HD
BRANCH   7   9
ATOM      9  N   UNL d   1       2.398   2.344   1.311  0.00  0.00    -0.287 N 
ATOM     10  C   UNL d   1       3.157   1.607   0.417  0.00  0.00     0.236 C 
ATOM     11  O   UNL d   1       2.683   0.651  -0.207  0.00  0.00    -0.272 OA
ATOM     12  H   UNL d   1       2.793   3.029   1.942  0.00  0.00     0.184 HD
BRANCH  10  13
ATOM     13  C   UNL d   1       4.630   2.060   0.270  0.00  0.00     0.079 C 
ATOM     14  C   UNL d   1       5.710   1.026   0.689  0.00  0.00     0.014 C 
ATOM     15  C   UNL d   1       6.594   2.209   1.119  0.00  0.00     0.002 C 
ATOM     16  C   UNL d   1       5.301   3.027   1.285  0.00  0.00     0.014 C 
ENDBRANCH  10  13
ENDBRANCH   7   9
ENDBRANCH   4   7
BRANCH   1  17
ATOM     17  C   UNL d   1      -2.116   5.372   4.983  0.00  0.00    -0.024 C 
ATOM     18  C   UNL d   1      -3.288   4.653   5.687  0.00  0.00     0.019 C 
ATOM     19  C   UNL d   1      -1.218   5.978   6.083  0.00  0.00     0.019 C 
ATOM     20  C   UNL d   1      -2.725   6.516   4.141  0.00  0.00     0.019 C 
ENDBRANCH   1  17
TORSDOF 4
