REMARK  9 active torsions:
REMARK  status: ('A' for Active; 'I' for Inactive)
REMARK       I    between atoms: C_2  and  N_1 
REMARK    1  A    between atoms: C_6  and  N_1 
REMARK    2  A    between atoms: C_7  and  N_1 
REMARK    3  A    between atoms: C_10  and  C_2 
REMARK    4  A    between atoms: C_3  and  C_15 
REMARK       I    between atoms: N_4  and  C_3 
REMARK    5  A    between atoms: C_14  and  N_4 
REMARK    6  A    between atoms: C_5  and  C_8 
REMARK    7  A    between atoms: C_17  and  C_6 
REMARK    8  A    between atoms: C_16  and  C_7 
REMARK    9  A    between atoms: C_15  and  C_10 
ROOT
ATOM      1  N   UNL d   1       0.360  -0.057  -0.602  0.00  0.00    -0.344 N 
ATOM      2  C   UNL d   1      -0.525  -0.787  -1.395  0.00  0.00     0.220 C 
ATOM      3  O   UNL d   1      -1.731  -0.518  -1.402  0.00  0.00    -0.273 OA
ENDROOT
BRANCH   2   4
ATOM      4  C   UNL d   1      -0.012  -1.890  -2.313  0.00  0.00     0.112 C 
BRANCH   4   5
ATOM      5  C   UNL d   1      -0.955  -3.095  -2.454  0.00  0.00     0.112 C 
BRANCH   5   6
ATOM      6  C   UNL d   1      -2.206  -2.966  -3.336  0.00  0.00     0.222 C 
ATOM      7  N   UNL d   1      -2.609  -4.202  -3.838  0.00  0.00    -0.327 N 
ATOM      8  H   UNL d   1      -1.900  -4.922  -3.886  0.00  0.00     0.169 HD
ATOM      9  O   UNL d   1      -2.783  -1.908  -3.562  0.00  0.00    -0.273 OA
BRANCH   7  10
ATOM     10  C   UNL d   1      -3.846  -4.527  -4.440  0.00  0.00     0.034 A 
ATOM     11  C   UNL d   1      -3.881  -5.655  -5.264  0.00  0.00     0.030 A 
ATOM     12  C   UNL d   1      -5.089  -6.131  -5.794  0.00  0.00     0.010 A 
ATOM     13  C   UNL d   1      -6.318  -5.524  -5.486  0.00  0.00    -0.051 A 
ATOM     14  C   UNL d   1      -6.261  -4.368  -4.684  0.00  0.00     0.010 A 
ATOM     15  C   UNL d   1      -5.043  -3.867  -4.177  0.00  0.00     0.030 A 
BRANCH  13  16
ATOM     16  C   UNL d   1      -7.644  -6.199  -5.902  0.00  0.00    -0.024 C 
ATOM     17  C   UNL d   1      -8.881  -5.280  -5.791  0.00  0.00     0.019 C 
ATOM     18  C   UNL d   1      -7.621  -6.725  -7.356  0.00  0.00     0.019 C 
ATOM     19  C   UNL d   1      -7.863  -7.402  -4.957  0.00  0.00     0.019 C 
ENDBRANCH  13  16
ENDBRANCH   7  10
ENDBRANCH   5   6
ENDBRANCH   4   5
ENDBRANCH   2   4
BRANCH   1  20
ATOM     20  C   UNL d   1      -0.236   0.910   0.336  0.00  0.00     0.164 C 
BRANCH  20  21
ATOM     21  C   UNL d   1      -0.838   0.230   1.553  0.00  0.00    -0.040 A 
ATOM     22  C   UNL d   1      -0.065  -0.070   2.679  0.00  0.00     0.009 A 
ATOM     23  C   UNL d   1      -0.615  -0.793   3.742  0.00  0.00     0.001 A 
ATOM     24  C   UNL d   1      -1.941  -1.220   3.690  0.00  0.00     0.000 A 
ATOM     25  C   UNL d   1      -2.729  -0.905   2.588  0.00  0.00     0.001 A 
ATOM     26  C   UNL d   1      -2.184  -0.175   1.534  0.00  0.00     0.009 A 
ENDBRANCH  20  21
ENDBRANCH   1  20
BRANCH   1  27
ATOM     27  C   UNL d   1       1.810  -0.269  -0.472  0.00  0.00     0.164 C 
BRANCH  27  28
ATOM     28  C   UNL d   1       2.673   0.905  -0.897  0.00  0.00    -0.040 A 
ATOM     29  C   UNL d   1       3.844   1.209  -0.176  0.00  0.00     0.009 A 
ATOM     30  C   UNL d   1       4.703   2.225  -0.600  0.00  0.00     0.001 A 
ATOM     31  C   UNL d   1       4.412   2.953  -1.750  0.00  0.00     0.000 A 
ATOM     32  C   UNL d   1       3.255   2.662  -2.477  0.00  0.00     0.001 A 
ATOM     33  C   UNL d   1       2.397   1.644  -2.054  0.00  0.00     0.009 A 
ENDBRANCH  27  28
ENDBRANCH   1  27
TORSDOF 9
