REMARK  5 active torsions:
REMARK  status: ('A' for Active; 'I' for Inactive)
REMARK       I    between atoms: C_2  and  N_11 
REMARK    1  A    between atoms: C_8  and  C_2 
REMARK    2  A    between atoms: N_10  and  C_4 
REMARK    3  A    between atoms: C_16  and  C_5 
REMARK    4  A    between atoms: N_11  and  N_6 
REMARK    5  A    between atoms: N_12  and  C_9 
ROOT
ATOM      1  N   UNL d   1      -1.855  -2.480  -0.118  0.00  0.00    -0.308 N 
ATOM      2  HN  UNL d   1      -2.407  -1.626  -0.043  1.00  0.00     0.186 HD
ATOM      3  C   UNL d   1      -0.558  -2.451  -0.159  0.00  0.00     0.120 C 
ENDROOT
BRANCH   1   4
ATOM      4  N   UNL d   1      -2.447  -3.713  -0.179  0.00  0.00    -0.266 N 
ATOM      5  C   UNL d   1      -3.838  -3.798  -0.101  0.00  0.00     0.270 C 
ATOM      6  O   UNL d   1      -4.593  -2.844   0.044  0.00  0.00    -0.266 OA
ATOM      7  H   UNL d   1      -1.871  -4.540  -0.164  0.00  0.00     0.190 HD
BRANCH   5   8
ATOM      8  C   UNL d   1      -4.412  -5.172  -0.167  0.00  0.00     0.033 A 
ATOM      9  C   UNL d   1      -5.617  -5.428   0.488  0.00  0.00     0.019 A 
ATOM     10  C   UNL d   1      -6.199  -6.707   0.443  0.00  0.00     0.030 A 
ATOM     11  C   UNL d   1      -5.616  -7.770  -0.267  0.00  0.00     0.029 A 
ATOM     12  C   UNL d   1      -4.424  -7.464  -0.952  0.00  0.00     0.030 A 
ATOM     13  C   UNL d   1      -3.822  -6.195  -0.905  0.00  0.00     0.019 A 
BRANCH  11  14
ATOM     14  N   UNL d   1      -6.195  -9.029  -0.356  0.00  0.00    -0.390 N 
ATOM     15  C   UNL d   1      -5.363 -10.229  -0.461  0.00  0.00     0.149 C 
ATOM     16  C   UNL d   1      -7.566  -9.293   0.075  0.00  0.00     0.149 C 
ENDBRANCH  11  14
ENDBRANCH   5   8
ENDBRANCH   1   4
BRANCH   3  17
ATOM     17  C   UNL d   1       0.177  -1.163  -0.079  0.00  0.00     0.003 A 
ATOM     18  C   UNL d   1       1.569  -1.089  -0.137  0.00  0.00     0.047 A 
ATOM     19  C   UNL d   1       2.215   0.156  -0.025  0.00  0.00     0.054 A 
ATOM     20 CL   UNL d   1       2.570  -2.482  -0.356  0.00  0.00    -0.083 Cl
ATOM     21  C   UNL d   1       1.511   1.361   0.143  0.00  0.00     0.031 A 
ATOM     22  C   UNL d   1       0.113   1.256   0.179  0.00  0.00     0.030 A 
ATOM     23  C   UNL d   1      -0.547   0.022   0.071  0.00  0.00     0.017 A 
BRANCH  21  24
ATOM     24  N   UNL d   1       2.166   2.577   0.238  0.00  0.00    -0.390 N 
ATOM     25  C   UNL d   1       3.472   2.699   0.881  0.00  0.00     0.149 C 
ATOM     26  C   UNL d   1       1.523   3.841  -0.111  0.00  0.00     0.149 C 
ENDBRANCH  21  24
ENDBRANCH   3  17
TORSDOF 5
