REMARK  4 active torsions:
REMARK  status: ('A' for Active; 'I' for Inactive)
REMARK    1  A    between atoms: C_4  and  C_1 
REMARK       I    between atoms: N_7  and  C_4 
REMARK    2  A    between atoms: N_9  and  N_7 
REMARK    3  A    between atoms: C_11  and  N_9 
REMARK    4  A    between atoms: C_14  and  C_12 
ROOT
ATOM      1  C   UNL d   1      -1.944   0.878  -1.203  0.00  0.00     0.284 C 
ATOM      2  N   UNL d   1      -3.283   0.527  -1.269  0.00  0.00    -0.281 N 
ATOM      3  O   UNL d   1      -1.409   1.268  -0.163  0.00  0.00    -0.265 OA
ATOM      4  H   UNL d   1      -3.645   0.041  -2.087  0.00  0.00     0.184 HD
ENDROOT
BRANCH   2   5
ATOM      5  N   UNL d   1      -3.994   0.364  -0.058  0.00  0.00    -0.203 NA
ATOM      6  H   UNL d   1      -3.425   0.721   0.725  0.00  0.00     0.153 HD
BRANCH   5   7
ATOM      7  C   UNL d   1      -5.244   1.049  -0.025  0.00  0.00     0.034 A 
ATOM      8  C   UNL d   1      -6.232   0.633   0.896  0.00  0.00    -0.036 A 
ATOM      9  C   UNL d   1      -7.433   1.362   1.002  0.00  0.00     0.009 A 
ATOM     10  C   UNL d   1      -7.659   2.489   0.217  0.00  0.00     0.001 A 
ATOM     11  C   UNL d   1      -6.683   2.914  -0.676  0.00  0.00     0.002 A 
ATOM     12  C   UNL d   1      -5.482   2.207  -0.785  0.00  0.00     0.026 A 
BRANCH   8  13
ATOM     13  C   UNL d   1      -6.064  -0.590   1.771  0.00  0.00     0.036 C 
ATOM     14  C   UNL d   1      -5.595  -0.245   3.177  0.00  0.00     0.010 C 
ENDBRANCH   8  13
ENDBRANCH   5   7
ENDBRANCH   2   5
BRANCH   1  15
ATOM     15  C   UNL d   1      -1.217   0.755  -2.467  0.00  0.00     0.126 A 
ATOM     16  N   UNL d   1      -1.763   0.199  -3.563  0.00  0.00    -0.256 N 
ATOM     17  O   UNL d   1      -0.780   0.239  -4.538  0.00  0.00    -0.242 OA
ATOM     18  HN  UNL d   1      -2.707  -0.176  -3.657  1.00  0.00     0.195 HD
ATOM     19  C   UNL d   1       0.339   0.827  -4.036  0.00  0.00     0.075 A 
ATOM     20  C   UNL d   1       0.114   1.174  -2.728  0.00  0.00     0.071 A 
ATOM     21  C   UNL d   1       1.489   0.957  -4.949  0.00  0.00     0.079 C 
ENDBRANCH   1  15
TORSDOF 4
