REMARK  6 active torsions:
REMARK  status: ('A' for Active; 'I' for Inactive)
REMARK    1  A    between atoms: N_2  and  S_1 
REMARK    2  A    between atoms: C_5  and  S_1 
REMARK    3  A    between atoms: N_3  and  N_2 
REMARK    4  A    between atoms: C_4  and  N_3 
REMARK    5  A    between atoms: N_8  and  C_4 
REMARK    6  A    between atoms: C_12  and  N_8 
ROOT
ATOM      1  N   UNL d   1       0.748  -1.459   2.098  0.00  0.00    -0.266 N 
ATOM      2  H   UNL d   1       0.500  -2.280   1.545  0.00  0.00     0.190 HD
ENDROOT
BRANCH   1   3
ATOM      3  N   UNL d   1       0.817  -0.182   1.395  0.00  0.00    -0.221 N 
ATOM      4  H   UNL d   1       1.332   0.554   1.893  0.00  0.00     0.200 HD
BRANCH   3   5
ATOM      5  S   UNL d   1       1.088  -0.200  -0.279  0.00  0.00     0.276 S 
ATOM      6  O   UNL d   1       0.103  -1.083  -0.871  0.00  0.00    -0.199 OA
ATOM      7  O   UNL d   1       2.504  -0.395  -0.489  0.00  0.00    -0.199 OA
BRANCH   5   8
ATOM      8  C   UNL d   1       0.696   1.479  -0.689  0.00  0.00     0.081 A 
ATOM      9  C   UNL d   1       1.614   2.487  -0.375  0.00  0.00     0.026 A 
ATOM     10  C   UNL d   1       1.315   3.812  -0.691  0.00  0.00     0.008 A 
ATOM     11  C   UNL d   1       0.110   4.134  -1.332  0.00  0.00    -0.062 A 
ATOM     12  C   UNL d   1      -0.795   3.112  -1.649  0.00  0.00     0.008 A 
ATOM     13  C   UNL d   1      -0.185   5.563  -1.688  0.00  0.00     0.048 C 
ATOM     14  C   UNL d   1      -0.505   1.784  -1.330  0.00  0.00     0.026 A 
ENDBRANCH   5   8
ENDBRANCH   3   5
ENDBRANCH   1   3
BRANCH   1  15
ATOM     15  C   UNL d   1       1.365  -1.611   3.309  0.00  0.00     0.191 C 
ATOM     16  S   UNL d   1       2.462  -0.508   3.946  0.00  0.00    -0.039 SA
BRANCH  15  17
ATOM     17  N   UNL d   1       1.099  -2.736   4.030  0.00  0.00    -0.332 N 
ATOM     18  H   UNL d   1       1.769  -2.893   4.779  0.00  0.00     0.168 HD
BRANCH  17  19
ATOM     19  C   UNL d   1      -0.071  -3.521   4.096  0.00  0.00     0.034 A 
ATOM     20  C   UNL d   1      -1.274  -3.193   3.461  0.00  0.00     0.032 A 
ATOM     21  C   UNL d   1      -2.414  -3.980   3.658  0.00  0.00     0.044 A 
ATOM     22  C   UNL d   1      -2.354  -5.084   4.497  0.00  0.00     0.116 A 
ATOM     23  C   UNL d   1      -1.174  -5.421   5.143  0.00  0.00     0.044 A 
ATOM     24  F   UNL d   1      -3.454  -5.819   4.702  0.00  0.00    -0.206 F 
ATOM     25  C   UNL d   1      -0.033  -4.640   4.943  0.00  0.00     0.032 A 
ENDBRANCH  17  19
ENDBRANCH  15  17
ENDBRANCH   1  15
TORSDOF 6
