REMARK  7 active torsions:
REMARK  status: ('A' for Active; 'I' for Inactive)
REMARK    1  A    between atoms: C_7  and  C_1 
REMARK    2  A    between atoms: C_6  and  O_8 
REMARK       I    between atoms: N_10  and  C_6 
REMARK    3  A    between atoms: O_8  and  C_7 
REMARK    4  A    between atoms: C_17  and  N_10 
REMARK    5  A    between atoms: C_15  and  C_17 
REMARK    6  A    between atoms: C_18  and  C_15 
REMARK    7  A    between atoms: O_16  and  C_18 
ROOT
ATOM      1  C   UNL d   1      -0.050   1.899  -0.042  0.00  0.00     0.078 A 
ATOM      2  C   UNL d   1      -0.745  -0.411  -0.040  0.00  0.00    -0.018 A 
ATOM      3  C   UNL d   1       0.702  -0.395  -0.048  0.00  0.00    -0.018 A 
ATOM      4  C   UNL d   1      -1.220   0.918  -0.034  0.00  0.00    -0.036 A 
ATOM      5  C   UNL d   1       1.148   0.946  -0.057  0.00  0.00    -0.036 A 
ATOM      6  C   UNL d   1       1.612  -1.441  -0.021  0.00  0.00     0.013 A 
ATOM      7  C   UNL d   1      -1.632  -1.476  -0.027  0.00  0.00     0.013 A 
ATOM      8  C   UNL d   1      -2.579   1.197  -0.021  0.00  0.00     0.009 A 
ATOM      9  C   UNL d   1       2.500   1.253  -0.036  0.00  0.00     0.009 A 
ATOM     10  C   UNL d   1      -3.003  -1.200  -0.013  0.00  0.00     0.001 A 
ATOM     11  C   UNL d   1       2.975  -1.137   0.002  0.00  0.00     0.001 A 
ATOM     12  C   UNL d   1       3.415   0.198  -0.004  0.00  0.00     0.001 A 
ATOM     13  C   UNL d   1      -3.471   0.124  -0.011  0.00  0.00     0.001 A 
ENDROOT
BRANCH   1  14
ATOM     14  C   UNL d   1      -0.051   2.844   1.172  0.00  0.00     0.194 C 
BRANCH  14  15
ATOM     15  O   UNL d   1       0.123   2.045   2.348  0.00  0.00    -0.303 OA
BRANCH  15  16
ATOM     16  C   UNL d   1       1.084   2.461   3.188  0.00  0.00     0.360 C 
ATOM     17  O   UNL d   1       1.286   3.616   3.522  0.00  0.00    -0.239 OA
ATOM     18  N   UNL d   1       1.806   1.370   3.547  0.00  0.00    -0.337 N 
ATOM     19  H   UNL d   1       1.573   0.519   3.051  0.00  0.00     0.164 HD
BRANCH  18  20
ATOM     20  C   UNL d   1       2.814   1.344   4.575  0.00  0.00     0.127 C 
BRANCH  20  21
ATOM     21  C   UNL d   1       2.235   0.782   5.871  0.00  0.00     0.046 C 
BRANCH  21  22
ATOM     22  C   UNL d   1       1.738  -0.653   5.724  0.00  0.00     0.165 C 
BRANCH  22  23
ATOM     23  O   UNL d   1       2.810  -1.502   5.336  0.00  0.00    -0.401 OA
ATOM     24  H   UNL d   1       2.442  -2.397   5.237  0.00  0.00     0.209 HD
ENDBRANCH  22  23
ENDBRANCH  21  22
ENDBRANCH  20  21
ENDBRANCH  18  20
ENDBRANCH  15  16
ENDBRANCH  14  15
ENDBRANCH   1  14
TORSDOF 7
