REMARK  10 active torsions:
REMARK  status: ('A' for Active; 'I' for Inactive)
REMARK    1  A    between atoms: C_2  and  C_1 
REMARK    2  A    between atoms: C_3  and  C_1 
REMARK    3  A    between atoms: C_4  and  C_1 
REMARK    4  A    between atoms: O_12  and  C_2 
REMARK    5  A    between atoms: O_11  and  C_3 
REMARK    6  A    between atoms: O_9  and  C_10 
REMARK    7  A    between atoms: C_13  and  O_9 
REMARK    8  A    between atoms: C_17  and  O_11 
REMARK    9  A    between atoms: C_18  and  O_12 
REMARK   10  A    between atoms: C_16  and  C_13 
ROOT
ATOM      1  C   UNL d   1       2.505  -0.036   0.287  0.00  0.00    -0.035 A 
ATOM      2  C   UNL d   1       3.280   1.131   0.198  0.00  0.00     0.011 A 
ATOM      3  C   UNL d   1       3.161  -1.270   0.397  0.00  0.00     0.011 A 
ATOM      4  C   UNL d   1       5.318  -0.180   0.221  0.00  0.00     0.069 A 
ATOM      5  C   UNL d   1       4.557  -1.340   0.366  0.00  0.00     0.037 A 
ATOM      6  C   UNL d   1       4.673   1.057   0.171  0.00  0.00     0.037 A 
ENDROOT
BRANCH   1   7
ATOM      7  C   UNL d   1       0.987   0.053   0.201  0.00  0.00     0.218 C 
BRANCH   7   8
ATOM      8  C   UNL d   1       0.447  -0.567  -1.073  0.00  0.00     0.277 C 
ATOM      9  O   UNL d   1       0.933  -1.515  -1.675  0.00  0.00    -0.264 OA
BRANCH   8  10
ATOM     10  O   UNL d   1      -0.646   0.140  -1.497  0.00  0.00    -0.321 OA
BRANCH  10  11
ATOM     11  C   UNL d   1      -1.110  -0.173  -2.818  0.00  0.00     0.174 C 
ATOM     12  C   UNL d   1      -0.354   0.689  -3.813  0.00  0.00     0.034 C 
ENDBRANCH  10  11
ENDBRANCH   8  10
ENDBRANCH   7   8
BRANCH   7  13
ATOM     13  C   UNL d   1       0.267  -0.464   1.418  0.00  0.00     0.277 C 
ATOM     14  O   UNL d   1      -0.610  -1.318   1.416  0.00  0.00    -0.264 OA
BRANCH  13  15
ATOM     15  O   UNL d   1       0.652   0.249   2.523  0.00  0.00    -0.321 OA
BRANCH  15  16
ATOM     16  C   UNL d   1      -0.156   0.082   3.696  0.00  0.00     0.174 C 
ATOM     17  C   UNL d   1      -1.264   1.119   3.668  0.00  0.00     0.034 C 
ENDBRANCH  15  16
ENDBRANCH  13  15
ENDBRANCH   7  13
ENDBRANCH   1   7
BRANCH   4  18
ATOM     18  O   UNL d   1       6.681  -0.130   0.114  0.00  0.00    -0.347 OA
BRANCH  18  19
ATOM     19  C   UNL d   1       7.309  -1.346  -0.294  0.00  0.00     0.214 C 
BRANCH  19  20
ATOM     20  C   UNL d   1       8.717  -1.059  -0.754  0.00  0.00    -0.034 A 
ATOM     21  C   UNL d   1       9.694  -0.641   0.160  0.00  0.00     0.009 A 
ATOM     22  C   UNL d   1      11.007  -0.418  -0.260  0.00  0.00     0.001 A 
ATOM     23  C   UNL d   1      11.354  -0.605  -1.597  0.00  0.00     0.000 A 
ATOM     24  C   UNL d   1      10.388  -1.005  -2.517  0.00  0.00     0.001 A 
ATOM     25  C   UNL d   1       9.075  -1.228  -2.100  0.00  0.00     0.009 A 
ENDBRANCH  19  20
ENDBRANCH  18  19
ENDBRANCH   4  18
TORSDOF 10
