REMARK  5 active torsions:
REMARK  status: ('A' for Active; 'I' for Inactive)
REMARK    1  A    between atoms: C_10  and  C_3 
REMARK    2  A    between atoms: C_12  and  N_5 
REMARK    3  A    between atoms: O_15  and  C_10 
REMARK    4  A    between atoms: C_16  and  C_12 
REMARK    5  A    between atoms: C_18  and  O_15 
ROOT
ATOM      1  N   UNL d   1      -0.312  -0.626   0.027  0.00  0.00    -0.203 N 
ATOM      2  C   UNL d   1      -0.258   0.759   0.019  0.00  0.00     0.135 A 
ATOM      3  C   UNL d   1       2.104  -0.777   0.068  0.00  0.00     0.124 A 
ATOM      4  C   UNL d   1       0.797  -1.489   0.029  0.00  0.00     0.285 A 
ATOM      5  N   UNL d   1       0.967   1.372   0.016  0.00  0.00    -0.336 N 
ATOM      6  C   UNL d   1       2.105   0.569   0.049  0.00  0.00     0.116 A 
ATOM      7  N   UNL d   1      -1.589  -1.091   0.001  0.00  0.00    -0.294 N 
ATOM      8  HN  UNL d   1      -1.901  -2.062  -0.016  1.00  0.00     0.187 HD
ATOM      9  C   UNL d   1      -1.563   1.190   0.009  0.00  0.00     0.076 A 
ATOM     10  C   UNL d   1      -2.344   0.011   0.002  0.00  0.00     0.026 A 
ATOM     11  O   UNL d   1       0.643  -2.700  -0.035  0.00  0.00    -0.265 OA
ATOM     12  C   UNL d   1      -3.822  -0.095  -0.011  0.00  0.00     0.070 C 
ENDROOT
BRANCH   5  13
ATOM     13  C   UNL d   1       1.044   2.847  -0.018  0.00  0.00     0.168 C 
BRANCH  13  14
ATOM     14  C   UNL d   1       0.892   3.442   1.365  0.00  0.00    -0.040 A 
ATOM     15  C   UNL d   1       1.878   3.238   2.342  0.00  0.00     0.009 A 
ATOM     16  C   UNL d   1       1.709   3.730   3.637  0.00  0.00     0.001 A 
ATOM     17  C   UNL d   1       0.558   4.442   3.967  0.00  0.00     0.000 A 
ATOM     18  C   UNL d   1      -0.414   4.682   2.998  0.00  0.00     0.001 A 
ATOM     19  C   UNL d   1      -0.246   4.190   1.703  0.00  0.00     0.009 A 
ENDBRANCH  13  14
ENDBRANCH   5  13
BRANCH   3  20
ATOM     20  C   UNL d   1       3.404  -1.474   0.037  0.00  0.00     0.300 C 
ATOM     21  O   UNL d   1       4.453  -0.938  -0.294  0.00  0.00    -0.259 OA
BRANCH  20  22
ATOM     22  O   UNL d   1       3.254  -2.776   0.363  0.00  0.00    -0.318 OA
BRANCH  22  23
ATOM     23  C   UNL d   1       4.275  -3.672  -0.093  0.00  0.00     0.174 C 
ATOM     24  C   UNL d   1       3.919  -4.120  -1.500  0.00  0.00     0.034 C 
ENDBRANCH  22  23
ENDBRANCH  20  22
ENDBRANCH   3  20
TORSDOF 5
