REMARK  3 active torsions:
REMARK  status: ('A' for Active; 'I' for Inactive)
REMARK    1  A    between atoms: C_4  and  C_1 
REMARK    2  A    between atoms: C_17  and  N_2 
REMARK    3  A    between atoms: C_13  and  C_9 
ROOT
ATOM      1  C   UNL d   1      -0.588   1.634   0.159  0.00  0.00     0.053 C 
ATOM      2  N   UNL d   1      -0.625   1.438  -1.198  0.00  0.00    -0.349 N 
ATOM      3  HN  UNL d   1      -0.414   2.118  -1.929  1.00  0.00     0.166 HD
ATOM      4  C   UNL d   1      -0.991   0.184  -1.355  0.00  0.00     0.085 C 
ATOM      5  S   UNL d   1      -2.101  -0.349  -0.152  0.00  0.00    -0.081 SA
ATOM      6  C   UNL d   1      -1.623   1.012   0.832  0.00  0.00     0.082 C 
ENDROOT
BRANCH   1   7
ATOM      7  C   UNL d   1       0.761   1.889   0.668  0.00  0.00     0.032 C 
ATOM      8  C   UNL d   1       1.355   1.408   1.822  0.00  0.00     0.044 C 
ATOM      9  N   UNL d   1       2.639   1.079   1.369  0.00  0.00    -0.261 N 
ATOM     10  C   UNL d   1       0.785   1.063   3.140  0.00  0.00     0.071 C 
ATOM     11  N   UNL d   1       3.006   1.952   0.384  0.00  0.00    -0.304 N 
ATOM     12  C   UNL d   1       1.834   2.300  -0.146  0.00  0.00     0.123 C 
ATOM     13  HN  UNL d   1       3.942   2.259   0.119  1.00  0.00     0.186 HD
BRANCH   9  14
ATOM     14  C   UNL d   1       3.414  -0.099   1.614  0.00  0.00     0.056 A 
ATOM     15  C   UNL d   1       2.930  -1.159   2.393  0.00  0.00     0.031 A 
ATOM     16  C   UNL d   1       3.675  -2.336   2.538  0.00  0.00     0.002 A 
ATOM     17  C   UNL d   1       4.898  -2.477   1.888  0.00  0.00     0.000 A 
ATOM     18  C   UNL d   1       5.376  -1.443   1.088  0.00  0.00     0.002 A 
ATOM     19  C   UNL d   1       4.641  -0.260   0.950  0.00  0.00     0.031 A 
ENDBRANCH   9  14
ENDBRANCH   1   7
BRANCH   4  20
ATOM     20  C   UNL d   1      -0.361  -0.687  -2.345  0.00  0.00     0.001 A 
ATOM     21  C   UNL d   1      -0.167  -0.203  -3.642  0.00  0.00     0.054 A 
ATOM     22  C   UNL d   1       0.568  -0.941  -4.567  0.00  0.00     0.103 A 
ATOM     23  O   UNL d   1       0.667  -0.416  -5.828  0.00  0.00    -0.346 OA
ATOM     24  C   UNL d   1       1.173  -2.143  -4.190  0.00  0.00     0.102 A 
ATOM     25  C   UNL d   1       0.983  -1.448  -6.764  0.00  0.00     0.202 C 
ATOM     26  C   UNL d   1       2.187  -2.243  -6.286  0.00  0.00     0.202 C 
ATOM     27  O   UNL d   1       1.920  -2.911  -5.046  0.00  0.00    -0.346 OA
ATOM     28  C   UNL d   1       1.018  -2.620  -2.892  0.00  0.00     0.040 A 
ATOM     29  C   UNL d   1       0.252  -1.897  -1.971  0.00  0.00     0.017 A 
ENDBRANCH   4  20
TORSDOF 3
