REMARK  7 active torsions:
REMARK  status: ('A' for Active; 'I' for Inactive)
REMARK    1  A    between atoms: C_3  and  C_1 
REMARK    2  A    between atoms: C_5  and  CA_2 
REMARK       I    between atoms: N_4  and  C_3 
REMARK    3  A    between atoms: C_14  and  N_4 
REMARK    4  A    between atoms: C_22  and  N_4 
REMARK    5  A    between atoms: OXT_21  and  C_5 
REMARK    6  A    between atoms: C_11  and  C_14 
REMARK    7  A    between atoms: C_20  and  C_22 
ROOT
ATOM      1  N   UNL d   1       3.200  -5.199  -2.322  0.00  0.00    -0.197 NA
ATOM      2  C   UNL d   1       2.087  -4.947  -2.128  0.00  0.00     0.060 C 
ATOM      3  C   UNL d   1       0.676  -4.606  -1.892  0.00  0.00     0.143 C 
ENDROOT
BRANCH   3   4
ATOM      4  C   UNL d   1       0.506  -3.969  -0.512  0.00  0.00     0.140 C 
BRANCH   4   5
ATOM      5  N   UNL d   1      -0.861  -3.487  -0.239  0.00  0.00    -0.341 N 
ATOM      6  C   UNL d   1      -1.286  -2.145  -0.349  0.00  0.00     0.273 C 
ATOM      7  O   UNL d   1      -2.484  -1.847  -0.309  0.00  0.00    -0.266 OA
BRANCH   6   8
ATOM      8  C   UNL d   1      -0.366  -1.005  -0.631  0.00  0.00     0.134 A 
ATOM      9  CA  UNL d   1       0.692  -0.586   0.159  0.00  0.00     0.139 A 
ATOM     10  N   UNL d   1       1.456   0.527  -0.141  0.00  0.00    -0.357 N 
ATOM     11  C   UNL d   1       1.039   1.254  -1.202  0.00  0.00     0.105 A 
ATOM     12  HN  UNL d   1       2.279   0.783   0.404  1.00  0.00     0.165 HD
ATOM     13  C   UNL d   1      -0.054   0.883  -1.960  0.00  0.00     0.105 A 
ATOM     14  N   UNL d   1      -0.746  -0.255  -1.718  0.00  0.00    -0.358 N 
ATOM     15  HN  UNL d   1      -1.518  -0.544  -2.318  1.00  0.00     0.165 HD
BRANCH   9  16
ATOM     16  C   UNL d   1       1.097  -1.240   1.428  0.00  0.00     0.196 C 
ATOM     17  O   UNL d   1       0.512  -2.144   1.994  0.00  0.00    -0.645 OA
BRANCH  16  18
ATOM     18  OXT UNL d   1       2.263  -0.704   1.875  0.00  0.00    -0.772 OA
ATOM     19  HXT UNL d   1       2.536   0.041   1.285  0.00  0.00     0.167 HD
ENDBRANCH  16  18
ENDBRANCH   9  16
ENDBRANCH   6   8
BRANCH   5  20
ATOM     20  C   UNL d   1      -1.952  -4.478  -0.190  0.00  0.00     0.172 C 
BRANCH  20  21
ATOM     21  C   UNL d   1      -1.732  -5.628   0.750  0.00  0.00     0.000 A 
ATOM     22  S   UNL d   1      -2.141  -7.216   0.228  0.00  0.00    -0.105 SA
ATOM     23  C   UNL d   1      -1.845  -7.880   1.772  0.00  0.00     0.050 A 
ATOM     24  C   UNL d   1      -1.412  -6.928   2.667  0.00  0.00     0.008 A 
ATOM     25  C   UNL d   1      -1.347  -5.628   2.078  0.00  0.00     0.017 A 
ENDBRANCH  20  21
ENDBRANCH   5  20
ENDBRANCH   4   5
ENDBRANCH   3   4
TORSDOF 7
