REMARK  4 active torsions:
REMARK  status: ('A' for Active; 'I' for Inactive)
REMARK    1  A    between atoms: C_6  and  C_1 
REMARK    2  A    between atoms: S_14  and  C_9 
REMARK    3  A    between atoms: C_23  and  S_14 
REMARK    4  A    between atoms: C_15  and  C_23 
ROOT
ATOM      1  C   UNL d   1       4.016   0.021   0.038  0.00  0.00     0.053 A 
ATOM      2  N   UNL d   1       4.658   0.461   1.141  0.00  0.00    -0.336 N 
ATOM      3  HN  UNL d   1       4.154   0.686   1.999  1.00  0.00     0.168 HD
ATOM      4  C   UNL d   1       5.992   0.589   1.054  0.00  0.00     0.144 A 
ATOM      5  N   UNL d   1       6.721   0.293  -0.034  0.00  0.00    -0.347 N 
ATOM      6  HN  UNL d   1       7.735   0.403  -0.045  1.00  0.00     0.167 HD
ATOM      7  C   UNL d   1       4.686  -0.304  -1.128  0.00  0.00     0.048 A 
ATOM      8  C   UNL d   1       6.050  -0.155  -1.103  0.00  0.00     0.092 A 
ENDROOT
BRANCH   1   9
ATOM      9  C   UNL d   1       2.545  -0.074   0.157  0.00  0.00     0.039 A 
ATOM     10  S   UNL d   1       1.736  -1.335  -0.683  0.00  0.00    -0.087 SA
ATOM     11  C   UNL d   1       0.189  -0.862  -0.134  0.00  0.00     0.016 A 
ATOM     12  C   UNL d   1      -1.039  -1.476  -0.452  0.00  0.00     0.021 A 
ATOM     13  C   UNL d   1       0.268   0.246   0.708  0.00  0.00    -0.010 A 
ATOM     14  C   UNL d   1      -2.215  -0.969   0.103  0.00  0.00     0.025 A 
ATOM     15  C   UNL d   1      -2.164   0.128   0.949  0.00  0.00     0.035 A 
ATOM     16  C   UNL d   1      -0.947   0.742   1.254  0.00  0.00     0.037 A 
ATOM     17 CL   UNL d   1      -3.621   0.740   1.635  0.00  0.00    -0.084 Cl
ATOM     18  C   UNL d   1       1.640   0.705   0.876  0.00  0.00    -0.031 A 
ATOM     19  C   UNL d   1       1.975   1.896   1.725  0.00  0.00     0.050 C 
ENDBRANCH   1   9
BRANCH   4  20
ATOM     20  S   UNL d   1       6.886   1.293   2.414  0.00  0.00    -0.090 SA
BRANCH  20  21
ATOM     21  C   UNL d   1       5.898   0.667   3.799  0.00  0.00     0.108 C 
BRANCH  21  22
ATOM     22  C   UNL d   1       6.569   1.067   5.083  0.00  0.00    -0.026 C 
ATOM     23  C   UNL d   1       6.018   1.852   6.019  0.00  0.00     0.007 C 
ENDBRANCH  21  22
ENDBRANCH  20  21
ENDBRANCH   4  20
TORSDOF 4
