REMARK  8 active torsions:
REMARK  status: ('A' for Active; 'I' for Inactive)
REMARK    1  A    between atoms: C_2  and  C_1 
REMARK    2  A    between atoms: O_21  and  C_2 
REMARK    3  A    between atoms: C_3  and  O_20 
REMARK       I    between atoms: N_7  and  C_3 
REMARK    4  A    between atoms: C_4  and  N_7 
REMARK    5  A    between atoms: C_5  and  C_18 
REMARK    6  A    between atoms: C_24  and  C_6 
REMARK    7  A    between atoms: O_20  and  C_24 
REMARK    8  A    between atoms: C_26  and  O_21 
ROOT
ATOM      1  C   UNL d   1      -1.355   0.032   0.359  0.00  0.00    -0.063 C 
ATOM      2  C   UNL d   1      -2.554  -0.016   0.423  0.00  0.00    -0.074 C 
ENDROOT
BRANCH   2   3
ATOM      3  C   UNL d   1      -4.023  -0.041   0.381  0.00  0.00     0.274 C 
BRANCH   3   4
ATOM      4  O   UNL d   1      -4.557  -0.879   1.415  0.00  0.00    -0.292 OA
BRANCH   4   5
ATOM      5  C   UNL d   1      -5.612  -0.370   2.094  0.00  0.00     0.366 C 
ATOM      6  N   UNL d   1      -6.353  -1.273   2.817  0.00  0.00    -0.303 N 
ATOM      7  H   UNL d   1      -7.199  -0.841   3.167  0.00  0.00     0.171 HD
ATOM      8  O   UNL d   1      -5.984   0.799   2.031  0.00  0.00    -0.238 OA
BRANCH   6   9
ATOM      9  C   UNL d   1      -6.252  -2.672   2.921  0.00  0.00     0.040 A 
ATOM     10  C   UNL d   1      -5.100  -3.400   2.623  0.00  0.00     0.053 A 
ATOM     11  C   UNL d   1      -5.125  -4.797   2.655  0.00  0.00     0.037 A 
ATOM     12 CL   UNL d   1      -3.703  -5.680   2.249  0.00  0.00    -0.084 Cl
ATOM     13  C   UNL d   1      -6.285  -5.485   2.996  0.00  0.00     0.048 A 
ATOM     14  C   UNL d   1      -7.418  -4.759   3.345  0.00  0.00     0.037 A 
ATOM     15  C   UNL d   1      -7.403  -3.363   3.326  0.00  0.00     0.053 A 
ATOM     16 CL   UNL d   1      -8.863  -5.590   3.774  0.00  0.00    -0.084 Cl
ENDBRANCH   6   9
ENDBRANCH   4   5
ENDBRANCH   3   4
ENDBRANCH   2   3
BRANCH   1  17
ATOM     17  C   UNL d   1       0.068   0.068   0.209  0.00  0.00     0.034 A 
ATOM     18  C   UNL d   1       0.770   1.272   0.152  0.00  0.00     0.041 A 
ATOM     19  C   UNL d   1       2.164   1.245   0.008  0.00  0.00     0.056 A 
ATOM     20  C   UNL d   1       2.789   0.008  -0.094  0.00  0.00     0.105 A 
ATOM     21  N   UNL d   1       2.133  -1.175  -0.053  0.00  0.00    -0.373 N 
ATOM     22  C   UNL d   1       0.789  -1.119   0.104  0.00  0.00     0.108 A 
ATOM     23  HN  UNL d   1       2.626  -2.064  -0.137  1.00  0.00     0.164 HD
BRANCH  19  24
ATOM     24  C   UNL d   1       3.023   2.447   0.051  0.00  0.00     0.294 C 
ATOM     25  O   UNL d   1       4.241   2.402  -0.007  0.00  0.00    -0.259 OA
BRANCH  24  26
ATOM     26  O   UNL d   1       2.270   3.549   0.288  0.00  0.00    -0.318 OA
BRANCH  26  27
ATOM     27  C   UNL d   1       2.985   4.672   0.824  0.00  0.00     0.174 C 
ATOM     28  C   UNL d   1       2.970   4.548   2.337  0.00  0.00     0.034 C 
ENDBRANCH  26  27
ENDBRANCH  24  26
ENDBRANCH  19  24
ENDBRANCH   1  17
TORSDOF 8
