REMARK  5 active torsions:
REMARK  status: ('A' for Active; 'I' for Inactive)
REMARK       I    between atoms: C_2  and  N_1 
REMARK    1  A    between atoms: C_9  and  C_2 
REMARK    2  A    between atoms: C_3  and  C_4 
REMARK    3  A    between atoms: O_12  and  C_3 
REMARK    4  A    between atoms: C_13  and  C_9 
REMARK    5  A    between atoms: C_14  and  C_13 
ROOT
ATOM      1  N   UNL d   1       1.369  -0.021   0.263  0.00  0.00    -0.352 N 
ATOM      2  C   UNL d   1       2.476   0.033   1.103  0.00  0.00     0.220 C 
ATOM      3  C   UNL d   1      -1.479   0.008  -0.279  0.00  0.00     0.087 C 
ATOM      4  C   UNL d   1       0.754   1.218  -0.200  0.00  0.00     0.126 C 
ATOM      5  C   UNL d   1       0.738  -1.244  -0.232  0.00  0.00     0.126 C 
ATOM      6  O   UNL d   1       2.946   1.100   1.496  0.00  0.00    -0.273 OA
ATOM      7  C   UNL d   1      -0.721   1.257   0.198  0.00  0.00     0.035 C 
ATOM      8  C   UNL d   1      -0.739  -1.268   0.163  0.00  0.00     0.035 C 
ENDROOT
BRANCH   2   9
ATOM      9  C   UNL d   1       3.079  -1.298   1.526  0.00  0.00     0.107 C 
BRANCH   9  10
ATOM     10  C   UNL d   1       4.279  -1.119   2.453  0.00  0.00     0.047 C 
BRANCH  10  11
ATOM     11  C   UNL d   1       4.890  -2.443   2.846  0.00  0.00    -0.058 A 
ATOM     12  C   UNL d   1       5.895  -3.021   2.059  0.00  0.00     0.007 A 
ATOM     13  C   UNL d   1       6.481  -4.232   2.434  0.00  0.00     0.001 A 
ATOM     14  C   UNL d   1       6.063  -4.880   3.594  0.00  0.00     0.000 A 
ATOM     15  C   UNL d   1       5.049  -4.325   4.373  0.00  0.00     0.001 A 
ATOM     16  C   UNL d   1       4.461  -3.115   3.999  0.00  0.00     0.007 A 
ENDBRANCH  10  11
ENDBRANCH   9  10
ENDBRANCH   2   9
BRANCH   3  17
ATOM     17  C   UNL d   1      -1.707   0.010  -1.784  0.00  0.00     0.143 C 
ATOM     18  O   UNL d   1      -1.310  -0.851  -2.552  0.00  0.00    -0.650 OA
BRANCH  17  19
ATOM     19  O   UNL d   1      -2.446   1.059  -2.216  0.00  0.00    -0.776 OA
ATOM     20  H   UNL d   1      -2.765   1.654  -1.514  0.00  0.00     0.167 HD
ENDBRANCH  17  19
ENDBRANCH   3  17
TORSDOF 5
