REMARK  5 active torsions:
REMARK  status: ('A' for Active; 'I' for Inactive)
REMARK    1  A    between atoms: N_2  and  S_1 
REMARK    2  A    between atoms: C_3  and  S_1 
REMARK    3  A    between atoms: C_4  and  N_5 
REMARK    4  A    between atoms: O_26  and  C_10 
REMARK    5  A    between atoms: O_27  and  C_16 
ROOT
ATOM      1  N   UNL d   1       0.599   0.983  -1.275  0.00  0.00    -0.205 NA
ATOM      2  N   UNL d   1       1.254   3.245  -3.261  0.00  0.00    -0.377 N 
ATOM      3  C   UNL d   1       1.009   2.385  -0.909  0.00  0.00     0.127 C 
ATOM      4  C   UNL d   1       0.654   3.473  -1.931  0.00  0.00     0.138 C 
ATOM      5  C   UNL d   1       0.445   0.939  -3.784  0.00  0.00     0.035 C 
ATOM      6  C   UNL d   1       1.255   0.536  -2.553  0.00  0.00     0.109 C 
ATOM      7  C   UNL d   1       0.432   2.424  -4.157  0.00  0.00     0.124 C 
ENDROOT
BRANCH   1   8
ATOM      8  S   UNL d   1       0.971  -0.126   0.013  0.00  0.00     0.243 S 
ATOM      9  O   UNL d   1       2.316   0.173   0.470  0.00  0.00    -0.206 OA
ATOM     10  O   UNL d   1       0.599  -1.459  -0.409  0.00  0.00    -0.206 OA
BRANCH   8  11
ATOM     11  C   UNL d   1      -0.170   0.314   1.301  0.00  0.00     0.077 A 
ATOM     12  C   UNL d   1      -1.532   0.107   1.092  0.00  0.00     0.064 A 
ATOM     13  C   UNL d   1      -2.457   0.310   2.125  0.00  0.00     0.102 A 
ATOM     14  C   UNL d   1      -1.990   0.744   3.382  0.00  0.00     0.101 A 
ATOM     15  C   UNL d   1      -0.614   0.968   3.569  0.00  0.00     0.041 A 
ATOM     16  C   UNL d   1       0.303   0.753   2.541  0.00  0.00     0.028 A 
BRANCH  13  17
ATOM     17  O   UNL d   1      -3.800   0.091   1.969  0.00  0.00    -0.353 OA
ATOM     18  C   UNL d   1      -4.266  -0.382   0.712  0.00  0.00     0.210 C 
ENDBRANCH  13  17
BRANCH  14  19
ATOM     19  O   UNL d   1      -2.707   0.994   4.524  0.00  0.00    -0.353 OA
ATOM     20  C   UNL d   1      -4.100   0.725   4.541  0.00  0.00     0.210 C 
ENDBRANCH  14  19
ENDBRANCH   8  11
ENDBRANCH   1   8
BRANCH   2  21
ATOM     21  C   UNL d   1       2.265   4.055  -3.802  0.00  0.00     0.077 A 
ATOM     22  C   UNL d   1       3.303   3.513  -4.613  0.00  0.00     0.077 A 
ATOM     23 CL   UNL d   1       3.430   1.843  -5.058  0.00  0.00    -0.080 Cl
ATOM     24  C   UNL d   1       4.343   4.324  -5.075  0.00  0.00     0.113 A 
ATOM     25  N   UNL d   1       4.470   5.635  -4.799  0.00  0.00    -0.372 N 
ATOM     26  C   UNL d   1       3.475   6.165  -4.062  0.00  0.00     0.113 A 
ATOM     27  HN  UNL d   1       5.264   6.188  -5.124  1.00  0.00     0.164 HD
ATOM     28  C   UNL d   1       2.368   5.454  -3.583  0.00  0.00     0.077 A 
ATOM     29 CL   UNL d   1       1.123   6.437  -2.879  0.00  0.00    -0.080 Cl
ENDBRANCH   2  21
TORSDOF 5
