REMARK  4 active torsions:
REMARK  status: ('A' for Active; 'I' for Inactive)
REMARK    1  A    between atoms: C_5  and  C_9 
REMARK       I    between atoms: N_7  and  C_5 
REMARK    2  A    between atoms: C_10  and  N_7 
REMARK    3  A    between atoms: O_20  and  C_15 
REMARK    4  A    between atoms: O_21  and  C_16 
ROOT
ATOM      1  C   UNL d   1      -4.302   1.247  -0.501  0.00  0.00     0.256 C 
ATOM      2  N   UNL d   1      -4.120   2.457   0.150  0.00  0.00    -0.323 N 
ATOM      3  O   UNL d   1      -3.673   0.872  -1.488  0.00  0.00    -0.267 OA
ATOM      4  H   UNL d   1      -4.729   2.693   0.919  0.00  0.00     0.169 HD
ENDROOT
BRANCH   1   5
ATOM      5  C   UNL d   1      -5.333   0.302   0.048  0.00  0.00     0.034 A 
ATOM      6  C   UNL d   1      -6.169   0.599   1.136  0.00  0.00     0.049 A 
ATOM      7  C   UNL d   1      -7.078  -0.375   1.610  0.00  0.00     0.064 A 
ATOM      8  N   UNL d   1      -7.953  -0.227   2.680  0.00  0.00    -0.292 N 
ATOM      9  C   UNL d   1      -7.131  -1.619   0.977  0.00  0.00     0.047 A 
ATOM     10  N   UNL d   1      -8.669  -1.318   2.890  0.00  0.00    -0.061 NA
ATOM     11  HN  UNL d   1      -8.033   0.624   3.238  1.00  0.00     0.183 HD
ATOM     12  S   UNL d   1      -8.319  -2.546   1.813  0.00  0.00     0.002 SA
ATOM     13  C   UNL d   1      -6.324  -1.939  -0.117  0.00  0.00     0.023 A 
ATOM     14  C   UNL d   1      -5.430  -0.960  -0.563  0.00  0.00     0.018 A 
ENDBRANCH   1   5
BRANCH   2  15
ATOM     15  C   UNL d   1      -3.110   3.418  -0.113  0.00  0.00     0.040 A 
ATOM     16  C   UNL d   1      -2.123   3.261  -1.090  0.00  0.00     0.066 A 
ATOM     17  C   UNL d   1      -1.114   4.213  -1.249  0.00  0.00     0.073 A 
ATOM     18  C   UNL d   1      -1.109   5.356  -0.447  0.00  0.00     0.073 A 
ATOM     19  C   UNL d   1      -2.108   5.550   0.504  0.00  0.00     0.073 A 
ATOM     20  C   UNL d   1      -3.091   4.572   0.682  0.00  0.00     0.066 A 
BRANCH  17  21
ATOM     21  O   UNL d   1      -0.078   4.136  -2.143  0.00  0.00    -0.356 OA
ATOM     22  C   UNL d   1      -0.028   2.974  -2.966  0.00  0.00     0.210 C 
ENDBRANCH  17  21
BRANCH  19  23
ATOM     23  O   UNL d   1      -2.211   6.636   1.333  0.00  0.00    -0.356 OA
ATOM     24  C   UNL d   1      -1.532   7.811   0.901  0.00  0.00     0.210 C 
ENDBRANCH  19  23
ENDBRANCH   2  15
TORSDOF 4
