REMARK  4 active torsions:
REMARK  status: ('A' for Active; 'I' for Inactive)
REMARK    1  A    between atoms: C_9  and  C_5 
REMARK    2  A    between atoms: O_12  and  C_7 
REMARK    3  A    between atoms: C_21  and  O_12 
REMARK    4  A    between atoms: C_19  and  C_21 
ROOT
ATOM      1  N   UNL d   1      -1.598  -1.048  -0.022  0.00  0.00    -0.338 N 
ATOM      2  HN  UNL d   1      -1.955  -2.003  -0.022  1.00  0.00     0.167 HD
ATOM      3  C   UNL d   1      -0.332  -0.676  -0.009  0.00  0.00     0.146 A 
ATOM      4  N   UNL d   1      -0.227   0.711  -0.043  0.00  0.00    -0.315 N 
ATOM      5  C   UNL d   1      -2.339   0.110  -0.034  0.00  0.00     0.060 A 
ATOM      6  C   UNL d   1      -1.507   1.210  -0.049  0.00  0.00     0.128 A 
ATOM      7  C   UNL d   1       0.896  -1.418   0.056  0.00  0.00     0.113 A 
ATOM      8  C   UNL d   1       0.984   1.397  -0.055  0.00  0.00     0.098 A 
ATOM      9  C   UNL d   1       2.132   0.700  -0.033  0.00  0.00     0.020 A 
ATOM     10  C   UNL d   1       2.069  -0.753   0.025  0.00  0.00     0.042 A 
ENDROOT
BRANCH   7  11
ATOM     11  O   UNL d   1       0.894  -2.799   0.163  0.00  0.00    -0.343 OA
BRANCH  11  12
ATOM     12  C   UNL d   1      -0.280  -3.388   0.732  0.00  0.00     0.214 C 
BRANCH  12  13
ATOM     13  C   UNL d   1       0.032  -4.755   1.301  0.00  0.00    -0.032 A 
ATOM     14  C   UNL d   1       0.967  -5.610   0.699  0.00  0.00     0.035 A 
ATOM     15  C   UNL d   1       1.222  -6.875   1.238  0.00  0.00     0.056 A 
ATOM     16 CL   UNL d   1       2.402  -7.861   0.448  0.00  0.00    -0.083 Cl
ATOM     17  C   UNL d   1       0.532  -7.301   2.378  0.00  0.00     0.055 A 
ATOM     18  C   UNL d   1      -0.418  -6.465   2.969  0.00  0.00     0.026 A 
ATOM     19 CL   UNL d   1       0.803  -8.846   3.104  0.00  0.00    -0.083 Cl
ATOM     20  C   UNL d   1      -0.671  -5.203   2.429  0.00  0.00     0.011 A 
ENDBRANCH  12  13
ENDBRANCH  11  12
ENDBRANCH   7  11
BRANCH   5  21
ATOM     21  C   UNL d   1      -3.794   0.111  -0.013  0.00  0.00    -0.008 A 
ATOM     22  C   UNL d   1      -4.485  -1.108   0.066  0.00  0.00     0.014 A 
ATOM     23  C   UNL d   1      -5.882  -1.142   0.096  0.00  0.00     0.007 A 
ATOM     24  C   UNL d   1      -6.619   0.045   0.046  0.00  0.00    -0.062 A 
ATOM     25  C   UNL d   1      -5.936   1.263  -0.033  0.00  0.00     0.007 A 
ATOM     26  C   UNL d   1      -8.118   0.002   0.081  0.00  0.00     0.048 C 
ATOM     27  C   UNL d   1      -4.538   1.295  -0.062  0.00  0.00     0.014 A 
ENDBRANCH   5  21
TORSDOF 4
