REMARK  10 active torsions:
REMARK  status: ('A' for Active; 'I' for Inactive)
REMARK    1  A    between atoms: C_2  and  C_1 
REMARK    2  A    between atoms: C_5  and  O_14 
REMARK       I    between atoms: N_13  and  C_5 
REMARK    3  A    between atoms: C_16  and  C_6 
REMARK    4  A    between atoms: O_14  and  N_9 
REMARK    5  A    between atoms: C_11  and  C_21 
REMARK    6  A    between atoms: N_22  and  C_11 
REMARK    7  A    between atoms: C_26  and  N_13 
REMARK    8  A    between atoms: O_20  and  C_16 
REMARK    9  A    between atoms: C_24  and  O_20 
REMARK   10  A    between atoms: C_21  and  C_25 
ROOT
ATOM      1  C   UNL d   1       1.225  11.515  11.584  0.00  0.00     0.069 A 
ATOM      2  C   UNL d   1       0.512  11.932   8.861  0.00  0.00    -0.051 A 
ATOM      3  C   UNL d   1       1.668  10.642  10.590  0.00  0.00     0.037 A 
ATOM      4  C   UNL d   1       0.428  12.597  11.209  0.00  0.00     0.037 A 
ATOM      5  C   UNL d   1       0.080  12.809   9.866  0.00  0.00     0.010 A 
ATOM      6  C   UNL d   1       1.308  10.845   9.247  0.00  0.00     0.010 A 
ENDROOT
BRANCH   2   7
ATOM      7  C   UNL d   1       0.024  12.109   7.434  0.00  0.00     0.110 C 
BRANCH   7   8
ATOM      8  C   UNL d   1       1.097  12.327   6.365  0.00  0.00     0.080 C 
ATOM      9  N   UNL d   1       1.100  13.452   5.700  0.00  0.00    -0.249 N 
ATOM     10  HN  UNL d   1       0.457  14.231   5.848  1.00  0.00     0.196 HD
BRANCH   9  11
ATOM     11  O   UNL d   1       2.144  13.414   4.736  0.00  0.00    -0.180 OA
BRANCH  11  12
ATOM     12  C   UNL d   1       2.171  14.498   3.876  0.00  0.00     0.387 C 
ATOM     13  N   UNL d   1       1.145  15.393   4.064  0.00  0.00    -0.301 N 
ATOM     14  H   UNL d   1       0.516  15.100   4.803  0.00  0.00     0.171 HD
ATOM     15  O   UNL d   1       3.055  14.568   3.028  0.00  0.00    -0.236 OA
BRANCH  13  16
ATOM     16  C   UNL d   1       0.910  16.604   3.385  0.00  0.00     0.036 A 
ATOM     17  C   UNL d   1       1.761  17.123   2.405  0.00  0.00     0.029 A 
ATOM     18  C   UNL d   1       1.478  18.348   1.790  0.00  0.00     0.002 A 
ATOM     19  C   UNL d   1       0.341  19.065   2.145  0.00  0.00     0.000 A 
ATOM     20  C   UNL d   1      -0.518  18.555   3.113  0.00  0.00     0.002 A 
ATOM     21  C   UNL d   1      -0.234  17.331   3.732  0.00  0.00     0.029 A 
ENDBRANCH  13  16
ENDBRANCH  11  12
ENDBRANCH   9  11
BRANCH   8  22
ATOM     22  N   UNL d   1       1.967  11.294   6.093  0.00  0.00    -0.290 NA
ATOM     23  H   UNL d   1       2.479  11.415   5.225  0.00  0.00     0.125 HD
ATOM     24  H   UNL d   1       1.621  10.352   6.227  0.00  0.00     0.125 HD
ENDBRANCH   8  22
ENDBRANCH   7   8
ENDBRANCH   2   7
BRANCH   1  25
ATOM     25  O   UNL d   1       1.479  11.412  12.930  0.00  0.00    -0.345 OA
BRANCH  25  26
ATOM     26  C   UNL d   1       2.405  10.399  13.331  0.00  0.00     0.234 C 
BRANCH  26  27
ATOM     27  C   UNL d   1       2.556  10.297  14.838  0.00  0.00     0.055 A 
ATOM     28  N   UNL d   1       3.835  10.388  15.313  0.00  0.00    -0.365 N 
ATOM     29  C   UNL d   1       4.048  10.174  16.634  0.00  0.00     0.104 A 
ATOM     30  HN  UNL d   1       4.610  10.612  14.689  1.00  0.00     0.165 HD
ATOM     31  C   UNL d   1       3.046   9.861  17.537  0.00  0.00     0.064 A 
ATOM     32  C   UNL d   1       1.739   9.782  17.043  0.00  0.00     0.043 A 
ATOM     33  C   UNL d   1       1.486   9.994  15.684  0.00  0.00     0.059 A 
ATOM     34 CL   UNL d   1      -0.132   9.803  15.124  0.00  0.00    -0.082 Cl
BRANCH  31  35
ATOM     35  C   UNL d   1       3.394   9.585  18.967  0.00  0.00     0.418 C 
ATOM     36  F   UNL d   1       2.310   9.347  19.755  0.00  0.00    -0.166 F 
ATOM     37  F   UNL d   1       4.063  10.615  19.552  0.00  0.00    -0.166 F 
ATOM     38  F   UNL d   1       4.198   8.494  19.101  0.00  0.00    -0.166 F 
ENDBRANCH  31  35
ENDBRANCH  26  27
ENDBRANCH  25  26
ENDBRANCH   1  25
TORSDOF 10
