REMARK  6 active torsions:
REMARK  status: ('A' for Active; 'I' for Inactive)
REMARK    1  A    between atoms: N_2  and  C_1 
REMARK    2  A    between atoms: C_3  and  C_1 
REMARK    3  A    between atoms: C_4  and  C_1 
REMARK    4  A    between atoms: N_5  and  C_1 
REMARK       I    between atoms: C_6  and  N_2 
REMARK    5  A    between atoms: C_7  and  N_5 
REMARK    6  A    between atoms: C_8  and  C_6 
ROOT
ATOM      1  C   UNL d   1       0.939  -0.077   0.006  0.00  0.00     0.306 C 
ENDROOT
BRANCH   1   2
ATOM      2  N   UNL d   1       0.758  -1.315  -0.759  0.00  0.00    -0.315 N 
ATOM      3  C   UNL d   1      -0.372  -1.619  -1.462  0.00  0.00     0.254 C 
ATOM      4  O   UNL d   1      -1.266  -0.799  -1.621  0.00  0.00    -0.268 OA
ATOM      5  H   UNL d   1       1.483  -1.993  -0.610  0.00  0.00     0.165 HD
BRANCH   3   6
ATOM      6  C   UNL d   1      -0.461  -2.998  -2.034  0.00  0.00     0.032 A 
ATOM      7  C   UNL d   1       0.342  -4.054  -1.582  0.00  0.00     0.017 A 
ATOM      8  C   UNL d   1       0.186  -5.338  -2.110  0.00  0.00     0.007 A 
ATOM      9  C   UNL d   1      -0.779  -5.592  -3.089  0.00  0.00    -0.062 A 
ATOM     10  C   UNL d   1      -1.569  -4.535  -3.555  0.00  0.00     0.007 A 
ATOM     11  C   UNL d   1      -0.965  -6.990  -3.599  0.00  0.00     0.048 C 
ATOM     12  C   UNL d   1      -1.413  -3.247  -3.030  0.00  0.00     0.017 A 
ENDBRANCH   3   6
ENDBRANCH   1   2
BRANCH   1  13
ATOM     13  C   UNL d   1       0.010   0.129   1.257  0.00  0.00     0.441 C 
ATOM     14  F   UNL d   1      -0.765  -0.957   1.506  0.00  0.00    -0.166 F 
ATOM     15  F   UNL d   1       0.744   0.330   2.387  0.00  0.00    -0.166 F 
ATOM     16  F   UNL d   1      -0.822   1.190   1.185  0.00  0.00    -0.166 F 
ENDBRANCH   1  13
BRANCH   1  17
ATOM     17  C   UNL d   1       0.741   1.230  -0.841  0.00  0.00     0.441 C 
ATOM     18  F   UNL d   1       1.318   1.108  -2.068  0.00  0.00    -0.166 F 
ATOM     19  F   UNL d   1      -0.524   1.637  -1.038  0.00  0.00    -0.166 F 
ATOM     20  F   UNL d   1       1.401   2.260  -0.233  0.00  0.00    -0.166 F 
ENDBRANCH   1  17
BRANCH   1  21
ATOM     21  N   UNL d   1       2.424  -0.194   0.350  0.00  0.00    -0.346 N 
ATOM     22  H   UNL d   1       2.837   0.744   0.406  0.00  0.00     0.163 HD
BRANCH  21  23
ATOM     23  C   UNL d   1       3.012  -1.046   1.287  0.00  0.00     0.069 A 
ATOM     24  C   UNL d   1       2.428  -2.203   1.833  0.00  0.00     0.142 A 
ATOM     25  F   UNL d   1       1.176  -2.546   1.521  0.00  0.00    -0.204 F 
ATOM     26  C   UNL d   1       3.127  -3.053   2.696  0.00  0.00     0.044 A 
ATOM     27  C   UNL d   1       4.450  -2.782   3.017  0.00  0.00     0.003 A 
ATOM     28  C   UNL d   1       5.071  -1.667   2.464  0.00  0.00     0.002 A 
ATOM     29  C   UNL d   1       4.362  -0.821   1.604  0.00  0.00     0.032 A 
ENDBRANCH  21  23
ENDBRANCH   1  21
TORSDOF 6
