REMARK  5 active torsions:
REMARK  status: ('A' for Active; 'I' for Inactive)
REMARK    1  A    between atoms: C_8  and  N_3 
REMARK    2  A    between atoms: N_16  and  C_4 
REMARK    3  A    between atoms: S_17  and  C_7 
REMARK    4  A    between atoms: C_9  and  C_11 
REMARK    5  A    between atoms: C_10  and  C_12 
ROOT
ATOM      1  C   UNL d   1       1.997   1.527  -0.042  0.00  0.00     0.061 A 
ATOM      2  C   UNL d   1       4.013   2.278  -1.184  0.00  0.00     0.051 A 
ATOM      3  C   UNL d   1       3.164   3.510   0.757  0.00  0.00     0.051 A 
ATOM      4  C   UNL d   1       2.957   1.363  -1.050  0.00  0.00     0.048 A 
ATOM      5  C   UNL d   1       2.085   2.616   0.838  0.00  0.00     0.048 A 
ATOM      6  C   UNL d   1       4.118   3.333  -0.262  0.00  0.00     0.032 A 
ENDROOT
BRANCH   1   7
ATOM      7  N   UNL d   1       0.908   0.625   0.069  0.00  0.00    -0.228 N 
ATOM      8  C   UNL d   1       0.819  -0.715  -0.309  0.00  0.00     0.179 C 
ATOM      9  N   UNL d   1      -0.429  -1.107  -0.229  0.00  0.00    -0.311 N 
ATOM     10  C   UNL d   1      -1.066  -0.015   0.286  0.00  0.00     0.161 C 
ATOM     11  HN  UNL d   1      -0.829  -2.010  -0.488  1.00  0.00     0.170 HD
ATOM     12  N   UNL d   1      -0.282   1.023   0.578  0.00  0.00    -0.270 N 
ATOM     13  HN  UNL d   1      -0.517   1.891   1.059  1.00  0.00     0.190 HD
BRANCH   8  14
ATOM     14  N   UNL d   1       1.872  -1.507  -0.621  0.00  0.00    -0.272 NA
ATOM     15  H   UNL d   1       2.770  -1.317  -0.186  0.00  0.00     0.127 HD
ATOM     16  H   UNL d   1       1.663  -2.503  -0.616  0.00  0.00     0.127 HD
ENDBRANCH   8  14
BRANCH  10  17
ATOM     17  S   UNL d   1      -2.784   0.059   0.565  0.00  0.00    -0.097 SA
ATOM     18  C   UNL d   1      -3.298  -1.551  -0.067  0.00  0.00     0.099 C 
ENDBRANCH  10  17
ENDBRANCH   1   7
BRANCH   2  19
ATOM     19  C   UNL d   1       5.011   2.157  -2.313  0.00  0.00     0.417 C 
ATOM     20  F   UNL d   1       4.752   1.122  -3.158  0.00  0.00    -0.166 F 
ATOM     21  F   UNL d   1       5.053   3.275  -3.089  0.00  0.00    -0.166 F 
ATOM     22  F   UNL d   1       6.280   1.963  -1.860  0.00  0.00    -0.166 F 
ENDBRANCH   2  19
BRANCH   3  23
ATOM     23  C   UNL d   1       3.320   4.643   1.745  0.00  0.00     0.417 C 
ATOM     24  F   UNL d   1       2.328   4.703   2.673  0.00  0.00    -0.166 F 
ATOM     25  F   UNL d   1       4.485   4.550   2.447  0.00  0.00    -0.166 F 
ATOM     26  F   UNL d   1       3.347   5.861   1.138  0.00  0.00    -0.166 F 
ENDBRANCH   3  23
TORSDOF 5
