REMARK  7 active torsions:
REMARK  status: ('A' for Active; 'I' for Inactive)
REMARK    1  A    between atoms: N_5  and  C_1 
REMARK    2  A    between atoms: O_10  and  C_2 
REMARK    3  A    between atoms: C_8  and  N_5 
REMARK    4  A    between atoms: C_16  and  O_10 
REMARK    5  A    between atoms: O_12  and  C_11 
REMARK    6  A    between atoms: C_18  and  C_16 
REMARK    7  A    between atoms: C_19  and  C_18 
ROOT
ATOM      1  C   UNL d   1       0.610  -1.398  -0.105  0.00  0.00     0.125 A 
ATOM      2  C   UNL d   1      -0.766  -1.411  -0.093  0.00  0.00     0.154 A 
ATOM      3  C   UNL d   1       0.640   0.087  -0.068  0.00  0.00     0.254 A 
ATOM      4  C   UNL d   1      -0.831   0.065  -0.030  0.00  0.00     0.259 A 
ATOM      5  O   UNL d   1       1.413   1.015  -0.071  0.00  0.00    -0.281 OA
ATOM      6  O   UNL d   1      -1.661   0.941   0.016  0.00  0.00    -0.281 OA
ENDROOT
BRANCH   1   7
ATOM      7  N   UNL d   1       1.575  -2.295  -0.184  0.00  0.00    -0.350 N 
ATOM      8  H   UNL d   1       1.330  -3.275  -0.330  0.00  0.00     0.166 HD
BRANCH   7   9
ATOM      9  C   UNL d   1       2.979  -2.115  -0.168  0.00  0.00     0.035 A 
ATOM     10  C   UNL d   1       3.597  -1.043   0.490  0.00  0.00     0.066 A 
ATOM     11  C   UNL d   1       4.974  -0.822   0.397  0.00  0.00     0.070 A 
ATOM     12  C   UNL d   1       5.755  -1.696  -0.357  0.00  0.00     0.037 A 
ATOM     13  C   UNL d   1       5.167  -2.778  -1.008  0.00  0.00     0.005 A 
ATOM     14  C   UNL d   1       3.787  -2.982  -0.916  0.00  0.00     0.029 A 
BRANCH  11  15
ATOM     15  O   UNL d   1       5.659   0.202   0.997  0.00  0.00    -0.356 OA
ATOM     16  C   UNL d   1       4.878   1.156   1.710  0.00  0.00     0.210 C 
ENDBRANCH  11  15
ENDBRANCH   7   9
ENDBRANCH   1   7
BRANCH   2  17
ATOM     17  O   UNL d   1      -1.632  -2.363  -0.131  0.00  0.00    -0.345 OA
BRANCH  17  18
ATOM     18  C   UNL d   1      -2.927  -1.888  -0.513  0.00  0.00     0.176 C 
BRANCH  18  19
ATOM     19  C   UNL d   1      -3.933  -3.032  -0.423  0.00  0.00     0.026 C 
BRANCH  19  20
ATOM     20  C   UNL d   1      -5.294  -2.602  -0.969  0.00  0.00    -0.002 C 
ATOM     21  C   UNL d   1      -6.320  -3.718  -0.873  0.00  0.00     0.005 C 
ENDBRANCH  19  20
ENDBRANCH  18  19
ENDBRANCH  17  18
ENDBRANCH   2  17
TORSDOF 7
