REMARK  2 active torsions:
REMARK  status: ('A' for Active; 'I' for Inactive)
REMARK    1  A    between atoms: C_3  and  CA_2 
REMARK    2  A    between atoms: OXT_8  and  C_3 
ROOT
ATOM      1  N   UNL d   1       1.582   1.135  -0.099  0.00  0.00    -0.278 NA
ATOM      2  CA  UNL d   1       2.451  -0.046   0.163  0.00  0.00     0.162 C 
ATOM      3  C   UNL d   1       0.272   0.633  -0.044  0.00  0.00     0.015 A 
ATOM      4  C   UNL d   1       1.615  -1.314  -0.117  0.00  0.00     0.071 C 
ATOM      5  C   UNL d   1       0.226  -0.762  -0.055  0.00  0.00    -0.035 A 
ATOM      6  C   UNL d   1      -0.886   1.384  -0.047  0.00  0.00     0.024 A 
ATOM      7  C   UNL d   1      -0.979  -1.442  -0.015  0.00  0.00     0.009 A 
ATOM      8  C   UNL d   1      -2.155  -0.691   0.025  0.00  0.00     0.001 A 
ATOM      9  C   UNL d   1      -2.110   0.713   0.002  0.00  0.00     0.002 A 
ATOM     10  H   UNL d   1       1.756   1.966   0.461  0.00  0.00     0.128 HD
ENDROOT
BRANCH   2  11
ATOM     11  C   UNL d   1       2.979  -0.052   1.602  0.00  0.00     0.158 C 
ATOM     12  O   UNL d   1       4.155  -0.240   1.894  0.00  0.00    -0.649 OA
BRANCH  11  13
ATOM     13  OXT UNL d   1       2.039   0.165   2.555  0.00  0.00    -0.775 OA
ATOM     14  HXT UNL d   1       1.145   0.286   2.177  0.00  0.00     0.167 HD
ENDBRANCH  11  13
ENDBRANCH   2  11
TORSDOF 2
