REMARK  5 active torsions:
REMARK  status: ('A' for Active; 'I' for Inactive)
REMARK    1  A    between atoms: N_5  and  C_1 
REMARK    2  A    between atoms: C_4  and  C_8 
REMARK    3  A    between atoms: C_6  and  C_14 
REMARK       I    between atoms: N_7  and  C_6 
REMARK    4  A    between atoms: C_10  and  N_7 
REMARK    5  A    between atoms: N_9  and  C_11 
ROOT
ATOM      1  N   UNL d   1       1.773   6.620  -1.373  0.00  0.00    -0.218 N 
ATOM      2  C   UNL d   1      -0.238   5.007  -0.096  0.00  0.00     0.081 C 
ATOM      3  C   UNL d   1       0.934   5.782  -2.227  0.00  0.00     0.142 C 
ATOM      4  C   UNL d   1       1.129   7.143  -0.171  0.00  0.00     0.142 C 
ATOM      5  C   UNL d   1       0.660   5.968   0.692  0.00  0.00     0.034 C 
ATOM      6  C   UNL d   1       0.416   4.591  -1.414  0.00  0.00     0.034 C 
ENDROOT
BRANCH   2   7
ATOM      7  C   UNL d   1      -1.597   5.656  -0.321  0.00  0.00     0.226 C 
ATOM      8  N   UNL d   1      -2.425   5.546   0.775  0.00  0.00    -0.325 N 
ATOM      9  H   UNL d   1      -2.334   4.691   1.301  0.00  0.00     0.169 HD
ATOM     10  O   UNL d   1      -1.886   6.231  -1.370  0.00  0.00    -0.273 OA
BRANCH   8  11
ATOM     11  C   UNL d   1      -3.690   6.162   0.882  0.00  0.00     0.061 A 
ATOM     12  C   UNL d   1      -4.736   5.451   1.526  0.00  0.00     0.057 A 
ATOM     13  C   UNL d   1      -6.005   6.057   1.524  0.00  0.00     0.031 A 
ATOM     14  C   UNL d   1      -6.236   7.295   0.914  0.00  0.00     0.002 A 
ATOM     15  C   UNL d   1      -5.190   7.979   0.307  0.00  0.00     0.002 A 
ATOM     16  C   UNL d   1      -3.916   7.420   0.304  0.00  0.00     0.032 A 
BRANCH  12  17
ATOM     17  N   UNL d   1      -4.539   4.142   1.975  0.00  0.00    -0.375 N 
ATOM     18  C   UNL d   1      -5.677   3.200   1.916  0.00  0.00     0.149 C 
ATOM     19  C   UNL d   1      -5.123   1.765   1.868  0.00  0.00     0.187 C 
ATOM     20  O   UNL d   1      -4.243   1.490   2.974  0.00  0.00    -0.388 OA
ATOM     21  C   UNL d   1      -3.162   2.440   3.017  0.00  0.00     0.187 C 
ATOM     22  C   UNL d   1      -3.696   3.881   3.160  0.00  0.00     0.149 C 
ENDBRANCH  12  17
ENDBRANCH   8  11
ENDBRANCH   2   7
BRANCH   1  23
ATOM     23  C   UNL d   1       2.561   7.527  -2.078  0.00  0.00     0.680 A 
ATOM     24  N   UNL d   1       2.925   8.680  -1.495  0.00  0.00    -0.186 N 
ATOM     25  C   UNL d   1       3.758   9.519  -2.164  0.00  0.00     0.133 A 
ATOM     26  HN  UNL d   1       2.581   8.922  -0.566  1.00  0.00     0.184 HD
ATOM     27  C   UNL d   1       4.254   9.209  -3.415  0.00  0.00     0.052 A 
ATOM     28  C   UNL d   1       3.833   8.018  -3.941  0.00  0.00     0.108 A 
ATOM     29  N   UNL d   1       3.000   7.183  -3.299  0.00  0.00    -0.202 N 
ATOM     30  HN  UNL d   1       2.708   6.305  -3.730  1.00  0.00     0.183 HD
BRANCH  25  31
ATOM     31  C   UNL d   1       4.185  10.819  -1.509  0.00  0.00     0.433 C 
ATOM     32  F   UNL d   1       3.513  11.122  -0.363  0.00  0.00    -0.165 F 
ATOM     33  F   UNL d   1       5.509  10.825  -1.179  0.00  0.00    -0.165 F 
ATOM     34  F   UNL d   1       4.013  11.896  -2.333  0.00  0.00    -0.165 F 
ENDBRANCH  25  31
ENDBRANCH   1  23
TORSDOF 5
