REMARK  3 active torsions:
REMARK  status: ('A' for Active; 'I' for Inactive)
REMARK    1  A    between atoms: C_11  and  C_2 
REMARK    2  A    between atoms: C_13  and  C_10 
REMARK    3  A    between atoms: C_14  and  C_12 
ROOT
ATOM      1  N   UNL d   1       0.312   0.627   0.026  0.00  0.00    -0.235 N 
ATOM      2  C   UNL d   1      -0.805   1.452   0.018  0.00  0.00     0.144 A 
ATOM      3  C   UNL d   1       0.160  -0.764   0.026  0.00  0.00     0.130 A 
ATOM      4  N   UNL d   1       1.622   0.965   0.042  0.00  0.00    -0.291 N 
ATOM      5  HN  UNL d   1       2.011   1.907   0.077  1.00  0.00     0.187 HD
ATOM      6  N   UNL d   1      -1.059  -1.372   0.058  0.00  0.00    -0.340 N 
ATOM      7  HN  UNL d   1      -1.148  -2.388   0.085  1.00  0.00     0.167 HD
ATOM      8  C   UNL d   1      -2.036   0.900   0.021  0.00  0.00     0.067 A 
ATOM      9  C   UNL d   1       1.426  -1.291  -0.007  0.00  0.00     0.082 A 
ATOM     10  C   UNL d   1       2.303  -0.184   0.003  0.00  0.00     0.062 A 
ATOM     11  C   UNL d   1      -2.104  -0.596   0.051  0.00  0.00     0.046 A 
ENDROOT
BRANCH  10  12
ATOM     12  C   UNL d   1       3.764  -0.209  -0.004  0.00  0.00    -0.008 A 
ATOM     13  C   UNL d   1       4.496   0.810   0.626  0.00  0.00     0.015 A 
ATOM     14  C   UNL d   1       5.893   0.762   0.659  0.00  0.00     0.024 A 
ATOM     15  C   UNL d   1       6.563  -0.297   0.051  0.00  0.00     0.034 A 
ATOM     16  C   UNL d   1       5.851  -1.302  -0.598  0.00  0.00     0.024 A 
ATOM     17 CL   UNL d   1       8.281  -0.369   0.106  0.00  0.00    -0.084 Cl
ATOM     18  C   UNL d   1       4.454  -1.259  -0.625  0.00  0.00     0.015 A 
ENDBRANCH  10  12
BRANCH   2  19
ATOM     19  C   UNL d   1      -0.615   2.923   0.016  0.00  0.00     0.434 C 
ATOM     20  F   UNL d   1       0.658   3.379   0.004  0.00  0.00    -0.165 F 
ATOM     21  F   UNL d   1      -1.230   3.480  -1.065  0.00  0.00    -0.165 F 
ATOM     22  F   UNL d   1      -1.211   3.482   1.105  0.00  0.00    -0.165 F 
ENDBRANCH   2  19
BRANCH  11  23
ATOM     23  C   UNL d   1      -3.461  -1.213   0.117  0.00  0.00    -0.009 A 
ATOM     24  C   UNL d   1      -3.617  -2.413   0.827  0.00  0.00     0.015 A 
ATOM     25  C   UNL d   1      -4.874  -3.014   0.932  0.00  0.00     0.024 A 
ATOM     26  C   UNL d   1      -5.976  -2.421   0.320  0.00  0.00     0.034 A 
ATOM     27  C   UNL d   1      -5.829  -1.239  -0.405  0.00  0.00     0.024 A 
ATOM     28 CL   UNL d   1      -7.526  -3.152   0.454  0.00  0.00    -0.084 Cl
ATOM     29  C   UNL d   1      -4.571  -0.637  -0.513  0.00  0.00     0.015 A 
ENDBRANCH  11  23
TORSDOF 3
