REMARK  7 active torsions:
REMARK  status: ('A' for Active; 'I' for Inactive)
REMARK    1  A    between atoms: N_2  and  C_1 
REMARK    2  A    between atoms: N_3  and  C_1 
REMARK    3  A    between atoms: C_7  and  N_2 
REMARK    4  A    between atoms: C_18  and  N_2 
REMARK    5  A    between atoms: C_9  and  N_3 
REMARK    6  A    between atoms: C_11  and  C_7 
REMARK    7  A    between atoms: C_10  and  C_18 
ROOT
ATOM      1  N   UNL d   1       3.132   4.881   1.263  0.00  0.00    -0.197 NA
ATOM      2  C   UNL d   1       2.618   3.972   0.767  0.00  0.00     0.060 C 
ATOM      3  C   UNL d   1       1.945   2.823   0.155  0.00  0.00     0.143 C 
ENDROOT
BRANCH   3   4
ATOM      4  C   UNL d   1       1.322   1.946   1.244  0.00  0.00     0.139 C 
BRANCH   4   5
ATOM      5  N   UNL d   1       0.394   0.929   0.711  0.00  0.00    -0.355 N 
BRANCH   5   6
ATOM      6  C   UNL d   1       0.859  -0.205  -0.002  0.00  0.00     0.174 C 
ATOM      7  S   UNL d   1       2.486  -0.581  -0.241  0.00  0.00    -0.041 SA
BRANCH   6   8
ATOM      8  N   UNL d   1      -0.178  -1.027  -0.445  0.00  0.00    -0.333 N 
ATOM      9  H   UNL d   1      -0.668  -1.373   0.381  0.00  0.00     0.168 HD
BRANCH   8  10
ATOM     10  C   UNL d   1      -0.024  -1.993  -1.467  0.00  0.00     0.034 A 
ATOM     11  C   UNL d   1       0.026  -3.346  -1.128  0.00  0.00     0.032 A 
ATOM     12  C   UNL d   1       0.107  -4.311  -2.134  0.00  0.00     0.044 A 
ATOM     13  C   UNL d   1       0.089  -3.917  -3.467  0.00  0.00     0.116 A 
ATOM     14  C   UNL d   1       0.029  -2.571  -3.817  0.00  0.00     0.044 A 
ATOM     15  F   UNL d   1       0.120  -4.848  -4.429  0.00  0.00    -0.206 F 
ATOM     16  C   UNL d   1      -0.009  -1.601  -2.808  0.00  0.00     0.032 A 
ENDBRANCH   8  10
ENDBRANCH   6   8
ENDBRANCH   5   6
BRANCH   5  17
ATOM     17  C   UNL d   1      -1.050   1.190   0.925  0.00  0.00     0.157 C 
BRANCH  17  18
ATOM     18  C   UNL d   1      -1.637   0.582   2.218  0.00  0.00     0.139 C 
ATOM     19  O   UNL d   1      -1.173  -0.762   2.436  0.00  0.00    -0.384 OA
ATOM     20  C   UNL d   1      -1.221  -0.997   3.849  0.00  0.00     0.168 C 
ATOM     21  C   UNL d   1      -0.960   0.332   4.519  0.00  0.00     0.029 C 
ATOM     22  C   UNL d   1      -1.384   1.365   3.501  0.00  0.00     0.035 C 
ENDBRANCH  17  18
ENDBRANCH   5  17
ENDBRANCH   4   5
ENDBRANCH   3   4
TORSDOF 7
