REMARK  5 active torsions:
REMARK  status: ('A' for Active; 'I' for Inactive)
REMARK       I    between atoms: C_2  and  N_1 
REMARK    1  A    between atoms: C_8  and  C_2 
REMARK    2  A    between atoms: C_5  and  C_3 
REMARK    3  A    between atoms: C_6  and  C_5 
REMARK       I    between atoms: N_9  and  C_6 
REMARK    4  A    between atoms: C_16  and  N_9 
REMARK    5  A    between atoms: O_27  and  C_19 
ROOT
ATOM      1  N   UNL d   1      -1.473  -1.173   0.320  0.00  0.00    -0.333 N 
ATOM      2  C   UNL d   1      -2.300  -2.090   0.976  0.00  0.00     0.254 C 
ATOM      3  C   UNL d   1       0.024  -1.226   0.417  0.00  0.00     0.188 C 
ATOM      4  C   UNL d   1       0.581   0.028   1.150  0.00  0.00     0.241 C 
ATOM      5  N   UNL d   1      -0.067   1.222   0.933  0.00  0.00    -0.358 N 
ATOM      6  O   UNL d   1      -1.868  -3.002   1.685  0.00  0.00    -0.267 OA
ATOM      7  O   UNL d   1       1.651   0.055   1.754  0.00  0.00    -0.271 OA
ATOM      8  C   UNL d   1      -1.939   0.106  -0.248  0.00  0.00     0.147 C 
ATOM      9  C   UNL d   1      -1.470   1.284   0.603  0.00  0.00     0.142 C 
ATOM     10  H   UNL d   1       0.351   1.995   1.434  0.00  0.00     0.162 HD
ENDROOT
BRANCH   3  11
ATOM     11  C   UNL d   1       0.724  -2.475   0.970  0.00  0.00     0.138 C 
BRANCH  11  12
ATOM     12  C   UNL d   1       0.691  -3.622  -0.012  0.00  0.00     0.224 C 
ATOM     13  N   UNL d   1      -0.144  -4.652   0.375  0.00  0.00    -0.327 N 
ATOM     14  H   UNL d   1      -0.793  -4.425   1.131  0.00  0.00     0.169 HD
ATOM     15  O   UNL d   1       1.364  -3.574  -1.039  0.00  0.00    -0.273 OA
BRANCH  13  16
ATOM     16  C   UNL d   1      -0.347  -5.877  -0.291  0.00  0.00     0.034 A 
ATOM     17  C   UNL d   1       0.450  -6.320  -1.348  0.00  0.00     0.032 A 
ATOM     18  C   UNL d   1       0.141  -7.503  -2.028  0.00  0.00     0.039 A 
ATOM     19  C   UNL d   1      -0.970  -8.255  -1.654  0.00  0.00     0.068 A 
ATOM     20  C   UNL d   1      -1.715  -7.870  -0.541  0.00  0.00     0.039 A 
ATOM     21  C   UNL d   1      -1.409  -6.683   0.135  0.00  0.00     0.032 A 
BRANCH  19  22
ATOM     22  O   UNL d   1      -1.372  -9.395  -2.294  0.00  0.00    -0.356 OA
ATOM     23  C   UNL d   1      -1.272  -9.318  -3.717  0.00  0.00     0.210 C 
ENDBRANCH  19  22
ENDBRANCH  13  16
ENDBRANCH  11  12
ENDBRANCH   3  11
BRANCH   2  24
ATOM     24  C   UNL d   1      -3.786  -2.031   0.847  0.00  0.00     0.032 A 
ATOM     25  C   UNL d   1      -4.435  -1.735  -0.357  0.00  0.00     0.018 A 
ATOM     26  C   UNL d   1      -5.831  -1.640  -0.404  0.00  0.00     0.025 A 
ATOM     27  C   UNL d   1      -6.586  -1.934   0.730  0.00  0.00     0.034 A 
ATOM     28  C   UNL d   1      -5.958  -2.330   1.908  0.00  0.00     0.025 A 
ATOM     29 CL   UNL d   1      -8.301  -1.823   0.666  0.00  0.00    -0.084 Cl
ATOM     30  C   UNL d   1      -4.560  -2.371   1.968  0.00  0.00     0.018 A 
ENDBRANCH   2  24
TORSDOF 5
