REMARK  8 active torsions:
REMARK  status: ('A' for Active; 'I' for Inactive)
REMARK    1  A    between atoms: N_2  and  C_1 
REMARK    2  A    between atoms: C_3  and  C_1 
REMARK    3  A    between atoms: C_5  and  C_1 
REMARK    4  A    between atoms: N_6  and  C_1 
REMARK       I    between atoms: C_4  and  N_2 
REMARK    5  A    between atoms: C_7  and  C_4 
REMARK    6  A    between atoms: O_21  and  C_5 
REMARK    7  A    between atoms: C_10  and  N_6 
REMARK    8  A    between atoms: C_28  and  O_21 
ROOT
ATOM      1  C   UNL d   1       0.827  -0.070   0.037  0.00  0.00     0.297 C 
ENDROOT
BRANCH   1   2
ATOM      2  N   UNL d   1       0.348  -1.256  -0.692  0.00  0.00    -0.315 N 
ATOM      3  C   UNL d   1       0.193  -2.488  -0.115  0.00  0.00     0.254 C 
ATOM      4  O   UNL d   1       0.465  -2.727   1.052  0.00  0.00    -0.268 OA
ATOM      5  H   UNL d   1      -0.107  -1.072  -1.579  0.00  0.00     0.166 HD
BRANCH   3   6
ATOM      6  C   UNL d   1      -0.384  -3.529  -1.006  0.00  0.00     0.033 A 
ATOM      7  C   UNL d   1       0.037  -3.640  -2.337  0.00  0.00     0.041 A 
ATOM      8  C   UNL d   1      -0.531  -4.612  -3.159  0.00  0.00     0.035 A 
ATOM      9 CL   UNL d   1      -0.013  -4.750  -4.794  0.00  0.00    -0.084 Cl
ATOM     10  C   UNL d   1      -1.514  -5.472  -2.669  0.00  0.00     0.024 A 
ATOM     11  C   UNL d   1      -1.926  -5.367  -1.339  0.00  0.00     0.003 A 
ATOM     12  C   UNL d   1      -1.357  -4.401  -0.504  0.00  0.00     0.017 A 
ENDBRANCH   3   6
ENDBRANCH   1   2
BRANCH   1  13
ATOM     13  C   UNL d   1       0.146   0.208   1.430  0.00  0.00     0.442 C 
ATOM     14  F   UNL d   1      -1.012  -0.475   1.595  0.00  0.00    -0.166 F 
ATOM     15  F   UNL d   1       0.971  -0.132   2.457  0.00  0.00    -0.166 F 
ATOM     16  F   UNL d   1      -0.164   1.516   1.621  0.00  0.00    -0.166 F 
ENDBRANCH   1  13
BRANCH   1  17
ATOM     17  C   UNL d   1       0.408   1.166  -0.798  0.00  0.00     0.318 C 
ATOM     18  O   UNL d   1      -0.538   1.147  -1.579  0.00  0.00    -0.260 OA
BRANCH  17  19
ATOM     19  O   UNL d   1       1.228   2.237  -0.601  0.00  0.00    -0.318 OA
BRANCH  19  20
ATOM     20  C   UNL d   1       0.952   3.401  -1.390  0.00  0.00     0.174 C 
ATOM     21  C   UNL d   1       1.500   3.244  -2.797  0.00  0.00     0.034 C 
ENDBRANCH  19  20
ENDBRANCH  17  19
ENDBRANCH   1  17
BRANCH   1  22
ATOM     22  N   UNL d   1       2.310  -0.202   0.121  0.00  0.00    -0.348 N 
ATOM     23  H   UNL d   1       2.593  -0.700   0.966  0.00  0.00     0.163 HD
BRANCH  22  24
ATOM     24  C   UNL d   1       3.218  -0.273  -0.921  0.00  0.00     0.032 A 
ATOM     25  C   UNL d   1       2.873  -0.232  -2.278  0.00  0.00     0.056 A 
ATOM     26  C   UNL d   1       3.852  -0.225  -3.278  0.00  0.00     0.074 A 
ATOM     27 CL   UNL d   1       3.361  -0.204  -4.929  0.00  0.00    -0.081 Cl
ATOM     28  C   UNL d   1       5.197  -0.224  -2.936  0.00  0.00     0.138 A 
ATOM     29  C   UNL d   1       5.572  -0.229  -1.601  0.00  0.00     0.046 A 
ATOM     30  F   UNL d   1       6.148  -0.204  -3.880  0.00  0.00    -0.204 F 
ATOM     31  C   UNL d   1       4.588  -0.251  -0.605  0.00  0.00     0.032 A 
ENDBRANCH  22  24
ENDBRANCH   1  22
TORSDOF 8
