REMARK  6 active torsions:
REMARK  status: ('A' for Active; 'I' for Inactive)
REMARK    1  A    between atoms: C_2  and  C_1 
REMARK       I    between atoms: N_4  and  C_1 
REMARK    2  A    between atoms: O_6  and  C_3 
REMARK    3  A    between atoms: C_5  and  C_12 
REMARK    4  A    between atoms: O_17  and  C_5 
REMARK    5  A    between atoms: C_16  and  O_6 
REMARK    6  A    between atoms: C_20  and  O_17 
ROOT
ATOM      1  C   UNL d   1       0.832   0.304  -1.690  0.00  0.00     0.083 A 
ATOM      2  C   UNL d   1      -0.197   0.826  -2.469  0.00  0.00     0.163 A 
ATOM      3  N   UNL d   1       0.035   1.415  -3.670  0.00  0.00    -0.346 N 
ATOM      4  HN  UNL d   1      -0.734   1.763  -4.241  1.00  0.00     0.167 HD
ATOM      5  C   UNL d   1       2.151   0.472  -2.131  0.00  0.00     0.023 A 
ATOM      6  C   UNL d   1       1.316   1.525  -4.086  0.00  0.00     0.090 A 
ATOM      7  C   UNL d   1       2.401   1.087  -3.351  0.00  0.00     0.018 A 
ENDROOT
BRANCH   1   8
ATOM      8  C   UNL d   1       0.659  -0.335  -0.372  0.00  0.00     0.258 C 
ATOM      9  N   UNL d   1      -0.070  -1.519  -0.235  0.00  0.00    -0.348 N 
ATOM     10  C   UNL d   1      -0.774  -2.221  -1.303  0.00  0.00     0.127 C 
ATOM     11  C   UNL d   1       0.150  -2.312   0.978  0.00  0.00     0.127 C 
ATOM     12  C   UNL d   1      -2.119  -2.744  -0.788  0.00  0.00     0.034 C 
ATOM     13  C   UNL d   1      -1.946  -3.644   0.446  0.00  0.00     0.088 C 
ATOM     14  C   UNL d   1      -1.153  -2.892   1.524  0.00  0.00     0.034 C 
ATOM     15  O   UNL d   1       1.287   0.169   0.556  0.00  0.00    -0.267 OA
BRANCH  13  16
ATOM     16  C   UNL d   1      -1.276  -4.984   0.154  0.00  0.00     0.263 C 
ATOM     17  O   UNL d   1      -0.938  -5.773   1.027  0.00  0.00    -0.265 OA
BRANCH  16  18
ATOM     18  O   UNL d   1      -1.075  -5.167  -1.175  0.00  0.00    -0.322 OA
BRANCH  18  19
ATOM     19  C   UNL d   1      -0.221  -6.247  -1.576  0.00  0.00     0.174 C 
ATOM     20  C   UNL d   1      -1.004  -7.181  -2.471  0.00  0.00     0.034 C 
ENDBRANCH  18  19
ENDBRANCH  16  18
ENDBRANCH  13  16
ENDBRANCH   1   8
BRANCH   2  21
ATOM     21  O   UNL d   1      -1.495   0.706  -1.984  0.00  0.00    -0.293 OA
BRANCH  21  22
ATOM     22  C   UNL d   1      -2.551   1.379  -2.551  0.00  0.00     0.077 A 
ATOM     23  C   UNL d   1      -2.760   1.598  -3.913  0.00  0.00     0.037 A 
ATOM     24  C   UNL d   1      -3.885   2.306  -4.349  0.00  0.00     0.003 A 
ATOM     25  C   UNL d   1      -4.833   2.751  -3.430  0.00  0.00     0.000 A 
ATOM     26  C   UNL d   1      -4.665   2.475  -2.075  0.00  0.00     0.003 A 
ATOM     27  C   UNL d   1      -3.531   1.788  -1.640  0.00  0.00     0.037 A 
ENDBRANCH  21  22
ENDBRANCH   2  21
TORSDOF 6
