REMARK  5 active torsions:
REMARK  status: ('A' for Active; 'I' for Inactive)
REMARK    1  A    between atoms: C_4  and  C_1 
REMARK    2  A    between atoms: N_2  and  C_3 
REMARK       I    between atoms: N_17  and  C_4 
REMARK    3  A    between atoms: C_5  and  C_18 
REMARK    4  A    between atoms: O_23  and  C_7 
REMARK    5  A    between atoms: N_10  and  N_17 
ROOT
ATOM      1  C   UNL d   1       2.550  -0.157   0.024  0.00  0.00     0.272 C 
ATOM      2  N   UNL d   1       3.066  -1.434  -0.125  0.00  0.00    -0.266 N 
ATOM      3  O   UNL d   1       3.240   0.857   0.133  0.00  0.00    -0.266 OA
ATOM      4  H   UNL d   1       2.478  -2.260  -0.238  0.00  0.00     0.190 HD
ENDROOT
BRANCH   2   5
ATOM      5  N   UNL d   1       4.421  -1.592  -0.142  0.00  0.00    -0.308 N 
ATOM      6  C   UNL d   1       4.855  -2.811  -0.197  0.00  0.00     0.121 C 
ATOM      7  HN  UNL d   1       5.056  -0.795  -0.112  1.00  0.00     0.186 HD
BRANCH   6   8
ATOM      8  C   UNL d   1       6.307  -3.092  -0.239  0.00  0.00     0.017 A 
ATOM      9  C   UNL d   1       6.774  -4.408  -0.267  0.00  0.00     0.099 A 
ATOM     10  C   UNL d   1       8.153  -4.654  -0.311  0.00  0.00     0.069 A 
ATOM     11 CL   UNL d   1       8.746  -6.274  -0.343  0.00  0.00    -0.081 Cl
ATOM     12  C   UNL d   1       9.063  -3.598  -0.332  0.00  0.00     0.050 A 
ATOM     13  C   UNL d   1       8.589  -2.288  -0.306  0.00  0.00     0.036 A 
ATOM     14  C   UNL d   1       7.220  -2.028  -0.258  0.00  0.00     0.039 A 
ATOM     15 CL   UNL d   1       9.708  -0.982  -0.338  0.00  0.00    -0.084 Cl
BRANCH   9  16
ATOM     16  O   UNL d   1       5.881  -5.447  -0.250  0.00  0.00    -0.358 OA
ATOM     17  H   UNL d   1       6.393  -6.280  -0.262  0.00  0.00     0.217 HD
ENDBRANCH   9  16
ENDBRANCH   6   8
ENDBRANCH   2   5
BRANCH   1  18
ATOM     18  C   UNL d   1       1.069   0.025   0.014  0.00  0.00     0.067 A 
ATOM     19  C   UNL d   1       0.116  -0.811   0.600  0.00  0.00     0.118 A 
ATOM     20  C   UNL d   1      -1.250  -0.477   0.618  0.00  0.00     0.037 A 
ATOM     21  C   UNL d   1      -1.677   0.718   0.041  0.00  0.00     0.009 A 
ATOM     22  C   UNL d   1      -0.752   1.577  -0.560  0.00  0.00    -0.061 A 
ATOM     23  C   UNL d   1       0.610   1.230  -0.557  0.00  0.00     0.026 A 
ATOM     24  C   UNL d   1      -1.201   2.893  -1.128  0.00  0.00     0.048 C 
BRANCH  19  25
ATOM     25  N   UNL d   1       0.482  -2.050   1.242  0.00  0.00    -0.115 N 
ATOM     26  O   UNL d   1       0.969  -2.930   0.517  0.00  0.00    -0.532 OA
ATOM     27  O   UNL d   1       0.236  -2.162   2.448  0.00  0.00    -0.532 OA
ENDBRANCH  19  25
ENDBRANCH   1  18
TORSDOF 5
