REMARK  3 active torsions:
REMARK  status: ('A' for Active; 'I' for Inactive)
REMARK    1  A    between atoms: C_10  and  C_2 
REMARK       I    between atoms: N_15  and  C_10 
REMARK       I    between atoms: C_11  and  N_17 
REMARK       I    between atoms: N_16  and  C_11 
REMARK    2  A    between atoms: C_14  and  N_16 
REMARK    3  A    between atoms: N_17  and  N_15 
ROOT
ATOM      1  C   UNL d   1      -3.028  -1.524   0.522  0.00  0.00     0.270 C 
ATOM      2  N   UNL d   1      -3.400  -2.851   0.484  0.00  0.00    -0.262 N 
ATOM      3  O   UNL d   1      -1.938  -1.141   0.102  0.00  0.00    -0.266 OA
ATOM      4  H   UNL d   1      -4.314  -3.217   0.742  0.00  0.00     0.190 HD
ENDROOT
BRANCH   2   5
ATOM      5  N   UNL d   1      -2.576  -3.769  -0.199  0.00  0.00    -0.248 N 
ATOM      6  C   UNL d   1      -2.987  -5.091  -0.171  0.00  0.00     0.339 C 
ATOM      7  N   UNL d   1      -2.107  -5.932  -0.813  0.00  0.00    -0.308 N 
ATOM      8  O   UNL d   1      -4.055  -5.401   0.352  0.00  0.00    -0.245 OA
ATOM      9  H   UNL d   1      -1.365  -5.479  -1.329  0.00  0.00     0.170 HD
ATOM     10  H   UNL d   1      -1.588  -3.527  -0.209  0.00  0.00     0.192 HD
BRANCH   7  11
ATOM     11  C   UNL d   1      -2.194  -7.339  -0.915  0.00  0.00     0.039 A 
ATOM     12  C   UNL d   1      -3.173  -8.104  -0.272  0.00  0.00     0.053 A 
ATOM     13  C   UNL d   1      -3.168  -9.497  -0.381  0.00  0.00     0.037 A 
ATOM     14 CL   UNL d   1      -4.373 -10.420   0.432  0.00  0.00    -0.084 Cl
ATOM     15  C   UNL d   1      -2.196 -10.149  -1.130  0.00  0.00     0.048 A 
ATOM     16  C   UNL d   1      -1.230  -9.392  -1.782  0.00  0.00     0.037 A 
ATOM     17  C   UNL d   1      -1.224  -7.997  -1.682  0.00  0.00     0.053 A 
ATOM     18 CL   UNL d   1      -0.020 -10.183  -2.717  0.00  0.00    -0.084 Cl
ENDBRANCH   7  11
ENDBRANCH   2   5
BRANCH   1  19
ATOM     19  C   UNL d   1      -4.016  -0.544   1.084  0.00  0.00     0.036 A 
ATOM     20  C   UNL d   1      -5.179  -0.970   1.764  0.00  0.00     0.051 A 
ATOM     21  C   UNL d   1      -6.018   0.071   2.212  0.00  0.00     0.086 A 
ATOM     22  C   UNL d   1      -5.711   1.477   2.002  0.00  0.00     0.085 A 
ATOM     23  N   UNL d   1      -7.182  -0.010   2.869  0.00  0.00    -0.240 N 
ATOM     24  N   UNL d   1      -6.695   2.208   2.537  0.00  0.00    -0.240 N 
ATOM     25  C   UNL d   1      -4.547   1.899   1.338  0.00  0.00     0.035 A 
ATOM     26  O   UNL d   1      -7.596   1.297   3.064  0.00  0.00    -0.156 OA
ATOM     27  HN  UNL d   1      -6.767   3.225   2.553  1.00  0.00     0.197 HD
ATOM     28  C   UNL d   1      -3.721   0.845   0.891  0.00  0.00     0.019 A 
ATOM     29  HN  UNL d   1      -7.663  -0.859   3.165  1.00  0.00     0.197 HD
ENDBRANCH   1  19
TORSDOF 3
