REMARK  6 active torsions:
REMARK  status: ('A' for Active; 'I' for Inactive)
REMARK    1  A    between atoms: N_2  and  C_1 
REMARK    2  A    between atoms: N_3  and  C_5 
REMARK    3  A    between atoms: S_10  and  C_6 
REMARK    4  A    between atoms: C_8  and  C_17 
REMARK       I    between atoms: N_13  and  C_8 
REMARK    5  A    between atoms: C_17  and  S_10 
REMARK    6  A    between atoms: C_18  and  N_13 
ROOT
ATOM      1  S   UNL d   1       2.200   1.799  -1.541  0.00  0.00    -0.118 SA
ENDROOT
BRANCH   1   2
ATOM      2  C   UNL d   1       1.323   0.432  -0.792  0.00  0.00     0.034 A 
ATOM      3  C   UNL d   1       0.999  -0.717  -1.535  0.00  0.00     0.122 A 
ATOM      4  C   UNL d   1      -0.036  -1.586  -1.166  0.00  0.00     0.073 A 
ATOM      5  C   UNL d   1      -0.751  -1.309   0.001  0.00  0.00     0.105 A 
ATOM      6  C   UNL d   1      -0.384  -0.230   0.820  0.00  0.00     0.037 A 
ATOM      7  C   UNL d   1       0.643   0.640   0.417  0.00  0.00     0.023 A 
BRANCH   3   8
ATOM      8  N   UNL d   1       1.753  -1.048  -2.730  0.00  0.00    -0.114 N 
ATOM      9  O   UNL d   1       1.110  -1.232  -3.777  0.00  0.00    -0.532 OA
ATOM     10  O   UNL d   1       2.976  -1.194  -2.596  0.00  0.00    -0.532 OA
ENDBRANCH   3   8
BRANCH   5  11
ATOM     11  N   UNL d   1      -1.931  -2.119   0.337  0.00  0.00    -0.116 N 
ATOM     12  O   UNL d   1      -2.289  -2.976  -0.482  0.00  0.00    -0.532 OA
ATOM     13  O   UNL d   1      -2.500  -1.885   1.411  0.00  0.00    -0.532 OA
ENDBRANCH   5  11
ENDBRANCH   1   2
BRANCH   1  14
ATOM     14  C   UNL d   1       3.694   2.030  -0.503  0.00  0.00     0.182 C 
BRANCH  14  15
ATOM     15  C   UNL d   1       4.331   3.382  -0.870  0.00  0.00     0.231 C 
ATOM     16  N   UNL d   1       5.683   3.472  -0.563  0.00  0.00    -0.327 N 
ATOM     17  H   UNL d   1       6.130   2.659  -0.159  0.00  0.00     0.169 HD
ATOM     18  O   UNL d   1       3.671   4.292  -1.367  0.00  0.00    -0.272 OA
BRANCH  16  19
ATOM     19  C   UNL d   1       6.536   4.564  -0.868  0.00  0.00     0.034 A 
ATOM     20  C   UNL d   1       6.092   5.773  -1.419  0.00  0.00     0.032 A 
ATOM     21  C   UNL d   1       6.997   6.780  -1.770  0.00  0.00     0.044 A 
ATOM     22  C   UNL d   1       8.351   6.586  -1.558  0.00  0.00     0.116 A 
ATOM     23  C   UNL d   1       8.816   5.412  -0.979  0.00  0.00     0.044 A 
ATOM     24  F   UNL d   1       9.222   7.538  -1.917  0.00  0.00    -0.206 F 
ATOM     25  C   UNL d   1       7.909   4.404  -0.628  0.00  0.00     0.032 A 
ENDBRANCH  16  19
ENDBRANCH  14  15
ENDBRANCH   1  14
TORSDOF 6
