REMARK  4 active torsions:
REMARK  status: ('A' for Active; 'I' for Inactive)
REMARK    1  A    between atoms: N_2  and  C_1 
REMARK    2  A    between atoms: N_3  and  C_1 
REMARK    3  A    between atoms: C_4  and  N_2 
REMARK    4  A    between atoms: C_7  and  N_3 
ROOT
ATOM      1  C   UNL d   1       1.173  -0.094  -0.049  0.00  0.00     0.172 C 
ATOM      2  S   UNL d   1       2.819  -0.170   0.221  0.00  0.00    -0.041 SA
ENDROOT
BRANCH   1   3
ATOM      3  N   UNL d   1       0.556  -1.205  -0.569  0.00  0.00    -0.362 N 
ATOM      4  H   UNL d   1       1.178  -1.994  -0.713  0.00  0.00     0.162 HD
BRANCH   3   5
ATOM      5  C   UNL d   1      -0.685  -1.192  -1.326  0.00  0.00     0.092 C 
ATOM      6  C   UNL d   1      -0.782  -2.270  -2.445  0.00  0.00     0.031 C 
ATOM      7  C   UNL d   1      -0.738  -3.664  -1.854  0.00  0.00    -0.024 C 
ATOM      8  C   UNL d   1      -2.288  -2.195  -2.732  0.00  0.00     0.019 C 
ATOM      9  C   UNL d   1      -1.879  -3.842  -1.172  0.00  0.00    -0.026 C 
ATOM     10  C   UNL d   1      -2.677  -2.568  -1.297  0.00  0.00     0.010 C 
ATOM     11  C   UNL d   1      -1.954  -1.475  -0.473  0.00  0.00     0.034 C 
ENDBRANCH   3   5
ENDBRANCH   1   3
BRANCH   1  12
ATOM     12  N   UNL d   1       0.331   0.951   0.244  0.00  0.00    -0.333 N 
ATOM     13  H   UNL d   1      -0.536   0.660   0.671  0.00  0.00     0.168 HD
BRANCH  12  14
ATOM     14  C   UNL d   1       0.620   2.336   0.284  0.00  0.00     0.040 A 
ATOM     15  C   UNL d   1      -0.071   3.184   1.170  0.00  0.00    -0.035 A 
ATOM     16  C   UNL d   1       0.107   4.577   1.062  0.00  0.00     0.015 A 
ATOM     17  C   UNL d   1      -0.984   2.689   2.259  0.00  0.00     0.050 C 
ATOM     18  C   UNL d   1       0.970   5.136   0.114  0.00  0.00    -0.061 A 
ATOM     19  C   UNL d   1       1.677   4.282  -0.734  0.00  0.00     0.009 A 
ATOM     20  C   UNL d   1       1.114   6.626   0.013  0.00  0.00     0.048 C 
ATOM     21  C   UNL d   1       1.500   2.897  -0.650  0.00  0.00     0.030 A 
ENDBRANCH  12  14
ENDBRANCH   1  12
TORSDOF 4
