REMARK  4 active torsions:
REMARK  status: ('A' for Active; 'I' for Inactive)
REMARK    1  A    between atoms: C_2  and  C_1 
REMARK    2  A    between atoms: C_20  and  N_5 
REMARK    3  A    between atoms: S_21  and  C_6 
REMARK    4  A    between atoms: C_9  and  C_11 
ROOT
ATOM      1  C   UNL d   1      -0.831   2.513   0.030  0.00  0.00     0.088 A 
ATOM      2  N   UNL d   1      -0.525   3.468  -0.819  0.00  0.00    -0.352 N 
ATOM      3  HN  UNL d   1       0.093   3.352  -1.622  1.00  0.00     0.166 HD
ATOM      4  C   UNL d   1      -1.157   4.657  -0.479  0.00  0.00     0.025 A 
ATOM      5  S   UNL d   1      -1.926   2.986   1.275  0.00  0.00    -0.081 SA
ATOM      6  C   UNL d   1      -1.936   4.573   0.658  0.00  0.00     0.077 A 
ENDROOT
BRANCH   1   7
ATOM      7  C   UNL d   1      -0.261   1.134  -0.048  0.00  0.00     0.050 A 
ATOM      8  C   UNL d   1       0.676   0.557  -0.929  0.00  0.00     0.099 A 
ATOM      9  N   UNL d   1       0.954  -0.714  -0.608  0.00  0.00    -0.287 N 
ATOM     10  N   UNL d   1       0.167  -0.977   0.470  0.00  0.00    -0.266 N 
ATOM     11  HN  UNL d   1       1.610  -1.344  -1.069  1.00  0.00     0.188 HD
ATOM     12  C   UNL d   1      -0.582   0.119   0.822  0.00  0.00     0.134 A 
BRANCH   8  13
ATOM     13  S   UNL d   1       1.413   1.353  -2.303  0.00  0.00    -0.115 SA
ATOM     14  C   UNL d   1       2.708   0.204  -2.793  0.00  0.00     0.097 C 
ENDBRANCH   8  13
BRANCH  10  15
ATOM     15  C   UNL d   1       0.158  -2.246   1.117  0.00  0.00     0.056 A 
ATOM     16  C   UNL d   1      -0.732  -2.508   2.172  0.00  0.00     0.031 A 
ATOM     17  C   UNL d   1      -0.738  -3.756   2.800  0.00  0.00     0.002 A 
ATOM     18  C   UNL d   1       0.145  -4.746   2.385  0.00  0.00     0.000 A 
ATOM     19  C   UNL d   1       1.036  -4.493   1.343  0.00  0.00     0.002 A 
ATOM     20  C   UNL d   1       1.046  -3.248   0.705  0.00  0.00     0.031 A 
ENDBRANCH  10  15
ENDBRANCH   1   7
BRANCH   4  21
ATOM     21  C   UNL d   1      -0.939   5.867  -1.366  0.00  0.00     0.004 C 
ATOM     22  C   UNL d   1      -1.449   5.569  -2.802  0.00  0.00     0.020 C 
ATOM     23  C   UNL d   1      -1.225   6.778  -3.725  0.00  0.00    -0.013 C 
ATOM     24  C   UNL d   1      -1.987   7.989  -3.167  0.00  0.00     0.009 C 
ATOM     25  C   UNL d   1       0.278   7.099  -3.777  0.00  0.00     0.009 C 
ATOM     26  C   UNL d   1      -1.478   8.327  -1.758  0.00  0.00    -0.013 C 
ATOM     27  C   UNL d   1      -1.698   7.117  -0.840  0.00  0.00     0.020 C 
ATOM     28  C   UNL d   1       0.023   8.646  -1.818  0.00  0.00     0.009 C 
ATOM     29  C   UNL d   1       0.795   7.436  -2.368  0.00  0.00    -0.013 C 
ATOM     30  C   UNL d   1       0.570   6.225  -1.444  0.00  0.00     0.020 C 
ENDBRANCH   4  21
TORSDOF 4
