REMARK  8 active torsions:
REMARK  status: ('A' for Active; 'I' for Inactive)
REMARK    1  A    between atoms: C_2  and  C_1 
REMARK       I    between atoms: N_6  and  C_2 
REMARK    2  A    between atoms: C_11  and  N_6 
REMARK    3  A    between atoms: O_10  and  C_14 
REMARK    4  A    between atoms: C_13  and  O_10 
REMARK    5  A    between atoms: C_12  and  C_11 
REMARK    6  A    between atoms: C_14  and  C_12 
REMARK    7  A    between atoms: O_20  and  C_12 
REMARK    8  A    between atoms: O_21  and  C_15 
ROOT
ATOM      1  C   UNL d   1       3.330   4.436  -0.079  0.00  0.00     0.160 C 
ENDROOT
BRANCH   1   2
ATOM      2  C   UNL d   1       2.938   5.193  -1.358  0.00  0.00     0.156 C 
BRANCH   2   3
ATOM      3  N   UNL d   1       3.204   4.428  -2.567  0.00  0.00    -0.354 N 
ATOM      4  C   UNL d   1       4.391   4.525  -3.267  0.00  0.00     0.260 C 
ATOM      5  O   UNL d   1       5.285   5.260  -2.857  0.00  0.00    -0.267 OA
ATOM      6  H   UNL d   1       2.556   3.694  -2.823  0.00  0.00     0.162 HD
BRANCH   4   7
ATOM      7  C   UNL d   1       4.489   3.735  -4.492  0.00  0.00     0.094 A 
ATOM      8  C   UNL d   1       5.555   3.644  -5.373  0.00  0.00     0.057 A 
ATOM      9  C   UNL d   1       5.276   2.809  -6.497  0.00  0.00     0.032 A 
ATOM     10 CL   UNL d   1       7.078   4.420  -5.231  0.00  0.00    -0.083 Cl
ATOM     11  C   UNL d   1       4.009   2.279  -6.448  0.00  0.00     0.052 A 
ATOM     12  S   UNL d   1       3.168   2.776  -5.048  0.00  0.00    -0.095 SA
ENDBRANCH   4   7
ENDBRANCH   2   3
ENDBRANCH   1   2
BRANCH   1  13
ATOM     13  C   UNL d   1       3.033   5.264   1.185  0.00  0.00     0.209 C 
BRANCH  13  14
ATOM     14  O   UNL d   1       1.625   5.542   1.231  0.00  0.00    -0.349 OA
BRANCH  14  15
ATOM     15  C   UNL d   1       1.174   6.340   2.246  0.00  0.00     0.069 A 
ATOM     16  C   UNL d   1       1.935   6.840   3.302  0.00  0.00     0.039 A 
ATOM     17  C   UNL d   1       1.347   7.665   4.275  0.00  0.00     0.039 A 
ATOM     18  C   UNL d   1      -0.007   7.992   4.202  0.00  0.00     0.068 A 
ATOM     19  C   UNL d   1      -0.770   7.479   3.152  0.00  0.00     0.039 A 
ATOM     20  C   UNL d   1      -0.184   6.658   2.183  0.00  0.00     0.039 A 
BRANCH  18  21
ATOM     21  O   UNL d   1      -0.694   8.784   5.079  0.00  0.00    -0.356 OA
ATOM     22  C   UNL d   1       0.052   9.372   6.138  0.00  0.00     0.210 C 
ENDBRANCH  18  21
ENDBRANCH  14  15
ENDBRANCH  13  14
ENDBRANCH   1  13
BRANCH   1  23
ATOM     23  O   UNL d   1       2.592   3.202  -0.021  0.00  0.00    -0.392 OA
ATOM     24  H   UNL d   1       1.671   3.446   0.191  0.00  0.00     0.210 HD
ENDBRANCH   1  23
TORSDOF 8
