REMARK  6 active torsions:
REMARK  status: ('A' for Active; 'I' for Inactive)
REMARK    1  A    between atoms: C_2  and  S_1 
REMARK    2  A    between atoms: C_7  and  S_1 
REMARK    3  A    between atoms: N_6  and  C_3 
REMARK    4  A    between atoms: C_9  and  N_4 
REMARK    5  A    between atoms: C_14  and  C_9 
REMARK    6  A    between atoms: C_15  and  C_9 
ROOT
ATOM      1  C   UNL d   1      -0.280  -3.664   0.052  0.00  0.00     0.154 C 
ATOM      2  C   UNL d   1      -0.261  -2.398   0.511  0.00  0.00     0.120 C 
ATOM      3  C   UNL d   1      -0.847  -4.747   0.782  0.00  0.00     0.113 C 
ATOM      4  N   UNL d   1      -1.348  -5.566   1.434  0.00  0.00    -0.191 NA
ENDROOT
BRANCH   1   5
ATOM      5  S   UNL d   1       0.468  -4.031  -1.480  0.00  0.00     0.194 S 
ATOM      6  O   UNL d   1       0.908  -5.417  -1.452  0.00  0.00    -0.221 OA
ATOM      7  O   UNL d   1       1.451  -3.001  -1.793  0.00  0.00    -0.221 OA
BRANCH   5   8
ATOM      8  C   UNL d   1      -0.844  -3.909  -2.736  0.00  0.00     0.058 C 
ATOM      9  C   UNL d   1      -1.399  -2.480  -2.822  0.00  0.00     0.031 C 
ATOM     10  C   UNL d   1      -0.230  -4.271  -4.106  0.00  0.00     0.031 C 
ATOM     11  C   UNL d   1      -1.980  -4.893  -2.434  0.00  0.00     0.031 C 
ENDBRANCH   5   8
ENDBRANCH   1   5
BRANCH   2  12
ATOM     12  N   UNL d   1      -0.667  -1.878   1.739  0.00  0.00    -0.385 N 
ATOM     13  C   UNL d   1      -0.608  -2.652   3.004  0.00  0.00     0.152 C 
ATOM     14  C   UNL d   1       0.175  -1.900   4.102  0.00  0.00     0.293 C 
ATOM     15  N   UNL d   1      -0.286  -0.514   4.368  0.00  0.00     0.105 N 
ATOM     16  C   UNL d   1      -0.247   0.192   3.058  0.00  0.00     0.293 C 
ATOM     17  C   UNL d   1      -1.064  -0.466   1.926  0.00  0.00     0.152 C 
BRANCH  15  18
ATOM     18  C   UNL d   1      -1.635  -0.514   5.012  0.00  0.00     0.289 C 
BRANCH  18  19
ATOM     19  C   UNL d   1      -1.632  -1.257   6.357  0.00  0.00    -0.021 A 
ATOM     20  C   UNL d   1      -0.774  -0.869   7.400  0.00  0.00     0.010 A 
ATOM     21  C   UNL d   1      -0.786  -1.542   8.623  0.00  0.00     0.001 A 
ATOM     22  C   UNL d   1      -1.648  -2.618   8.818  0.00  0.00     0.000 A 
ATOM     23  C   UNL d   1      -2.494  -3.027   7.790  0.00  0.00     0.001 A 
ATOM     24  C   UNL d   1      -2.490  -2.351   6.567  0.00  0.00     0.010 A 
ENDBRANCH  18  19
BRANCH  18  25
ATOM     25  C   UNL d   1      -2.257   0.875   5.192  0.00  0.00    -0.021 A 
ATOM     26  C   UNL d   1      -3.650   1.027   5.075  0.00  0.00     0.010 A 
ATOM     27  C   UNL d   1      -4.249   2.276   5.241  0.00  0.00     0.001 A 
ATOM     28  C   UNL d   1      -3.465   3.391   5.528  0.00  0.00     0.000 A 
ATOM     29  C   UNL d   1      -2.086   3.256   5.667  0.00  0.00     0.001 A 
ATOM     30  C   UNL d   1      -1.488   2.006   5.515  0.00  0.00     0.010 A 
ENDBRANCH  18  25
ENDBRANCH  15  18
ENDBRANCH   2  12
TORSDOF 6
