REMARK  6 active torsions:
REMARK  status: ('A' for Active; 'I' for Inactive)
REMARK    1  A    between atoms: C_3  and  N_1 
REMARK    2  A    between atoms: C_2  and  C_6 
REMARK       I    between atoms: N_12  and  C_2 
REMARK    3  A    between atoms: C_15  and  N_12 
REMARK    4  A    between atoms: C_13  and  C_15 
REMARK    5  A    between atoms: C_16  and  C_13 
REMARK    6  A    between atoms: O_14  and  C_16 
ROOT
ATOM      1  C   UNL d   1       0.200  -0.850  -0.973  0.00  0.00     0.102 A 
ATOM      2  C   UNL d   1      -0.948  -2.360  -3.045  0.00  0.00     0.032 A 
ATOM      3  C   UNL d   1       0.709  -2.119  -1.280  0.00  0.00     0.037 A 
ATOM      4  C   UNL d   1      -0.887  -0.332  -1.684  0.00  0.00     0.037 A 
ATOM      5  C   UNL d   1      -1.454  -1.089  -2.714  0.00  0.00     0.019 A 
ATOM      6  C   UNL d   1       0.132  -2.871  -2.311  0.00  0.00     0.019 A 
ENDROOT
BRANCH   2   7
ATOM      7  C   UNL d   1      -1.607  -3.091  -4.173  0.00  0.00     0.251 C 
ATOM      8  O   UNL d   1      -2.564  -2.576  -4.742  0.00  0.00    -0.268 OA
ATOM      9  N   UNL d   1      -1.099  -4.323  -4.532  0.00  0.00    -0.357 N 
ATOM     10  H   UNL d   1      -0.270  -4.698  -4.101  0.00  0.00     0.162 HD
BRANCH   9  11
ATOM     11  C   UNL d   1      -1.668  -5.078  -5.634  0.00  0.00     0.125 C 
BRANCH  11  12
ATOM     12  C   UNL d   1      -0.974  -4.749  -6.954  0.00  0.00     0.046 C 
BRANCH  12  13
ATOM     13  C   UNL d   1      -1.560  -5.552  -8.110  0.00  0.00     0.168 C 
BRANCH  13  14
ATOM     14  O   UNL d   1      -2.943  -5.239  -8.240  0.00  0.00    -0.396 OA
ATOM     15  C   UNL d   1      -3.561  -5.962  -9.293  0.00  0.00     0.201 C 
ENDBRANCH  13  14
ENDBRANCH  12  13
ENDBRANCH  11  12
ENDBRANCH   9  11
ENDBRANCH   2   7
BRANCH   1  16
ATOM     16  N   UNL d   1       0.817  -0.057   0.099  0.00  0.00    -0.116 N 
ATOM     17  O   UNL d   1       1.785  -0.552   0.694  0.00  0.00    -0.532 OA
ATOM     18  O   UNL d   1       0.337   1.058   0.341  0.00  0.00    -0.532 OA
ENDBRANCH   1  16
TORSDOF 6
