REMARK  1 active torsions:
REMARK  status: ('A' for Active; 'I' for Inactive)
REMARK    1  A    between atoms: C_2  and  C_1 
REMARK       I    between atoms: N_3  and  C_1 
REMARK       I    between atoms: C_4  and  N_3 
ROOT
ATOM      1  C   UNL d   1       0.316  -1.226  -0.122  0.00  0.00     0.049 A 
ATOM      2  C   UNL d   1       0.688  -2.273   0.738  0.00  0.00     0.022 A 
ATOM      3  I   UNL d   1       2.305  -2.212   2.082  0.00  0.00    -0.043 I 
ATOM      4  C   UNL d   1      -0.720  -1.449  -1.049  0.00  0.00     0.018 A 
ATOM      5  C   UNL d   1      -0.001  -3.496   0.688  0.00  0.00     0.019 A 
ATOM      6  C   UNL d   1      -1.392  -2.671  -1.100  0.00  0.00     0.001 A 
ATOM      7  C   UNL d   1      -1.039  -3.691  -0.224  0.00  0.00     0.001 A 
ENDROOT
BRANCH   1   8
ATOM      8  C   UNL d   1       0.929   0.137  -0.168  0.00  0.00     0.259 C 
ATOM      9  N   UNL d   1       1.234   0.706   1.054  0.00  0.00    -0.294 N 
ATOM     10  C   UNL d   1       1.934   1.887   1.230  0.00  0.00     0.220 C 
ATOM     11  H   UNL d   1       1.113   0.121   1.868  0.00  0.00     0.172 HD
ATOM     12  O   UNL d   1       2.164   2.730   0.371  0.00  0.00    -0.274 OA
ATOM     13  C   UNL d   1       2.403   2.090   2.650  0.00  0.00     0.117 C 
ATOM     14  O   UNL d   1       1.035   0.687  -1.257  0.00  0.00    -0.267 OA
ENDBRANCH   1   8
TORSDOF 1
