REMARK  6 active torsions:
REMARK  status: ('A' for Active; 'I' for Inactive)
REMARK       I    between atoms: C_4  and  N_1 
REMARK    1  A    between atoms: C_6  and  N_1 
REMARK    2  A    between atoms: C_2  and  C_3 
REMARK    3  A    between atoms: C_14  and  C_4 
REMARK    4  A    between atoms: C_5  and  N_11 
REMARK    5  A    between atoms: N_12  and  C_6 
REMARK    6  A    between atoms: N_11  and  N_12 
ROOT
ATOM      1  N   UNL d   1       3.018  -0.401   1.343  0.00  0.00    -0.292 N 
ATOM      2  H   UNL d   1       2.775  -1.358   1.630  0.00  0.00     0.183 HD
ENDROOT
BRANCH   1   3
ATOM      3  N   UNL d   1       4.258   0.083   1.806  0.00  0.00    -0.187 NA
ATOM      4  H   UNL d   1       4.150   0.940   2.349  0.00  0.00     0.154 HD
BRANCH   3   5
ATOM      5  C   UNL d   1       5.007  -0.870   2.545  0.00  0.00     0.120 A 
ATOM      6  N   UNL d   1       4.657  -2.180   2.484  0.00  0.00    -0.353 N 
ATOM      7  C   UNL d   1       5.437  -3.079   3.129  0.00  0.00     0.105 A 
ATOM      8  HN  UNL d   1       3.830  -2.478   1.967  1.00  0.00     0.166 HD
ATOM      9  C   UNL d   1       6.574  -2.748   3.854  0.00  0.00     0.065 A 
ATOM     10  C   UNL d   1       6.927  -1.398   3.916  0.00  0.00     0.044 A 
ATOM     11  C   UNL d   1       6.146  -0.452   3.253  0.00  0.00     0.074 A 
ATOM     12 CL   UNL d   1       6.599   1.211   3.357  0.00  0.00    -0.081 Cl
BRANCH   9  13
ATOM     13  C   UNL d   1       7.366  -3.823   4.531  0.00  0.00     0.418 C 
ATOM     14  F   UNL d   1       8.461  -3.353   5.190  0.00  0.00    -0.166 F 
ATOM     15  F   UNL d   1       6.636  -4.501   5.457  0.00  0.00    -0.166 F 
ATOM     16  F   UNL d   1       7.829  -4.759   3.658  0.00  0.00    -0.166 F 
ENDBRANCH   9  13
ENDBRANCH   3   5
ENDBRANCH   1   3
BRANCH   1  17
ATOM     17  C   UNL d   1       2.467   0.117   0.195  0.00  0.00     0.189 C 
ATOM     18  S   UNL d   1       3.094   1.369  -0.728  0.00  0.00    -0.039 SA
BRANCH  17  19
ATOM     19  N   UNL d   1       1.231  -0.373  -0.164  0.00  0.00    -0.299 N 
ATOM     20  C   UNL d   1       0.465  -1.323   0.491  0.00  0.00     0.257 C 
ATOM     21  O   UNL d   1       0.909  -2.156   1.273  0.00  0.00    -0.267 OA
ATOM     22  H   UNL d   1       0.815   0.118  -0.944  0.00  0.00     0.171 HD
BRANCH  20  23
ATOM     23  C   UNL d   1      -0.973  -1.340   0.115  0.00  0.00     0.032 A 
ATOM     24  C   UNL d   1      -1.615  -2.569  -0.054  0.00  0.00     0.017 A 
ATOM     25  C   UNL d   1      -2.971  -2.608  -0.387  0.00  0.00     0.007 A 
ATOM     26  C   UNL d   1      -3.703  -1.422  -0.530  0.00  0.00    -0.062 A 
ATOM     27  C   UNL d   1      -3.057  -0.193  -0.349  0.00  0.00     0.007 A 
ATOM     28  C   UNL d   1      -5.162  -1.483  -0.881  0.00  0.00     0.048 C 
ATOM     29  C   UNL d   1      -1.697  -0.149  -0.026  0.00  0.00     0.017 A 
ENDBRANCH  20  23
ENDBRANCH  17  19
ENDBRANCH   1  17
TORSDOF 6
