REMARK  5 active torsions:
REMARK  status: ('A' for Active; 'I' for Inactive)
REMARK    1  A    between atoms: C_2  and  C_1 
REMARK    2  A    between atoms: N_3  and  C_1 
REMARK    3  A    between atoms: N_4  and  C_2 
REMARK    4  A    between atoms: C_7  and  N_3 
REMARK    5  A    between atoms: C_8  and  N_4 
ROOT
ATOM      1  C   UNL d   1       0.657   0.425   0.366  0.00  0.00     0.135 C 
ATOM      2  S   UNL d   1       1.874   0.804   1.447  0.00  0.00    -0.057 SA
ENDROOT
BRANCH   1   3
ATOM      3  C   UNL d   1      -0.103  -0.871   0.545  0.00  0.00     0.135 C 
ATOM      4  S   UNL d   1       0.706  -2.286   0.149  0.00  0.00    -0.057 SA
BRANCH   3   5
ATOM      5  N   UNL d   1      -1.434  -0.960   0.854  0.00  0.00    -0.374 N 
ATOM      6  H   UNL d   1      -1.699  -1.944   0.821  0.00  0.00     0.161 HD
BRANCH   5   7
ATOM      7  C   UNL d   1      -2.491  -0.146   1.473  0.00  0.00     0.082 C 
ATOM      8  C   UNL d   1      -2.593   1.360   1.218  0.00  0.00     0.025 C 
ATOM      9  C   UNL d   1      -1.719   2.229   2.110  0.00  0.00     0.002 C 
ATOM     10  C   UNL d   1      -1.842   1.853   3.579  0.00  0.00     0.000 C 
ATOM     11  C   UNL d   1      -1.647   0.359   3.812  0.00  0.00     0.002 C 
ATOM     12  C   UNL d   1      -2.609  -0.464   2.966  0.00  0.00     0.025 C 
ENDBRANCH   5   7
ENDBRANCH   3   5
ENDBRANCH   1   3
BRANCH   1  13
ATOM     13  N   UNL d   1       0.390   1.232  -0.721  0.00  0.00    -0.374 N 
ATOM     14  H   UNL d   1       1.025   2.016  -0.844  0.00  0.00     0.161 HD
BRANCH  13  15
ATOM     15  C   UNL d   1      -0.662   1.023  -1.711  0.00  0.00     0.082 C 
ATOM     16  C   UNL d   1      -0.231   0.089  -2.848  0.00  0.00     0.025 C 
ATOM     17  C   UNL d   1       0.278   0.790  -4.095  0.00  0.00     0.002 C 
ATOM     18  C   UNL d   1      -0.670   1.900  -4.519  0.00  0.00     0.000 C 
ATOM     19  C   UNL d   1      -0.742   2.954  -3.427  0.00  0.00     0.002 C 
ATOM     20  C   UNL d   1      -1.286   2.365  -2.132  0.00  0.00     0.025 C 
ENDBRANCH  13  15
ENDBRANCH   1  13
TORSDOF 5
