REMARK  3 active torsions:
REMARK  status: ('A' for Active; 'I' for Inactive)
REMARK    1  A    between atoms: C_6  and  C_1 
REMARK    2  A    between atoms: C_2  and  C_6 
REMARK    3  A    between atoms: O_14  and  C_2 
ROOT
ATOM      1  C   UNL d   1       0.704   0.815   1.111  0.00  0.00    -0.030 C 
ATOM      2  C   UNL d   1       0.499   0.442  -1.402  0.00  0.00    -0.013 C 
ATOM      3  C   UNL d   1      -1.539   0.239   0.063  0.00  0.00    -0.013 C 
ATOM      4  C   UNL d   1       0.272  -1.509   0.170  0.00  0.00    -0.013 C 
ATOM      5  C   UNL d   1      -0.830   1.031   1.173  0.00  0.00     0.014 C 
ATOM      6  C   UNL d   1       0.985  -0.701   1.272  0.00  0.00     0.014 C 
ATOM      7  C   UNL d   1       1.218   1.234  -0.296  0.00  0.00     0.014 C 
ATOM      8  C   UNL d   1      -1.243  -1.258   0.248  0.00  0.00     0.009 C 
ATOM      9  C   UNL d   1      -1.012   0.705  -1.303  0.00  0.00     0.009 C 
ATOM     10  C   UNL d   1       0.776  -1.057  -1.209  0.00  0.00     0.009 C 
ENDROOT
BRANCH   1  11
ATOM     11  C   UNL d   1       1.431   1.650   2.186  0.00  0.00     0.119 C 
BRANCH  11  12
ATOM     12  C   UNL d   1       1.065   1.306   3.618  0.00  0.00     0.140 C 
ATOM     13  O   UNL d   1       1.633   0.454   4.282  0.00  0.00    -0.650 OA
BRANCH  12  14
ATOM     14  O   UNL d   1       0.032   2.033   4.098  0.00  0.00    -0.776 OA
ATOM     15  H   UNL d   1      -0.342   2.670   3.460  0.00  0.00     0.167 HD
ENDBRANCH  12  14
ENDBRANCH  11  12
ENDBRANCH   1  11
TORSDOF 3
