REMARK  3 active torsions:
REMARK  status: ('A' for Active; 'I' for Inactive)
REMARK    1  A    between atoms: C_2  and  C_1 
REMARK    2  A    between atoms: N_10  and  C_1 
REMARK    3  A    between atoms: O_12  and  N_5 
ROOT
ATOM      1  C   UNL d   1       2.393  -0.003  -0.035  0.00  0.00     0.007 A 
ATOM      2  C   UNL d   1       4.484   1.019  -0.644  0.00  0.00     0.123 A 
ATOM      3  C   UNL d   1       3.095   1.075  -0.577  0.00  0.00     0.057 A 
ATOM      4  C   UNL d   1       5.193  -0.097  -0.189  0.00  0.00    -0.023 A 
ATOM      5  C   UNL d   1       3.087  -1.118   0.448  0.00  0.00     0.015 A 
ATOM      6  C   UNL d   1       4.482  -1.167   0.366  0.00  0.00     0.011 A 
ATOM      7  F   UNL d   1       5.148   2.062  -1.164  0.00  0.00    -0.206 F 
ATOM      8  C   UNL d   1       6.687  -0.128  -0.299  0.00  0.00     0.051 C 
ENDROOT
BRANCH   1   9
ATOM      9  C   UNL d   1       0.903   0.033   0.020  0.00  0.00     0.108 C 
ATOM     10  N   UNL d   1       0.296  -0.633   0.959  0.00  0.00    -0.258 N 
ATOM     11  HN  UNL d   1       0.768  -1.178   1.681  1.00  0.00     0.195 HD
BRANCH  10  12
ATOM     12  O   UNL d   1      -1.099  -0.501   0.844  0.00  0.00    -0.289 OA
ATOM     13  H   UNL d   1      -1.409  -0.916   1.670  0.00  0.00     0.244 HD
ENDBRANCH  10  12
BRANCH   9  14
ATOM     14  N   UNL d   1       0.221   0.751  -0.934  0.00  0.00    -0.287 NA
ATOM     15  H   UNL d   1       0.590   0.674  -1.874  0.00  0.00     0.125 HD
ATOM     16  H   UNL d   1      -0.767   0.509  -0.892  0.00  0.00     0.125 HD
ENDBRANCH   9  14
ENDBRANCH   1   9
TORSDOF 3
