REMARK  4 active torsions:
REMARK  status: ('A' for Active; 'I' for Inactive)
REMARK    1  A    between atoms: C_9  and  N_1 
REMARK    2  A    between atoms: C_11  and  C_9 
REMARK    3  A    between atoms: C_14  and  C_11 
REMARK    4  A    between atoms: O_13  and  C_14 
ROOT
ATOM      1  N   UNL d   1       2.353  -0.491  -0.063  0.00  0.00    -0.290 N 
ATOM      2  C   UNL d   1       2.269   0.903  -0.041  0.00  0.00     0.181 C 
ATOM      3  C   UNL d   1       1.228  -1.317   0.088  0.00  0.00     0.262 C 
ATOM      4  C   UNL d   1      -0.097  -0.678   0.039  0.00  0.00     0.059 A 
ATOM      5  N   UNL d   1       1.013   1.448   0.008  0.00  0.00    -0.332 N 
ATOM      6  C   UNL d   1      -0.163   0.706   0.011  0.00  0.00     0.050 A 
ATOM      7  S   UNL d   1       3.530   2.010  -0.069  0.00  0.00    -0.040 SA
ATOM      8  O   UNL d   1       1.280  -2.534   0.264  0.00  0.00    -0.267 OA
ATOM      9  C   UNL d   1      -1.270  -1.440   0.022  0.00  0.00     0.019 A 
ATOM     10  C   UNL d   1      -1.400   1.350  -0.021  0.00  0.00     0.030 A 
ATOM     11  C   UNL d   1      -2.509  -0.802  -0.026  0.00  0.00     0.001 A 
ATOM     12  C   UNL d   1      -2.574   0.592  -0.044  0.00  0.00     0.002 A 
ATOM     13  H   UNL d   1       0.966   2.461   0.014  0.00  0.00     0.168 HD
ENDROOT
BRANCH   1  14
ATOM     14  C   UNL d   1       3.649  -1.198  -0.105  0.00  0.00     0.137 C 
BRANCH  14  15
ATOM     15  C   UNL d   1       3.825  -2.135  -1.311  0.00  0.00     0.046 C 
BRANCH  15  16
ATOM     16  C   UNL d   1       3.792  -1.419  -2.655  0.00  0.00     0.168 C 
BRANCH  16  17
ATOM     17  O   UNL d   1       4.875  -0.497  -2.718  0.00  0.00    -0.396 OA
ATOM     18  C   UNL d   1       4.903   0.197  -3.958  0.00  0.00     0.201 C 
ENDBRANCH  16  17
ENDBRANCH  15  16
ENDBRANCH  14  15
ENDBRANCH   1  14
TORSDOF 4
