REMARK  6 active torsions:
REMARK  status: ('A' for Active; 'I' for Inactive)
REMARK    1  A    between atoms: N_2  and  C_1 
REMARK    2  A    between atoms: N_4  and  C_1 
REMARK       I    between atoms: C_3  and  N_2 
REMARK    3  A    between atoms: O_12  and  C_3 
REMARK    4  A    between atoms: C_11  and  N_4 
REMARK    5  A    between atoms: C_6  and  C_7 
REMARK    6  A    between atoms: C_18  and  O_12 
ROOT
ATOM      1  N   UNL d   1       0.276   0.823   0.565  0.00  0.00    -0.333 N 
ATOM      2  H   UNL d   1       0.610   1.646   0.066  0.00  0.00     0.168 HD
ENDROOT
BRANCH   1   3
ATOM      3  C   UNL d   1       1.245  -0.088   0.910  0.00  0.00     0.180 C 
ATOM      4  S   UNL d   1       1.209  -1.189   2.171  0.00  0.00    -0.040 SA
BRANCH   3   5
ATOM      5  N   UNL d   1       2.386  -0.064   0.139  0.00  0.00    -0.279 N 
ATOM      6  C   UNL d   1       2.590   0.598  -1.044  0.00  0.00     0.366 C 
ATOM      7  O   UNL d   1       1.903   1.509  -1.478  0.00  0.00    -0.238 OA
ATOM      8  H   UNL d   1       3.058  -0.789   0.339  0.00  0.00     0.173 HD
BRANCH   6   9
ATOM      9  O   UNL d   1       3.677   0.068  -1.660  0.00  0.00    -0.304 OA
BRANCH   9  10
ATOM     10  C   UNL d   1       3.826   0.403  -3.048  0.00  0.00     0.176 C 
ATOM     11  C   UNL d   1       3.169  -0.695  -3.864  0.00  0.00     0.034 C 
ENDBRANCH   9  10
ENDBRANCH   6   9
ENDBRANCH   3   5
ENDBRANCH   1   3
BRANCH   1  12
ATOM     12  C   UNL d   1      -1.114   0.785   0.790  0.00  0.00     0.034 A 
ATOM     13  C   UNL d   1      -1.813   1.992   0.809  0.00  0.00     0.030 A 
ATOM     14  C   UNL d   1      -3.207   2.004   0.946  0.00  0.00     0.010 A 
ATOM     15  C   UNL d   1      -3.949   0.810   1.013  0.00  0.00    -0.051 A 
ATOM     16  C   UNL d   1      -3.225  -0.392   0.985  0.00  0.00     0.010 A 
ATOM     17  C   UNL d   1      -1.829  -0.405   0.879  0.00  0.00     0.030 A 
BRANCH  15  18
ATOM     18  C   UNL d   1      -5.485   0.843   1.086  0.00  0.00    -0.024 C 
ATOM     19  C   UNL d   1      -6.131  -0.561   1.044  0.00  0.00     0.019 C 
ATOM     20  C   UNL d   1      -5.933   1.522   2.396  0.00  0.00     0.019 C 
ATOM     21  C   UNL d   1      -6.053   1.636  -0.112  0.00  0.00     0.019 C 
ENDBRANCH  15  18
ENDBRANCH   1  12
TORSDOF 6
