REMARK  2 active torsions:
REMARK  status: ('A' for Active; 'I' for Inactive)
REMARK    1  A    between atoms: N_2  and  C_3 
REMARK    2  A    between atoms: C_5  and  N_2 
ROOT
ATOM      1  C   UNL d   1      -1.035  -0.818  -0.083  0.00  0.00     0.017 A 
ATOM      2  C   UNL d   1      -2.393  -1.226  -0.065  0.00  0.00     0.046 A 
ATOM      3  C   UNL d   1      -0.768   0.564   0.022  0.00  0.00     0.046 A 
ATOM      4  C   UNL d   1       0.548   1.005   0.040  0.00  0.00     0.054 A 
ATOM      5  C   UNL d   1       0.053  -1.712  -0.212  0.00  0.00     0.018 A 
ATOM      6  N   UNL d   1      -1.736   1.489   0.114  0.00  0.00    -0.365 N 
ATOM      7  HN  UNL d   1      -1.509   2.481   0.175  1.00  0.00     0.165 HD
ATOM      8  C   UNL d   1       1.610   0.111  -0.063  0.00  0.00     0.036 A 
ATOM      9  C   UNL d   1      -3.391  -0.258   0.055  0.00  0.00     0.047 A 
ATOM     10  C   UNL d   1       1.369  -1.249  -0.205  0.00  0.00     0.025 A 
ATOM     11  C   UNL d   1      -3.017   1.069   0.123  0.00  0.00     0.090 A 
ATOM     12 CL   UNL d   1       3.228   0.694  -0.013  0.00  0.00    -0.084 Cl
ENDROOT
BRANCH   2  13
ATOM     13  N   UNL d   1      -2.725  -2.610   0.002  0.00  0.00    -0.353 N 
ATOM     14  H   UNL d   1      -2.555  -2.949   0.951  0.00  0.00     0.166 HD
BRANCH  13  15
ATOM     15  C   UNL d   1      -3.883  -3.232  -0.531  0.00  0.00     0.071 A 
ATOM     16  C   UNL d   1      -4.471  -4.317   0.140  0.00  0.00     0.144 A 
ATOM     17  C   UNL d   1      -5.526  -5.041  -0.411  0.00  0.00     0.062 A 
ATOM     18  F   UNL d   1      -4.006  -4.671   1.349  0.00  0.00    -0.204 F 
ATOM     19  C   UNL d   1      -5.999  -4.689  -1.672  0.00  0.00     0.009 A 
ATOM     20  C   UNL d   1      -5.449  -3.602  -2.354  0.00  0.00     0.020 A 
ATOM     21  I   UNL d   1      -7.492  -5.821  -2.570  0.00  0.00    -0.044 I 
ATOM     22  C   UNL d   1      -4.395  -2.879  -1.784  0.00  0.00     0.034 A 
ENDBRANCH  13  15
ENDBRANCH   2  13
TORSDOF 2
