REMARK  8 active torsions:
REMARK  status: ('A' for Active; 'I' for Inactive)
REMARK    1  A    between atoms: C_4  and  C_1 
REMARK    2  A    between atoms: C_7  and  C_1 
REMARK    3  A    between atoms: C_2  and  C_7 
REMARK    4  A    between atoms: C_3  and  C_7 
REMARK    5  A    between atoms: C_8  and  C_4 
REMARK    6  A    between atoms: C_9  and  C_5 
REMARK    7  A    between atoms: C_10  and  C_6 
REMARK    8  A    between atoms: O_11  and  C_7 
ROOT
ATOM      1  C   UNL d   1       2.540   0.076  -0.062  0.00  0.00     0.252 C 
ENDROOT
BRANCH   1   2
ATOM      2  C   UNL d   1       3.064  -1.154   0.739  0.00  0.00    -0.041 C 
ATOM      3  C   UNL d   1       3.469  -2.127   1.363  0.00  0.00    -0.093 C 
BRANCH   3   4
ATOM      4  C   UNL d   1       3.975  -3.332   2.141  0.00  0.00     0.013 C 
ATOM      5  C   UNL d   1       4.173  -2.966   3.630  0.00  0.00     0.028 C 
ATOM      6  C   UNL d   1       2.962  -4.497   2.052  0.00  0.00     0.028 C 
ATOM      7  C   UNL d   1       5.328  -3.813   1.569  0.00  0.00     0.028 C 
ENDBRANCH   3   4
ENDBRANCH   1   2
BRANCH   1   8
ATOM      8  C   UNL d   1       3.064   0.007  -1.528  0.00  0.00    -0.041 C 
ATOM      9  C   UNL d   1       3.469  -0.056  -2.682  0.00  0.00    -0.093 C 
BRANCH   9  10
ATOM     10  C   UNL d   1       3.975  -0.128  -4.114  0.00  0.00     0.013 C 
ATOM     11  C   UNL d   1       2.795  -0.318  -5.095  0.00  0.00     0.028 C 
ATOM     12  C   UNL d   1       4.720   1.174  -4.489  0.00  0.00     0.028 C 
ATOM     13  C   UNL d   1       4.949  -1.317  -4.282  0.00  0.00     0.028 C 
ENDBRANCH   9  10
ENDBRANCH   1   8
BRANCH   1  14
ATOM     14  C   UNL d   1       1.020   0.076  -0.062  0.00  0.00    -0.041 C 
BRANCH  14  15
ATOM     15  C   UNL d   1      -0.284   0.076  -0.062  0.00  0.00    -0.093 C 
BRANCH  15  16
ATOM     16  C   UNL d   1      -1.804   0.076  -0.062  0.00  0.00     0.013 C 
ATOM     17  C   UNL d   1      -2.305  -0.254  -1.473  0.00  0.00     0.028 C 
ATOM     18  C   UNL d   1      -2.305  -0.982   0.929  0.00  0.00     0.028 C 
ATOM     19  C   UNL d   1      -2.305   1.463   0.358  0.00  0.00     0.028 C 
ENDBRANCH  15  16
ENDBRANCH  14  15
ENDBRANCH   1  14
BRANCH   1  20
ATOM     20  O   UNL d   1       3.014   1.267   0.548  0.00  0.00    -0.357 OA
ATOM     21  H   UNL d   1       3.979   1.200   0.514  0.00  0.00     0.213 HD
ENDBRANCH   1  20
TORSDOF 8
