REMARK  5 active torsions:
REMARK  status: ('A' for Active; 'I' for Inactive)
REMARK    1  A    between atoms: C_7  and  C_1 
REMARK    2  A    between atoms: C_12  and  C_5 
REMARK    3  A    between atoms: O_8  and  C_7 
REMARK    4  A    between atoms: C_10  and  O_8 
REMARK    5  A    between atoms: N_9  and  C_11 
ROOT
ATOM      1  C   UNL d   1       0.203  -4.293  -0.792  0.00  0.00     0.307 C 
ATOM      2  O   UNL d   1       0.469  -5.369  -0.259  0.00  0.00    -0.258 OA
ENDROOT
BRANCH   1   3
ATOM      3  C   UNL d   1      -0.540  -4.097  -2.021  0.00  0.00     0.104 C 
ATOM      4  S   UNL d   1      -1.292  -5.446  -2.778  0.00  0.00    -0.064 SA
ATOM      5  C   UNL d   1      -1.643  -4.497  -4.171  0.00  0.00     0.085 C 
ATOM      6  N   UNL d   1      -1.370  -3.216  -4.022  0.00  0.00    -0.352 N 
ATOM      7  C   UNL d   1      -0.723  -2.975  -2.818  0.00  0.00     0.029 C 
ATOM      8  HN  UNL d   1      -1.603  -2.494  -4.704  1.00  0.00     0.166 HD
ATOM      9  C   UNL d   1      -0.238  -1.587  -2.588  0.00  0.00     0.070 C 
BRANCH   5  10
ATOM     10  C   UNL d   1      -2.125  -5.090  -5.439  0.00  0.00    -0.002 A 
ATOM     11  C   UNL d   1      -2.431  -6.452  -5.591  0.00  0.00     0.014 A 
ATOM     12  C   UNL d   1      -2.795  -6.976  -6.837  0.00  0.00     0.001 A 
ATOM     13  C   UNL d   1      -2.867  -6.148  -7.953  0.00  0.00     0.000 A 
ATOM     14  C   UNL d   1      -2.586  -4.791  -7.824  0.00  0.00     0.001 A 
ATOM     15  C   UNL d   1      -2.223  -4.269  -6.579  0.00  0.00     0.014 A 
ENDBRANCH   5  10
ENDBRANCH   1   3
BRANCH   1  16
ATOM     16  O   UNL d   1       0.630  -3.068  -0.300  0.00  0.00    -0.272 OA
BRANCH  16  17
ATOM     17  C   UNL d   1       1.994  -2.856   0.033  0.00  0.00     0.106 A 
ATOM     18  C   UNL d   1       2.303  -1.946   1.070  0.00  0.00     0.064 A 
ATOM     19  C   UNL d   1       3.665  -1.626   1.219  0.00  0.00     0.032 A 
ATOM     20  C   UNL d   1       4.660  -2.184   0.408  0.00  0.00     0.002 A 
ATOM     21  C   UNL d   1       4.323  -3.105  -0.574  0.00  0.00     0.003 A 
ATOM     22  C   UNL d   1       2.987  -3.439  -0.771  0.00  0.00     0.040 A 
BRANCH  18  23
ATOM     23  N   UNL d   1       1.360  -1.425   1.936  0.00  0.00    -0.375 N 
ATOM     24  C   UNL d   1       1.695  -1.065   3.325  0.00  0.00     0.149 C 
ATOM     25  C   UNL d   1       0.524  -1.471   4.238  0.00  0.00     0.187 C 
ATOM     26  O   UNL d   1      -0.723  -0.893   3.807  0.00  0.00    -0.388 OA
ATOM     27  C   UNL d   1      -1.018  -1.292   2.457  0.00  0.00     0.187 C 
ATOM     28  C   UNL d   1       0.089  -0.841   1.493  0.00  0.00     0.149 C 
ENDBRANCH  18  23
ENDBRANCH  16  17
ENDBRANCH   1  16
TORSDOF 5
