REMARK  5 active torsions:
REMARK  status: ('A' for Active; 'I' for Inactive)
REMARK    1  A    between atoms: C_6  and  C_1 
REMARK    2  A    between atoms: N_22  and  C_2 
REMARK       I    between atoms: N_14  and  C_6 
REMARK    3  A    between atoms: C_7  and  C_12 
REMARK    4  A    between atoms: C_8  and  C_13 
REMARK    5  A    between atoms: C_15  and  N_14 
ROOT
ATOM      1  C   UNL d   1       3.926   0.051   0.197  0.00  0.00     0.265 C 
ATOM      2  N   UNL d   1       4.544  -1.176  -0.030  0.00  0.00    -0.322 N 
ATOM      3  O   UNL d   1       4.556   1.095   0.379  0.00  0.00    -0.267 OA
ATOM      4  H   UNL d   1       3.927  -1.945  -0.266  0.00  0.00     0.169 HD
ENDROOT
BRANCH   1   5
ATOM      5  C   UNL d   1       2.462   0.059   0.199  0.00  0.00     0.102 A 
ATOM      6  C   UNL d   1       1.641   1.165   0.378  0.00  0.00     0.062 A 
ATOM      7  C   UNL d   1       0.229   0.864   0.298  0.00  0.00     0.032 A 
ATOM      8  C   UNL d   1      -0.975   1.624   0.389  0.00  0.00    -0.045 A 
ATOM      9  C   UNL d   1       0.077  -0.500   0.045  0.00  0.00     0.088 A 
ATOM     10  C   UNL d   1      -2.182   0.940   0.141  0.00  0.00     0.032 A 
ATOM     11  C   UNL d   1      -1.105   3.092   0.698  0.00  0.00     0.049 C 
ATOM     12  C   UNL d   1      -2.181  -0.418  -0.145  0.00  0.00     0.006 A 
ATOM     13  N   UNL d   1      -1.072  -1.173  -0.166  0.00  0.00    -0.354 N 
ATOM     14  C   UNL d   1      -3.476  -1.105  -0.469  0.00  0.00     0.068 C 
ATOM     15  HN  UNL d   1      -1.096  -2.180  -0.327  1.00  0.00     0.166 HD
ATOM     16  S   UNL d   1       1.544  -1.361  -0.011  0.00  0.00    -0.064 SA
BRANCH   6  17
ATOM     17  N   UNL d   1       2.169   2.394   0.571  0.00  0.00    -0.397 N 
ATOM     18  H   UNL d   1       3.187   2.518   0.609  0.00  0.00     0.156 HD
ATOM     19  H   UNL d   1       1.659   3.236   0.788  0.00  0.00     0.156 HD
ENDBRANCH   6  17
ENDBRANCH   1   5
BRANCH   2  20
ATOM     20  C   UNL d   1       5.929  -1.452   0.050  0.00  0.00     0.036 A 
ATOM     21  C   UNL d   1       6.870  -0.519   0.492  0.00  0.00     0.045 A 
ATOM     22  C   UNL d   1       8.230  -0.839   0.616  0.00  0.00     0.050 A 
ATOM     23  C   UNL d   1       8.655  -2.126   0.273  0.00  0.00     0.032 A 
ATOM     24  C   UNL d   1       7.734  -3.087  -0.176  0.00  0.00     0.050 A 
ATOM     25  C   UNL d   1       6.373  -2.737  -0.287  0.00  0.00     0.045 A 
BRANCH  22  26
ATOM     26  C   UNL d   1       9.186   0.211   1.131  0.00  0.00     0.417 C 
ATOM     27  F   UNL d   1      10.457  -0.248   1.288  0.00  0.00    -0.166 F 
ATOM     28  F   UNL d   1       9.275   1.288   0.304  0.00  0.00    -0.166 F 
ATOM     29  F   UNL d   1       8.813   0.698   2.348  0.00  0.00    -0.166 F 
ENDBRANCH  22  26
BRANCH  24  30
ATOM     30  C   UNL d   1       8.191  -4.485  -0.526  0.00  0.00     0.417 C 
ATOM     31  F   UNL d   1       9.504  -4.713  -0.245  0.00  0.00    -0.166 F 
ATOM     32  F   UNL d   1       7.494  -5.441   0.148  0.00  0.00    -0.166 F 
ATOM     33  F   UNL d   1       8.036  -4.767  -1.847  0.00  0.00    -0.166 F 
ENDBRANCH  24  30
ENDBRANCH   2  20
TORSDOF 5
