REMARK  4 active torsions:
REMARK  status: ('A' for Active; 'I' for Inactive)
REMARK    1  A    between atoms: C_2  and  C_1 
REMARK       I    between atoms: N_6  and  C_1 
REMARK    2  A    between atoms: O_8  and  C_3 
REMARK    3  A    between atoms: N_13  and  N_6 
REMARK    4  A    between atoms: C_9  and  O_8 
ROOT
ATOM      1  C   UNL d   1       0.517  -0.907  -0.941  0.00  0.00     0.147 A 
ATOM      2  C   UNL d   1      -0.803  -1.494  -2.597  0.00  0.00     0.191 A 
ATOM      3  O   UNL d   1      -0.533  -0.487  -1.713  0.00  0.00    -0.282 OA
ATOM      4  C   UNL d   1       0.886  -2.185  -1.315  0.00  0.00     0.048 A 
ATOM      5  C   UNL d   1       0.021  -2.570  -2.365  0.00  0.00     0.067 A 
ENDROOT
BRANCH   2   6
ATOM      6  O   UNL d   1      -1.782  -1.289  -3.473  0.00  0.00    -0.286 OA
BRANCH   6   7
ATOM      7  C   UNL d   1      -2.000  -0.051  -4.033  0.00  0.00     0.100 A 
ATOM      8  C   UNL d   1      -3.299   0.285  -4.434  0.00  0.00     0.069 A 
ATOM      9  C   UNL d   1      -3.555   1.521  -5.033  0.00  0.00     0.050 A 
ATOM     10 CL   UNL d   1      -4.620  -0.804  -4.207  0.00  0.00    -0.081 Cl
ATOM     11  C   UNL d   1      -2.507   2.417  -5.235  0.00  0.00     0.035 A 
ATOM     12  C   UNL d   1      -1.207   2.085  -4.861  0.00  0.00     0.026 A 
ATOM     13 CL   UNL d   1      -2.816   3.945  -5.962  0.00  0.00    -0.084 Cl
ATOM     14  C   UNL d   1      -0.951   0.846  -4.276  0.00  0.00     0.041 A 
ENDBRANCH   6   7
ENDBRANCH   2   6
BRANCH   1  15
ATOM     15  C   UNL d   1       1.075  -0.038   0.078  0.00  0.00     0.289 C 
ATOM     16  N   UNL d   1       0.500   1.233   0.125  0.00  0.00    -0.284 N 
ATOM     17  H   UNL d   1      -0.261   1.439  -0.516  0.00  0.00     0.184 HD
ATOM     18  O   UNL d   1       1.984  -0.408   0.816  0.00  0.00    -0.264 OA
BRANCH  16  19
ATOM     19  N   UNL d   1       0.871   2.234   1.061  0.00  0.00    -0.237 NA
ATOM     20  C   UNL d   1       0.555   1.844   2.437  0.00  0.00     0.135 C 
ATOM     21  C   UNL d   1       2.276   2.633   0.937  0.00  0.00     0.135 C 
ENDBRANCH  16  19
ENDBRANCH   1  15
TORSDOF 4
