REMARK  6 active torsions:
REMARK  status: ('A' for Active; 'I' for Inactive)
REMARK    1  A    between atoms: C_9  and  C_1 
REMARK    2  A    between atoms: N_17  and  C_3 
REMARK    3  A    between atoms: C_16  and  C_6 
REMARK       I    between atoms: N_15  and  C_9 
REMARK    4  A    between atoms: C_19  and  C_12 
REMARK    5  A    between atoms: N_13  and  N_15 
REMARK    6  A    between atoms: C_23  and  C_22 
ROOT
ATOM      1  C   UNL d   1      -2.570  -0.698  -0.003  0.00  0.00     0.103 A 
ATOM      2  C   UNL d   1      -0.195  -0.970  -0.029  0.00  0.00     0.040 A 
ATOM      3  C   UNL d   1      -1.504  -1.589  -0.061  0.00  0.00     0.062 A 
ATOM      4  C   UNL d   1      -0.377   0.408  -0.003  0.00  0.00     0.103 A 
ATOM      5  S   UNL d   1      -2.011   0.906   0.004  0.00  0.00    -0.062 SA
ATOM      6  C   UNL d   1       1.161  -1.435  -0.006  0.00  0.00     0.018 A 
ATOM      7  N   UNL d   1       1.859   0.893   0.057  0.00  0.00    -0.298 N 
ATOM      8  HN  UNL d   1       2.617   1.575   0.078  1.00  0.00     0.187 HD
ATOM      9  N   UNL d   1       0.608   1.325   0.021  0.00  0.00    -0.292 N 
ATOM     10  HN  UNL d   1       0.397   2.322   0.011  1.00  0.00     0.187 HD
ATOM     11  C   UNL d   1       2.164  -0.433   0.066  0.00  0.00     0.070 A 
ENDROOT
BRANCH   1  12
ATOM     12  C   UNL d   1      -3.986  -1.082   0.035  0.00  0.00     0.279 C 
ATOM     13  N   UNL d   1      -4.936  -0.084  -0.076  0.00  0.00    -0.266 N 
ATOM     14  H   UNL d   1      -4.684   0.893  -0.183  0.00  0.00     0.190 HD
ATOM     15  O   UNL d   1      -4.317  -2.269   0.141  0.00  0.00    -0.265 OA
BRANCH  13  16
ATOM     16  N   UNL d   1      -6.244  -0.478  -0.097  0.00  0.00    -0.308 N 
ATOM     17  C   UNL d   1      -7.161   0.419  -0.228  0.00  0.00     0.120 C 
ATOM     18  HN  UNL d   1      -6.491  -1.464  -0.011  1.00  0.00     0.186 HD
BRANCH  17  19
ATOM     19  C   UNL d   1      -8.580   0.012  -0.247  0.00  0.00    -0.004 A 
ATOM     20  C   UNL d   1      -9.571   0.974  -0.338  0.00  0.00     0.100 A 
ATOM     21  N   UNL d   1     -10.896   0.688  -0.337  0.00  0.00    -0.374 N 
ATOM     22  C   UNL d   1     -11.236  -0.618  -0.242  0.00  0.00     0.087 A 
ATOM     23  HN  UNL d   1     -11.602   1.421  -0.405  1.00  0.00     0.164 HD
ATOM     24  C   UNL d   1     -10.316  -1.653  -0.157  0.00  0.00     0.018 A 
ATOM     25  C   UNL d   1      -8.962  -1.329  -0.160  0.00  0.00     0.015 A 
ENDBRANCH  17  19
ENDBRANCH  13  16
ENDBRANCH   1  12
BRANCH   3  26
ATOM     26  N   UNL d   1      -1.752  -2.920  -0.113  0.00  0.00    -0.397 N 
ATOM     27  H   UNL d   1      -1.113  -3.592  -0.520  0.00  0.00     0.156 HD
ATOM     28  H   UNL d   1      -2.721  -3.262  -0.083  0.00  0.00     0.156 HD
ENDBRANCH   3  26
BRANCH   6  29
ATOM     29  C   UNL d   1       1.447  -2.889  -0.060  0.00  0.00    -0.023 C 
ATOM     30  C   UNL d   1       2.378  -3.432  -0.966  0.00  0.00     0.012 C 
ATOM     31  C   UNL d   1       2.671  -4.800  -0.979  0.00  0.00     0.001 C 
ATOM     32  C   UNL d   1       1.958  -5.671  -0.164  0.00  0.00     0.000 C 
ATOM     33  C   UNL d   1       1.019  -5.166   0.727  0.00  0.00     0.001 C 
ATOM     34  C   UNL d   1       0.828  -3.787   0.827  0.00  0.00     0.012 C 
ENDBRANCH   6  29
BRANCH  11  35
ATOM     35  C   UNL d   1       3.634  -0.698   0.146  0.00  0.00    -0.007 A 
ATOM     36  C   UNL d   1       4.556   0.090  -0.572  0.00  0.00     0.014 A 
ATOM     37  C   UNL d   1       5.926  -0.217  -0.593  0.00  0.00     0.001 A 
ATOM     38  C   UNL d   1       6.404  -1.328   0.093  0.00  0.00     0.000 A 
ATOM     39  C   UNL d   1       5.527  -2.099   0.844  0.00  0.00     0.001 A 
ATOM     40  C   UNL d   1       4.171  -1.758   0.903  0.00  0.00     0.014 A 
ENDBRANCH  11  35
TORSDOF 6
