REMARK  3 active torsions:
REMARK  status: ('A' for Active; 'I' for Inactive)
REMARK    1  A    between atoms: C_8  and  C_2 
REMARK    2  A    between atoms: S_11  and  C_7 
REMARK    3  A    between atoms: C_9  and  C_10 
ROOT
ATOM      1  C   UNL d   1      -0.656  -2.378  -0.054  0.00  0.00     0.017 A 
ATOM      2  C   UNL d   1      -1.430  -5.128  -0.132  0.00  0.00    -0.051 A 
ATOM      3  C   UNL d   1      -1.474  -2.861  -1.080  0.00  0.00     0.016 A 
ATOM      4  C   UNL d   1      -0.230  -3.280   0.927  0.00  0.00     0.016 A 
ATOM      5  C   UNL d   1      -1.853  -4.215  -1.117  0.00  0.00     0.009 A 
ATOM      6  C   UNL d   1      -0.609  -4.628   0.889  0.00  0.00     0.009 A 
ENDROOT
BRANCH   1   7
ATOM      7  C   UNL d   1      -0.228  -0.988   0.040  0.00  0.00     0.175 A 
ATOM      8  O   UNL d   1      -0.586  -0.127  -0.964  0.00  0.00    -0.267 OA
ATOM      9  C   UNL d   1      -0.003   1.044  -0.551  0.00  0.00     0.203 A 
ATOM     10  N   UNL d   1       0.639   0.910   0.592  0.00  0.00    -0.272 N 
ATOM     11  N   UNL d   1       0.496  -0.403   0.974  0.00  0.00    -0.277 N 
ATOM     12  HN  UNL d   1       1.144   1.639   1.096  1.00  0.00     0.189 HD
ATOM     13  HN  UNL d   1       0.875  -0.839   1.814  1.00  0.00     0.189 HD
BRANCH   9  14
ATOM     14  S   UNL d   1      -0.105   2.525  -1.455  0.00  0.00    -0.089 SA
ATOM     15  C   UNL d   1       0.883   3.613  -0.400  0.00  0.00     0.099 C 
ENDBRANCH   9  14
ENDBRANCH   1   7
BRANCH   2  16
ATOM     16  C   UNL d   1      -1.867  -6.604  -0.181  0.00  0.00    -0.024 C 
ATOM     17  C   UNL d   1      -1.303  -7.454   0.981  0.00  0.00     0.019 C 
ATOM     18  C   UNL d   1      -3.406  -6.694  -0.105  0.00  0.00     0.019 C 
ATOM     19  C   UNL d   1      -1.389  -7.259  -1.494  0.00  0.00     0.019 C 
ENDBRANCH   2  16
TORSDOF 3
