REMARK  3 active torsions:
REMARK  status: ('A' for Active; 'I' for Inactive)
REMARK    1  A    between atoms: N_5  and  C_1 
REMARK    2  A    between atoms: C_4  and  C_6 
REMARK    3  A    between atoms: C_7  and  C_12 
REMARK       I    between atoms: N_19  and  C_7 
ROOT
ATOM      1  C   UNL d   1       0.089   1.350  -0.053  0.00  0.00     0.680 A 
ATOM      2  N   UNL d   1       0.324   0.793  -1.251  0.00  0.00    -0.186 N 
ATOM      3  HN  UNL d   1       0.551   1.378  -2.055  1.00  0.00     0.184 HD
ATOM      4  C   UNL d   1       0.258  -0.554  -1.384  0.00  0.00     0.133 A 
ATOM      5  N   UNL d   1      -0.213   0.607   1.021  0.00  0.00    -0.202 N 
ATOM      6  HN  UNL d   1      -0.385   1.043   1.927  1.00  0.00     0.183 HD
ATOM      7  C   UNL d   1      -0.053  -1.370  -0.317  0.00  0.00     0.052 A 
ATOM      8  C   UNL d   1      -0.281  -0.729   0.872  0.00  0.00     0.108 A 
ENDROOT
BRANCH   1   9
ATOM      9  N   UNL d   1       0.224   2.731   0.067  0.00  0.00    -0.218 N 
ATOM     10  C   UNL d   1       0.010   3.465  -1.179  0.00  0.00     0.142 C 
ATOM     11  C   UNL d   1       0.564   4.881  -1.033  0.00  0.00     0.034 C 
ATOM     12  C   UNL d   1      -0.021   5.604   0.184  0.00  0.00     0.081 C 
ATOM     13  C   UNL d   1       0.134   4.742   1.446  0.00  0.00     0.034 C 
ATOM     14  C   UNL d   1      -0.395   3.317   1.256  0.00  0.00     0.142 C 
BRANCH  12  15
ATOM     15  C   UNL d   1      -1.470   6.017  -0.040  0.00  0.00     0.219 C 
ATOM     16  O   UNL d   1      -2.404   5.693   0.685  0.00  0.00    -0.273 OA
ATOM     17  N   UNL d   1      -1.690   6.827  -1.114  0.00  0.00    -0.370 N 
ATOM     18  H   UNL d   1      -0.941   7.292  -1.609  0.00  0.00     0.159 HD
ATOM     19  H   UNL d   1      -2.631   7.179  -1.235  0.00  0.00     0.159 HD
ENDBRANCH  12  15
ENDBRANCH   1   9
BRANCH   4  20
ATOM     20  C   UNL d   1       0.539  -1.165  -2.742  0.00  0.00     0.433 C 
ATOM     21  F   UNL d   1       0.848  -0.261  -3.714  0.00  0.00    -0.165 F 
ATOM     22  F   UNL d   1       1.579  -2.049  -2.713  0.00  0.00    -0.165 F 
ATOM     23  F   UNL d   1      -0.526  -1.874  -3.222  0.00  0.00    -0.165 F 
ENDBRANCH   4  20
TORSDOF 3
