REMARK  4 active torsions:
REMARK  status: ('A' for Active; 'I' for Inactive)
REMARK    1  A    between atoms: C_6  and  C_1 
REMARK    2  A    between atoms: C_8  and  C_6 
REMARK    3  A    between atoms: S_9  and  C_8 
REMARK    4  A    between atoms: C_13  and  S_9 
ROOT
ATOM      1  C   UNL d   1       2.426  -0.042   0.086  0.00  0.00     0.059 A 
ATOM      2  S   UNL d   1       1.659   1.485   0.166  0.00  0.00    -0.085 SA
ATOM      3  C   UNL d   1       1.490  -1.060  -0.103  0.00  0.00    -0.029 A 
ATOM      4  C   UNL d   1       0.124  -0.561  -0.048  0.00  0.00    -0.010 A 
ATOM      5  C   UNL d   1       0.086   0.827   0.056  0.00  0.00     0.016 A 
ATOM      6  C   UNL d   1      -1.119  -1.252  -0.092  0.00  0.00     0.037 A 
ATOM      7  C   UNL d   1      -1.129   1.543   0.073  0.00  0.00     0.021 A 
ATOM      8  C   UNL d   1      -2.324  -0.546  -0.047  0.00  0.00     0.035 A 
ATOM      9  C   UNL d   1       1.797  -2.518  -0.301  0.00  0.00     0.050 C 
ATOM     10  C   UNL d   1      -2.332   0.838   0.021  0.00  0.00     0.025 A 
ATOM     11 CL   UNL d   1      -3.815  -1.407  -0.075  0.00  0.00    -0.084 Cl
ENDROOT
BRANCH   1  12
ATOM     12  C   UNL d   1       3.896  -0.147   0.206  0.00  0.00     0.176 C 
ATOM     13  O   UNL d   1       4.465  -1.232   0.085  0.00  0.00    -0.291 OA
BRANCH  12  14
ATOM     14  C   UNL d   1       4.682   1.136   0.554  0.00  0.00     0.164 C 
BRANCH  14  15
ATOM     15  S   UNL d   1       6.493   0.874   0.510  0.00  0.00    -0.122 SA
BRANCH  15  16
ATOM     16  C   UNL d   1       7.135   2.470   1.001  0.00  0.00     0.001 A 
ATOM     17  C   UNL d   1       6.743   3.113   2.180  0.00  0.00     0.020 A 
ATOM     18  C   UNL d   1       7.387   4.288   2.594  0.00  0.00     0.025 A 
ATOM     19  C   UNL d   1       8.426   4.820   1.833  0.00  0.00     0.034 A 
ATOM     20  C   UNL d   1       8.814   4.200   0.650  0.00  0.00     0.025 A 
ATOM     21 CL   UNL d   1       9.256   6.227   2.376  0.00  0.00    -0.084 Cl
ATOM     22  C   UNL d   1       8.171   3.027   0.239  0.00  0.00     0.020 A 
ENDBRANCH  15  16
ENDBRANCH  14  15
ENDBRANCH  12  14
ENDBRANCH   1  12
TORSDOF 4
