REMARK  2 active torsions:
REMARK  status: ('A' for Active; 'I' for Inactive)
REMARK    1  A    between atoms: C_3  and  N_1 
REMARK    2  A    between atoms: N_2  and  C_3 
ROOT
ATOM      1  C   UNL d   1       0.067  -3.017   0.033  0.00  0.00     0.261 C 
ENDROOT
BRANCH   1   2
ATOM      2  N   UNL d   1       1.316  -3.757   0.137  0.00  0.00    -0.328 N 
ATOM      3  C   UNL d   1       1.985  -4.309  -0.942  0.00  0.00     0.047 A 
ATOM      4  C   UNL d   1       2.966  -5.156  -0.423  0.00  0.00     0.003 A 
ATOM      5  C   UNL d   1       1.789  -4.161  -2.326  0.00  0.00     0.030 A 
ATOM      6  C   UNL d   1       3.770  -5.895  -1.319  0.00  0.00     0.014 A 
ATOM      7  C   UNL d   1       2.898  -5.080   1.002  0.00  0.00     0.003 A 
ATOM      8  C   UNL d   1       3.558  -5.782  -2.696  0.00  0.00     0.001 A 
ATOM      9  C   UNL d   1       2.583  -4.921  -3.190  0.00  0.00     0.002 A 
ATOM     10  C   UNL d   1       1.847  -4.223   1.329  0.00  0.00     0.047 A 
ATOM     11  C   UNL d   1       3.629  -5.690   2.046  0.00  0.00     0.014 A 
ATOM     12  C   UNL d   1       1.500  -3.950   2.665  0.00  0.00     0.030 A 
ATOM     13  C   UNL d   1       2.237  -4.567   3.679  0.00  0.00     0.002 A 
ATOM     14  C   UNL d   1       3.286  -5.429   3.376  0.00  0.00     0.001 A 
ENDBRANCH   1   2
BRANCH   1  15
ATOM     15  N   UNL d   1       0.130  -1.569  -0.171  0.00  0.00    -0.328 N 
ATOM     16  C   UNL d   1       1.026  -0.665   0.381  0.00  0.00     0.047 A 
ATOM     17  C   UNL d   1       0.478   0.610   0.204  0.00  0.00     0.003 A 
ATOM     18  C   UNL d   1       2.259  -0.823   1.041  0.00  0.00     0.030 A 
ATOM     19  C   UNL d   1       1.139   1.731   0.759  0.00  0.00     0.014 A 
ATOM     20  C   UNL d   1      -0.714   0.475  -0.568  0.00  0.00     0.003 A 
ATOM     21  C   UNL d   1       2.333   1.561   1.459  0.00  0.00     0.001 A 
ATOM     22  C   UNL d   1       2.894   0.300   1.581  0.00  0.00     0.002 A 
ATOM     23  C   UNL d   1      -0.918  -0.887  -0.788  0.00  0.00     0.047 A 
ATOM     24  C   UNL d   1      -1.647   1.403  -1.079  0.00  0.00     0.014 A 
ATOM     25  C   UNL d   1      -2.047  -1.350  -1.493  0.00  0.00     0.030 A 
ATOM     26  C   UNL d   1      -2.953  -0.412  -1.996  0.00  0.00     0.002 A 
ATOM     27  C   UNL d   1      -2.755   0.949  -1.800  0.00  0.00     0.001 A 
ENDBRANCH   1  15
TORSDOF 2
