REMARK  6 active torsions:
REMARK  status: ('A' for Active; 'I' for Inactive)
REMARK    1  A    between atoms: N_3  and  S_1 
REMARK    2  A    between atoms: C_5  and  S_1 
REMARK    3  A    between atoms: S_2  and  N_4 
REMARK    4  A    between atoms: C_6  and  S_2 
REMARK    5  A    between atoms: C_11  and  N_3 
REMARK    6  A    between atoms: N_4  and  C_16 
ROOT
ATOM      1  C   UNL d   1      -0.550  -1.855   1.369  0.00  0.00     0.044 A 
ATOM      2  C   UNL d   1      -2.317  -2.363   3.481  0.00  0.00     0.042 A 
ATOM      3  C   UNL d   1      -1.687  -1.062   1.535  0.00  0.00     0.032 A 
ATOM      4  C   UNL d   1      -0.336  -2.937   2.230  0.00  0.00     0.032 A 
ATOM      5  C   UNL d   1      -2.579  -1.325   2.586  0.00  0.00     0.032 A 
ATOM      6  C   UNL d   1      -1.213  -3.189   3.287  0.00  0.00     0.032 A 
ENDROOT
BRANCH   1   7
ATOM      7  N   UNL d   1       0.469  -1.545   0.409  0.00  0.00    -0.276 N 
ATOM      8  C   UNL d   1       0.105  -1.413  -1.007  0.00  0.00     0.170 C 
BRANCH   7   9
ATOM      9  S   UNL d   1       1.876  -0.759   0.964  0.00  0.00     0.264 S 
ATOM     10  O   UNL d   1       2.902  -0.925  -0.048  0.00  0.00    -0.200 OA
ATOM     11  O   UNL d   1       2.143  -1.145   2.335  0.00  0.00    -0.200 OA
BRANCH   9  12
ATOM     12  C   UNL d   1       1.447   0.975   0.984  0.00  0.00     0.080 A 
ATOM     13  C   UNL d   1       0.941   1.552   2.152  0.00  0.00     0.026 A 
ATOM     14  C   UNL d   1       0.769   2.939   2.220  0.00  0.00     0.008 A 
ATOM     15  C   UNL d   1       1.111   3.756   1.132  0.00  0.00    -0.062 A 
ATOM     16  C   UNL d   1       1.617   3.165  -0.033  0.00  0.00     0.008 A 
ATOM     17  C   UNL d   1       0.971   5.248   1.239  0.00  0.00     0.048 C 
ATOM     18  C   UNL d   1       1.792   1.781  -0.107  0.00  0.00     0.026 A 
ENDBRANCH   9  12
ENDBRANCH   7   9
ENDBRANCH   1   7
BRANCH   2  19
ATOM     19  N   UNL d   1      -3.079  -2.484   4.672  0.00  0.00    -0.281 N 
ATOM     20  H   UNL d   1      -2.611  -2.338   5.564  0.00  0.00     0.179 HD
BRANCH  19  21
ATOM     21  S   UNL d   1      -4.501  -3.355   4.746  0.00  0.00     0.263 S 
ATOM     22  O   UNL d   1      -4.885  -3.370   6.147  0.00  0.00    -0.200 OA
ATOM     23  O   UNL d   1      -5.407  -2.866   3.730  0.00  0.00    -0.200 OA
BRANCH  21  24
ATOM     24  C   UNL d   1      -4.011  -5.003   4.312  0.00  0.00     0.079 A 
ATOM     25  C   UNL d   1      -3.540  -5.880   5.296  0.00  0.00     0.026 A 
ATOM     26  C   UNL d   1      -3.131  -7.166   4.932  0.00  0.00     0.008 A 
ATOM     27  C   UNL d   1      -3.207  -7.585   3.596  0.00  0.00    -0.062 A 
ATOM     28  C   UNL d   1      -3.718  -6.708   2.630  0.00  0.00     0.008 A 
ATOM     29  C   UNL d   1      -2.694  -8.939   3.198  0.00  0.00     0.048 C 
ATOM     30  C   UNL d   1      -4.129  -5.424   2.986  0.00  0.00     0.026 A 
ENDBRANCH  21  24
ENDBRANCH  19  21
ENDBRANCH   2  19
TORSDOF 6
