REMARK  4 active torsions:
REMARK  status: ('A' for Active; 'I' for Inactive)
REMARK    1  A    between atoms: C_4  and  C_1 
REMARK    2  A    between atoms: C_5  and  C_2 
REMARK    3  A    between atoms: O_10  and  C_4 
REMARK    4  A    between atoms: O_9  and  C_5 
ROOT
ATOM      1  C   UNL d   1       0.865   1.220   0.012  0.00  0.00     0.056 A 
ATOM      2  C   UNL d   1       0.857  -1.216  -0.013  0.00  0.00     0.056 A 
ATOM      3  C   UNL d   1       0.146   0.004  -0.000  0.00  0.00     0.044 A 
ATOM      4 BR   UNL d   1      -1.763   0.011  -0.000  0.00  0.00    -0.049 Br
ATOM      5  C   UNL d   1       2.273   1.197   0.023  0.00  0.00     0.020 A 
ATOM      6  C   UNL d   1       2.265  -1.202  -0.017  0.00  0.00     0.020 A 
ATOM      7  C   UNL d   1       2.971  -0.005   0.006  0.00  0.00     0.002 A 
ENDROOT
BRANCH   1   8
ATOM      8  C   UNL d   1       0.276   2.588   0.058  0.00  0.00     0.177 C 
ATOM      9  O   UNL d   1       0.830   3.502   0.652  0.00  0.00    -0.646 OA
BRANCH   8  10
ATOM     10  O   UNL d   1      -0.835   2.781  -0.674  0.00  0.00    -0.773 OA
ATOM     11  H   UNL d   1      -1.215   1.987  -1.093  0.00  0.00     0.167 HD
ENDBRANCH   8  10
ENDBRANCH   1   8
BRANCH   2  12
ATOM     12  C   UNL d   1       0.261  -2.581  -0.073  0.00  0.00     0.177 C 
ATOM     13  O   UNL d   1       0.811  -3.492  -0.670  0.00  0.00    -0.646 OA
BRANCH  12  14
ATOM     14  O   UNL d   1      -0.857  -2.771   0.650  0.00  0.00    -0.773 OA
ATOM     15  H   UNL d   1      -1.234  -1.978   1.075  0.00  0.00     0.167 HD
ENDBRANCH  12  14
ENDBRANCH   2  12
TORSDOF 4
