REMARK  4 active torsions:
REMARK  status: ('A' for Active; 'I' for Inactive)
REMARK    1  A    between atoms: N_2  and  C_1 
REMARK       I    between atoms: C_4  and  N_2 
REMARK    2  A    between atoms: N_5  and  C_3 
REMARK       I    between atoms: N_9  and  C_4 
REMARK    3  A    between atoms: C_19  and  N_9 
REMARK    4  A    between atoms: C_12  and  C_13 
ROOT
ATOM      1  N   UNL d   1       1.904   5.685  -0.042  0.00  0.00    -0.301 N 
ATOM      2  C   UNL d   1       2.455   4.468   0.298  0.00  0.00     0.325 C 
ATOM      3  N   UNL d   1       2.033   3.382  -0.419  0.00  0.00    -0.309 N 
ATOM      4  O   UNL d   1       3.365   4.477   1.125  0.00  0.00    -0.247 OA
ATOM      5  H   UNL d   1       2.463   6.442   0.317  0.00  0.00     0.171 HD
ATOM      6  H   UNL d   1       1.315   3.577  -1.103  0.00  0.00     0.170 HD
ENDROOT
BRANCH   1   7
ATOM      7  C   UNL d   1       0.685   6.008  -0.608  0.00  0.00     0.105 A 
ATOM      8  C   UNL d   1       0.273   7.162  -1.267  0.00  0.00     0.073 A 
ATOM      9  C   UNL d   1      -1.138   7.112  -1.560  0.00  0.00     0.040 A 
ATOM     10  C   UNL d   1      -1.736   5.954  -1.117  0.00  0.00     0.054 A 
ATOM     11  S   UNL d   1      -0.606   4.898  -0.412  0.00  0.00    -0.082 SA
BRANCH   8  12
ATOM     12  N   UNL d   1       1.076   8.283  -1.689  0.00  0.00    -0.330 N 
ATOM     13  C   UNL d   1       0.703   9.203  -2.659  0.00  0.00     0.097 A 
ATOM     14  C   UNL d   1       1.727  10.099  -2.869  0.00  0.00     0.019 A 
ATOM     15  C   UNL d   1       2.756   9.760  -1.974  0.00  0.00     0.019 A 
ATOM     16  C   UNL d   1       2.336   8.653  -1.266  0.00  0.00     0.097 A 
ENDBRANCH   8  12
ENDBRANCH   1   7
BRANCH   3  17
ATOM     17  C   UNL d   1       2.496   2.049  -0.348  0.00  0.00     0.036 A 
ATOM     18  C   UNL d   1       3.448   1.587   0.556  0.00  0.00     0.030 A 
ATOM     19  C   UNL d   1       3.818   0.230   0.580  0.00  0.00     0.010 A 
ATOM     20  C   UNL d   1       3.246  -0.712  -0.295  0.00  0.00    -0.051 A 
ATOM     21  C   UNL d   1       2.322  -0.220  -1.229  0.00  0.00     0.010 A 
ATOM     22  C   UNL d   1       1.949   1.133  -1.250  0.00  0.00     0.030 A 
BRANCH  20  23
ATOM     23  C   UNL d   1       3.603  -2.208  -0.188  0.00  0.00    -0.024 C 
ATOM     24  C   UNL d   1       2.814  -3.105  -1.171  0.00  0.00     0.019 C 
ATOM     25  C   UNL d   1       5.103  -2.430  -0.472  0.00  0.00     0.019 C 
ATOM     26  C   UNL d   1       3.286  -2.715   1.236  0.00  0.00     0.019 C 
ENDBRANCH  20  23
ENDBRANCH   3  17
TORSDOF 4
