REMARK  6 active torsions:
REMARK  status: ('A' for Active; 'I' for Inactive)
REMARK    1  A    between atoms: N_2  and  S_1 
REMARK    2  A    between atoms: C_5  and  S_1 
REMARK       I    between atoms: C_3  and  N_2 
REMARK       I    between atoms: N_4  and  C_3 
REMARK    3  A    between atoms: C_11  and  N_4 
REMARK    4  A    between atoms: C_19  and  N_4 
REMARK    5  A    between atoms: C_15  and  C_11 
REMARK    6  A    between atoms: C_14  and  C_19 
ROOT
ATOM      1  N   UNL d   1       5.055  -1.127   0.750  0.00  0.00    -0.197 NA
ATOM      2  C   UNL d   1       4.335  -0.289   1.096  0.00  0.00     0.060 C 
ATOM      3  C   UNL d   1       3.421   0.779   1.521  0.00  0.00     0.144 C 
ENDROOT
BRANCH   3   4
ATOM      4  C   UNL d   1       2.263   0.226   2.363  0.00  0.00     0.142 C 
BRANCH   4   5
ATOM      5  N   UNL d   1       1.321   1.281   2.773  0.00  0.00    -0.328 N 
ATOM      6  C   UNL d   1       0.437   1.919   1.902  0.00  0.00     0.332 C 
ATOM      7  N   UNL d   1       0.318   1.373   0.630  0.00  0.00    -0.232 N 
ATOM      8  O   UNL d   1      -0.203   2.911   2.220  0.00  0.00    -0.246 OA
ATOM      9  H   UNL d   1       0.740   0.497   0.364  0.00  0.00     0.183 HD
BRANCH   7  10
ATOM     10  S   UNL d   1      -0.256   2.188  -0.705  0.00  0.00     0.266 S 
ATOM     11  O   UNL d   1       0.077   1.325  -1.821  0.00  0.00    -0.200 OA
ATOM     12  O   UNL d   1       0.214   3.552  -0.669  0.00  0.00    -0.200 OA
BRANCH  10  13
ATOM     13  C   UNL d   1      -2.017   2.150  -0.541  0.00  0.00     0.080 A 
ATOM     14  C   UNL d   1      -2.750   3.338  -0.536  0.00  0.00     0.026 A 
ATOM     15  C   UNL d   1      -4.146   3.285  -0.541  0.00  0.00     0.008 A 
ATOM     16  C   UNL d   1      -4.815   2.053  -0.547  0.00  0.00    -0.062 A 
ATOM     17  C   UNL d   1      -4.065   0.868  -0.539  0.00  0.00     0.008 A 
ATOM     18  C   UNL d   1      -6.314   2.011  -0.598  0.00  0.00     0.048 C 
ATOM     19  C   UNL d   1      -2.670   0.915  -0.543  0.00  0.00     0.026 A 
ENDBRANCH  10  13
ENDBRANCH   7  10
BRANCH   5  20
ATOM     20  C   UNL d   1       1.574   1.927   4.065  0.00  0.00     0.166 C 
BRANCH  20  21
ATOM     21  C   UNL d   1       0.875   1.327   5.268  0.00  0.00    -0.040 A 
ATOM     22  C   UNL d   1       1.413   1.577   6.545  0.00  0.00     0.009 A 
ATOM     23  C   UNL d   1       0.716   1.226   7.705  0.00  0.00     0.001 A 
ATOM     24  C   UNL d   1      -0.527   0.610   7.607  0.00  0.00     0.000 A 
ATOM     25  C   UNL d   1      -1.060   0.324   6.351  0.00  0.00     0.001 A 
ATOM     26  C   UNL d   1      -0.366   0.680   5.189  0.00  0.00     0.009 A 
ENDBRANCH  20  21
ENDBRANCH   5  20
ENDBRANCH   4   5
ENDBRANCH   3   4
TORSDOF 6
