REMARK  3 active torsions:
REMARK  status: ('A' for Active; 'I' for Inactive)
REMARK    1  A    between atoms: C_12  and  C_4 
REMARK    2  A    between atoms: C_8  and  C_14 
REMARK    3  A    between atoms: C_9  and  C_13 
ROOT
ATOM      1  C   UNL d   1       0.552   2.517   0.019  0.00  0.00     0.011 A 
ATOM      2  C   UNL d   1       1.523   4.442  -1.138  0.00  0.00     0.049 A 
ATOM      3  C   UNL d   1       0.180   4.782   0.874  0.00  0.00     0.049 A 
ATOM      4  C   UNL d   1       0.952   5.295  -0.179  0.00  0.00     0.032 A 
ATOM      5  C   UNL d   1       1.318   3.055  -1.026  0.00  0.00     0.031 A 
ATOM      6  C   UNL d   1      -0.000   3.392   0.968  0.00  0.00     0.031 A 
ENDROOT
BRANCH   1   7
ATOM      7  C   UNL d   1       0.287   1.081   0.092  0.00  0.00     0.138 A 
ATOM      8  N   UNL d   1       0.699   0.199  -0.882  0.00  0.00    -0.318 N 
ATOM      9  C   UNL d   1       0.201  -0.952  -0.473  0.00  0.00     0.189 A 
ATOM     10  HN  UNL d   1       1.253   0.390  -1.717  1.00  0.00     0.169 HD
ATOM     11  C   UNL d   1       0.334  -2.191  -1.187  0.00  0.00     0.058 A 
ATOM     12  O   UNL d   1      -0.476  -0.827   0.713  0.00  0.00    -0.217 OA
ATOM     13  S   UNL d   1      -0.407  -3.629  -0.625  0.00  0.00    -0.097 SA
ATOM     14  C   UNL d   1       1.022  -2.412  -2.364  0.00  0.00     0.030 A 
ATOM     15  C   UNL d   1       0.188  -4.533  -1.946  0.00  0.00     0.057 A 
ATOM     16  C   UNL d   1       0.945  -3.771  -2.814  0.00  0.00    -0.054 A 
ATOM     17  C   UNL d   1       1.596  -4.300  -4.049  0.00  0.00     0.048 C 
ATOM     18  N   UNL d   1      -0.413   0.511   1.080  0.00  0.00    -0.242 N 
ATOM     19  HN  UNL d   1      -0.809   0.955   1.909  1.00  0.00     0.196 HD
ENDBRANCH   1   7
BRANCH   2  20
ATOM     20  C   UNL d   1       2.322   4.997  -2.295  0.00  0.00     0.417 C 
ATOM     21  F   UNL d   1       2.399   6.356  -2.297  0.00  0.00    -0.166 F 
ATOM     22  F   UNL d   1       3.607   4.549  -2.305  0.00  0.00    -0.166 F 
ATOM     23  F   UNL d   1       1.792   4.652  -3.501  0.00  0.00    -0.166 F 
ENDBRANCH   2  20
BRANCH   3  24
ATOM     24  C   UNL d   1      -0.486   5.691   1.881  0.00  0.00     0.417 C 
ATOM     25  F   UNL d   1      -0.289   7.014   1.628  0.00  0.00    -0.166 F 
ATOM     26  F   UNL d   1      -1.835   5.515   1.919  0.00  0.00    -0.166 F 
ATOM     27  F   UNL d   1      -0.042   5.480   3.149  0.00  0.00    -0.166 F 
ENDBRANCH   3  24
TORSDOF 3
