REMARK  4 active torsions:
REMARK  status: ('A' for Active; 'I' for Inactive)
REMARK    1  A    between atoms: C_7  and  N_1 
REMARK    2  A    between atoms: S_11  and  C_2 
REMARK    3  A    between atoms: C_9  and  C_13 
REMARK    4  A    between atoms: C_13  and  S_11 
ROOT
ATOM      1  N   UNL d   1      -0.279  -1.323   0.054  0.00  0.00    -0.279 N 
ATOM      2  C   UNL d   1       0.980  -0.728   0.077  0.00  0.00     0.167 A 
ATOM      3  N   UNL d   1       0.873   0.576  -0.007  0.00  0.00    -0.278 N 
ATOM      4  HN  UNL d   1       1.646   1.242  -0.007  1.00  0.00     0.189 HD
ATOM      5  N   UNL d   1      -0.450   0.888  -0.094  0.00  0.00    -0.287 N 
ATOM      6  HN  UNL d   1      -0.837   1.828  -0.179  1.00  0.00     0.188 HD
ATOM      7  C   UNL d   1      -1.144  -0.229  -0.050  0.00  0.00     0.101 A 
ATOM      8  C   UNL d   1      -2.627  -0.261   0.024  0.00  0.00     0.091 C 
ENDROOT
BRANCH   1   9
ATOM      9  C   UNL d   1      -0.642  -2.700   0.163  0.00  0.00     0.045 A 
ATOM     10  C   UNL d   1      -1.778  -3.192  -0.497  0.00  0.00     0.069 A 
ATOM     11  C   UNL d   1      -2.188  -4.515  -0.315  0.00  0.00     0.104 A 
ATOM     12  O   UNL d   1      -3.347  -4.891  -0.946  0.00  0.00    -0.346 OA
ATOM     13  C   UNL d   1      -1.436  -5.382   0.477  0.00  0.00     0.102 A 
ATOM     14  C   UNL d   1      -3.873  -6.098  -0.378  0.00  0.00     0.202 C 
ATOM     15  C   UNL d   1      -2.775  -7.138  -0.233  0.00  0.00     0.202 C 
ATOM     16  O   UNL d   1      -1.769  -6.694   0.686  0.00  0.00    -0.346 OA
ATOM     17  C   UNL d   1      -0.295  -4.913   1.119  0.00  0.00     0.042 A 
ATOM     18  C   UNL d   1       0.098  -3.577   0.970  0.00  0.00     0.033 A 
ENDBRANCH   1   9
BRANCH   2  19
ATOM     19  S   UNL d   1       2.508  -1.558   0.032  0.00  0.00    -0.087 SA
BRANCH  19  20
ATOM     20  C   UNL d   1       3.653  -0.144  -0.131  0.00  0.00     0.124 C 
BRANCH  20  21
ATOM     21  C   UNL d   1       5.070  -0.604  -0.401  0.00  0.00    -0.005 A 
ATOM     22  C   UNL d   1       5.457  -1.033  -1.687  0.00  0.00     0.042 A 
ATOM     23 CL   UNL d   1       4.366  -1.016  -3.033  0.00  0.00    -0.084 Cl
ATOM     24  C   UNL d   1       6.755  -1.492  -1.942  0.00  0.00     0.024 A 
ATOM     25  C   UNL d   1       7.703  -1.519  -0.925  0.00  0.00     0.003 A 
ATOM     26  C   UNL d   1       7.351  -1.085   0.349  0.00  0.00     0.024 A 
ATOM     27  C   UNL d   1       6.049  -0.637   0.612  0.00  0.00     0.042 A 
ATOM     28 CL   UNL d   1       5.723  -0.129   2.234  0.00  0.00    -0.084 Cl
ENDBRANCH  20  21
ENDBRANCH  19  20
ENDBRANCH   2  19
TORSDOF 4
