REMARK  7 active torsions:
REMARK  status: ('A' for Active; 'I' for Inactive)
REMARK       I    between atoms: N_2  and  C_1 
REMARK    1  A    between atoms: C_6  and  C_1 
REMARK    2  A    between atoms: C_8  and  N_2 
REMARK    3  A    between atoms: C_3  and  C_4 
REMARK    4  A    between atoms: O_9  and  C_3 
REMARK    5  A    between atoms: C_4  and  C_10 
REMARK    6  A    between atoms: C_10  and  C_8 
REMARK    7  A    between atoms: O_11  and  C_10 
ROOT
ATOM      1  C   UNL d   1       1.126  -0.163   0.050  0.00  0.00     0.251 C 
ATOM      2  N   UNL d   1       0.256  -1.229   0.138  0.00  0.00    -0.354 N 
ATOM      3  O   UNL d   1       2.341  -0.305  -0.044  0.00  0.00    -0.268 OA
ATOM      4  H   UNL d   1      -0.729  -1.068   0.320  0.00  0.00     0.162 HD
ENDROOT
BRANCH   2   5
ATOM      5  C   UNL d   1       0.712  -2.600  -0.015  0.00  0.00     0.155 C 
BRANCH   5   6
ATOM      6  C   UNL d   1       1.641  -3.127   1.103  0.00  0.00     0.145 C 
BRANCH   6   7
ATOM      7  C   UNL d   1       1.087  -2.985   2.515  0.00  0.00     0.143 C 
BRANCH   7   8
ATOM      8  C   UNL d   1      -0.172  -3.786   2.673  0.00  0.00     0.141 C 
ATOM      9  O   UNL d   1      -1.293  -3.343   2.455  0.00  0.00    -0.650 OA
BRANCH   8  10
ATOM     10  O   UNL d   1       0.045  -5.078   2.999  0.00  0.00    -0.776 OA
ATOM     11  H   UNL d   1       1.000  -5.300   3.069  0.00  0.00     0.167 HD
ENDBRANCH   8  10
ENDBRANCH   7   8
ENDBRANCH   6   7
BRANCH   6  12
ATOM     12  O   UNL d   1       1.974  -4.512   0.896  0.00  0.00    -0.393 OA
ATOM     13  H   UNL d   1       1.202  -4.963   0.504  0.00  0.00     0.210 HD
ENDBRANCH   6  12
ENDBRANCH   5   6
ENDBRANCH   2   5
BRANCH   1  14
ATOM     14  C   UNL d   1       0.545   1.207   0.103  0.00  0.00     0.032 A 
ATOM     15  C   UNL d   1       1.318   2.228   0.673  0.00  0.00     0.017 A 
ATOM     16  C   UNL d   1       0.848   3.543   0.699  0.00  0.00     0.001 A 
ATOM     17  C   UNL d   1      -0.390   3.849   0.140  0.00  0.00     0.000 A 
ATOM     18  C   UNL d   1      -1.163   2.838  -0.439  0.00  0.00     0.001 A 
ATOM     19  C   UNL d   1      -0.700   1.517  -0.458  0.00  0.00     0.017 A 
ENDBRANCH   1  14
TORSDOF 7
