REMARK  9 active torsions:
REMARK  status: ('A' for Active; 'I' for Inactive)
REMARK    1  A    between atoms: C_8  and  N_1 
REMARK    2  A    between atoms: S_7  and  C_2 
REMARK    3  A    between atoms: C_16  and  S_7 
REMARK    4  A    between atoms: C_9  and  C_16 
REMARK       I    between atoms: N_17  and  C_9 
REMARK    5  A    between atoms: C_10  and  C_19 
REMARK    6  A    between atoms: C_22  and  N_17 
REMARK    7  A    between atoms: S_18  and  C_23 
REMARK    8  A    between atoms: C_19  and  S_18 
REMARK    9  A    between atoms: C_23  and  C_22 
ROOT
ATOM      1  C   UNL d   1       2.524  -3.255   0.015  0.00  0.00     0.185 C 
ENDROOT
BRANCH   1   2
ATOM      2  C   UNL d   1       3.885  -3.939  -0.100  0.00  0.00     0.227 C 
ATOM      3  O   UNL d   1       4.930  -3.345  -0.343  0.00  0.00    -0.273 OA
ATOM      4  N   UNL d   1       3.840  -5.311   0.079  0.00  0.00    -0.360 N 
ATOM      5  H   UNL d   1       2.944  -5.778  -0.010  0.00  0.00     0.162 HD
BRANCH   4   6
ATOM      6  C   UNL d   1       5.034  -6.119  -0.124  0.00  0.00     0.132 C 
BRANCH   6   7
ATOM      7  C   UNL d   1       4.737  -7.621  -0.159  0.00  0.00     0.094 C 
BRANCH   7   8
ATOM      8  S   UNL d   1       3.623  -7.984  -1.558  0.00  0.00    -0.161 SA
BRANCH   8   9
ATOM      9  C   UNL d   1       3.529  -9.801  -1.421  0.00  0.00     0.139 C 
BRANCH   9  10
ATOM     10  C   UNL d   1       2.691 -10.331  -2.528  0.00  0.00     0.061 A 
ATOM     11  O   UNL d   1       1.540 -10.974  -2.175  0.00  0.00    -0.326 OA
ATOM     12  C   UNL d   1       0.910 -11.319  -3.329  0.00  0.00     0.142 A 
ATOM     13  C   UNL d   1       1.645 -10.919  -4.419  0.00  0.00     0.027 A 
ATOM     14  C   UNL d   1       2.805 -10.296  -3.904  0.00  0.00     0.035 A 
ENDBRANCH   9  10
ENDBRANCH   8   9
ENDBRANCH   7   8
ENDBRANCH   6   7
ENDBRANCH   4   6
ENDBRANCH   1   2
BRANCH   1  15
ATOM     15  S   UNL d   1       2.715  -1.653   0.843  0.00  0.00    -0.082 SA
BRANCH  15  16
ATOM     16  C   UNL d   1       1.096  -1.044   0.850  0.00  0.00     0.177 A 
ATOM     17  N   UNL d   1       0.686   0.221   1.270  0.00  0.00    -0.219 N 
ATOM     18  N   UNL d   1      -0.678   0.198   1.285  0.00  0.00     0.001 NA
ATOM     19  N   UNL d   1      -1.047  -0.991   0.838  0.00  0.00    -0.006 NA
ATOM     20  N   UNL d   1       0.038  -1.772   0.565  0.00  0.00    -0.264 N 
ATOM     21  HN  UNL d   1       0.031  -2.729   0.211  1.00  0.00     0.186 HD
BRANCH  17  22
ATOM     22  C   UNL d   1       1.382   1.405   1.661  0.00  0.00     0.056 A 
ATOM     23  C   UNL d   1       2.762   1.569   1.485  0.00  0.00     0.031 A 
ATOM     24  C   UNL d   1       3.405   2.729   1.929  0.00  0.00     0.002 A 
ATOM     25  C   UNL d   1       2.680   3.748   2.537  0.00  0.00     0.000 A 
ATOM     26  C   UNL d   1       1.302   3.619   2.683  0.00  0.00     0.002 A 
ATOM     27  C   UNL d   1       0.655   2.460   2.245  0.00  0.00     0.031 A 
ENDBRANCH  17  22
ENDBRANCH  15  16
ENDBRANCH   1  15
TORSDOF 9
