REMARK  5 active torsions:
REMARK  status: ('A' for Active; 'I' for Inactive)
REMARK    1  A    between atoms: C_2  and  S_1 
REMARK    2  A    between atoms: C_7  and  S_1 
REMARK    3  A    between atoms: C_3  and  C_8 
REMARK    4  A    between atoms: O_24  and  C_6 
REMARK    5  A    between atoms: N_10  and  C_18 
ROOT
ATOM      1  C   UNL d   1       0.513   0.198  -1.681  0.00  0.00     0.086 A 
ATOM      2  C   UNL d   1       0.414   1.447  -2.291  0.00  0.00     0.058 A 
ATOM      3  C   UNL d   1       0.140  -0.953  -2.391  0.00  0.00     0.028 A 
ATOM      4  C   UNL d   1      -0.049   1.530  -3.613  0.00  0.00     0.054 A 
ATOM      5  C   UNL d   1      -0.414   0.390  -4.340  0.00  0.00     0.033 A 
ATOM      6 CL   UNL d   1       0.846   2.930  -1.526  0.00  0.00    -0.083 Cl
ATOM      7  C   UNL d   1      -0.304  -0.855  -3.715  0.00  0.00     0.031 A 
ENDROOT
BRANCH   5   8
ATOM      8  N   UNL d   1      -0.787   0.574  -5.680  0.00  0.00    -0.365 N 
ATOM      9  C   UNL d   1      -1.640  -0.212  -6.256  0.00  0.00     0.102 C 
ATOM     10  HN  UNL d   1      -0.377   1.343  -6.212  1.00  0.00     0.165 HD
BRANCH   9  11
ATOM     11  C   UNL d   1      -2.027  -0.001  -7.672  0.00  0.00     0.016 A 
ATOM     12  C   UNL d   1      -2.903  -0.884  -8.315  0.00  0.00     0.099 A 
ATOM     13  C   UNL d   1      -3.261  -0.655  -9.649  0.00  0.00     0.069 A 
ATOM     14 CL   UNL d   1      -4.339  -1.733 -10.459  0.00  0.00    -0.081 Cl
ATOM     15  C   UNL d   1      -2.757   0.444 -10.344  0.00  0.00     0.050 A 
ATOM     16  C   UNL d   1      -1.887   1.318  -9.696  0.00  0.00     0.036 A 
ATOM     17  C   UNL d   1      -1.518   1.101  -8.369  0.00  0.00     0.039 A 
ATOM     18 CL   UNL d   1      -1.267   2.682 -10.541  0.00  0.00    -0.084 Cl
BRANCH  12  19
ATOM     19  O   UNL d   1      -3.404  -1.964  -7.635  0.00  0.00    -0.358 OA
ATOM     20  H   UNL d   1      -3.993  -2.452  -8.244  0.00  0.00     0.217 HD
ENDBRANCH  12  19
ENDBRANCH   9  11
ENDBRANCH   5   8
BRANCH   1  21
ATOM     21  S   UNL d   1       1.085   0.007  -0.010  0.00  0.00     0.208 S 
ATOM     22  O   UNL d   1       1.179  -1.420   0.251  0.00  0.00    -0.217 OA
ATOM     23  O   UNL d   1       0.236   0.834   0.827  0.00  0.00    -0.217 OA
BRANCH  21  24
ATOM     24  C   UNL d   1       2.758   0.609   0.112  0.00  0.00     0.064 A 
ATOM     25  C   UNL d   1       3.059   1.668   0.974  0.00  0.00     0.025 A 
ATOM     26  C   UNL d   1       4.380   2.109   1.090  0.00  0.00     0.025 A 
ATOM     27  C   UNL d   1       5.389   1.480   0.359  0.00  0.00     0.034 A 
ATOM     28  C   UNL d   1       5.090   0.410  -0.486  0.00  0.00     0.025 A 
ATOM     29 CL   UNL d   1       7.016   2.020   0.511  0.00  0.00    -0.084 Cl
ATOM     30  C   UNL d   1       3.770  -0.032  -0.613  0.00  0.00     0.025 A 
ENDBRANCH  21  24
ENDBRANCH   1  21
TORSDOF 5
