REMARK  5 active torsions:
REMARK  status: ('A' for Active; 'I' for Inactive)
REMARK    1  A    between atoms: O_13  and  C_2 
REMARK    2  A    between atoms: C_10  and  C_20 
REMARK       I    between atoms: N_12  and  C_10 
REMARK    3  A    between atoms: C_21  and  N_12 
REMARK    4  A    between atoms: C_20  and  O_13 
REMARK    5  A    between atoms: C_14  and  C_15 
ROOT
ATOM      1  C   UNL d   1       2.423   3.266  -0.080  0.00  0.00     0.280 C 
ENDROOT
BRANCH   1   2
ATOM      2  C   UNL d   1       2.073   4.730   0.139  0.00  0.00     0.246 C 
ATOM      3  N   UNL d   1       0.781   5.172   0.223  0.00  0.00    -0.325 N 
ATOM      4  H   UNL d   1       0.745   6.184   0.171  0.00  0.00     0.169 HD
ATOM      5  O   UNL d   1       2.968   5.583   0.194  0.00  0.00    -0.271 OA
BRANCH   3   6
ATOM      6  C   UNL d   1      -0.452   4.502   0.231  0.00  0.00     0.034 C 
ATOM      7  C   UNL d   1      -0.630   3.180   0.619  0.00  0.00     0.030 C 
ATOM      8  C   UNL d   1      -1.871   2.552   0.460  0.00  0.00     0.010 C 
ATOM      9  C   UNL d   1      -2.968   3.223  -0.105  0.00  0.00    -0.051 C 
ATOM     10  C   UNL d   1      -2.815   4.595  -0.348  0.00  0.00     0.010 C 
ATOM     11  C   UNL d   1      -1.575   5.226  -0.172  0.00  0.00     0.030 C 
BRANCH   9  12
ATOM     12  C   UNL d   1      -4.231   2.439  -0.505  0.00  0.00    -0.024 C 
ATOM     13  C   UNL d   1      -5.200   3.252  -1.394  0.00  0.00     0.019 C 
ATOM     14  C   UNL d   1      -3.814   1.194  -1.326  0.00  0.00     0.019 C 
ATOM     15  C   UNL d   1      -5.008   1.979   0.742  0.00  0.00     0.019 C 
ENDBRANCH   9  12
ENDBRANCH   3   6
ENDBRANCH   1   2
BRANCH   1  16
ATOM     16  O   UNL d   1       2.603   2.677   1.201  0.00  0.00    -0.326 OA
BRANCH  16  17
ATOM     17  C   UNL d   1       3.039   1.365   1.174  0.00  0.00     0.156 A 
ATOM     18  C   UNL d   1       3.371   0.792   2.402  0.00  0.00     0.042 A 
ATOM     19  C   UNL d   1       3.779  -0.544   2.342  0.00  0.00     0.049 A 
ATOM     20  C   UNL d   1       3.317   1.470   3.644  0.00  0.00     0.020 A 
ATOM     21  N   UNL d   1       3.846  -1.217   1.184  0.00  0.00    -0.351 N 
ATOM     22  C   UNL d   1       4.126  -1.183   3.526  0.00  0.00     0.054 A 
ATOM     23  C   UNL d   1       3.503  -0.551   0.069  0.00  0.00     0.182 A 
ATOM     24  HN  UNL d   1       4.144  -2.192   1.151  1.00  0.00     0.166 HD
ATOM     25  N   UNL d   1       3.090   0.718  -0.003  0.00  0.00    -0.332 N 
ATOM     26  HN  UNL d   1       2.833   1.162  -0.885  1.00  0.00     0.168 HD
ATOM     27  C   UNL d   1       4.081  -0.515   4.751  0.00  0.00     0.036 A 
ATOM     28  C   UNL d   1       3.676   0.812   4.816  0.00  0.00     0.025 A 
ATOM     29 CL   UNL d   1       4.532  -1.339   6.192  0.00  0.00    -0.084 Cl
ENDBRANCH  16  17
ENDBRANCH   1  16
TORSDOF 5
