REMARK  6 active torsions:
REMARK  status: ('A' for Active; 'I' for Inactive)
REMARK       I    between atoms: N_2  and  C_1 
REMARK    1  A    between atoms: C_14  and  C_1 
REMARK    2  A    between atoms: C_7  and  N_2 
REMARK    3  A    between atoms: C_3  and  C_15 
REMARK       I    between atoms: N_8  and  C_3 
REMARK    4  A    between atoms: S_6  and  C_14 
REMARK    5  A    between atoms: C_15  and  S_6 
REMARK    6  A    between atoms: O_16  and  C_9 
ROOT
ATOM      1  C   UNL d   1       1.176  -0.085   0.090  0.00  0.00     0.231 C 
ATOM      2  N   UNL d   1       0.502   0.565   1.110  0.00  0.00    -0.327 N 
ATOM      3  O   UNL d   1       2.327   0.152  -0.277  0.00  0.00    -0.272 OA
ATOM      4  H   UNL d   1      -0.436   0.232   1.301  0.00  0.00     0.169 HD
ENDROOT
BRANCH   1   5
ATOM      5  C   UNL d   1       0.433  -1.268  -0.514  0.00  0.00     0.177 C 
BRANCH   5   6
ATOM      6  S   UNL d   1      -1.363  -0.987  -0.678  0.00  0.00    -0.150 SA
BRANCH   6   7
ATOM      7  C   UNL d   1      -1.749  -2.389  -1.778  0.00  0.00     0.176 C 
BRANCH   7   8
ATOM      8  C   UNL d   1      -1.553  -3.704  -1.050  0.00  0.00     0.224 C 
ATOM      9  O   UNL d   1      -0.494  -4.321  -1.044  0.00  0.00    -0.273 OA
ATOM     10  N   UNL d   1      -2.637  -4.164  -0.359  0.00  0.00    -0.369 N 
ATOM     11  H   UNL d   1      -3.427  -3.568  -0.149  0.00  0.00     0.159 HD
ATOM     12  H   UNL d   1      -2.504  -4.994   0.206  0.00  0.00     0.159 HD
ENDBRANCH   7   8
ENDBRANCH   6   7
ENDBRANCH   5   6
ENDBRANCH   1   5
BRANCH   2  13
ATOM     13  C   UNL d   1       0.998   1.597   1.934  0.00  0.00     0.034 A 
ATOM     14  C   UNL d   1       2.224   2.230   1.725  0.00  0.00     0.032 A 
ATOM     15  C   UNL d   1       2.700   3.190   2.626  0.00  0.00     0.039 A 
ATOM     16  C   UNL d   1       1.954   3.523   3.753  0.00  0.00     0.068 A 
ATOM     17  C   UNL d   1       0.699   2.944   3.934  0.00  0.00     0.039 A 
ATOM     18  C   UNL d   1       0.222   1.987   3.031  0.00  0.00     0.032 A 
BRANCH  16  19
ATOM     19  O   UNL d   1       2.347   4.413   4.715  0.00  0.00    -0.356 OA
ATOM     20  C   UNL d   1       3.758   4.526   4.889  0.00  0.00     0.210 C 
ENDBRANCH  16  19
ENDBRANCH   2  13
TORSDOF 6
