REMARK  6 active torsions:
REMARK  status: ('A' for Active; 'I' for Inactive)
REMARK       I    between atoms: N_2  and  C_1 
REMARK       I    between atoms: N_4  and  C_1 
REMARK    1  A    between atoms: C_3  and  N_2 
REMARK    2  A    between atoms: C_9  and  N_4 
REMARK    3  A    between atoms: O_10  and  C_11 
REMARK    4  A    between atoms: C_13  and  O_10 
REMARK    5  A    between atoms: C_19  and  C_13 
REMARK    6  A    between atoms: C_21  and  C_14 
ROOT
ATOM      1  C   UNL d   1       1.117  -0.427  -0.027  0.00  0.00     0.326 C 
ATOM      2  N   UNL d   1       2.404  -0.085   0.328  0.00  0.00    -0.294 N 
ATOM      3  N   UNL d   1       0.189  -0.270   0.958  0.00  0.00    -0.309 N 
ATOM      4  O   UNL d   1       0.900  -0.786  -1.181  0.00  0.00    -0.247 OA
ATOM      5  H   UNL d   1       3.049  -0.108  -0.447  0.00  0.00     0.172 HD
ATOM      6  H   UNL d   1       0.599   0.015   1.845  0.00  0.00     0.170 HD
ENDROOT
BRANCH   3   7
ATOM      7  C   UNL d   1      -1.197  -0.420   0.945  0.00  0.00     0.036 A 
ATOM      8  C   UNL d   1      -1.933  -0.880  -0.142  0.00  0.00     0.032 A 
ATOM      9  C   UNL d   1      -3.322  -1.005  -0.031  0.00  0.00     0.039 A 
ATOM     10  C   UNL d   1      -3.974  -0.676   1.160  0.00  0.00     0.069 A 
ATOM     11  C   UNL d   1      -3.239  -0.175   2.231  0.00  0.00     0.039 A 
ATOM     12  C   UNL d   1      -1.856  -0.065   2.127  0.00  0.00     0.032 A 
BRANCH  10  13
ATOM     13  O   UNL d   1      -5.326  -0.877   1.174  0.00  0.00    -0.347 OA
BRANCH  13  14
ATOM     14  C   UNL d   1      -5.897  -1.033   2.475  0.00  0.00     0.214 C 
BRANCH  14  15
ATOM     15  C   UNL d   1      -7.212  -1.756   2.355  0.00  0.00    -0.034 A 
ATOM     16  C   UNL d   1      -7.269  -3.006   1.722  0.00  0.00     0.009 A 
ATOM     17  C   UNL d   1      -8.472  -3.705   1.649  0.00  0.00     0.001 A 
ATOM     18  C   UNL d   1      -9.625  -3.164   2.212  0.00  0.00     0.000 A 
ATOM     19  C   UNL d   1      -9.579  -1.923   2.847  0.00  0.00     0.001 A 
ATOM     20  C   UNL d   1      -8.375  -1.221   2.920  0.00  0.00     0.009 A 
ENDBRANCH  14  15
ENDBRANCH  13  14
ENDBRANCH  10  13
ENDBRANCH   3   7
BRANCH   2  21
ATOM     21  C   UNL d   1       2.873   0.315   1.588  0.00  0.00     0.109 A 
ATOM     22  N   UNL d   1       2.047   0.228   2.657  0.00  0.00    -0.352 N 
ATOM     23  C   UNL d   1       2.521   0.612   3.860  0.00  0.00     0.090 A 
ATOM     24  HN  UNL d   1       1.092  -0.118   2.556  1.00  0.00     0.166 HD
ATOM     25  C   UNL d   1       3.787   1.123   4.050  0.00  0.00     0.024 A 
ATOM     26  C   UNL d   1       4.627   1.244   2.941  0.00  0.00    -0.054 A 
ATOM     27  C   UNL d   1       4.168   0.803   1.693  0.00  0.00     0.055 A 
BRANCH  26  28
ATOM     28  C   UNL d   1       6.003   1.833   3.097  0.00  0.00     0.034 C 
ATOM     29  C   UNL d   1       7.040   0.776   3.438  0.00  0.00     0.010 C 
ENDBRANCH  26  28
ENDBRANCH   2  21
TORSDOF 6
