REMARK  2 active torsions:
REMARK  status: ('A' for Active; 'I' for Inactive)
REMARK    1  A    between atoms: C_3  and  N_1 
REMARK    2  A    between atoms: N_2  and  C_4 
ROOT
ATOM      1  C   UNL d   1       0.009   0.690  -1.006  0.00  0.00     0.103 A 
ATOM      2  C   UNL d   1      -1.212   2.554  -2.756  0.00  0.00     0.030 A 
ATOM      3  C   UNL d   1      -0.579   1.847  -0.491  0.00  0.00     0.038 A 
ATOM      4  C   UNL d   1       0.008   0.455  -2.380  0.00  0.00     0.038 A 
ATOM      5  C   UNL d   1      -0.597   1.384  -3.236  0.00  0.00     0.032 A 
ATOM      6  C   UNL d   1      -1.179   2.761  -1.366  0.00  0.00     0.032 A 
ENDROOT
BRANCH   2   7
ATOM      7  N   UNL d   1      -1.792   3.462  -3.620  0.00  0.00    -0.381 N 
ATOM      8  C   UNL d   1      -2.514   3.037  -4.827  0.00  0.00     0.127 C 
ATOM      9  C   UNL d   1      -1.980   3.810  -6.042  0.00  0.00    -0.001 C 
ATOM     10  C   UNL d   1      -2.771   3.465  -7.302  0.00  0.00     0.011 C 
ATOM     11  C   UNL d   1      -2.024   5.324  -5.782  0.00  0.00     0.007 C 
ATOM     12  C   UNL d   1      -1.304   5.678  -4.482  0.00  0.00     0.020 C 
ATOM     13  C   UNL d   1      -1.875   4.889  -3.306  0.00  0.00     0.123 C 
ENDBRANCH   2   7
BRANCH   1  14
ATOM     14  N   UNL d   1       0.626  -0.281  -0.097  0.00  0.00    -0.116 N 
ATOM     15  O   UNL d   1       0.601  -0.034   1.117  0.00  0.00    -0.532 OA
ATOM     16  O   UNL d   1       1.136  -1.296  -0.597  0.00  0.00    -0.532 OA
ENDBRANCH   1  14
TORSDOF 2
