REMARK  5 active torsions:
REMARK  status: ('A' for Active; 'I' for Inactive)
REMARK    1  A    between atoms: C_8  and  C_1 
REMARK    2  A    between atoms: C_5  and  C_7 
REMARK    3  A    between atoms: C_7  and  O_12 
REMARK    4  A    between atoms: C_14  and  C_8 
REMARK    5  A    between atoms: O_12  and  C_14 
ROOT
ATOM      1  C   UNL d   1       3.866   0.014  -0.023  0.00  0.00     0.191 C 
ATOM      2  O   UNL d   1       4.392   1.121  -0.171  0.00  0.00    -0.289 OA
ENDROOT
BRANCH   1   3
ATOM      3  C   UNL d   1       2.401  -0.161   0.011  0.00  0.00     0.060 A 
ATOM      4  S   UNL d   1       1.723  -1.715   0.248  0.00  0.00    -0.085 SA
ATOM      5  C   UNL d   1       0.112  -1.152   0.171  0.00  0.00     0.016 A 
ATOM      6  C   UNL d   1      -1.058  -1.925   0.316  0.00  0.00     0.021 A 
ATOM      7  C   UNL d   1       0.067   0.220  -0.067  0.00  0.00    -0.010 A 
ATOM      8  C   UNL d   1      -2.302  -1.301   0.204  0.00  0.00     0.025 A 
ATOM      9  C   UNL d   1      -2.376   0.057  -0.059  0.00  0.00     0.035 A 
ATOM     10  C   UNL d   1      -1.214   0.822  -0.198  0.00  0.00     0.037 A 
ATOM     11 CL   UNL d   1      -3.914   0.814  -0.212  0.00  0.00    -0.084 Cl
ATOM     12  C   UNL d   1       1.400   0.803  -0.123  0.00  0.00    -0.029 A 
ATOM     13  C   UNL d   1       1.620   2.276  -0.315  0.00  0.00     0.050 C 
ENDBRANCH   1   3
BRANCH   1  14
ATOM     14  C   UNL d   1       4.753  -1.239   0.117  0.00  0.00     0.263 C 
BRANCH  14  15
ATOM     15  O   UNL d   1       6.157  -0.944   0.095  0.00  0.00    -0.310 OA
BRANCH  15  16
ATOM     16  C   UNL d   1       6.895  -1.460   1.103  0.00  0.00     0.295 C 
ATOM     17  O   UNL d   1       6.470  -2.071   2.069  0.00  0.00    -0.259 OA
BRANCH  16  18
ATOM     18  C   UNL d   1       8.328  -1.108   0.960  0.00  0.00     0.061 A 
ATOM     19  C   UNL d   1       9.039  -1.153  -0.248  0.00  0.00     0.051 A 
ATOM     20  C   UNL d   1      10.396  -0.801  -0.274  0.00  0.00     0.048 A 
ATOM     21 CL   UNL d   1       8.352  -1.705  -1.735  0.00  0.00    -0.083 Cl
ATOM     22  C   UNL d   1      11.045  -0.425   0.901  0.00  0.00     0.035 A 
ATOM     23  C   UNL d   1      10.358  -0.412   2.111  0.00  0.00     0.025 A 
ATOM     24 CL   UNL d   1      12.708   0.009   0.858  0.00  0.00    -0.084 Cl
ATOM     25  C   UNL d   1       9.005  -0.758   2.143  0.00  0.00     0.021 A 
ENDBRANCH  16  18
ENDBRANCH  15  16
ENDBRANCH  14  15
ENDBRANCH   1  14
TORSDOF 5
