REMARK  5 active torsions:
REMARK  status: ('A' for Active; 'I' for Inactive)
REMARK    1  A    between atoms: C_4  and  C_1 
REMARK    2  A    between atoms: C_2  and  C_9 
REMARK    3  A    between atoms: C_11  and  C_3 
REMARK    4  A    between atoms: O_12  and  C_4 
REMARK    5  A    between atoms: C_14  and  O_12 
ROOT
ATOM      1  C   UNL d   1       4.163   1.143   0.433  0.00  0.00     0.056 A 
ATOM      2  N   UNL d   1       3.989  -1.126  -0.418  0.00  0.00    -0.373 N 
ATOM      3  HN  UNL d   1       4.434  -1.987  -0.736  1.00  0.00     0.164 HD
ATOM      4  C   UNL d   1       2.768   1.249   0.457  0.00  0.00     0.041 A 
ATOM      5  C   UNL d   1       1.994   0.164   0.036  0.00  0.00     0.034 A 
ATOM      6  C   UNL d   1       4.716  -0.060   0.004  0.00  0.00     0.105 A 
ATOM      7  C   UNL d   1       2.644  -0.987  -0.395  0.00  0.00     0.108 A 
ENDROOT
BRANCH   5   8
ATOM      8  C   UNL d   1       0.562   0.211   0.057  0.00  0.00    -0.060 C 
ATOM      9  C   UNL d   1      -0.634   0.181   0.066  0.00  0.00    -0.061 C 
BRANCH   9  10
ATOM     10  C   UNL d   1      -2.065   0.085   0.052  0.00  0.00     0.018 A 
ATOM     11  C   UNL d   1      -2.687  -1.094   0.473  0.00  0.00     0.020 A 
ATOM     12  C   UNL d   1      -4.077  -1.208   0.421  0.00  0.00     0.001 A 
ATOM     13  C   UNL d   1      -4.847  -0.144  -0.048  0.00  0.00     0.000 A 
ATOM     14  C   UNL d   1      -4.229   1.039  -0.454  0.00  0.00     0.001 A 
ATOM     15  C   UNL d   1      -2.837   1.154  -0.405  0.00  0.00     0.020 A 
ENDBRANCH   9  10
ENDBRANCH   5   8
BRANCH   1  16
ATOM     16  C   UNL d   1       5.089   2.219   0.858  0.00  0.00     0.294 C 
ATOM     17  O   UNL d   1       6.301   2.078   0.868  0.00  0.00    -0.259 OA
BRANCH  16  18
ATOM     18  O   UNL d   1       4.410   3.305   1.317  0.00  0.00    -0.318 OA
BRANCH  18  19
ATOM     19  C   UNL d   1       5.131   4.078   2.292  0.00  0.00     0.174 C 
ATOM     20  C   UNL d   1       4.919   3.441   3.656  0.00  0.00     0.034 C 
ENDBRANCH  18  19
ENDBRANCH  16  18
ENDBRANCH   1  16
TORSDOF 5
