REMARK  6 active torsions:
REMARK  status: ('A' for Active; 'I' for Inactive)
REMARK    1  A    between atoms: C_7  and  C_1 
REMARK    2  A    between atoms: C_18  and  C_2 
REMARK    3  A    between atoms: C_10  and  C_3 
REMARK    4  A    between atoms: C_4  and  N_16 
REMARK       I    between atoms: N_13  and  C_7 
REMARK    5  A    between atoms: O_30  and  C_18 
REMARK    6  A    between atoms: C_32  and  O_30 
ROOT
ATOM      1  C   UNL d   1       6.572  -7.462  -1.047  0.00  0.00     0.072 A 
ATOM      2  C   UNL d   1       5.951  -6.841  -2.122  0.00  0.00     0.134 A 
ATOM      3  C   UNL d   1       4.370  -5.800  -0.680  0.00  0.00     0.125 A 
ATOM      4  N   UNL d   1       4.879  -6.003  -1.920  0.00  0.00    -0.337 N 
ATOM      5  HN  UNL d   1       4.459  -5.527  -2.718  1.00  0.00     0.167 HD
ATOM      6  C   UNL d   1       4.936  -6.450   0.423  0.00  0.00     0.089 A 
ATOM      7  C   UNL d   1       6.059  -7.260   0.237  0.00  0.00     0.046 A 
ATOM      8  C   UNL d   1       4.357  -6.394   1.729  0.00  0.00     0.103 C 
ATOM      9  N   UNL d   1       3.917  -6.352   2.800  0.00  0.00    -0.191 NA
ENDROOT
BRANCH   3  10
ATOM     10  N   UNL d   1       3.213  -5.043  -0.574  0.00  0.00    -0.363 N 
ATOM     11  C   UNL d   1       2.461  -4.789  -1.814  0.00  0.00     0.144 C 
ATOM     12  C   UNL d   1       0.992  -4.495  -1.448  0.00  0.00     0.146 C 
ATOM     13  N   UNL d   1       0.807  -3.505  -0.368  0.00  0.00    -0.344 N 
ATOM     14  C   UNL d   1      -0.395  -2.817  -0.110  0.00  0.00     0.263 C 
ATOM     15  C   UNL d   1       1.773  -3.578   0.746  0.00  0.00     0.146 C 
ATOM     16  O   UNL d   1      -0.488  -2.118   0.901  0.00  0.00    -0.267 OA
ATOM     17  C   UNL d   1       3.218  -3.846   0.289  0.00  0.00     0.144 C 
BRANCH  14  18
ATOM     18  C   UNL d   1      -1.488  -2.866  -1.055  0.00  0.00     0.110 C 
ATOM     19  C   UNL d   1      -2.295  -1.830  -1.516  0.00  0.00     0.043 C 
ATOM     20  N   UNL d   1      -3.280  -2.222  -2.418  0.00  0.00    -0.296 N 
ATOM     21  C   UNL d   1      -2.231  -0.390  -1.160  0.00  0.00     0.071 C 
ATOM     22  N   UNL d   1      -3.313  -3.532  -2.575  0.00  0.00    -0.061 NA
ATOM     23  HN  UNL d   1      -3.903  -1.573  -2.900  1.00  0.00     0.183 HD
ATOM     24  S   UNL d   1      -2.210  -4.321  -1.605  0.00  0.00     0.007 SA
ENDBRANCH  14  18
ENDBRANCH   3  10
BRANCH   1  25
ATOM     25  C   UNL d   1       7.733  -8.346  -1.208  0.00  0.00     0.295 C 
ATOM     26  O   UNL d   1       8.710  -8.067  -1.873  0.00  0.00    -0.259 OA
BRANCH  25  27
ATOM     27  O   UNL d   1       7.477  -9.484  -0.524  0.00  0.00    -0.318 OA
BRANCH  27  28
ATOM     28  C   UNL d   1       8.415 -10.562  -0.671  0.00  0.00     0.174 C 
ATOM     29  C   UNL d   1       7.761 -11.633  -1.523  0.00  0.00     0.034 C 
ENDBRANCH  27  28
ENDBRANCH  25  27
ENDBRANCH   1  25
BRANCH   2  30
ATOM     30  C   UNL d   1       6.369  -7.091  -3.565  0.00  0.00     0.433 C 
ATOM     31  F   UNL d   1       7.028  -8.262  -3.781  0.00  0.00    -0.165 F 
ATOM     32  F   UNL d   1       5.288  -7.160  -4.401  0.00  0.00    -0.165 F 
ATOM     33  F   UNL d   1       7.157  -6.101  -4.070  0.00  0.00    -0.165 F 
ENDBRANCH   2  30
TORSDOF 6
