REMARK  7 active torsions:
REMARK  status: ('A' for Active; 'I' for Inactive)
REMARK    1  A    between atoms: C_3  and  C_1 
REMARK    2  A    between atoms: C_17  and  N_2 
REMARK    3  A    between atoms: C_12  and  C_4 
REMARK    4  A    between atoms: N_16  and  C_11 
REMARK    5  A    between atoms: C_19  and  N_16 
REMARK    6  A    between atoms: C_18  and  C_19 
REMARK    7  A    between atoms: O_23  and  C_18 
ROOT
ATOM      1  C   UNL d   1      -0.367  -2.716  -0.178  0.00  0.00     0.055 A 
ATOM      2  C   UNL d   1       0.098  -3.431   0.917  0.00  0.00     0.076 A 
ATOM      3  N   UNL d   1      -0.134  -4.763   1.025  0.00  0.00    -0.190 N 
ATOM      4  HN  UNL d   1       0.181  -5.263   1.856  1.00  0.00     0.184 HD
ATOM      5  C   UNL d   1      -0.769  -5.429   0.053  0.00  0.00     0.680 A 
ATOM      6  N   UNL d   1      -1.277  -4.816  -1.009  0.00  0.00    -0.201 N 
ATOM      7  HN  UNL d   1      -1.819  -5.322  -1.709  1.00  0.00     0.183 HD
ATOM      8  C   UNL d   1      -1.040  -3.488  -1.119  0.00  0.00     0.123 A 
ENDROOT
BRANCH   1   9
ATOM      9  C   UNL d   1      -0.158  -1.284  -0.386  0.00  0.00     0.152 C 
ATOM     10  N   UNL d   1      -1.073  -0.356  -0.882  0.00  0.00    -0.224 N 
ATOM     11  N   UNL d   1      -0.408   0.787  -1.164  0.00  0.00     0.001 NA
ATOM     12  N   UNL d   1       0.816   0.621  -0.692  0.00  0.00    -0.007 NA
ATOM     13  N   UNL d   1       0.990  -0.650  -0.220  0.00  0.00    -0.269 N 
ATOM     14  HN  UNL d   1       1.844  -1.036   0.185  1.00  0.00     0.185 HD
BRANCH  10  15
ATOM     15  C   UNL d   1      -2.463  -0.469  -1.113  0.00  0.00     0.056 A 
ATOM     16  C   UNL d   1      -3.267  -1.269  -0.290  0.00  0.00     0.031 A 
ATOM     17  C   UNL d   1      -4.617  -1.438  -0.596  0.00  0.00     0.002 A 
ATOM     18  C   UNL d   1      -5.163  -0.818  -1.719  0.00  0.00     0.000 A 
ATOM     19  C   UNL d   1      -4.372   0.010  -2.516  0.00  0.00     0.002 A 
ATOM     20  C   UNL d   1      -3.028   0.208  -2.202  0.00  0.00     0.031 A 
ENDBRANCH  10  15
ENDBRANCH   1   9
BRANCH   2  21
ATOM     21  C   UNL d   1       0.758  -2.868   2.128  0.00  0.00     0.014 A 
ATOM     22  C   UNL d   1       1.817  -3.517   2.807  0.00  0.00     0.046 A 
ATOM     23 CL   UNL d   1       2.628  -4.922   2.192  0.00  0.00    -0.083 Cl
ATOM     24  C   UNL d   1       2.311  -3.029   4.027  0.00  0.00     0.025 A 
ATOM     25  C   UNL d   1       1.808  -1.854   4.572  0.00  0.00     0.002 A 
ATOM     26  C   UNL d   1       0.803  -1.167   3.906  0.00  0.00     0.001 A 
ATOM     27  C   UNL d   1       0.272  -1.680   2.718  0.00  0.00     0.015 A 
ENDBRANCH   2  21
BRANCH   5  28
ATOM     28  N   UNL d   1      -1.028  -6.765   0.315  0.00  0.00    -0.212 N 
ATOM     29  C   UNL d   1       0.144  -7.547   0.692  0.00  0.00     0.169 C 
BRANCH  28  30
ATOM     30  C   UNL d   1      -2.049  -7.459  -0.490  0.00  0.00     0.250 C 
BRANCH  30  31
ATOM     31  C   UNL d   1      -3.435  -7.245   0.120  0.00  0.00     0.158 C 
ATOM     32  O   UNL d   1      -4.471  -7.706  -0.343  0.00  0.00    -0.649 OA
BRANCH  31  33
ATOM     33  O   UNL d   1      -3.408  -6.540   1.281  0.00  0.00    -0.775 OA
ATOM     34  H   UNL d   1      -2.465  -6.324   1.474  0.00  0.00     0.167 HD
ENDBRANCH  31  33
ENDBRANCH  30  31
ENDBRANCH  28  30
ENDBRANCH   5  28
TORSDOF 7
