REMARK  7 active torsions:
REMARK  status: ('A' for Active; 'I' for Inactive)
REMARK    1  A    between atoms: C_13  and  C_2 
REMARK    2  A    between atoms: S_18  and  C_5 
REMARK    3  A    between atoms: C_8  and  C_10 
REMARK    4  A    between atoms: C_9  and  C_14 
REMARK    5  A    between atoms: C_15  and  C_30 
REMARK       I    between atoms: N_17  and  C_15 
REMARK    6  A    between atoms: C_21  and  N_17 
REMARK    7  A    between atoms: C_30  and  S_18 
ROOT
ATOM      1  S   UNL d   1       3.008  -2.760   3.411  0.00  0.00    -0.043 SA
ATOM      2  C   UNL d   1       2.879  -4.015   4.589  0.00  0.00     0.118 A 
ATOM      3  N   UNL d   1       1.711  -4.637   4.562  0.00  0.00    -0.291 N 
ATOM      4  HN  UNL d   1       1.441  -5.363   5.225  1.00  0.00     0.187 HD
ATOM      5  C   UNL d   1       1.482  -3.250   2.833  0.00  0.00     0.129 A 
ATOM      6  N   UNL d   1       0.901  -4.194   3.537  0.00  0.00    -0.287 N 
ATOM      7  HN  UNL d   1      -0.034  -4.555   3.350  1.00  0.00     0.188 HD
ENDROOT
BRANCH   5   8
ATOM      8  S   UNL d   1       0.735  -2.667   1.368  0.00  0.00    -0.094 SA
BRANCH   8   9
ATOM      9  C   UNL d   1       1.991  -3.134   0.147  0.00  0.00     0.184 C 
BRANCH   9  10
ATOM     10  C   UNL d   1       2.322  -4.620   0.043  0.00  0.00     0.231 C 
ATOM     11  N   UNL d   1       1.453  -5.497   0.660  0.00  0.00    -0.327 N 
ATOM     12  H   UNL d   1       0.651  -5.091   1.133  0.00  0.00     0.169 HD
ATOM     13  O   UNL d   1       3.304  -4.949  -0.623  0.00  0.00    -0.272 OA
BRANCH  11  14
ATOM     14  C   UNL d   1       1.526  -6.906   0.685  0.00  0.00     0.035 A 
ATOM     15  C   UNL d   1       2.593  -7.639   0.161  0.00  0.00     0.045 A 
ATOM     16  C   UNL d   1       2.572  -9.044   0.150  0.00  0.00     0.050 A 
ATOM     17  C   UNL d   1       1.462  -9.713   0.683  0.00  0.00     0.016 A 
ATOM     18  C   UNL d   1       0.410  -8.992   1.244  0.00  0.00     0.003 A 
ATOM     19  C   UNL d   1       0.448  -7.595   1.253  0.00  0.00     0.029 A 
BRANCH  16  20
ATOM     20  C   UNL d   1       3.710  -9.827  -0.457  0.00  0.00     0.417 C 
ATOM     21  F   UNL d   1       4.794  -9.070  -0.780  0.00  0.00    -0.166 F 
ATOM     22  F   UNL d   1       4.175 -10.801   0.376  0.00  0.00    -0.166 F 
ATOM     23  F   UNL d   1       3.344 -10.465  -1.604  0.00  0.00    -0.166 F 
ENDBRANCH  16  20
ENDBRANCH  11  14
ENDBRANCH   9  10
ENDBRANCH   8   9
ENDBRANCH   5   8
BRANCH   2  24
ATOM     24  C   UNL d   1       3.990  -4.336   5.490  0.00  0.00     0.067 A 
ATOM     25  N   UNL d   1       5.157  -3.671   5.285  0.00  0.00    -0.363 N 
ATOM     26  C   UNL d   1       6.207  -3.981   6.079  0.00  0.00     0.104 A 
ATOM     27  HN  UNL d   1       5.238  -2.962   4.557  1.00  0.00     0.165 HD
ATOM     28  C   UNL d   1       6.160  -4.927   7.088  0.00  0.00     0.063 A 
ATOM     29  C   UNL d   1       4.952  -5.601   7.287  0.00  0.00     0.020 A 
ATOM     30  C   UNL d   1       3.855  -5.306   6.478  0.00  0.00     0.033 A 
BRANCH  28  31
ATOM     31  C   UNL d   1       7.363  -5.204   7.928  0.00  0.00     0.418 C 
ATOM     32  F   UNL d   1       8.457  -4.466   7.585  0.00  0.00    -0.166 F 
ATOM     33  F   UNL d   1       7.145  -4.945   9.248  0.00  0.00    -0.166 F 
ATOM     34  F   UNL d   1       7.759  -6.505   7.868  0.00  0.00    -0.166 F 
ENDBRANCH  28  31
ENDBRANCH   2  24
TORSDOF 7
