REMARK  1 active torsions:
REMARK  status: ('A' for Active; 'I' for Inactive)
REMARK       I    between atoms: C_3  and  N_4 
REMARK    1  A    between atoms: N_4  and  C_7 
ROOT
ATOM      1  N   UNL d   1      -3.075  -0.087  -0.090  0.00  0.00    -0.191 NA
ATOM      2  C   UNL d   1      -1.914  -0.052  -0.065  0.00  0.00     0.099 C 
ATOM      3  C   UNL d   1      -0.482  -0.016  -0.030  0.00  0.00     0.044 A 
ATOM      4  C   UNL d   1       2.336   0.031   0.067  0.00  0.00     0.034 A 
ATOM      5  C   UNL d   1       0.201   1.203  -0.018  0.00  0.00     0.025 A 
ATOM      6  C   UNL d   1       0.243  -1.207  -0.003  0.00  0.00     0.025 A 
ATOM      7  C   UNL d   1       1.641  -1.181   0.044  0.00  0.00     0.031 A 
ATOM      8  C   UNL d   1       1.603   1.225   0.030  0.00  0.00     0.031 A 
ENDROOT
BRANCH   4   9
ATOM      9  N   UNL d   1       3.744   0.122   0.131  0.00  0.00    -0.328 N 
ATOM     10  C   UNL d   1       4.641  -0.931   0.198  0.00  0.00     0.218 C 
ATOM     11  O   UNL d   1       4.367  -2.127   0.201  0.00  0.00    -0.274 OA
ATOM     12  C   UNL d   1       6.083  -0.498   0.280  0.00  0.00     0.117 C 
ATOM     13  H   UNL d   1       4.130   1.058   0.142  0.00  0.00     0.169 HD
ENDBRANCH   4   9
TORSDOF 1
