REMARK  7 active torsions:
REMARK  status: ('A' for Active; 'I' for Inactive)
REMARK    1  A    between atoms: C_10  and  N_1 
REMARK    2  A    between atoms: C_13  and  C_7 
REMARK    3  A    between atoms: N_8  and  C_14 
REMARK    4  A    between atoms: C_9  and  C_12 
REMARK    5  A    between atoms: O_26  and  C_9 
REMARK    6  A    between atoms: C_17  and  C_16 
REMARK    7  A    between atoms: C_28  and  O_26 
ROOT
ATOM      1  N   UNL d   1       0.676  -0.866  -0.358  0.00  0.00    -0.179 N 
ATOM      2  N   UNL d   1      -0.664  -1.040  -0.470  0.00  0.00     0.003 NA
ATOM      3  N   UNL d   1       1.049   0.433  -0.178  0.00  0.00    -0.264 N 
ATOM      4  HN  UNL d   1       1.979   0.832  -0.057  1.00  0.00     0.190 HD
ATOM      5  N   UNL d   1      -1.191   0.169  -0.365  0.00  0.00    -0.267 N 
ATOM      6  HN  UNL d   1      -2.182   0.405  -0.398  1.00  0.00     0.186 HD
ATOM      7  C   UNL d   1      -0.148   1.040  -0.205  0.00  0.00     0.134 A 
ENDROOT
BRANCH   1   8
ATOM      8  C   UNL d   1       1.586  -1.956  -0.423  0.00  0.00     0.073 A 
ATOM      9  C   UNL d   1       1.109  -3.249  -0.690  0.00  0.00     0.034 A 
ATOM     10  C   UNL d   1       1.991  -4.333  -0.734  0.00  0.00     0.020 A 
ATOM     11  C   UNL d   1       3.359  -4.147  -0.501  0.00  0.00     0.039 A 
ATOM     12  C   UNL d   1       3.838  -2.850  -0.251  0.00  0.00     0.020 A 
ATOM     13  C   UNL d   1       2.958  -1.758  -0.214  0.00  0.00     0.034 A 
BRANCH  11  14
ATOM     14  C   UNL d   1       4.232  -5.354  -0.452  0.00  0.00     0.293 C 
ATOM     15  O   UNL d   1       3.819  -6.492  -0.617  0.00  0.00    -0.259 OA
BRANCH  14  16
ATOM     16  O   UNL d   1       5.493  -5.004  -0.106  0.00  0.00    -0.318 OA
BRANCH  16  17
ATOM     17  C   UNL d   1       6.339  -6.076   0.335  0.00  0.00     0.174 C 
ATOM     18  C   UNL d   1       6.173  -6.220   1.837  0.00  0.00     0.034 C 
ENDBRANCH  16  17
ENDBRANCH  14  16
ENDBRANCH  11  14
ENDBRANCH   1   8
BRANCH   7  19
ATOM     19  C   UNL d   1      -0.458   2.430  -0.086  0.00  0.00     0.051 C 
ATOM     20  C   UNL d   1       0.424   3.444  -0.037  0.00  0.00     0.005 C 
BRANCH  20  21
ATOM     21  C   UNL d   1       0.040   4.838   0.114  0.00  0.00     0.017 C 
ATOM     22  C   UNL d   1       0.936   5.836   0.126  0.00  0.00     0.085 C 
BRANCH  22  23
ATOM     23  N   UNL d   1       0.775   7.210   0.318  0.00  0.00    -0.387 N 
ATOM     24  C   UNL d   1      -0.379   7.750   1.081  0.00  0.00     0.152 C 
ATOM     25  C   UNL d   1      -0.564   9.277   0.899  0.00  0.00     0.291 C 
ATOM     26  N   UNL d   1       0.639  10.108   1.101  0.00  0.00     0.087 N 
ATOM     27  C   UNL d   1       1.720   9.560   0.259  0.00  0.00     0.291 C 
ATOM     28  C   UNL d   1       1.027  10.182   2.507  0.00  0.00     0.310 C 
ATOM     29  C   UNL d   1       1.997   8.051   0.427  0.00  0.00     0.152 C 
ENDBRANCH  22  23
ENDBRANCH  20  21
ENDBRANCH   7  19
TORSDOF 7
