REMARK  8 active torsions:
REMARK  status: ('A' for Active; 'I' for Inactive)
REMARK    1  A    between atoms: N_3  and  S_1 
REMARK    2  A    between atoms: C_7  and  S_1 
REMARK    3  A    between atoms: S_2  and  N_4 
REMARK    4  A    between atoms: C_8  and  S_2 
REMARK    5  A    between atoms: C_5  and  N_3 
REMARK    6  A    between atoms: N_4  and  C_6 
REMARK    7  A    between atoms: C_9  and  C_10 
REMARK    8  A    between atoms: O_23  and  C_9 
ROOT
ATOM      1  C   UNL d   1       1.045   2.503   1.071  0.00  0.00     0.051 A 
ATOM      2  C   UNL d   1       2.171   2.281   1.890  0.00  0.00     0.064 A 
ATOM      3  C   UNL d   1       0.249   4.178   2.657  0.00  0.00     0.041 A 
ATOM      4  C   UNL d   1       0.055   3.412   1.492  0.00  0.00     0.044 A 
ATOM      5  C   UNL d   1       2.366   3.061   3.033  0.00  0.00     0.033 A 
ATOM      6  C   UNL d   1       1.429   4.024   3.396  0.00  0.00     0.020 A 
ENDROOT
BRANCH   1   7
ATOM      7  N   UNL d   1       0.900   1.808  -0.188  0.00  0.00    -0.179 NA
ATOM      8  H   UNL d   1       0.515   2.417  -0.913  0.00  0.00     0.146 HD
BRANCH   7   9
ATOM      9  S   UNL d   1      -0.040   0.396  -0.201  0.00  0.00     0.245 S 
ATOM     10  O   UNL d   1      -1.249   0.756  -0.916  0.00  0.00    -0.206 OA
ATOM     11  O   UNL d   1      -0.089  -0.181   1.126  0.00  0.00    -0.206 OA
BRANCH   9  12
ATOM     12  C   UNL d   1       0.899  -0.716  -1.237  0.00  0.00     0.074 A 
ATOM     13  C   UNL d   1       2.175  -1.101  -0.826  0.00  0.00     0.025 A 
ATOM     14  C   UNL d   1       2.901  -2.040  -1.560  0.00  0.00     0.008 A 
ATOM     15  C   UNL d   1       2.347  -2.631  -2.701  0.00  0.00    -0.062 A 
ATOM     16  C   UNL d   1       1.073  -2.226  -3.125  0.00  0.00     0.008 A 
ATOM     17  C   UNL d   1       3.121  -3.693  -3.430  0.00  0.00     0.048 C 
ATOM     18  C   UNL d   1       0.350  -1.270  -2.399  0.00  0.00     0.025 A 
ENDBRANCH   9  12
ENDBRANCH   7   9
ENDBRANCH   1   7
BRANCH   2  19
ATOM     19  N   UNL d   1       3.153   1.289   1.604  0.00  0.00    -0.279 N 
ATOM     20  H   UNL d   1       3.369   0.633   2.354  0.00  0.00     0.179 HD
BRANCH  19  21
ATOM     21  S   UNL d   1       4.491   1.637   0.644  0.00  0.00     0.263 S 
ATOM     22  O   UNL d   1       5.415   0.543   0.857  0.00  0.00    -0.200 OA
ATOM     23  O   UNL d   1       4.047   1.990  -0.681  0.00  0.00    -0.200 OA
BRANCH  21  24
ATOM     24  C   UNL d   1       5.196   3.091   1.381  0.00  0.00     0.079 A 
ATOM     25  C   UNL d   1       6.170   2.980   2.376  0.00  0.00     0.026 A 
ATOM     26  C   UNL d   1       6.684   4.140   2.961  0.00  0.00     0.008 A 
ATOM     27  C   UNL d   1       6.234   5.405   2.554  0.00  0.00    -0.062 A 
ATOM     28  C   UNL d   1       5.292   5.499   1.521  0.00  0.00     0.008 A 
ATOM     29  C   UNL d   1       6.770   6.644   3.210  0.00  0.00     0.048 C 
ATOM     30  C   UNL d   1       4.780   4.346   0.928  0.00  0.00     0.026 A 
ENDBRANCH  21  24
ENDBRANCH  19  21
ENDBRANCH   2  19
BRANCH   3  31
ATOM     31  C   UNL d   1      -0.731   5.171   3.178  0.00  0.00     0.293 C 
ATOM     32  O   UNL d   1      -0.476   5.936   4.097  0.00  0.00    -0.259 OA
BRANCH  31  33
ATOM     33  O   UNL d   1      -1.921   5.077   2.539  0.00  0.00    -0.323 OA
ATOM     34  C   UNL d   1      -2.919   5.948   3.080  0.00  0.00     0.213 C 
ENDBRANCH  31  33
ENDBRANCH   3  31
TORSDOF 8
