REMARK  2 active torsions:
REMARK  status: ('A' for Active; 'I' for Inactive)
REMARK    1  A    between atoms: C_11  and  C_3 
REMARK    2  A    between atoms: S_17  and  C_7 
ROOT
ATOM      1  N   UNL d   1      -0.217  -0.599   0.016  0.00  0.00    -0.235 N 
ATOM      2  C   UNL d   1      -0.184   0.798  -0.033  0.00  0.00     0.130 A 
ATOM      3  C   UNL d   1       0.978  -1.350   0.041  0.00  0.00     0.115 A 
ATOM      4  C   UNL d   1       2.170  -0.702   0.011  0.00  0.00     0.109 A 
ATOM      5  N   UNL d   1       0.982   1.497  -0.057  0.00  0.00    -0.334 N 
ATOM      6  HN  UNL d   1       0.995   2.517  -0.092  1.00  0.00     0.168 HD
ATOM      7  C   UNL d   1       2.079   0.802  -0.033  0.00  0.00     0.094 A 
ATOM      8  N   UNL d   1      -1.508  -1.042   0.035  0.00  0.00    -0.296 N 
ATOM      9  HN  UNL d   1      -1.826  -2.011   0.068  1.00  0.00     0.187 HD
ATOM     10  C   UNL d   1      -1.490   1.226  -0.041  0.00  0.00     0.076 A 
ATOM     11  C   UNL d   1      -2.267   0.055   0.000  0.00  0.00     0.026 A 
ATOM     12  C   UNL d   1       3.438  -1.355  -0.015  0.00  0.00     0.105 C 
ATOM     13  N   UNL d   1       4.476  -1.874  -0.051  0.00  0.00    -0.191 NA
ATOM     14  C   UNL d   1      -3.748  -0.051   0.010  0.00  0.00     0.070 C 
ENDROOT
BRANCH   3  15
ATOM     15  C   UNL d   1       0.926  -2.785   0.109  0.00  0.00     0.105 A 
ATOM     16  O   UNL d   1       1.891  -3.541   0.745  0.00  0.00    -0.320 OA
ATOM     17  C   UNL d   1       1.577  -4.850   0.626  0.00  0.00     0.142 A 
ATOM     18  C   UNL d   1       0.400  -4.996  -0.056  0.00  0.00     0.027 A 
ATOM     19  C   UNL d   1      -0.019  -3.684  -0.384  0.00  0.00     0.041 A 
ENDBRANCH   3  15
BRANCH   7  20
ATOM     20  S   UNL d   1       3.607   1.680  -0.050  0.00  0.00    -0.115 SA
ATOM     21  C   UNL d   1       3.040   3.395  -0.044  0.00  0.00     0.097 C 
ENDBRANCH   7  20
TORSDOF 2
