REMARK  6 active torsions:
REMARK  status: ('A' for Active; 'I' for Inactive)
REMARK    1  A    between atoms: C_6  and  C_1 
REMARK    2  A    between atoms: N_3  and  C_6 
REMARK    3  A    between atoms: C_10  and  N_3 
REMARK    4  A    between atoms: C_12  and  C_6 
REMARK    5  A    between atoms: C_8  and  C_12 
REMARK    6  A    between atoms: C_11  and  C_10 
ROOT
ATOM      1  N   UNL d   1      -1.296   2.669   1.228  0.00  0.00     0.098 N 
ATOM      2  H   UNL d   1      -1.570   3.650   1.246  0.00  0.00     0.317 HD
ENDROOT
BRANCH   1   3
ATOM      3  C   UNL d   1      -0.537   2.404  -0.018  0.00  0.00     0.280 C 
BRANCH   3   4
ATOM      4  C   UNL d   1       0.015   1.003  -0.062  0.00  0.00     0.086 A 
ATOM      5  O   UNL d   1      -0.903   0.004  -0.266  0.00  0.00    -0.325 OA
ATOM      6  C   UNL d   1      -0.242  -1.178  -0.205  0.00  0.00     0.142 A 
ATOM      7  C   UNL d   1       1.106  -0.962  -0.052  0.00  0.00     0.027 A 
ATOM      8  C   UNL d   1       1.274   0.442   0.037  0.00  0.00     0.037 A 
ENDBRANCH   3   4
BRANCH   3   9
ATOM      9  C   UNL d   1       0.576   3.495  -0.099  0.00  0.00     0.069 C 
BRANCH   9  10
ATOM     10  C   UNL d   1       1.452   3.467  -1.326  0.00  0.00    -0.034 C 
ATOM     11  C   UNL d   1       2.775   3.697  -1.294  0.00  0.00     0.007 C 
ENDBRANCH   9  10
ENDBRANCH   3   9
ENDBRANCH   1   3
BRANCH   1  12
ATOM     12  C   UNL d   1      -2.522   1.873   1.343  0.00  0.00     0.309 C 
BRANCH  12  13
ATOM     13  C   UNL d   1      -3.292   2.220   2.598  0.00  0.00    -0.030 A 
ATOM     14  C   UNL d   1      -4.637   2.604   2.537  0.00  0.00     0.009 A 
ATOM     15  C   UNL d   1      -5.361   2.842   3.708  0.00  0.00     0.001 A 
ATOM     16  C   UNL d   1      -4.747   2.697   4.951  0.00  0.00     0.000 A 
ATOM     17  C   UNL d   1      -3.408   2.320   5.027  0.00  0.00     0.001 A 
ATOM     18  C   UNL d   1      -2.684   2.081   3.857  0.00  0.00     0.009 A 
ENDBRANCH  12  13
ENDBRANCH   1  12
TORSDOF 6
