REMARK  2 active torsions:
REMARK  status: ('A' for Active; 'I' for Inactive)
REMARK    1  A    between atoms: N_13  and  C_3 
REMARK    2  A    between atoms: C_12  and  C_9 
ROOT
ATOM      1  C   UNL d   1      -1.508  -0.823   0.016  0.00  0.00     0.090 A 
ATOM      2  C   UNL d   1      -0.989   0.435  -0.255  0.00  0.00     0.043 A 
ATOM      3  C   UNL d   1      -1.942   1.475  -0.252  0.00  0.00     0.093 A 
ATOM      4  N   UNL d   1      -2.781  -1.129   0.292  0.00  0.00    -0.335 N 
ATOM      5  HN  UNL d   1      -3.097  -2.078   0.494  1.00  0.00     0.168 HD
ATOM      6  N   UNL d   1      -3.230   1.195   0.018  0.00  0.00    -0.332 N 
ATOM      7  HN  UNL d   1      -3.925   1.942   0.026  1.00  0.00     0.168 HD
ATOM      8  S   UNL d   1      -0.342  -2.057  -0.021  0.00  0.00    -0.075 SA
ATOM      9  C   UNL d   1      -3.597  -0.073   0.278  0.00  0.00     0.117 A 
ATOM     10  C   UNL d   1       0.447   0.353  -0.468  0.00  0.00    -0.029 A 
ATOM     11  C   UNL d   1       0.904  -0.953  -0.364  0.00  0.00    -0.008 A 
ATOM     12  C   UNL d   1       1.400   1.486  -0.716  0.00  0.00     0.040 C 
ATOM     13  C   UNL d   1       2.324  -1.419  -0.473  0.00  0.00     0.046 C 
ATOM     14  C   UNL d   1       2.380   1.653   0.451  0.00  0.00     0.005 C 
ATOM     15  C   UNL d   1       3.190  -0.812   0.633  0.00  0.00     0.005 C 
ATOM     16  C   UNL d   1       3.551   0.663   0.422  0.00  0.00     0.001 C 
ENDROOT
BRANCH   9  17
ATOM     17  C   UNL d   1      -5.024  -0.321   0.578  0.00  0.00     0.008 A 
ATOM     18  C   UNL d   1      -5.979   0.714   0.526  0.00  0.00     0.017 A 
ATOM     19  C   UNL d   1      -7.332   0.475   0.802  0.00  0.00     0.025 A 
ATOM     20  C   UNL d   1      -7.752  -0.806   1.139  0.00  0.00     0.034 A 
ATOM     21  C   UNL d   1      -6.836  -1.850   1.204  0.00  0.00     0.025 A 
ATOM     22 CL   UNL d   1      -9.414  -1.102   1.476  0.00  0.00    -0.084 Cl
ATOM     23  C   UNL d   1      -5.487  -1.607   0.926  0.00  0.00     0.017 A 
ENDBRANCH   9  17
BRANCH   3  24
ATOM     24  N   UNL d   1      -1.676   2.816  -0.500  0.00  0.00    -0.288 NA
ATOM     25  H   UNL d   1      -0.797   3.151  -0.137  0.00  0.00     0.125 HD
ATOM     26  H   UNL d   1      -2.481   3.374  -0.232  0.00  0.00     0.125 HD
ENDBRANCH   3  24
TORSDOF 2
