REMARK  8 active torsions:
REMARK  status: ('A' for Active; 'I' for Inactive)
REMARK    1  A    between atoms: C_4  and  C_1 
REMARK       I    between atoms: C_2  and  N_5 
REMARK       I    between atoms: N_7  and  C_2 
REMARK    2  A    between atoms: O_6  and  C_3 
REMARK    3  A    between atoms: N_5  and  C_4 
REMARK    4  A    between atoms: C_13  and  O_6 
REMARK    5  A    between atoms: C_10  and  N_7 
REMARK    6  A    between atoms: O_11  and  C_12 
REMARK    7  A    between atoms: C_15  and  O_11 
REMARK    8  A    between atoms: C_20  and  C_15 
ROOT
ATOM      1  C   UNL d   1      -2.711   3.033  -0.270  0.00  0.00     0.299 C 
ATOM      2  N   UNL d   1      -2.212   1.874   0.262  0.00  0.00    -0.343 N 
ATOM      3  N   UNL d   1      -2.310   4.178   0.398  0.00  0.00    -0.211 NA
ATOM      4  O   UNL d   1      -3.446   3.099  -1.248  0.00  0.00    -0.254 OA
ATOM      5  H   UNL d   1      -1.822   1.935   1.191  0.00  0.00     0.164 HD
ATOM      6  H   UNL d   1      -2.703   4.948  -0.136  0.00  0.00     0.138 HD
ENDROOT
BRANCH   2   7
ATOM      7  C   UNL d   1      -2.438   0.574  -0.317  0.00  0.00     0.167 C 
BRANCH   7   8
ATOM      8  C   UNL d   1      -3.616  -0.262   0.163  0.00  0.00     0.015 A 
ATOM      9  C   UNL d   1      -3.650  -1.614  -0.267  0.00  0.00     0.085 A 
ATOM     10  C   UNL d   1      -4.805  -2.395  -0.111  0.00  0.00     0.038 A 
ATOM     11  C   UNL d   1      -5.906  -1.897   0.568  0.00  0.00     0.004 A 
ATOM     12  C   UNL d   1      -5.852  -0.614   1.089  0.00  0.00     0.024 A 
ATOM     13  C   UNL d   1      -4.727   0.203   0.894  0.00  0.00     0.044 A 
ATOM     14 CL   UNL d   1      -4.833   1.744   1.669  0.00  0.00    -0.084 Cl
BRANCH   9  15
ATOM     15  O   UNL d   1      -2.511  -2.127  -0.884  0.00  0.00    -0.310 OA
BRANCH  15  16
ATOM     16  C   UNL d   1      -2.336  -3.495  -0.846  0.00  0.00     0.076 A 
ATOM     17  C   UNL d   1      -2.232  -4.165  -2.065  0.00  0.00     0.037 A 
ATOM     18  C   UNL d   1      -2.182  -5.560  -2.086  0.00  0.00     0.003 A 
ATOM     19  C   UNL d   1      -2.216  -6.279  -0.890  0.00  0.00     0.000 A 
ATOM     20  C   UNL d   1      -2.257  -5.604   0.332  0.00  0.00     0.003 A 
ATOM     21  C   UNL d   1      -2.295  -4.209   0.357  0.00  0.00     0.037 A 
ENDBRANCH  15  16
ENDBRANCH   9  15
ENDBRANCH   7   8
ENDBRANCH   2   7
BRANCH   3  22
ATOM     22  C   UNL d   1      -0.931   4.356   0.649  0.00  0.00     0.017 A 
ATOM     23  C   UNL d   1      -0.021   4.292  -0.409  0.00  0.00     0.026 A 
ATOM     24  C   UNL d   1       1.344   4.334  -0.148  0.00  0.00     0.038 A 
ATOM     25  C   UNL d   1       1.796   4.432   1.169  0.00  0.00     0.069 A 
ATOM     26  C   UNL d   1       0.883   4.597   2.213  0.00  0.00     0.038 A 
ATOM     27  C   UNL d   1      -0.489   4.554   1.955  0.00  0.00     0.026 A 
BRANCH  25  28
ATOM     28  O   UNL d   1       3.124   4.378   1.506  0.00  0.00    -0.347 OA
BRANCH  28  29
ATOM     29  C   UNL d   1       3.800   3.292   0.855  0.00  0.00     0.214 C 
BRANCH  29  30
ATOM     30  C   UNL d   1       5.160   3.009   1.452  0.00  0.00    -0.034 A 
ATOM     31  C   UNL d   1       5.633   3.657   2.600  0.00  0.00     0.009 A 
ATOM     32  C   UNL d   1       6.898   3.358   3.110  0.00  0.00     0.001 A 
ATOM     33  C   UNL d   1       7.701   2.408   2.483  0.00  0.00     0.000 A 
ATOM     34  C   UNL d   1       7.241   1.750   1.346  0.00  0.00     0.001 A 
ATOM     35  C   UNL d   1       5.977   2.047   0.835  0.00  0.00     0.009 A 
ENDBRANCH  29  30
ENDBRANCH  28  29
ENDBRANCH  25  28
ENDBRANCH   3  22
TORSDOF 8
