REMARK  2 active torsions:
REMARK  status: ('A' for Active; 'I' for Inactive)
REMARK       I    between atoms: N_2  and  C_1 
REMARK       I    between atoms: N_6  and  C_1 
REMARK    1  A    between atoms: C_5  and  N_2 
REMARK    2  A    between atoms: C_7  and  N_6 
ROOT
ATOM      1  C   UNL d   1       1.091   0.078  -0.017  0.00  0.00     0.326 C 
ATOM      2  N   UNL d   1       0.373  -0.163  -1.164  0.00  0.00    -0.294 N 
ATOM      3  N   UNL d   1       0.352   0.238   1.121  0.00  0.00    -0.309 N 
ATOM      4  O   UNL d   1       2.318   0.079  -0.093  0.00  0.00    -0.247 OA
ATOM      5  H   UNL d   1       0.961  -0.373  -1.958  0.00  0.00     0.172 HD
ATOM      6  H   UNL d   1      -0.647   0.119   0.975  0.00  0.00     0.170 HD
ENDROOT
BRANCH   2   7
ATOM      7  C   UNL d   1      -1.012  -0.110  -1.350  0.00  0.00     0.109 A 
ATOM      8  N   UNL d   1      -1.796   0.307  -0.332  0.00  0.00    -0.342 N 
ATOM      9  C   UNL d   1      -3.122   0.395  -0.521  0.00  0.00     0.043 A 
ATOM     10  HN  UNL d   1      -1.385   0.552   0.569  1.00  0.00     0.167 HD
ATOM     11  C   UNL d   1      -3.918   0.882   0.507  0.00  0.00     0.030 A 
ATOM     12  C   UNL d   1      -3.736   0.015  -1.728  0.00  0.00    -0.009 A 
ATOM     13  C   UNL d   1      -5.305   0.980   0.374  0.00  0.00     0.002 A 
ATOM     14  C   UNL d   1      -5.914   0.579  -0.809  0.00  0.00     0.001 A 
ATOM     15  C   UNL d   1      -5.134   0.099  -1.862  0.00  0.00     0.013 A 
ATOM     16  C   UNL d   1      -2.909  -0.433  -2.766  0.00  0.00     0.017 A 
ATOM     17  C   UNL d   1      -1.529  -0.482  -2.581  0.00  0.00     0.049 A 
ENDBRANCH   2   7
BRANCH   3  18
ATOM     18  C   UNL d   1       0.766   0.526   2.428  0.00  0.00     0.037 A 
ATOM     19  C   UNL d   1       2.057   0.935   2.757  0.00  0.00     0.036 A 
ATOM     20  C   UNL d   1       2.382   1.254   4.084  0.00  0.00    -0.059 A 
ATOM     21  C   UNL d   1       3.753   1.751   4.437  0.00  0.00     0.048 C 
ATOM     22  C   UNL d   1       1.409   1.121   5.084  0.00  0.00     0.013 A 
ATOM     23  C   UNL d   1       0.115   0.691   4.771  0.00  0.00    -0.059 A 
ATOM     24  C   UNL d   1      -0.201   0.415   3.436  0.00  0.00     0.036 A 
ATOM     25  C   UNL d   1      -0.911   0.539   5.853  0.00  0.00     0.048 C 
ENDBRANCH   3  18
TORSDOF 2
