REMARK  10 active torsions:
REMARK  status: ('A' for Active; 'I' for Inactive)
REMARK    1  A    between atoms: C_6  and  S_1 
REMARK    2  A    between atoms: C_8  and  S_1 
REMARK    3  A    between atoms: C_2  and  C_5 
REMARK    4  A    between atoms: C_3  and  N_4 
REMARK    5  A    between atoms: N_7  and  C_3 
REMARK    6  A    between atoms: N_4  and  C_9 
REMARK    7  A    between atoms: C_14  and  N_7 
REMARK    8  A    between atoms: C_22  and  C_8 
REMARK    9  A    between atoms: C_15  and  S_21 
REMARK   10  A    between atoms: S_21  and  C_22 
ROOT
ATOM      1  C   UNL d   1       2.112   2.220  -6.702  0.00  0.00     0.051 A 
ATOM      2  C   UNL d   1       0.915   2.188  -5.959  0.00  0.00     0.027 A 
ATOM      3  C   UNL d   1       2.589   3.438  -7.198  0.00  0.00     0.031 A 
ATOM      4  C   UNL d   1       0.251   3.383  -5.661  0.00  0.00     0.021 A 
ATOM      5  C   UNL d   1       1.911   4.624  -6.905  0.00  0.00     0.002 A 
ATOM      6  C   UNL d   1       0.756   4.599  -6.124  0.00  0.00     0.002 A 
ENDROOT
BRANCH   1   7
ATOM      7  N   UNL d   1       2.860   1.028  -6.808  0.00  0.00    -0.332 N 
ATOM      8  H   UNL d   1       2.741   0.387  -6.024  0.00  0.00     0.168 HD
BRANCH   7   9
ATOM      9  C   UNL d   1       3.834   0.664  -7.700  0.00  0.00     0.176 C 
ATOM     10  S   UNL d   1       4.928  -0.490  -7.186  0.00  0.00    -0.041 SA
BRANCH   9  11
ATOM     11  N   UNL d   1       3.655   1.170  -8.970  0.00  0.00    -0.333 N 
ATOM     12  H   UNL d   1       2.700   1.462  -9.133  0.00  0.00     0.168 HD
BRANCH  11  13
ATOM     13  C   UNL d   1       4.430   0.985 -10.130  0.00  0.00     0.035 A 
ATOM     14  C   UNL d   1       5.821   0.884 -10.122  0.00  0.00     0.045 A 
ATOM     15  C   UNL d   1       6.535   0.709 -11.320  0.00  0.00     0.050 A 
ATOM     16  C   UNL d   1       5.830   0.624 -12.530  0.00  0.00     0.016 A 
ATOM     17  C   UNL d   1       4.443   0.748 -12.546  0.00  0.00     0.003 A 
ATOM     18  C   UNL d   1       3.751   0.953 -11.353  0.00  0.00     0.029 A 
BRANCH  15  19
ATOM     19  C   UNL d   1       8.041   0.637 -11.325  0.00  0.00     0.417 C 
ATOM     20  F   UNL d   1       8.601   0.715 -10.086  0.00  0.00    -0.166 F 
ATOM     21  F   UNL d   1       8.510  -0.515 -11.878  0.00  0.00    -0.166 F 
ATOM     22  F   UNL d   1       8.600   1.650 -12.047  0.00  0.00    -0.166 F 
ENDBRANCH  15  19
ENDBRANCH  11  13
ENDBRANCH   9  11
ENDBRANCH   7   9
ENDBRANCH   1   7
BRANCH   2  23
ATOM     23  S   UNL d   1       0.191   0.627  -5.441  0.00  0.00    -0.127 SA
BRANCH  23  24
ATOM     24  C   UNL d   1      -0.379   0.011  -7.079  0.00  0.00     0.095 C 
BRANCH  24  25
ATOM     25  C   UNL d   1      -0.691  -1.471  -7.002  0.00  0.00     0.156 C 
BRANCH  25  26
ATOM     26  S   UNL d   1      -1.639  -2.054  -8.390  0.00  0.00     0.176 S 
ATOM     27  O   UNL d   1      -1.990  -3.438  -8.124  0.00  0.00    -0.223 OA
ATOM     28  O   UNL d   1      -2.672  -1.082  -8.682  0.00  0.00    -0.223 OA
BRANCH  26  29
ATOM     29  C   UNL d   1      -0.540  -2.067  -9.799  0.00  0.00     0.059 A 
ATOM     30  C   UNL d   1      -0.022  -3.283 -10.264  0.00  0.00     0.025 A 
ATOM     31  C   UNL d   1       0.717  -3.314 -11.450  0.00  0.00     0.025 A 
ATOM     32  C   UNL d   1       0.927  -2.137 -12.166  0.00  0.00     0.034 A 
ATOM     33  C   UNL d   1       0.397  -0.928 -11.713  0.00  0.00     0.025 A 
ATOM     34 CL   UNL d   1       1.816  -2.176 -13.639  0.00  0.00    -0.084 Cl
ATOM     35  C   UNL d   1      -0.343  -0.889 -10.527  0.00  0.00     0.025 A 
ENDBRANCH  26  29
ENDBRANCH  25  26
ENDBRANCH  24  25
ENDBRANCH  23  24
ENDBRANCH   2  23
TORSDOF 10
