REMARK  5 active torsions:
REMARK  status: ('A' for Active; 'I' for Inactive)
REMARK    1  A    between atoms: C_3  and  C_1 
REMARK    2  A    between atoms: C_2  and  N_4 
REMARK    3  A    between atoms: N_6  and  C_2 
REMARK    4  A    between atoms: N_4  and  C_12 
REMARK    5  A    between atoms: N_13  and  N_6 
ROOT
ATOM      1  C   UNL d   1       0.639   0.730  -1.105  0.00  0.00     0.048 A 
ATOM      2  C   UNL d   1      -0.130  -0.014  -2.009  0.00  0.00     0.018 A 
ATOM      3  C   UNL d   1       0.898   2.078  -1.395  0.00  0.00     0.018 A 
ATOM      4  C   UNL d   1      -0.303   1.894  -3.499  0.00  0.00     0.034 A 
ATOM      5  C   UNL d   1       0.419   2.658  -2.575  0.00  0.00     0.030 A 
ATOM      6  C   UNL d   1      -0.598   0.565  -3.192  0.00  0.00     0.030 A 
ENDROOT
BRANCH   4   7
ATOM      7  N   UNL d   1      -0.759   2.528  -4.674  0.00  0.00    -0.332 N 
ATOM      8  H   UNL d   1      -0.676   3.538  -4.687  0.00  0.00     0.168 HD
BRANCH   7   9
ATOM      9  C   UNL d   1      -0.998   1.974  -5.925  0.00  0.00     0.186 C 
ATOM     10  S   UNL d   1      -0.342   0.556  -6.543  0.00  0.00    -0.040 SA
BRANCH   9  11
ATOM     11  N   UNL d   1      -1.818   2.829  -6.677  0.00  0.00    -0.300 N 
ATOM     12  H   UNL d   1      -2.419   3.456  -6.144  0.00  0.00     0.183 HD
BRANCH  11  13
ATOM     13  N   UNL d   1      -2.267   2.481  -7.972  0.00  0.00    -0.248 NA
ATOM     14  H   UNL d   1      -2.126   1.468  -8.087  0.00  0.00     0.143 HD
ATOM     15  H   UNL d   1      -1.620   2.897  -8.647  0.00  0.00     0.143 HD
ENDBRANCH  11  13
ENDBRANCH   9  11
ENDBRANCH   7   9
ENDBRANCH   4   7
BRANCH   1  16
ATOM     16  C   UNL d   1       1.182   0.106   0.157  0.00  0.00     0.417 C 
ATOM     17  F   UNL d   1       0.818  -1.196   0.325  0.00  0.00    -0.166 F 
ATOM     18  F   UNL d   1       0.768   0.757   1.280  0.00  0.00    -0.166 F 
ATOM     19  F   UNL d   1       2.543   0.120   0.198  0.00  0.00    -0.166 F 
ENDBRANCH   1  16
TORSDOF 5
