REMARK  7 active torsions:
REMARK  status: ('A' for Active; 'I' for Inactive)
REMARK       I    between atoms: C_3  and  N_4 
REMARK    1  A    between atoms: C_16  and  C_3 
REMARK    2  A    between atoms: N_4  and  C_8 
REMARK    3  A    between atoms: C_5  and  C_17 
REMARK    4  A    between atoms: O_10  and  C_5 
REMARK    5  A    between atoms: O_9  and  C_16 
REMARK    6  A    between atoms: C_17  and  O_9 
REMARK    7  A    between atoms: C_11  and  C_18 
ROOT
ATOM      1  N   UNL d   1       4.601   0.529  -2.526  0.00  0.00    -0.197 NA
ATOM      2  C   UNL d   1       4.241   0.286  -1.447  0.00  0.00     0.063 C 
ATOM      3  C   UNL d   1       3.773   0.006  -0.084  0.00  0.00     0.162 C 
ENDROOT
BRANCH   3   4
ATOM      4  C   UNL d   1       4.146  -1.377   0.390  0.00  0.00    -0.045 A 
ATOM      5  C   UNL d   1       5.344  -1.619   1.073  0.00  0.00     0.010 A 
ATOM      6  C   UNL d   1       5.670  -2.914   1.500  0.00  0.00     0.030 A 
ATOM      7  C   UNL d   1       4.807  -3.987   1.244  0.00  0.00     0.034 A 
ATOM      8  C   UNL d   1       3.629  -3.745   0.540  0.00  0.00     0.030 A 
ATOM      9  C   UNL d   1       3.297  -2.455   0.118  0.00  0.00     0.010 A 
BRANCH   7  10
ATOM     10  N   UNL d   1       5.167  -5.258   1.735  0.00  0.00    -0.325 N 
ATOM     11  C   UNL d   1       4.454  -6.439   1.589  0.00  0.00     0.245 C 
ATOM     12  O   UNL d   1       3.430  -6.606   0.930  0.00  0.00    -0.271 OA
ATOM     13  H   UNL d   1       6.010  -5.312   2.292  0.00  0.00     0.169 HD
BRANCH  11  14
ATOM     14  C   UNL d   1       5.095  -7.614   2.316  0.00  0.00     0.271 C 
BRANCH  14  15
ATOM     15  O   UNL d   1       5.406  -7.300   3.679  0.00  0.00    -0.372 OA
BRANCH  15  16
ATOM     16  C   UNL d   1       5.700  -8.488   4.422  0.00  0.00     0.277 C 
BRANCH  16  17
ATOM     17  C   UNL d   1       7.113  -8.952   4.114  0.00  0.00     0.164 C 
ATOM     18  O   UNL d   1       7.434 -10.102   3.865  0.00  0.00    -0.648 OA
BRANCH  17  19
ATOM     19  O   UNL d   1       7.993  -7.918   4.128  0.00  0.00    -0.775 OA
ATOM     20  H   UNL d   1       7.526  -7.078   4.324  0.00  0.00     0.167 HD
ENDBRANCH  17  19
ENDBRANCH  16  17
ENDBRANCH  15  16
ENDBRANCH  14  15
ENDBRANCH  11  14
ENDBRANCH   7  10
ENDBRANCH   3   4
TORSDOF 7
