REMARK  5 active torsions:
REMARK  status: ('A' for Active; 'I' for Inactive)
REMARK    1  A    between atoms: S_7  and  C_1 
REMARK    2  A    between atoms: C_8  and  C_4 
REMARK    3  A    between atoms: C_11  and  S_7 
REMARK    4  A    between atoms: O_17  and  C_8 
REMARK    5  A    between atoms: N_9  and  C_12 
REMARK       I    between atoms: C_13  and  N_9 
ROOT
ATOM      1  C   UNL d   1       0.999   1.139   0.406  0.00  0.00     0.150 A 
ATOM      2  N   UNL d   1       1.588   0.167   1.111  0.00  0.00    -0.332 N 
ATOM      3  HN  UNL d   1       2.439   0.328   1.650  1.00  0.00     0.168 HD
ATOM      4  C   UNL d   1       0.983  -1.047   1.063  0.00  0.00     0.112 A 
ATOM      5  N   UNL d   1      -0.132   0.993  -0.306  0.00  0.00    -0.340 N 
ATOM      6  HN  UNL d   1      -0.541   1.777  -0.814  1.00  0.00     0.167 HD
ATOM      7  C   UNL d   1      -0.176  -1.300   0.360  0.00  0.00     0.060 A 
ATOM      8  C   UNL d   1      -0.708  -0.230  -0.325  0.00  0.00     0.009 A 
ATOM      9  C   UNL d   1      -1.993  -0.359  -1.084  0.00  0.00     0.068 C 
ENDROOT
BRANCH   1  10
ATOM     10  S   UNL d   1       1.675   2.784   0.497  0.00  0.00    -0.052 SA
BRANCH  10  11
ATOM     11  C   UNL d   1       3.390   2.475   0.083  0.00  0.00     0.035 A 
ATOM     12  C   UNL d   1       3.864   2.588  -1.237  0.00  0.00     0.052 A 
ATOM     13  C   UNL d   1       5.207   2.304  -1.516  0.00  0.00     0.031 A 
ATOM     14  C   UNL d   1       6.076   1.914  -0.496  0.00  0.00     0.002 A 
ATOM     15  C   UNL d   1       5.607   1.793   0.809  0.00  0.00     0.002 A 
ATOM     16  C   UNL d   1       4.270   2.072   1.097  0.00  0.00     0.021 A 
BRANCH  12  17
ATOM     17  N   UNL d   1       2.998   3.035  -2.262  0.00  0.00    -0.326 N 
ATOM     18  C   UNL d   1       3.031   2.556  -3.557  0.00  0.00     0.218 C 
ATOM     19  O   UNL d   1       3.723   1.624  -3.957  0.00  0.00    -0.274 OA
ATOM     20  C   UNL d   1       2.123   3.302  -4.497  0.00  0.00     0.117 C 
ATOM     21  H   UNL d   1       2.147   3.493  -1.954  0.00  0.00     0.169 HD
ENDBRANCH  12  17
ENDBRANCH  10  11
ENDBRANCH   1  10
BRANCH   4  22
ATOM     22  C   UNL d   1       1.605  -2.169   1.831  0.00  0.00     0.309 C 
ATOM     23  O   UNL d   1       1.151  -3.307   1.847  0.00  0.00    -0.258 OA
BRANCH  22  24
ATOM     24  O   UNL d   1       2.709  -1.743   2.494  0.00  0.00    -0.321 OA
ATOM     25  C   UNL d   1       3.370  -2.759   3.250  0.00  0.00     0.213 C 
ENDBRANCH  22  24
ENDBRANCH   4  22
TORSDOF 5
