REMARK  2 active torsions:
REMARK  status: ('A' for Active; 'I' for Inactive)
REMARK       I    between atoms: C_3  and  N_8 
REMARK    1  A    between atoms: C_9  and  C_3 
REMARK    2  A    between atoms: N_8  and  C_11 
ROOT
ATOM      1  N   UNL d   1       1.787   0.960   0.283  0.00  0.00    -0.338 N 
ATOM      2  HN  UNL d   1       2.213   1.885   0.234  1.00  0.00     0.168 HD
ATOM      3  C   UNL d   1       2.385  -0.207   0.417  0.00  0.00     0.120 A 
ATOM      4  O   UNL d   1       1.542  -1.291   0.442  0.00  0.00    -0.296 OA
ATOM      5  C   UNL d   1       0.295  -0.738   0.320  0.00  0.00     0.106 A 
ATOM      6  C   UNL d   1       0.459   0.634   0.226  0.00  0.00     0.068 A 
ATOM      7  C   UNL d   1      -0.938  -1.395   0.292  0.00  0.00     0.069 A 
ATOM      8  C   UNL d   1      -2.078  -0.580   0.146  0.00  0.00     0.037 A 
ATOM      9  C   UNL d   1      -0.670   1.440   0.102  0.00  0.00     0.035 A 
ATOM     10  C   UNL d   1      -1.928   0.815   0.068  0.00  0.00     0.032 A 
ATOM     11  C   UNL d   1       3.829  -0.473   0.570  0.00  0.00     0.098 C 
ENDROOT
BRANCH   8  12
ATOM     12  N   UNL d   1      -3.347  -1.218   0.075  0.00  0.00    -0.323 N 
ATOM     13  C   UNL d   1      -4.558  -0.599  -0.214  0.00  0.00     0.256 C 
ATOM     14  O   UNL d   1      -4.727   0.593  -0.430  0.00  0.00    -0.267 OA
ATOM     15  H   UNL d   1      -3.355  -2.220   0.217  0.00  0.00     0.169 HD
BRANCH  13  16
ATOM     16  C   UNL d   1      -5.753  -1.486  -0.332  0.00  0.00     0.038 A 
ATOM     17  C   UNL d   1      -7.018  -1.088   0.154  0.00  0.00    -0.046 A 
ATOM     18  C   UNL d   1      -7.256   0.124   1.017  0.00  0.00     0.049 C 
ATOM     19  C   UNL d   1      -8.145  -1.863  -0.177  0.00  0.00     0.007 A 
ATOM     20  C   UNL d   1      -8.022  -3.016  -0.951  0.00  0.00     0.001 A 
ATOM     21  C   UNL d   1      -6.767  -3.426  -1.393  0.00  0.00     0.001 A 
ATOM     22  C   UNL d   1      -5.637  -2.663  -1.092  0.00  0.00     0.017 A 
ENDBRANCH  13  16
ENDBRANCH   8  12
TORSDOF 2
