REMARK  4 active torsions:
REMARK  status: ('A' for Active; 'I' for Inactive)
REMARK    1  A    between atoms: C_5  and  N_1 
REMARK    2  A    between atoms: N_12  and  C_8 
REMARK    3  A    between atoms: C_13  and  C_16 
REMARK    4  A    between atoms: O_15  and  C_16 
ROOT
ATOM      1  N   UNL d   1      -1.436  -3.513   0.102  0.00  0.00    -0.282 N 
ATOM      2  C   UNL d   1      -2.455  -2.983   0.907  0.00  0.00     0.329 A 
ATOM      3  N   UNL d   1      -3.739  -3.444   0.735  0.00  0.00    -0.299 N 
ATOM      4  HN  UNL d   1      -4.486  -3.115   1.347  1.00  0.00     0.171 HD
ATOM      5  C   UNL d   1      -1.734  -4.390  -0.919  0.00  0.00     0.101 A 
ATOM      6  C   UNL d   1      -2.977  -4.818  -1.128  0.00  0.00     0.059 A 
ATOM      7  C   UNL d   1      -4.000  -4.297  -0.205  0.00  0.00     0.082 A 
ATOM      8  O   UNL d   1      -2.212  -2.116   1.746  0.00  0.00    -0.246 OA
ENDROOT
BRANCH   1   9
ATOM      9  C   UNL d   1      -0.090  -2.972   0.292  0.00  0.00     0.232 C 
ATOM     10  O   UNL d   1       0.811  -3.492  -0.708  0.00  0.00    -0.359 OA
ATOM     11  C   UNL d   1       1.775  -4.354  -0.080  0.00  0.00     0.147 C 
ATOM     12  C   UNL d   1       1.350  -4.540   1.366  0.00  0.00     0.038 C 
ATOM     13  C   UNL d   1       0.545  -3.297   1.642  0.00  0.00     0.057 C 
BRANCH  11  14
ATOM     14  C   UNL d   1       1.867  -5.679  -0.838  0.00  0.00     0.196 C 
BRANCH  14  15
ATOM     15  O   UNL d   1       2.820  -6.544  -0.237  0.00  0.00    -0.398 OA
ATOM     16  H   UNL d   1       2.766  -7.395  -0.706  0.00  0.00     0.209 HD
ENDBRANCH  14  15
ENDBRANCH  11  14
ENDBRANCH   1   9
BRANCH   7  17
ATOM     17  N   UNL d   1      -5.298  -4.707  -0.337  0.00  0.00    -0.288 NA
ATOM     18  H   UNL d   1      -5.622  -4.923  -1.271  0.00  0.00     0.125 HD
ATOM     19  H   UNL d   1      -5.940  -4.115   0.182  0.00  0.00     0.125 HD
ENDBRANCH   7  17
TORSDOF 4
