REMARK  4 active torsions:
REMARK  status: ('A' for Active; 'I' for Inactive)
REMARK    1  A    between atoms: C_3  and  C_1 
REMARK    2  A    between atoms: C_15  and  N_2 
REMARK    3  A    between atoms: C_16  and  C_8 
REMARK    4  A    between atoms: N_17  and  C_11 
ROOT
ATOM      1  C   UNL d   1      -0.346  -2.782  -0.124  0.00  0.00     0.054 A 
ATOM      2  C   UNL d   1       0.030  -3.562   0.964  0.00  0.00     0.060 A 
ATOM      3  N   UNL d   1      -0.123  -4.918   0.954  0.00  0.00    -0.331 N 
ATOM      4  HN  UNL d   1       0.150  -5.474   1.764  1.00  0.00     0.168 HD
ATOM      5  C   UNL d   1      -0.634  -5.508  -0.130  0.00  0.00     0.157 A 
ATOM      6  C   UNL d   1      -0.864  -3.502  -1.190  0.00  0.00     0.108 A 
ATOM      7  N   UNL d   1      -1.037  -4.835  -1.209  0.00  0.00    -0.342 N 
ATOM      8  HN  UNL d   1      -1.455  -5.309  -2.010  1.00  0.00     0.167 HD
ENDROOT
BRANCH   1   9
ATOM      9  C   UNL d   1      -0.143  -1.344  -0.252  0.00  0.00     0.152 C 
ATOM     10  N   UNL d   1      -1.032  -0.415  -0.792  0.00  0.00    -0.224 N 
ATOM     11  N   UNL d   1      -0.348   0.727  -1.037  0.00  0.00     0.001 NA
ATOM     12  N   UNL d   1       0.852   0.554  -0.510  0.00  0.00    -0.007 NA
ATOM     13  N   UNL d   1       0.997  -0.715  -0.027  0.00  0.00    -0.269 N 
ATOM     14  HN  UNL d   1       1.826  -1.103   0.422  1.00  0.00     0.185 HD
BRANCH  10  15
ATOM     15  C   UNL d   1      -2.409  -0.523  -1.108  0.00  0.00     0.056 A 
ATOM     16  C   UNL d   1      -3.249  -1.406  -0.415  0.00  0.00     0.031 A 
ATOM     17  C   UNL d   1      -4.589  -1.529  -0.788  0.00  0.00     0.002 A 
ATOM     18  C   UNL d   1      -5.094  -0.778  -1.849  0.00  0.00     0.000 A 
ATOM     19  C   UNL d   1      -4.269   0.122  -2.521  0.00  0.00     0.002 A 
ATOM     20  C   UNL d   1      -2.934   0.267  -2.142  0.00  0.00     0.031 A 
ENDBRANCH  10  15
ENDBRANCH   1   9
BRANCH   2  21
ATOM     21  C   UNL d   1       0.649  -3.060   2.217  0.00  0.00    -0.008 A 
ATOM     22  C   UNL d   1       0.238  -1.880   2.862  0.00  0.00     0.014 A 
ATOM     23  C   UNL d   1       0.867  -1.431   4.030  0.00  0.00     0.001 A 
ATOM     24  C   UNL d   1       1.902  -2.168   4.598  0.00  0.00     0.000 A 
ATOM     25  C   UNL d   1       2.308  -3.356   4.001  0.00  0.00     0.001 A 
ATOM     26  C   UNL d   1       1.688  -3.793   2.827  0.00  0.00     0.014 A 
ENDBRANCH   2  21
BRANCH   5  27
ATOM     27  N   UNL d   1      -0.658  -6.888  -0.120  0.00  0.00    -0.268 NA
ATOM     28  C   UNL d   1      -1.773  -7.527  -0.778  0.00  0.00     0.116 C 
ATOM     29  H   UNL d   1      -0.483  -7.186   0.836  0.00  0.00     0.130 HD
ENDBRANCH   5  27
TORSDOF 4
