REMARK  5 active torsions:
REMARK  status: ('A' for Active; 'I' for Inactive)
REMARK    1  A    between atoms: C_2  and  S_1 
REMARK    2  A    between atoms: C_4  and  S_1 
REMARK    3  A    between atoms: N_6  and  C_3 
REMARK    4  A    between atoms: C_13  and  N_8 
REMARK    5  A    between atoms: C_18  and  C_13 
ROOT
ATOM      1  C   UNL d   1      -0.865   2.115  -0.934  0.00  0.00     0.160 C 
ATOM      2  C   UNL d   1      -0.338   1.349  -1.907  0.00  0.00     0.121 C 
ATOM      3  C   UNL d   1      -2.040   1.780  -0.227  0.00  0.00     0.113 C 
ATOM      4  N   UNL d   1      -3.025   1.510   0.326  0.00  0.00    -0.191 NA
ENDROOT
BRANCH   1   5
ATOM      5  S   UNL d   1      -0.195   3.696  -0.706  0.00  0.00     0.233 S 
ATOM      6  O   UNL d   1      -0.808   4.588  -1.681  0.00  0.00    -0.215 OA
ATOM      7  O   UNL d   1       1.256   3.623  -0.638  0.00  0.00    -0.215 OA
BRANCH   5   8
ATOM      8  C   UNL d   1      -0.760   4.231   0.908  0.00  0.00     0.134 A 
ATOM      9  N   UNL d   1      -0.400   3.407   1.928  0.00  0.00    -0.356 N 
ATOM     10  C   UNL d   1      -0.794   3.796   3.161  0.00  0.00     0.089 A 
ATOM     11  HN  UNL d   1       0.132   2.551   1.773  1.00  0.00     0.166 HD
ATOM     12  C   UNL d   1      -1.531   4.946   3.413  0.00  0.00     0.017 A 
ATOM     13  C   UNL d   1      -1.891   5.755   2.333  0.00  0.00     0.004 A 
ATOM     14  C   UNL d   1      -1.500   5.397   1.050  0.00  0.00     0.042 A 
ENDBRANCH   5   8
ENDBRANCH   1   5
BRANCH   2  15
ATOM     15  N   UNL d   1      -0.658   0.061  -2.327  0.00  0.00    -0.385 N 
ATOM     16  C   UNL d   1      -1.062  -1.020  -1.405  0.00  0.00     0.152 C 
ATOM     17  C   UNL d   1      -0.231  -2.291  -1.683  0.00  0.00     0.292 C 
ATOM     18  N   UNL d   1      -0.330  -2.799  -3.070  0.00  0.00     0.095 N 
ATOM     19  C   UNL d   1       0.072  -1.696  -3.980  0.00  0.00     0.292 C 
ATOM     20  C   UNL d   1      -0.635  -0.335  -3.753  0.00  0.00     0.152 C 
BRANCH  18  21
ATOM     21  C   UNL d   1      -1.680  -3.286  -3.405  0.00  0.00     0.311 C 
BRANCH  21  22
ATOM     22  C   UNL d   1      -2.163  -4.437  -2.545  0.00  0.00    -0.030 A 
ATOM     23  C   UNL d   1      -3.268  -4.277  -1.693  0.00  0.00     0.009 A 
ATOM     24  C   UNL d   1      -3.741  -5.349  -0.934  0.00  0.00     0.001 A 
ATOM     25  C   UNL d   1      -3.119  -6.592  -1.017  0.00  0.00     0.000 A 
ATOM     26  C   UNL d   1      -2.011  -6.759  -1.848  0.00  0.00     0.001 A 
ATOM     27  C   UNL d   1      -1.533  -5.688  -2.604  0.00  0.00     0.009 A 
ENDBRANCH  21  22
ENDBRANCH  18  21
ENDBRANCH   2  15
TORSDOF 5
