REMARK  6 active torsions:
REMARK  status: ('A' for Active; 'I' for Inactive)
REMARK    1  A    between atoms: N_2  and  C_1 
REMARK    2  A    between atoms: N_3  and  C_1 
REMARK    3  A    between atoms: C_7  and  N_2 
REMARK    4  A    between atoms: C_9  and  N_2 
REMARK    5  A    between atoms: C_6  and  N_3 
REMARK    6  A    between atoms: C_14  and  C_9 
ROOT
ATOM      1  N   UNL d   1       0.104   1.107   0.650  0.00  0.00    -0.320 N 
ENDROOT
BRANCH   1   2
ATOM      2  C   UNL d   1       0.747  -0.116   0.424  0.00  0.00     0.179 C 
ATOM      3  S   UNL d   1       2.191  -0.610   1.145  0.00  0.00    -0.040 SA
BRANCH   2   4
ATOM      4  N   UNL d   1       0.180  -1.053  -0.393  0.00  0.00    -0.333 N 
ATOM      5  H   UNL d   1       0.564  -1.980  -0.247  0.00  0.00     0.168 HD
BRANCH   4   6
ATOM      6  C   UNL d   1      -0.577  -0.916  -1.577  0.00  0.00     0.040 A 
ATOM      7  C   UNL d   1      -1.340  -2.014  -2.024  0.00  0.00    -0.035 A 
ATOM      8  C   UNL d   1      -1.541  -3.272  -1.220  0.00  0.00     0.050 C 
ATOM      9  C   UNL d   1      -2.010  -1.923  -3.256  0.00  0.00     0.009 A 
ATOM     10  C   UNL d   1      -1.931  -0.765  -4.027  0.00  0.00     0.001 A 
ATOM     11  C   UNL d   1      -1.192   0.321  -3.571  0.00  0.00     0.002 A 
ATOM     12  C   UNL d   1      -0.521   0.249  -2.349  0.00  0.00     0.030 A 
ENDBRANCH   4   6
ENDBRANCH   2   4
ENDBRANCH   1   2
BRANCH   1  13
ATOM     13  C   UNL d   1      -1.345   1.245   0.761  0.00  0.00     0.037 A 
ATOM     14  C   UNL d   1      -2.179   0.126   0.950  0.00  0.00     0.033 A 
ATOM     15  C   UNL d   1      -3.567   0.251   1.073  0.00  0.00     0.044 A 
ATOM     16  C   UNL d   1      -4.145   1.508   1.057  0.00  0.00     0.116 A 
ATOM     17  C   UNL d   1      -3.355   2.639   0.925  0.00  0.00     0.044 A 
ATOM     18  F   UNL d   1      -5.468   1.633   1.194  0.00  0.00    -0.206 F 
ATOM     19  C   UNL d   1      -1.968   2.507   0.776  0.00  0.00     0.033 A 
ENDBRANCH   1  13
BRANCH   1  20
ATOM     20  C   UNL d   1       0.926   2.281   1.034  0.00  0.00     0.170 C 
BRANCH  20  21
ATOM     21  C   UNL d   1       0.929   2.648   2.511  0.00  0.00    -0.037 A 
ATOM     22  C   UNL d   1       0.362   1.830   3.504  0.00  0.00     0.048 A 
ATOM     23  C   UNL d   1       0.389   2.262   4.813  0.00  0.00     0.105 A 
ATOM     24  O   UNL d   1      -0.148   1.603   5.875  0.00  0.00    -0.323 OA
ATOM     25  C   UNL d   1       0.978   3.448   5.173  0.00  0.00     0.105 A 
ATOM     26  C   UNL d   1       0.119   2.542   6.935  0.00  0.00     0.352 A 
ATOM     27  O   UNL d   1       0.886   3.688   6.508  0.00  0.00    -0.323 OA
ATOM     28  C   UNL d   1       1.578   4.266   4.243  0.00  0.00     0.040 A 
ATOM     29  C   UNL d   1       1.549   3.862   2.902  0.00  0.00     0.012 A 
ENDBRANCH  20  21
ENDBRANCH   1  20
TORSDOF 6
