REMARK  6 active torsions:
REMARK  status: ('A' for Active; 'I' for Inactive)
REMARK    1  A    between atoms: N_3  and  C_1 
REMARK    2  A    between atoms: C_2  and  N_3 
REMARK    3  A    between atoms: C_15  and  N_7 
REMARK    4  A    between atoms: C_13  and  C_15 
REMARK    5  A    between atoms: C_16  and  C_13 
REMARK    6  A    between atoms: O_14  and  C_16 
ROOT
ATOM      1  N   UNL d   1       0.499  -1.141  -0.863  0.00  0.00    -0.332 N 
ATOM      2  H   UNL d   1      -0.372  -0.871  -1.311  0.00  0.00     0.168 HD
ENDROOT
BRANCH   1   3
ATOM      3  C   UNL d   1       0.712  -2.542  -0.795  0.00  0.00     0.057 A 
ATOM      4  C   UNL d   1       1.437  -3.131   0.248  0.00  0.00     0.055 A 
ATOM      5  C   UNL d   1       1.542  -4.521   0.331  0.00  0.00     0.036 A 
ATOM      6 CL   UNL d   1       2.395  -5.236   1.644  0.00  0.00    -0.084 Cl
ATOM      7  C   UNL d   1       0.943  -5.339  -0.625  0.00  0.00     0.026 A 
ATOM      8  C   UNL d   1       0.229  -4.764  -1.676  0.00  0.00     0.028 A 
ATOM      9  C   UNL d   1       0.105  -3.374  -1.754  0.00  0.00     0.060 A 
ATOM     10 CL   UNL d   1      -0.789  -2.709  -3.077  0.00  0.00    -0.082 Cl
ENDBRANCH   1   3
BRANCH   1  11
ATOM     11  C   UNL d   1       1.106  -0.162  -0.148  0.00  0.00     0.172 C 
ATOM     12  S   UNL d   1       0.212   1.098   0.479  0.00  0.00    -0.041 SA
ATOM     13  N   UNL d   1       2.457  -0.153  -0.010  0.00  0.00    -0.367 N 
ATOM     14  H   UNL d   1       2.801   0.618   0.551  0.00  0.00     0.161 HD
BRANCH  13  15
ATOM     15  C   UNL d   1       3.408  -0.732  -0.958  0.00  0.00     0.124 C 
BRANCH  15  16
ATOM     16  C   UNL d   1       4.252   0.345  -1.639  0.00  0.00     0.046 C 
BRANCH  16  17
ATOM     17  C   UNL d   1       5.208  -0.269  -2.659  0.00  0.00     0.168 C 
BRANCH  17  18
ATOM     18  O   UNL d   1       4.446  -0.910  -3.679  0.00  0.00    -0.396 OA
ATOM     19  C   UNL d   1       5.269  -1.595  -4.613  0.00  0.00     0.201 C 
ENDBRANCH  17  18
ENDBRANCH  16  17
ENDBRANCH  15  16
ENDBRANCH  13  15
ENDBRANCH   1  11
TORSDOF 6
