REMARK  7 active torsions:
REMARK  status: ('A' for Active; 'I' for Inactive)
REMARK    1  A    between atoms: C_8  and  C_1 
REMARK    2  A    between atoms: C_14  and  N_2 
REMARK    3  A    between atoms: C_22  and  C_3 
REMARK    4  A    between atoms: C_7  and  C_10 
REMARK       I    between atoms: N_11  and  C_8 
REMARK    5  A    between atoms: C_9  and  N_12 
REMARK    6  A    between atoms: N_12  and  N_11 
REMARK    7  A    between atoms: C_26  and  C_22 
ROOT
ATOM      1  C   UNL d   1      -0.733   2.559  -0.163  0.00  0.00     0.269 C 
ATOM      2  N   UNL d   1       0.081   3.672   0.012  0.00  0.00    -0.282 N 
ATOM      3  O   UNL d   1      -1.943   2.712  -0.331  0.00  0.00    -0.266 OA
ATOM      4  H   UNL d   1       0.964   3.601   0.494  0.00  0.00     0.184 HD
ENDROOT
BRANCH   1   5
ATOM      5  C   UNL d   1      -0.146   1.217  -0.112  0.00  0.00     0.074 C 
ATOM      6  C   UNL d   1       1.150   0.690   0.006  0.00  0.00     0.051 C 
ATOM      7  N   UNL d   1       0.995  -0.717   0.028  0.00  0.00    -0.260 N 
ATOM      8  N   UNL d   1      -0.292  -1.060  -0.236  0.00  0.00    -0.304 N 
ATOM      9  C   UNL d   1      -0.968   0.076  -0.224  0.00  0.00     0.127 C 
ATOM     10  HN  UNL d   1      -0.660  -1.996  -0.408  1.00  0.00     0.186 HD
BRANCH   6  11
ATOM     11  C   UNL d   1       2.471   1.393   0.102  0.00  0.00     0.060 C 
BRANCH  11  12
ATOM     12  C   UNL d   1       3.460   1.092  -1.026  0.00  0.00     0.002 C 
ATOM     13  C   UNL d   1       4.759   1.858  -0.798  0.00  0.00     0.005 C 
ENDBRANCH  11  12
ENDBRANCH   6  11
BRANCH   7  14
ATOM     14  C   UNL d   1       1.894  -1.799   0.322  0.00  0.00     0.056 A 
ATOM     15  C   UNL d   1       3.111  -1.633   0.986  0.00  0.00     0.031 A 
ATOM     16  C   UNL d   1       3.897  -2.743   1.325  0.00  0.00     0.002 A 
ATOM     17  C   UNL d   1       3.478  -4.032   1.010  0.00  0.00     0.000 A 
ATOM     18  C   UNL d   1       2.276  -4.218   0.338  0.00  0.00     0.002 A 
ATOM     19  C   UNL d   1       1.491  -3.113  -0.003  0.00  0.00     0.031 A 
ENDBRANCH   7  14
ENDBRANCH   1   5
BRANCH   2  20
ATOM     20  N   UNL d   1      -0.588   4.892   0.216  0.00  0.00    -0.201 NA
ATOM     21  H   UNL d   1      -1.602   4.762   0.068  0.00  0.00     0.153 HD
BRANCH  20  22
ATOM     22  C   UNL d   1      -0.151   6.047  -0.492  0.00  0.00     0.050 A 
ATOM     23  C   UNL d   1      -0.934   7.203  -0.251  0.00  0.00     0.043 A 
ATOM     24  C   UNL d   1      -0.654   8.449  -0.838  0.00  0.00     0.049 A 
ATOM     25  C   UNL d   1       0.459   8.557  -1.674  0.00  0.00     0.018 A 
ATOM     26  C   UNL d   1       1.269   7.441  -1.905  0.00  0.00     0.026 A 
ATOM     27  C   UNL d   1       0.979   6.198  -1.316  0.00  0.00     0.056 A 
ATOM     28 CL   UNL d   1       2.077   4.921  -1.714  0.00  0.00    -0.082 Cl
BRANCH  24  29
ATOM     29  C   UNL d   1      -1.544   9.645  -0.596  0.00  0.00     0.417 C 
ATOM     30  F   UNL d   1      -2.559   9.401   0.279  0.00  0.00    -0.166 F 
ATOM     31  F   UNL d   1      -0.864  10.711  -0.091  0.00  0.00    -0.166 F 
ATOM     32  F   UNL d   1      -2.135  10.085  -1.740  0.00  0.00    -0.166 F 
ENDBRANCH  24  29
ENDBRANCH  20  22
ENDBRANCH   2  20
TORSDOF 7
