REMARK  3 active torsions:
REMARK  status: ('A' for Active; 'I' for Inactive)
REMARK    1  A    between atoms: N_5  and  C_1 
REMARK    2  A    between atoms: O_8  and  C_2 
REMARK    3  A    between atoms: C_11  and  O_8 
ROOT
ATOM      1  C   UNL d   1       0.593  -1.709  -0.046  0.00  0.00     0.123 A 
ATOM      2  C   UNL d   1      -0.769  -1.528  -0.026  0.00  0.00     0.154 A 
ATOM      3  C   UNL d   1       0.846  -0.251   0.055  0.00  0.00     0.254 A 
ATOM      4  C   UNL d   1      -0.624  -0.062   0.122  0.00  0.00     0.259 A 
ATOM      5  O   UNL d   1       1.779   0.512   0.101  0.00  0.00    -0.281 OA
ATOM      6  O   UNL d   1      -1.312   0.922   0.222  0.00  0.00    -0.281 OA
ENDROOT
BRANCH   1   7
ATOM      7  N   UNL d   1       1.450  -2.716  -0.120  0.00  0.00    -0.375 N 
ATOM      8  C   UNL d   1       2.065  -3.232   1.122  0.00  0.00     0.123 C 
ATOM      9  C   UNL d   1       3.541  -3.428   0.792  0.00  0.00     0.021 C 
ATOM     10  C   UNL d   1       3.519  -3.722  -0.694  0.00  0.00     0.021 C 
ATOM     11  C   UNL d   1       2.455  -2.757  -1.199  0.00  0.00     0.123 C 
ENDBRANCH   1   7
BRANCH   2  12
ATOM     12  O   UNL d   1      -1.808  -2.287  -0.093  0.00  0.00    -0.345 OA
BRANCH  12  13
ATOM     13  C   UNL d   1      -1.548  -3.563  -0.672  0.00  0.00     0.171 C 
ATOM     14  C   UNL d   1      -2.836  -4.364  -0.676  0.00  0.00     0.034 C 
ENDBRANCH  12  13
ENDBRANCH   2  12
TORSDOF 3
