REMARK  4 active torsions:
REMARK  status: ('A' for Active; 'I' for Inactive)
REMARK    1  A    between atoms: N_12  and  C_1 
REMARK    2  A    between atoms: C_5  and  N_14 
REMARK    3  A    between atoms: C_23  and  C_6 
REMARK    4  A    between atoms: C_22  and  C_8 
ROOT
ATOM      1  N   UNL d   1       0.209   2.618  -0.055  0.00  0.00    -0.363 N 
ATOM      2  N   UNL d   1       1.550   5.110  -0.218  0.00  0.00    -0.363 N 
ATOM      3  C   UNL d   1       0.967   2.903  -1.283  0.00  0.00     0.144 C 
ATOM      4  C   UNL d   1      -0.495   3.825   0.417  0.00  0.00     0.144 C 
ATOM      5  C   UNL d   1       2.082   3.921  -0.933  0.00  0.00     0.144 C 
ATOM      6  C   UNL d   1       0.578   4.851   0.847  0.00  0.00     0.144 C 
ENDROOT
BRANCH   1   7
ATOM      7  C   UNL d   1      -0.484   1.416   0.019  0.00  0.00     0.129 A 
ATOM      8  N   UNL d   1      -0.908   0.853  -1.128  0.00  0.00    -0.325 N 
ATOM      9  C   UNL d   1      -1.521  -0.348  -1.060  0.00  0.00     0.134 A 
ATOM     10  HN  UNL d   1      -0.771   1.321  -2.024  1.00  0.00     0.169 HD
ATOM     11  N   UNL d   1      -1.717  -1.030   0.091  0.00  0.00    -0.343 N 
ATOM     12  C   UNL d   1      -1.267  -0.468   1.233  0.00  0.00     0.032 A 
ATOM     13  HN  UNL d   1      -2.187  -1.936   0.096  1.00  0.00     0.167 HD
ATOM     14  C   UNL d   1      -0.648   0.772   1.252  0.00  0.00     0.100 A 
ATOM     15  C   UNL d   1      -1.443  -1.285   2.479  0.00  0.00     0.070 C 
ATOM     16 CL   UNL d   1      -0.021   1.428   2.730  0.00  0.00    -0.078 Cl
BRANCH   9  17
ATOM     17  C   UNL d   1      -2.007  -0.977  -2.317  0.00  0.00     0.076 A 
ATOM     18  N   UNL d   1      -1.774  -0.316  -3.488  0.00  0.00    -0.363 N 
ATOM     19  C   UNL d   1      -2.218  -0.875  -4.635  0.00  0.00     0.088 A 
ATOM     20  HN  UNL d   1      -1.279   0.576  -3.497  1.00  0.00     0.165 HD
ATOM     21  C   UNL d   1      -2.896  -2.079  -4.695  0.00  0.00     0.017 A 
ATOM     22  C   UNL d   1      -3.130  -2.756  -3.507  0.00  0.00     0.004 A 
ATOM     23  C   UNL d   1      -2.682  -2.203  -2.309  0.00  0.00     0.033 A 
ENDBRANCH   9  17
ENDBRANCH   1   7
BRANCH   2  24
ATOM     24  C   UNL d   1       2.251   6.293  -0.369  0.00  0.00     0.118 A 
ATOM     25  C   UNL d   1       2.546   7.316   0.594  0.00  0.00     0.053 A 
ATOM     26  C   UNL d   1       2.454   7.482   2.052  0.00  0.00    -0.003 A 
ATOM     27  C   UNL d   1       3.106   8.475   0.054  0.00  0.00     0.089 A 
ATOM     28  C   UNL d   1       2.851   8.747   2.460  0.00  0.00     0.065 A 
ATOM     29  S   UNL d   1       3.364   9.727   1.177  0.00  0.00    -0.082 SA
ATOM     30  N   UNL d   1       3.450   8.716  -1.220  0.00  0.00    -0.346 N 
ATOM     31  C   UNL d   1       3.213   7.677  -2.007  0.00  0.00     0.182 A 
ATOM     32  HN  UNL d   1       3.849   9.597  -1.545  1.00  0.00     0.167 HD
ATOM     33  N   UNL d   1       2.655   6.524  -1.655  0.00  0.00    -0.338 N 
ATOM     34  HN  UNL d   1       2.526   5.796  -2.357  1.00  0.00     0.168 HD
BRANCH  26  35
ATOM     35  C   UNL d   1       2.077   6.538   3.106  0.00  0.00    -0.024 A 
ATOM     36  C   UNL d   1       2.692   5.283   3.196  0.00  0.00     0.012 A 
ATOM     37  C   UNL d   1       2.255   4.353   4.146  0.00  0.00     0.001 A 
ATOM     38  C   UNL d   1       1.253   4.693   5.053  0.00  0.00     0.000 A 
ATOM     39  C   UNL d   1       0.699   5.970   5.030  0.00  0.00     0.001 A 
ATOM     40  C   UNL d   1       1.105   6.886   4.058  0.00  0.00     0.012 A 
ENDBRANCH  26  35
ENDBRANCH   2  24
TORSDOF 4
