REMARK  9 active torsions:
REMARK  status: ('A' for Active; 'I' for Inactive)
REMARK    1  A    between atoms: C_13  and  C_1 
REMARK    2  A    between atoms: C_2  and  C_18 
REMARK    3  A    between atoms: C_4  and  C_17 
REMARK       I    between atoms: N_12  and  C_4 
REMARK    4  A    between atoms: S_11  and  C_13 
REMARK    5  A    between atoms: C_17  and  S_11 
REMARK    6  A    between atoms: C_22  and  N_12 
REMARK    7  A    between atoms: S_16  and  C_23 
REMARK    8  A    between atoms: C_18  and  S_16 
REMARK    9  A    between atoms: C_23  and  C_22 
ROOT
ATOM      1  C   UNL d   1      -2.605   5.825   0.275  0.00  0.00     0.226 C 
ATOM      2  O   UNL d   1      -3.666   5.203   0.277  0.00  0.00    -0.273 OA
ATOM      3  N   UNL d   1      -2.543   7.199   0.279  0.00  0.00    -0.360 N 
ATOM      4  H   UNL d   1      -1.640   7.649   0.155  0.00  0.00     0.162 HD
ENDROOT
BRANCH   1   5
ATOM      5  C   UNL d   1      -1.260   5.122   0.265  0.00  0.00     0.176 C 
BRANCH   5   6
ATOM      6  S   UNL d   1      -0.254   5.578   1.715  0.00  0.00    -0.155 SA
BRANCH   6   7
ATOM      7  C   UNL d   1      -1.384   5.017   3.038  0.00  0.00     0.117 C 
BRANCH   7   8
ATOM      8  C   UNL d   1      -0.845   5.372   4.398  0.00  0.00     0.011 A 
ATOM      9  C   UNL d   1      -1.071   6.614   5.012  0.00  0.00     0.044 A 
ATOM     10 CL   UNL d   1      -2.020   7.849   4.260  0.00  0.00    -0.084 Cl
ATOM     11  C   UNL d   1      -0.530   6.898   6.273  0.00  0.00     0.024 A 
ATOM     12  C   UNL d   1       0.250   5.951   6.936  0.00  0.00     0.005 A 
ATOM     13  C   UNL d   1       0.489   4.718   6.338  0.00  0.00     0.043 A 
ATOM     14  C   UNL d   1      -0.055   4.442   5.085  0.00  0.00     0.125 A 
ATOM     15  F   UNL d   1       0.192   3.243   4.536  0.00  0.00    -0.205 F 
ENDBRANCH   7   8
ENDBRANCH   6   7
ENDBRANCH   5   6
ENDBRANCH   1   5
BRANCH   3  16
ATOM     16  C   UNL d   1      -3.742   8.014   0.233  0.00  0.00     0.132 C 
BRANCH  16  17
ATOM     17  C   UNL d   1      -3.451   9.516   0.192  0.00  0.00     0.094 C 
BRANCH  17  18
ATOM     18  S   UNL d   1      -2.487   9.910  -1.304  0.00  0.00    -0.161 SA
BRANCH  18  19
ATOM     19  C   UNL d   1      -2.393  11.724  -1.143  0.00  0.00     0.139 C 
BRANCH  19  20
ATOM     20  C   UNL d   1      -1.660  12.277  -2.311  0.00  0.00     0.061 A 
ATOM     21  O   UNL d   1      -0.493  12.936  -2.051  0.00  0.00    -0.326 OA
ATOM     22  C   UNL d   1       0.033  13.298  -3.250  0.00  0.00     0.142 A 
ATOM     23  C   UNL d   1      -0.786  12.896  -4.278  0.00  0.00     0.027 A 
ATOM     24  C   UNL d   1      -1.889  12.251  -3.673  0.00  0.00     0.035 A 
ENDBRANCH  19  20
ENDBRANCH  18  19
ENDBRANCH  17  18
ENDBRANCH  16  17
ENDBRANCH   3  16
TORSDOF 9
