REMARK  6 active torsions:
REMARK  status: ('A' for Active; 'I' for Inactive)
REMARK    1  A    between atoms: C_7  and  C_1 
REMARK    2  A    between atoms: C_8  and  C_2 
REMARK    3  A    between atoms: O_14  and  C_7 
REMARK    4  A    between atoms: O_13  and  C_8 
REMARK    5  A    between atoms: C_16  and  O_13 
REMARK    6  A    between atoms: C_15  and  O_14 
ROOT
ATOM      1  C   UNL d   1       0.660   1.246  -0.384  0.00  0.00     0.162 C 
ATOM      2  C   UNL d   1      -0.782  -1.269   0.436  0.00  0.00     0.162 C 
ATOM      3  C   UNL d   1      -1.481  -0.061  -0.144  0.00  0.00     0.142 C 
ATOM      4  C   UNL d   1       1.324  -0.022   0.103  0.00  0.00     0.142 C 
ATOM      5  C   UNL d   1      -0.810   1.291   0.015  0.00  0.00     0.101 C 
ATOM      6  C   UNL d   1       0.613  -1.330  -0.172  0.00  0.00     0.101 C 
ATOM      7  O   UNL d   1      -2.553  -0.167  -0.738  0.00  0.00    -0.297 OA
ATOM      8  O   UNL d   1       2.400   0.004   0.700  0.00  0.00    -0.297 OA
ENDROOT
BRANCH   1   9
ATOM      9  C   UNL d   1       0.838   1.429  -1.869  0.00  0.00     0.270 C 
ATOM     10  O   UNL d   1       1.315   0.590  -2.617  0.00  0.00    -0.264 OA
BRANCH   9  11
ATOM     11  O   UNL d   1       0.429   2.673  -2.239  0.00  0.00    -0.321 OA
BRANCH  11  12
ATOM     12  C   UNL d   1       0.732   3.060  -3.587  0.00  0.00     0.174 C 
ATOM     13  C   UNL d   1       2.051   3.807  -3.581  0.00  0.00     0.034 C 
ENDBRANCH  11  12
ENDBRANCH   9  11
ENDBRANCH   1   9
BRANCH   2  14
ATOM     14  C   UNL d   1      -0.706  -1.230   1.942  0.00  0.00     0.270 C 
ATOM     15  O   UNL d   1      -1.118  -0.309   2.632  0.00  0.00    -0.264 OA
BRANCH  14  16
ATOM     16  O   UNL d   1      -0.049  -2.326   2.409  0.00  0.00    -0.321 OA
BRANCH  16  17
ATOM     17  C   UNL d   1       0.385  -2.254   3.776  0.00  0.00     0.174 C 
ATOM     18  C   UNL d   1       1.719  -1.532   3.836  0.00  0.00     0.034 C 
ENDBRANCH  16  17
ENDBRANCH  14  16
ENDBRANCH   2  14
TORSDOF 6
