REMARK  4 active torsions:
REMARK  status: ('A' for Active; 'I' for Inactive)
REMARK    1  A    between atoms: C_3  and  C_1 
REMARK    2  A    between atoms: N_12  and  C_2 
REMARK    3  A    between atoms: O_14  and  C_9 
REMARK    4  A    between atoms: O_15  and  C_10 
ROOT
ATOM      1  C   UNL d   1      -0.051  -1.207  -0.125  0.00  0.00     0.036 A 
ATOM      2  C   UNL d   1      -1.243  -0.738  -0.649  0.00  0.00     0.126 A 
ATOM      3  N   UNL d   1      -0.056   1.087   0.022  0.00  0.00    -0.309 N 
ATOM      4  HN  UNL d   1       0.207   2.053   0.221  1.00  0.00     0.186 HD
ATOM      5  N   UNL d   1      -1.175   0.629  -0.565  0.00  0.00    -0.285 N 
ATOM      6  C   UNL d   1       0.628  -0.029   0.280  0.00  0.00     0.123 A 
ATOM      7  H   UNL d   1      -1.866   1.301  -0.874  0.00  0.00     0.188 HD
ENDROOT
BRANCH   1   8
ATOM      8  C   UNL d   1       0.357  -2.600  -0.006  0.00  0.00    -0.018 A 
ATOM      9  C   UNL d   1       1.112  -3.020   1.103  0.00  0.00     0.052 A 
ATOM     10  C   UNL d   1       1.528  -4.357   1.252  0.00  0.00     0.102 A 
ATOM     11  C   UNL d   1       1.174  -5.292   0.264  0.00  0.00     0.101 A 
ATOM     12  C   UNL d   1       0.431  -4.866  -0.846  0.00  0.00     0.040 A 
ATOM     13  C   UNL d   1       0.036  -3.536  -0.989  0.00  0.00     0.015 A 
BRANCH  10  14
ATOM     14  O   UNL d   1       2.257  -4.793   2.326  0.00  0.00    -0.353 OA
ATOM     15  C   UNL d   1       2.683  -3.841   3.292  0.00  0.00     0.210 C 
ENDBRANCH  10  14
BRANCH  11  16
ATOM     16  O   UNL d   1       1.456  -6.631   0.202  0.00  0.00    -0.353 OA
ATOM     17  C   UNL d   1       2.235  -7.222   1.229  0.00  0.00     0.210 C 
ENDBRANCH  11  16
ENDBRANCH   1   8
BRANCH   2  18
ATOM     18  N   UNL d   1      -2.335  -1.348  -1.159  0.00  0.00    -0.384 N 
ATOM     19  H   UNL d   1      -2.478  -2.341  -0.982  0.00  0.00     0.157 HD
ATOM     20  H   UNL d   1      -3.211  -0.855  -1.314  0.00  0.00     0.157 HD
ENDBRANCH   2  18
TORSDOF 4
