REMARK  7 active torsions:
REMARK  status: ('A' for Active; 'I' for Inactive)
REMARK    1  A    between atoms: C_9  and  N_1 
REMARK    2  A    between atoms: C_12  and  C_7 
REMARK    3  A    between atoms: C_8  and  C_11 
REMARK    4  A    between atoms: O_21  and  C_8 
REMARK    5  A    between atoms: N_10  and  C_13 
REMARK    6  A    between atoms: C_16  and  C_15 
REMARK    7  A    between atoms: C_24  and  O_21 
ROOT
ATOM      1  N   UNL d   1      -0.156  -1.048   0.064  0.00  0.00    -0.179 N 
ATOM      2  N   UNL d   1       1.045  -0.584   0.486  0.00  0.00     0.003 NA
ATOM      3  N   UNL d   1      -1.037  -0.063  -0.279  0.00  0.00    -0.264 N 
ATOM      4  HN  UNL d   1      -1.991  -0.136  -0.631  1.00  0.00     0.190 HD
ATOM      5  N   UNL d   1       0.961   0.734   0.425  0.00  0.00    -0.267 N 
ATOM      6  HN  UNL d   1       1.694   1.402   0.666  1.00  0.00     0.186 HD
ATOM      7  C   UNL d   1      -0.298   1.030  -0.022  0.00  0.00     0.134 A 
ENDROOT
BRANCH   1   8
ATOM      8  C   UNL d   1      -0.445  -2.440   0.001  0.00  0.00     0.073 A 
ATOM      9  C   UNL d   1       0.505  -3.371   0.459  0.00  0.00     0.034 A 
ATOM     10  C   UNL d   1       0.234  -4.743   0.406  0.00  0.00     0.020 A 
ATOM     11  C   UNL d   1      -0.980  -5.211  -0.112  0.00  0.00     0.039 A 
ATOM     12  C   UNL d   1      -1.929  -4.284  -0.566  0.00  0.00     0.020 A 
ATOM     13  C   UNL d   1      -1.665  -2.902  -0.511  0.00  0.00     0.034 A 
BRANCH  11  14
ATOM     14  C   UNL d   1      -1.204  -6.687  -0.140  0.00  0.00     0.293 C 
ATOM     15  O   UNL d   1      -0.410  -7.492   0.328  0.00  0.00    -0.259 OA
BRANCH  14  16
ATOM     16  O   UNL d   1      -2.378  -6.991  -0.747  0.00  0.00    -0.318 OA
BRANCH  16  17
ATOM     17  C   UNL d   1      -2.710  -8.390  -0.798  0.00  0.00     0.174 C 
ATOM     18  C   UNL d   1      -2.086  -9.047  -2.015  0.00  0.00     0.034 C 
ENDBRANCH  16  17
ENDBRANCH  14  16
ENDBRANCH  11  14
ENDBRANCH   1   8
BRANCH   7  19
ATOM     19  C   UNL d   1      -0.645   2.413  -0.137  0.00  0.00     0.051 C 
ATOM     20  C   UNL d   1      -1.843   2.924  -0.469  0.00  0.00     0.005 C 
BRANCH  20  21
ATOM     21  C   UNL d   1      -2.108   4.354  -0.540  0.00  0.00     0.017 C 
ATOM     22  C   UNL d   1      -3.307   4.856  -0.870  0.00  0.00     0.085 C 
BRANCH  22  23
ATOM     23  N   UNL d   1      -3.735   6.168  -0.964  0.00  0.00    -0.390 N 
ATOM     24  C   UNL d   1      -2.954   7.370  -0.683  0.00  0.00     0.122 C 
ATOM     25  C   UNL d   1      -4.012   8.405  -0.311  0.00  0.00     0.021 C 
ATOM     26  C   UNL d   1      -5.179   8.051  -1.216  0.00  0.00     0.021 C 
ATOM     27  C   UNL d   1      -5.101   6.533  -1.358  0.00  0.00     0.122 C 
ENDBRANCH  22  23
ENDBRANCH  20  21
ENDBRANCH   7  19
TORSDOF 7
