REMARK  6 active torsions:
REMARK  status: ('A' for Active; 'I' for Inactive)
REMARK    1  A    between atoms: C_15  and  C_6 
REMARK    2  A    between atoms: N_7  and  C_9 
REMARK    3  A    between atoms: N_8  and  C_14 
REMARK    4  A    between atoms: O_27  and  C_15 
REMARK    5  A    between atoms: C_28  and  O_27 
REMARK    6  A    between atoms: C_29  and  C_28 
ROOT
ATOM      1  C   UNL d   1      -1.717   0.538  -0.048  0.00  0.00     0.003 A 
ATOM      2  C   UNL d   1       0.597   0.048   0.072  0.00  0.00     0.018 A 
ATOM      3  C   UNL d   1      -0.433   1.149   0.090  0.00  0.00    -0.008 A 
ATOM      4  C   UNL d   1      -0.158  -1.254   0.057  0.00  0.00    -0.009 A 
ATOM      5  C   UNL d   1      -1.537  -0.923  -0.044  0.00  0.00    -0.013 A 
ATOM      6  C   UNL d   1      -2.868   1.346  -0.124  0.00  0.00     0.053 A 
ATOM      7  C   UNL d   1      -1.463   3.316   0.215  0.00  0.00     0.104 A 
ATOM      8  C   UNL d   1       1.944   0.195  -0.004  0.00  0.00     0.136 C 
ATOM      9  C   UNL d   1      -0.306   2.527   0.236  0.00  0.00     0.049 A 
ATOM     10  C   UNL d   1      -2.729   2.740   0.024  0.00  0.00     0.054 A 
ATOM     11  C   UNL d   1       0.250  -2.584   0.157  0.00  0.00     0.049 A 
ATOM     12  C   UNL d   1      -0.723  -3.595   0.126  0.00  0.00     0.103 A 
ATOM     13  C   UNL d   1       2.592   1.464  -0.085  0.00  0.00     0.111 C 
ATOM     14  C   UNL d   1       2.853  -0.901  -0.048  0.00  0.00     0.111 C 
ATOM     15  N   UNL d   1       3.126   2.490  -0.158  0.00  0.00    -0.191 NA
ATOM     16  N   UNL d   1       3.608  -1.784  -0.079  0.00  0.00    -0.191 NA
ATOM     17  C   UNL d   1      -2.487  -1.943  -0.049  0.00  0.00     0.015 A 
ATOM     18  C   UNL d   1      -2.082  -3.280   0.011  0.00  0.00     0.037 A 
ENDROOT
BRANCH   6  19
ATOM     19  C   UNL d   1      -4.206   0.834  -0.540  0.00  0.00     0.294 C 
ATOM     20  O   UNL d   1      -4.343  -0.055  -1.363  0.00  0.00    -0.259 OA
BRANCH  19  21
ATOM     21  O   UNL d   1      -5.209   1.567   0.009  0.00  0.00    -0.317 OA
BRANCH  21  22
ATOM     22  C   UNL d   1      -6.493   1.441  -0.636  0.00  0.00     0.178 C 
BRANCH  22  23
ATOM     23  C   UNL d   1      -7.524   0.800   0.286  0.00  0.00     0.022 C 
ATOM     24  C   UNL d   1      -8.856   0.626  -0.431  0.00  0.00     0.007 C 
ENDBRANCH  22  23
ENDBRANCH  21  22
ENDBRANCH  19  21
ENDBRANCH   6  19
BRANCH   7  25
ATOM     25  N   UNL d   1      -1.345   4.776   0.370  0.00  0.00    -0.116 N 
ATOM     26  O   UNL d   1      -0.214   5.245   0.545  0.00  0.00    -0.532 OA
ATOM     27  O   UNL d   1      -2.387   5.442   0.319  0.00  0.00    -0.532 OA
ENDBRANCH   7  25
BRANCH  12  28
ATOM     28  N   UNL d   1      -0.319  -5.005   0.245  0.00  0.00    -0.116 N 
ATOM     29  O   UNL d   1       0.886  -5.247   0.390  0.00  0.00    -0.532 OA
ATOM     30  O   UNL d   1      -1.210  -5.864   0.205  0.00  0.00    -0.532 OA
ENDBRANCH  12  28
TORSDOF 6
