REMARK  4 active torsions:
REMARK  status: ('A' for Active; 'I' for Inactive)
REMARK    1  A    between atoms: C_4  and  N_1 
REMARK       I    between atoms: C_6  and  N_1 
REMARK    2  A    between atoms: C_9  and  C_6 
REMARK    3  A    between atoms: S_7  and  C_9 
REMARK    4  A    between atoms: C_10  and  S_7 
ROOT
ATOM      1  N   UNL d   1       0.212   2.328   2.024  0.00  0.00    -0.191 NA
ATOM      2  C   UNL d   1       0.605   2.539   0.952  0.00  0.00     0.102 C 
ATOM      3  C   UNL d   1       2.299   2.341  -0.869  0.00  0.00     0.055 A 
ATOM      4  C   UNL d   1       1.110   2.888  -0.349  0.00  0.00     0.071 A 
ATOM      5  C   UNL d   1       0.457   3.915  -1.051  0.00  0.00     0.025 A 
ATOM      6  C   UNL d   1       2.842   2.873  -2.046  0.00  0.00     0.031 A 
ATOM      7  C   UNL d   1       0.981   4.402  -2.249  0.00  0.00     0.002 A 
ATOM      8  C   UNL d   1       2.176   3.886  -2.742  0.00  0.00     0.002 A 
ENDROOT
BRANCH   3   9
ATOM      9  N   UNL d   1       3.012   1.284  -0.256  0.00  0.00    -0.325 N 
ATOM     10  C   UNL d   1       2.408   0.094   0.119  0.00  0.00     0.231 C 
ATOM     11  O   UNL d   1       1.218  -0.155  -0.076  0.00  0.00    -0.272 OA
ATOM     12  H   UNL d   1       3.997   1.185  -0.486  0.00  0.00     0.169 HD
BRANCH  10  13
ATOM     13  C   UNL d   1       3.301  -0.923   0.821  0.00  0.00     0.182 C 
BRANCH  13  14
ATOM     14  S   UNL d   1       5.081  -0.693   0.482  0.00  0.00    -0.121 SA
BRANCH  14  15
ATOM     15  C   UNL d   1       5.759  -1.978   1.522  0.00  0.00     0.001 A 
ATOM     16  C   UNL d   1       5.455  -3.326   1.309  0.00  0.00     0.019 A 
ATOM     17  C   UNL d   1       6.032  -4.318   2.109  0.00  0.00     0.008 A 
ATOM     18  C   UNL d   1       6.928  -3.978   3.128  0.00  0.00    -0.062 A 
ATOM     19  C   UNL d   1       7.234  -2.631   3.339  0.00  0.00     0.008 A 
ATOM     20  C   UNL d   1       7.559  -5.056   3.962  0.00  0.00     0.048 C 
ATOM     21  C   UNL d   1       6.656  -1.638   2.539  0.00  0.00     0.019 A 
ENDBRANCH  14  15
ENDBRANCH  13  14
ENDBRANCH  10  13
ENDBRANCH   3   9
TORSDOF 4
