REMARK  3 active torsions:
REMARK  status: ('A' for Active; 'I' for Inactive)
REMARK    1  A    between atoms: N_9  and  C_1 
REMARK       I    between atoms: C_2  and  N_8 
REMARK       I    between atoms: N_11  and  C_2 
REMARK    2  A    between atoms: C_6  and  C_3 
REMARK    3  A    between atoms: C_13  and  N_11 
ROOT
ATOM      1  C   UNL d   1      -0.815  -6.969   0.881  0.00  0.00     0.323 C 
ATOM      2  N   UNL d   1      -0.879  -5.647   0.477  0.00  0.00    -0.331 N 
ATOM      3  N   UNL d   1      -1.009  -2.814   0.097  0.00  0.00    -0.377 N 
ATOM      4  N   UNL d   1      -1.644  -7.849   0.227  0.00  0.00    -0.309 N 
ATOM      5  O   UNL d   1      -0.045  -7.304   1.777  0.00  0.00    -0.247 OA
ATOM      6  C   UNL d   1      -1.607  -5.084  -0.676  0.00  0.00     0.147 C 
ATOM      7  C   UNL d   1       0.116  -4.738   1.076  0.00  0.00     0.147 C 
ATOM      8  C   UNL d   1      -2.110  -3.638  -0.434  0.00  0.00     0.143 C 
ATOM      9  C   UNL d   1      -0.482  -3.361   1.369  0.00  0.00     0.143 C 
ATOM     10  H   UNL d   1      -1.990  -7.562  -0.674  0.00  0.00     0.170 HD
ENDROOT
BRANCH   3  11
ATOM     11  C   UNL d   1      -1.060  -1.415   0.046  0.00  0.00     0.045 A 
ATOM     12  C   UNL d   1      -2.274  -0.726   0.034  0.00  0.00     0.064 A 
ATOM     13  C   UNL d   1      -2.280   0.668   0.023  0.00  0.00     0.119 A 
ATOM     14  N   UNL d   1      -1.132   1.396   0.042  0.00  0.00    -0.352 N 
ATOM     15  C   UNL d   1       0.044   0.753   0.033  0.00  0.00     0.045 A 
ATOM     16  HN  UNL d   1      -1.165   2.415   0.063  1.00  0.00     0.166 HD
ATOM     17  C   UNL d   1       0.144  -0.653   0.006  0.00  0.00     0.017 A 
ATOM     18  C   UNL d   1       1.209   1.510   0.040  0.00  0.00     0.030 A 
ATOM     19  C   UNL d   1       1.437  -1.230  -0.083  0.00  0.00     0.016 A 
ATOM     20  C   UNL d   1       2.592  -0.453  -0.071  0.00  0.00     0.001 A 
ATOM     21  C   UNL d   1       2.477   0.925   0.001  0.00  0.00     0.002 A 
BRANCH  13  22
ATOM     22  C   UNL d   1      -3.619   1.390  -0.020  0.00  0.00     0.432 C 
ATOM     23  F   UNL d   1      -3.531   2.750  -0.007  0.00  0.00    -0.165 F 
ATOM     24  F   UNL d   1      -4.340   1.076  -1.138  0.00  0.00    -0.165 F 
ATOM     25  F   UNL d   1      -4.424   1.059   1.032  0.00  0.00    -0.165 F 
ENDBRANCH  13  22
ENDBRANCH   3  11
BRANCH   4  26
ATOM     26  C   UNL d   1      -1.752  -9.229   0.521  0.00  0.00     0.039 A 
ATOM     27  C   UNL d   1      -1.321  -9.794   1.728  0.00  0.00     0.053 A 
ATOM     28  C   UNL d   1      -1.345 -11.178   1.909  0.00  0.00     0.037 A 
ATOM     29 CL   UNL d   1      -0.752 -11.854   3.378  0.00  0.00    -0.084 Cl
ATOM     30  C   UNL d   1      -1.825 -12.013   0.911  0.00  0.00     0.048 A 
ATOM     31  C   UNL d   1      -2.313 -11.449  -0.265  0.00  0.00     0.037 A 
ATOM     32  C   UNL d   1      -2.292 -10.066  -0.460  0.00  0.00     0.053 A 
ATOM     33 CL   UNL d   1      -2.922 -12.472  -1.507  0.00  0.00    -0.084 Cl
ENDBRANCH   4  26
TORSDOF 3
