REMARK  14 active torsions:
REMARK  status: ('A' for Active; 'I' for Inactive)
REMARK    1  A    between atoms: N_3  and  C_1 
REMARK    2  A    between atoms: S_7  and  C_1 
REMARK    3  A    between atoms: C_2  and  N_3 
REMARK    4  A    between atoms: C_13  and  S_7 
REMARK    5  A    between atoms: C_14  and  C_13 
REMARK    6  A    between atoms: C_22  and  C_14 
REMARK    7  A    between atoms: C_15  and  C_16 
REMARK    8  A    between atoms: C_16  and  C_21 
REMARK    9  A    between atoms: C_17  and  C_23 
REMARK   10  A    between atoms: C_18  and  C_17 
REMARK   11  A    between atoms: C_19  and  C_18 
REMARK   12  A    between atoms: C_20  and  C_19 
REMARK   13  A    between atoms: C_21  and  C_20 
REMARK   14  A    between atoms: C_23  and  C_22 
ROOT
ATOM      1  S   UNL d   1       2.965  -0.335   0.435  0.00  0.00    -0.101 SA
ENDROOT
BRANCH   1   2
ATOM      2  C   UNL d   1       1.236  -0.081   0.637  0.00  0.00     0.139 C 
ATOM      3  S   UNL d   1       0.583   0.716   1.959  0.00  0.00    -0.053 SA
BRANCH   2   4
ATOM      4  N   UNL d   1       0.374  -0.760  -0.196  0.00  0.00    -0.341 N 
ATOM      5  H   UNL d   1      -0.535  -0.916   0.224  0.00  0.00     0.167 HD
BRANCH   4   6
ATOM      6  C   UNL d   1       0.563  -1.264  -1.504  0.00  0.00     0.041 A 
ATOM      7  C   UNL d   1       1.437  -0.617  -2.389  0.00  0.00     0.053 A 
ATOM      8  C   UNL d   1       1.653  -1.114  -3.672  0.00  0.00     0.036 A 
ATOM      9 CL   UNL d   1       2.730  -0.292  -4.732  0.00  0.00    -0.084 Cl
ATOM     10  C   UNL d   1       0.995  -2.257  -4.100  0.00  0.00     0.024 A 
ATOM     11  C   UNL d   1       0.077  -2.875  -3.252  0.00  0.00     0.011 A 
ATOM     12  C   UNL d   1      -0.182  -2.368  -1.962  0.00  0.00    -0.035 A 
ATOM     13  C   UNL d   1      -1.182  -3.121  -1.126  0.00  0.00     0.050 C 
ENDBRANCH   4   6
ENDBRANCH   2   4
ENDBRANCH   1   2
BRANCH   1  14
ATOM     14  C   UNL d   1       3.554   1.371   0.221  0.00  0.00     0.082 C 
BRANCH  14  15
ATOM     15  C   UNL d   1       5.080   1.400   0.096  0.00  0.00     0.010 C 
BRANCH  15  16
ATOM     16  C   UNL d   1       5.574   2.839  -0.093  0.00  0.00     0.001 C 
BRANCH  16  17
ATOM     17  C   UNL d   1       7.096   2.916  -0.221  0.00  0.00     0.000 C 
BRANCH  17  18
ATOM     18  C   UNL d   1       7.564   4.363  -0.416  0.00  0.00     0.000 C 
BRANCH  18  19
ATOM     19  C   UNL d   1       9.084   4.439  -0.556  0.00  0.00     0.000 C 
BRANCH  19  20
ATOM     20  C   UNL d   1       9.570   5.877  -0.757  0.00  0.00     0.000 C 
BRANCH  20  21
ATOM     21  C   UNL d   1      11.093   5.917  -0.898  0.00  0.00     0.000 C 
BRANCH  21  22
ATOM     22  C   UNL d   1      11.614   7.341  -1.098  0.00  0.00     0.000 C 
BRANCH  22  23
ATOM     23  C   UNL d   1      13.138   7.344  -1.233  0.00  0.00    -0.000 C 
BRANCH  23  24
ATOM     24  C   UNL d   1      13.688   8.755  -1.433  0.00  0.00    -0.005 C 
ATOM     25  C   UNL d   1      15.203   8.744  -1.565  0.00  0.00     0.005 C 
ENDBRANCH  23  24
ENDBRANCH  22  23
ENDBRANCH  21  22
ENDBRANCH  20  21
ENDBRANCH  19  20
ENDBRANCH  18  19
ENDBRANCH  17  18
ENDBRANCH  16  17
ENDBRANCH  15  16
ENDBRANCH  14  15
ENDBRANCH   1  14
TORSDOF 14
