REMARK  3 active torsions:
REMARK  status: ('A' for Active; 'I' for Inactive)
REMARK    1  A    between atoms: C_7  and  C_1 
REMARK    2  A    between atoms: O_10  and  C_9 
REMARK    3  A    between atoms: C_15  and  O_10 
ROOT
ATOM      1  C   UNL d   1       3.591   1.433   0.028  0.00  0.00     0.067 A 
ATOM      2  C   UNL d   1       4.400   1.221  -1.084  0.00  0.00     0.162 A 
ATOM      3  N   UNL d   1       5.604   1.845  -1.234  0.00  0.00    -0.346 N 
ATOM      4  HN  UNL d   1       6.144   1.737  -2.093  1.00  0.00     0.167 HD
ATOM      5  C   UNL d   1       4.107   2.238   1.062  0.00  0.00     0.021 A 
ATOM      6  C   UNL d   1       6.066   2.607  -0.223  0.00  0.00     0.090 A 
ATOM      7  C   UNL d   1       5.364   2.820   0.943  0.00  0.00     0.018 A 
ENDROOT
BRANCH   1   8
ATOM      8  C   UNL d   1       2.271   0.803   0.245  0.00  0.00     0.166 C 
ATOM      9  N   UNL d   1       1.942  -0.388  -0.105  0.00  0.00    -0.335 N 
ATOM     10  C   UNL d   1       0.725  -0.877   0.390  0.00  0.00     0.051 A 
ATOM     11  HN  UNL d   1       2.536  -0.951  -0.714  1.00  0.00     0.168 HD
ATOM     12  C   UNL d   1       0.403  -2.210   0.126  0.00  0.00     0.030 A 
ATOM     13  C   UNL d   1      -0.102  -0.122   1.225  0.00  0.00     0.072 A 
ATOM     14  C   UNL d   1      -0.711  -2.800   0.719  0.00  0.00     0.003 A 
ATOM     15  C   UNL d   1      -1.498  -2.064   1.600  0.00  0.00     0.008 A 
ATOM     16  C   UNL d   1      -1.204  -0.717   1.880  0.00  0.00    -0.043 A 
ATOM     17  C   UNL d   1      -2.104  -0.025   2.869  0.00  0.00     0.049 C 
ATOM     18  C   UNL d   1       0.265   1.301   1.354  0.00  0.00     0.302 C 
ATOM     19  O   UNL d   1       1.491   1.675   0.925  0.00  0.00    -0.256 OA
ATOM     20  O   UNL d   1      -0.490   2.135   1.843  0.00  0.00    -0.259 OA
ENDBRANCH   1   8
BRANCH   2  21
ATOM     21  O   UNL d   1       3.990   0.367  -2.103  0.00  0.00    -0.293 OA
BRANCH  21  22
ATOM     22  C   UNL d   1       4.979  -0.192  -2.896  0.00  0.00     0.077 A 
ATOM     23  C   UNL d   1       6.171  -0.711  -2.375  0.00  0.00     0.037 A 
ATOM     24  C   UNL d   1       7.151  -1.225  -3.226  0.00  0.00     0.003 A 
ATOM     25  C   UNL d   1       6.924  -1.272  -4.599  0.00  0.00     0.000 A 
ATOM     26  C   UNL d   1       5.715  -0.811  -5.120  0.00  0.00     0.003 A 
ATOM     27  C   UNL d   1       4.740  -0.274  -4.269  0.00  0.00     0.037 A 
ENDBRANCH  21  22
ENDBRANCH   2  21
TORSDOF 3
