REMARK  2 active torsions:
REMARK  status: ('A' for Active; 'I' for Inactive)
REMARK       I    between atoms: N_2  and  C_1 
REMARK    1  A    between atoms: C_4  and  C_1 
REMARK    2  A    between atoms: C_5  and  N_2 
ROOT
ATOM      1  C   UNL d   1       2.173  -2.195  -1.541  0.00  0.00     0.240 C 
ATOM      2  C   UNL d   1       0.963  -2.491  -0.643  0.00  0.00     0.177 C 
ATOM      3  N   UNL d   1       3.043  -3.220  -1.787  0.00  0.00    -0.359 N 
ATOM      4  O   UNL d   1       2.368  -1.095  -2.062  0.00  0.00    -0.271 OA
ATOM      5  C   UNL d   1       2.929  -4.576  -1.298  0.00  0.00     0.122 C 
ATOM      6  C   UNL d   1      -0.003  -3.454  -1.343  0.00  0.00     0.035 C 
ATOM      7  C   UNL d   1       1.725  -5.296  -1.892  0.00  0.00     0.020 C 
ATOM      8  C   UNL d   1       0.398  -4.925  -1.228  0.00  0.00     0.004 C 
ATOM      9  H   UNL d   1       3.816  -2.976  -2.397  0.00  0.00     0.162 HD
ENDROOT
BRANCH   2  10
ATOM     10  N   UNL d   1       0.294  -1.234  -0.332  0.00  0.00    -0.342 N 
ATOM     11  C   UNL d   1      -0.358  -1.027   0.861  0.00  0.00     0.276 C 
ATOM     12  O   UNL d   1      -0.412  -1.897   1.728  0.00  0.00    -0.265 OA
ATOM     13  H   UNL d   1       0.363  -0.466  -0.993  0.00  0.00     0.163 HD
BRANCH  11  14
ATOM     14  C   UNL d   1      -0.977   0.271   1.004  0.00  0.00     0.142 A 
ATOM     15  O   UNL d   1      -0.886   1.192  -0.009  0.00  0.00    -0.317 OA
ATOM     16  C   UNL d   1      -1.565   2.297   0.394  0.00  0.00     0.143 A 
ATOM     17  C   UNL d   1      -2.095   2.111   1.649  0.00  0.00     0.027 A 
ATOM     18  C   UNL d   1      -1.713   0.807   2.046  0.00  0.00     0.045 A 
ENDBRANCH  11  14
ENDBRANCH   2  10
TORSDOF 2
