REMARK  4 active torsions:
REMARK  status: ('A' for Active; 'I' for Inactive)
REMARK       I    between atoms: C_2  and  N_10 
REMARK    1  A    between atoms: C_7  and  C_2 
REMARK    2  A    between atoms: C_11  and  C_9 
REMARK    3  A    between atoms: N_10  and  C_14 
REMARK    4  A    between atoms: O_19  and  C_11 
ROOT
ATOM      1  C   UNL d   1       3.595   3.531  -0.581  0.00  0.00     0.257 C 
ATOM      2  N   UNL d   1       3.696   2.156  -0.498  0.00  0.00    -0.323 N 
ATOM      3  O   UNL d   1       2.533   4.143  -0.705  0.00  0.00    -0.267 OA
ATOM      4  H   UNL d   1       4.624   1.744  -0.393  0.00  0.00     0.169 HD
ENDROOT
BRANCH   2   5
ATOM      5  C   UNL d   1       2.620   1.234  -0.456  0.00  0.00     0.037 A 
ATOM      6  C   UNL d   1       1.282   1.588  -0.604  0.00  0.00     0.067 A 
ATOM      7  C   UNL d   1       0.281   0.623  -0.455  0.00  0.00     0.092 A 
ATOM      8  O   UNL d   1      -1.042   1.108  -0.520  0.00  0.00    -0.275 OA
ATOM      9  C   UNL d   1       0.559  -0.722  -0.206  0.00  0.00     0.004 A 
ATOM     10  C   UNL d   1      -2.111   0.290  -0.216  0.00  0.00     0.288 C 
ATOM     11  O   UNL d   1      -3.259   0.706  -0.124  0.00  0.00    -0.260 OA
ATOM     12  C   UNL d   1      -1.813  -1.140  -0.044  0.00  0.00     0.090 C 
ATOM     13  C   UNL d   1      -0.573  -1.652  -0.060  0.00  0.00    -0.043 C 
ATOM     14  C   UNL d   1      -0.394  -3.136   0.071  0.00  0.00     0.049 C 
ATOM     15  C   UNL d   1       1.907  -1.076  -0.093  0.00  0.00     0.017 A 
ATOM     16  C   UNL d   1       2.924  -0.110  -0.212  0.00  0.00     0.030 A 
ENDBRANCH   2   5
BRANCH   1  17
ATOM     17  C   UNL d   1       4.829   4.383  -0.516  0.00  0.00     0.049 A 
ATOM     18  C   UNL d   1       6.024   4.129   0.179  0.00  0.00     0.053 A 
ATOM     19  C   UNL d   1       7.027   5.125   0.240  0.00  0.00     0.019 A 
ATOM     20  C   UNL d   1       6.840   6.372  -0.358  0.00  0.00     0.001 A 
ATOM     21  C   UNL d   1       5.672   6.628  -1.059  0.00  0.00     0.001 A 
ATOM     22  C   UNL d   1       4.687   5.644  -1.140  0.00  0.00     0.018 A 
BRANCH  18  23
ATOM     23  C   UNL d   1       6.336   2.836   0.826  0.00  0.00     0.177 C 
ATOM     24  O   UNL d   1       6.114   1.762   0.287  0.00  0.00    -0.646 OA
BRANCH  23  25
ATOM     25  O   UNL d   1       6.917   2.945   2.035  0.00  0.00    -0.773 OA
ATOM     26  H   UNL d   1       6.967   3.844   2.411  0.00  0.00     0.167 HD
ENDBRANCH  23  25
ENDBRANCH  18  23
ENDBRANCH   1  17
TORSDOF 4
