REMARK  4 active torsions:
REMARK  status: ('A' for Active; 'I' for Inactive)
REMARK    1  A    between atoms: C_7  and  N_1 
REMARK    2  A    between atoms: C_12  and  N_3 
REMARK    3  A    between atoms: N_10  and  C_4 
REMARK    4  A    between atoms: C_16  and  C_12 
ROOT
ATOM      1  N   UNL d   1      -0.634   1.251  -0.028  0.00  0.00    -0.254 N 
ATOM      2  C   UNL d   1      -1.418   0.078  -0.087  0.00  0.00     0.337 A 
ATOM      3  N   UNL d   1      -0.727  -1.131  -0.038  0.00  0.00    -0.266 N 
ATOM      4  C   UNL d   1       0.761   1.217  -0.076  0.00  0.00     0.094 A 
ATOM      5  C   UNL d   1       1.385   0.030  -0.061  0.00  0.00     0.117 A 
ATOM      6  C   UNL d   1       0.645  -1.228   0.020  0.00  0.00     0.254 A 
ATOM      7  O   UNL d   1      -2.650   0.093  -0.188  0.00  0.00    -0.246 OA
ATOM      8  O   UNL d   1       1.274  -2.279   0.122  0.00  0.00    -0.268 OA
ENDROOT
BRANCH   1   9
ATOM      9  C   UNL d   1      -1.354   2.500  -0.005  0.00  0.00     0.051 A 
ATOM     10  C   UNL d   1      -2.254   2.825   1.034  0.00  0.00    -0.035 A 
ATOM     11  C   UNL d   1      -2.515   1.946   2.226  0.00  0.00     0.050 C 
ATOM     12  C   UNL d   1      -2.939   4.054   0.984  0.00  0.00     0.009 A 
ATOM     13  C   UNL d   1      -2.721   4.958  -0.053  0.00  0.00     0.001 A 
ATOM     14  C   UNL d   1      -1.817   4.649  -1.062  0.00  0.00     0.002 A 
ATOM     15  C   UNL d   1      -1.139   3.428  -1.039  0.00  0.00     0.031 A 
ENDBRANCH   1   9
BRANCH   4  16
ATOM     16  N   UNL d   1       1.538   2.366  -0.096  0.00  0.00    -0.288 NA
ATOM     17  H   UNL d   1       1.079   3.152   0.362  0.00  0.00     0.125 HD
ATOM     18  H   UNL d   1       2.493   2.241   0.227  0.00  0.00     0.125 HD
ENDBRANCH   4  16
BRANCH   3  19
ATOM     19  C   UNL d   1      -1.496  -2.375  -0.074  0.00  0.00     0.137 C 
BRANCH  19  20
ATOM     20  C   UNL d   1      -1.834  -2.942   1.310  0.00  0.00     0.016 C 
ATOM     21  C   UNL d   1      -2.811  -2.091   2.107  0.00  0.00     0.006 C 
ENDBRANCH  19  20
ENDBRANCH   3  19
TORSDOF 4
