REMARK  5 active torsions:
REMARK  status: ('A' for Active; 'I' for Inactive)
REMARK    1  A    between atoms: N_5  and  C_1 
REMARK    2  A    between atoms: C_4  and  C_12 
REMARK    3  A    between atoms: C_15  and  N_6 
REMARK    4  A    between atoms: C_19  and  C_9 
REMARK    5  A    between atoms: C_12  and  C_15 
ROOT
ATOM      1  C   UNL d   1      -3.173  -1.297  -0.111  0.00  0.00     0.072 A 
ATOM      2  N   UNL d   1      -4.134   0.586  -0.958  0.00  0.00    -0.259 N 
ATOM      3  HN  UNL d   1      -4.308   1.427  -1.508  1.00  0.00     0.195 HD
ATOM      4  C   UNL d   1      -3.126  -0.284  -1.122  0.00  0.00     0.081 A 
ATOM      5  O   UNL d   1      -4.886   0.125   0.095  0.00  0.00    -0.241 OA
ATOM      6  C   UNL d   1      -4.327  -1.003   0.593  0.00  0.00     0.088 A 
ATOM      7  C   UNL d   1      -5.033  -1.625   1.732  0.00  0.00     0.080 C 
ENDROOT
BRANCH   1   8
ATOM      8  C   UNL d   1      -2.295  -2.416   0.195  0.00  0.00     0.182 C 
ATOM      9  O   UNL d   1      -2.757  -3.437   0.707  0.00  0.00    -0.290 OA
BRANCH   8  10
ATOM     10  C   UNL d   1      -0.804  -2.308  -0.070  0.00  0.00     0.213 C 
BRANCH  10  11
ATOM     11  N   UNL d   1      -0.047  -2.462   1.163  0.00  0.00    -0.336 N 
ATOM     12  C   UNL d   1       0.320  -3.655   1.722  0.00  0.00     0.147 A 
ATOM     13  C   UNL d   1       0.851  -3.316   2.951  0.00  0.00     0.190 A 
ATOM     14  N   UNL d   1       0.909  -1.946   3.095  0.00  0.00    -0.326 N 
ATOM     15  C   UNL d   1       0.393  -1.448   1.986  0.00  0.00     0.081 A 
ATOM     16  HN  UNL d   1       1.274  -1.426   3.893  1.00  0.00     0.169 HD
ATOM     17  C   UNL d   1       0.291  -0.003   1.656  0.00  0.00     0.089 C 
BRANCH  13  18
ATOM     18  N   UNL d   1       1.290  -4.210   3.996  0.00  0.00    -0.096 N 
ATOM     19  O   UNL d   1       1.245  -5.425   3.746  0.00  0.00    -0.530 OA
ATOM     20  O   UNL d   1       1.672  -3.710   5.065  0.00  0.00    -0.530 OA
ENDBRANCH  13  18
ENDBRANCH  10  11
ENDBRANCH   8  10
ENDBRANCH   1   8
BRANCH   4  21
ATOM     21  C   UNL d   1      -2.203  -0.109  -2.243  0.00  0.00    -0.006 A 
ATOM     22  C   UNL d   1      -1.781   1.179  -2.608  0.00  0.00     0.014 A 
ATOM     23  C   UNL d   1      -0.913   1.361  -3.685  0.00  0.00     0.001 A 
ATOM     24  C   UNL d   1      -0.451   0.262  -4.402  0.00  0.00     0.000 A 
ATOM     25  C   UNL d   1      -0.870  -1.022  -4.057  0.00  0.00     0.001 A 
ATOM     26  C   UNL d   1      -1.756  -1.207  -2.993  0.00  0.00     0.014 A 
ENDBRANCH   4  21
TORSDOF 5
