REMARK  5 active torsions:
REMARK  status: ('A' for Active; 'I' for Inactive)
REMARK    1  A    between atoms: C_8  and  N_1 
REMARK    2  A    between atoms: C_6  and  C_2 
REMARK    3  A    between atoms: C_9  and  C_8 
REMARK    4  A    between atoms: O_16  and  C_9 
REMARK    5  A    between atoms: C_20  and  O_16 
ROOT
ATOM      1  N   UNL d   1      -0.083  -1.323   0.109  0.00  0.00    -0.266 N 
ATOM      2  C   UNL d   1       1.066  -0.619   0.102  0.00  0.00     0.146 C 
ATOM      3  N   UNL d   1       0.905   0.653   0.264  0.00  0.00    -0.239 N 
ATOM      4  HN  UNL d   1       1.625   1.376   0.250  1.00  0.00     0.196 HD
ATOM      5  C   UNL d   1      -1.035  -0.429   0.473  0.00  0.00     0.391 C 
ATOM      6  O   UNL d   1      -0.490   0.829   0.465  0.00  0.00    -0.179 OA
ATOM      7  O   UNL d   1      -2.181  -0.678   0.817  0.00  0.00    -0.236 OA
ENDROOT
BRANCH   2   8
ATOM      8  C   UNL d   1       2.406  -1.211  -0.037  0.00  0.00     0.053 A 
ATOM      9  C   UNL d   1       3.213  -0.854  -1.129  0.00  0.00     0.049 A 
ATOM     10 CL   UNL d   1       2.640   0.128  -2.432  0.00  0.00    -0.083 Cl
ATOM     11  C   UNL d   1       4.539  -1.298  -1.204  0.00  0.00     0.025 A 
ATOM     12  C   UNL d   1       5.068  -2.110  -0.203  0.00  0.00     0.003 A 
ATOM     13  C   UNL d   1       4.278  -2.461   0.888  0.00  0.00     0.025 A 
ATOM     14  C   UNL d   1       2.962  -1.992   0.988  0.00  0.00     0.049 A 
ATOM     15 CL   UNL d   1       2.128  -2.353   2.458  0.00  0.00    -0.083 Cl
ENDBRANCH   2   8
BRANCH   1  16
ATOM     16  C   UNL d   1      -0.307  -2.756   0.208  0.00  0.00     0.247 C 
BRANCH  16  17
ATOM     17  C   UNL d   1      -1.641  -3.212  -0.375  0.00  0.00     0.277 C 
ATOM     18  O   UNL d   1      -2.066  -2.915  -1.479  0.00  0.00    -0.263 OA
BRANCH  17  19
ATOM     19  O   UNL d   1      -2.279  -3.986   0.554  0.00  0.00    -0.321 OA
BRANCH  19  20
ATOM     20  C   UNL d   1      -3.666  -4.267   0.322  0.00  0.00     0.174 C 
ATOM     21  C   UNL d   1      -3.820  -5.592  -0.396  0.00  0.00     0.034 C 
ENDBRANCH  19  20
ENDBRANCH  17  19
ENDBRANCH  16  17
ENDBRANCH   1  16
TORSDOF 5
