REMARK  4 active torsions:
REMARK  status: ('A' for Active; 'I' for Inactive)
REMARK    1  A    between atoms: N_2  and  S_1 
REMARK    2  A    between atoms: C_3  and  S_1 
REMARK    3  A    between atoms: C_13  and  N_2 
REMARK    4  A    between atoms: C_14  and  C_13 
ROOT
ATOM      1  N   UNL d   1       0.291  -1.246   0.865  0.00  0.00    -0.211 NA
ATOM      2  H   UNL d   1      -0.723  -1.239   0.963  0.00  0.00     0.140 HD
ENDROOT
BRANCH   1   3
ATOM      3  S   UNL d   1       0.840   0.036  -0.097  0.00  0.00     0.241 S 
ATOM      4  O   UNL d   1       2.121  -0.318  -0.664  0.00  0.00    -0.206 OA
ATOM      5  O   UNL d   1       0.647   1.254   0.659  0.00  0.00    -0.206 OA
BRANCH   3   6
ATOM      6  C   UNL d   1      -0.355   0.051  -1.422  0.00  0.00     0.074 A 
ATOM      7  C   UNL d   1      -1.458   0.910  -1.355  0.00  0.00     0.026 A 
ATOM      8  C   UNL d   1      -2.361   0.955  -2.420  0.00  0.00     0.025 A 
ATOM      9  C   UNL d   1      -2.154   0.150  -3.542  0.00  0.00     0.034 A 
ATOM     10  C   UNL d   1      -1.044  -0.693  -3.612  0.00  0.00     0.025 A 
ATOM     11 CL   UNL d   1      -3.265   0.207  -4.853  0.00  0.00    -0.084 Cl
ATOM     12  C   UNL d   1      -0.135  -0.736  -2.554  0.00  0.00     0.026 A 
ENDBRANCH   3   6
ENDBRANCH   1   3
BRANCH   1  13
ATOM     13  C   UNL d   1       0.821  -2.573   0.503  0.00  0.00     0.143 C 
BRANCH  13  14
ATOM     14  C   UNL d   1       0.352  -3.663   1.441  0.00  0.00    -0.044 A 
ATOM     15  C   UNL d   1       0.678  -3.615   2.809  0.00  0.00     0.018 A 
ATOM     16  C   UNL d   1       0.291  -4.667   3.623  0.00  0.00    -0.022 A 
ATOM     17  C   UNL d   1       0.455  -4.847   5.083  0.00  0.00     0.068 C 
ATOM     18  C   UNL d   1      -0.417  -5.741   3.110  0.00  0.00     0.075 A 
ATOM     19  C   UNL d   1       0.040  -6.315   5.202  0.00  0.00     0.180 C 
ATOM     20  O   UNL d   1      -0.744  -6.688   4.045  0.00  0.00    -0.350 OA
ATOM     21  C   UNL d   1      -0.762  -5.816   1.778  0.00  0.00     0.038 A 
ATOM     22  C   UNL d   1      -0.369  -4.770   0.938  0.00  0.00     0.011 A 
ENDBRANCH  13  14
ENDBRANCH   1  13
TORSDOF 4
