REMARK  5 active torsions:
REMARK  status: ('A' for Active; 'I' for Inactive)
REMARK    1  A    between atoms: C_2  and  C_1 
REMARK    2  A    between atoms: N_4  and  C_1 
REMARK       I    between atoms: N_3  and  C_2 
REMARK    3  A    between atoms: C_6  and  N_3 
REMARK    4  A    between atoms: C_11  and  N_4 
REMARK    5  A    between atoms: S_10  and  C_9 
ROOT
ATOM      1  C   UNL d   1       0.580  -0.024  -1.638  0.00  0.00     0.283 C 
ATOM      2  N   UNL d   1       0.956  -0.923  -2.627  0.00  0.00    -0.321 N 
ATOM      3  O   UNL d   1      -0.409   0.708  -1.627  0.00  0.00    -0.265 OA
ATOM      4  H   UNL d   1       1.774  -1.482  -2.445  0.00  0.00     0.169 HD
ENDROOT
BRANCH   1   5
ATOM      5  C   UNL d   1       1.479   0.019  -0.394  0.00  0.00     0.165 C 
ATOM      6  S   UNL d   1       3.092   0.396  -0.626  0.00  0.00    -0.055 SA
BRANCH   5   7
ATOM      7  N   UNL d   1       0.977  -0.232   0.876  0.00  0.00    -0.372 N 
ATOM      8  H   UNL d   1       1.666  -0.162   1.617  0.00  0.00     0.161 HD
BRANCH   7   9
ATOM      9  C   UNL d   1      -0.209  -1.067   1.145  0.00  0.00     0.082 C 
ATOM     10  C   UNL d   1      -0.713  -0.909   2.591  0.00  0.00     0.025 C 
ATOM     11  C   UNL d   1      -0.960  -2.157   3.435  0.00  0.00     0.002 C 
ATOM     12  C   UNL d   1      -1.101  -3.477   2.705  0.00  0.00     0.000 C 
ATOM     13  C   UNL d   1      -0.165  -3.676   1.537  0.00  0.00     0.002 C 
ATOM     14  C   UNL d   1       0.096  -2.480   0.644  0.00  0.00     0.025 C 
ENDBRANCH   7   9
ENDBRANCH   5   7
ENDBRANCH   1   5
BRANCH   2  15
ATOM     15  C   UNL d   1       0.301  -1.123  -3.877  0.00  0.00     0.036 A 
ATOM     16  C   UNL d   1      -0.702  -0.286  -4.396  0.00  0.00     0.048 A 
ATOM     17  C   UNL d   1      -1.337  -0.543  -5.633  0.00  0.00     0.002 A 
ATOM     18  C   UNL d   1      -0.960  -1.677  -6.355  0.00  0.00     0.018 A 
ATOM     19  C   UNL d   1       0.054  -2.509  -5.866  0.00  0.00     0.004 A 
ATOM     20  C   UNL d   1       0.689  -2.228  -4.650  0.00  0.00     0.029 A 
BRANCH  17  21
ATOM     21  S   UNL d   1      -2.562   0.657  -6.165  0.00  0.00    -0.134 SA
ATOM     22  C   UNL d   1      -3.281  -0.016  -7.692  0.00  0.00     0.095 C 
ENDBRANCH  17  21
ENDBRANCH   2  15
TORSDOF 5
