REMARK  10 active torsions:
REMARK  status: ('A' for Active; 'I' for Inactive)
REMARK    1  A    between atoms: O_5  and  C_1 
REMARK       I    between atoms: C_2  and  N_3 
REMARK       I    between atoms: N_4  and  C_2 
REMARK    2  A    between atoms: N_3  and  C_10 
REMARK    3  A    between atoms: C_15  and  N_4 
REMARK    4  A    between atoms: C_12  and  O_5 
REMARK    5  A    between atoms: O_11  and  C_16 
REMARK    6  A    between atoms: C_14  and  O_11 
REMARK    7  A    between atoms: C_13  and  C_15 
REMARK    8  A    between atoms: C_16  and  C_13 
REMARK    9  A    between atoms: O_26  and  C_13 
REMARK   10  A    between atoms: O_27  and  C_17 
ROOT
ATOM      1  C   UNL d   1       5.238  -1.402   6.552  0.00  0.00     0.320 C 
ATOM      2  N   UNL d   1       4.862  -1.932   7.774  0.00  0.00    -0.309 N 
ATOM      3  N   UNL d   1       4.214  -1.470   5.631  0.00  0.00    -0.340 N 
ATOM      4  O   UNL d   1       6.328  -0.933   6.266  0.00  0.00    -0.247 OA
ATOM      5  H   UNL d   1       3.909  -2.236   7.864  0.00  0.00     0.170 HD
ATOM      6  H   UNL d   1       3.289  -1.497   6.030  0.00  0.00     0.164 HD
ENDROOT
BRANCH   3   7
ATOM      7  C   UNL d   1       4.296  -0.745   4.369  0.00  0.00     0.158 C 
BRANCH   7   8
ATOM      8  C   UNL d   1       5.537  -0.931   3.475  0.00  0.00     0.160 C 
BRANCH   8   9
ATOM      9  C   UNL d   1       5.879  -2.408   3.216  0.00  0.00     0.209 C 
BRANCH   9  10
ATOM     10  O   UNL d   1       7.040  -2.474   2.376  0.00  0.00    -0.349 OA
BRANCH  10  11
ATOM     11  C   UNL d   1       7.482  -3.727   2.049  0.00  0.00     0.069 A 
ATOM     12  C   UNL d   1       6.683  -4.867   1.989  0.00  0.00     0.039 A 
ATOM     13  C   UNL d   1       7.228  -6.096   1.598  0.00  0.00     0.039 A 
ATOM     14  C   UNL d   1       8.582  -6.199   1.272  0.00  0.00     0.068 A 
ATOM     15  C   UNL d   1       9.378  -5.056   1.327  0.00  0.00     0.039 A 
ATOM     16  C   UNL d   1       8.831  -3.824   1.703  0.00  0.00     0.039 A 
BRANCH  14  17
ATOM     17  O   UNL d   1       9.225  -7.341   0.887  0.00  0.00    -0.356 OA
ATOM     18  C   UNL d   1       8.433  -8.521   0.803  0.00  0.00     0.210 C 
ENDBRANCH  14  17
ENDBRANCH  10  11
ENDBRANCH   9  10
ENDBRANCH   8   9
BRANCH   8  19
ATOM     19  O   UNL d   1       5.243  -0.257   2.232  0.00  0.00    -0.392 OA
ATOM     20  H   UNL d   1       4.960  -0.923   1.582  0.00  0.00     0.210 HD
ENDBRANCH   8  19
ENDBRANCH   7   8
ENDBRANCH   3   7
BRANCH   2  21
ATOM     21  C   UNL d   1       5.663  -2.006   8.938  0.00  0.00     0.036 A 
ATOM     22  C   UNL d   1       7.014  -1.667   8.958  0.00  0.00     0.032 A 
ATOM     23  C   UNL d   1       7.739  -1.708  10.150  0.00  0.00     0.039 A 
ATOM     24  C   UNL d   1       7.139  -2.116  11.340  0.00  0.00     0.078 A 
ATOM     25  C   UNL d   1       5.789  -2.462  11.336  0.00  0.00     0.039 A 
ATOM     26  C   UNL d   1       5.060  -2.421  10.133  0.00  0.00     0.032 A 
BRANCH  24  27
ATOM     27  O   UNL d   1       7.967  -2.072  12.417  0.00  0.00    -0.255 OA
BRANCH  27  28
ATOM     28  C   UNL d   1       7.751  -2.985  13.479  0.00  0.00     0.530 C 
ATOM     29  F   UNL d   1       7.086  -4.095  13.100  0.00  0.00    -0.144 F 
ATOM     30  F   UNL d   1       7.074  -2.378  14.476  0.00  0.00    -0.144 F 
ATOM     31  F   UNL d   1       8.957  -3.367  13.958  0.00  0.00    -0.144 F 
ENDBRANCH  27  28
ENDBRANCH  24  27
ENDBRANCH   2  21
TORSDOF 10
