REMARK  4 active torsions:
REMARK  status: ('A' for Active; 'I' for Inactive)
REMARK    1  A    between atoms: C_4  and  C_1 
REMARK    2  A    between atoms: C_2  and  C_3 
REMARK       I    between atoms: C_3  and  N_6 
REMARK       I    between atoms: N_5  and  C_4 
REMARK    3  A    between atoms: N_6  and  N_5 
REMARK    4  A    between atoms: N_11  and  C_7 
ROOT
ATOM      1  C   UNL d   1       2.810  -0.218   0.665  0.00  0.00     0.271 C 
ATOM      2  N   UNL d   1       3.678   0.793   0.325  0.00  0.00    -0.263 N 
ATOM      3  O   UNL d   1       3.137  -1.197   1.333  0.00  0.00    -0.266 OA
ATOM      4  H   UNL d   1       3.383   1.617  -0.201  0.00  0.00     0.190 HD
ENDROOT
BRANCH   2   5
ATOM      5  N   UNL d   1       4.980   0.793   0.845  0.00  0.00    -0.263 N 
ATOM      6  C   UNL d   1       5.848   1.775   0.419  0.00  0.00     0.271 C 
ATOM      7  O   UNL d   1       5.498   2.607  -0.424  0.00  0.00    -0.266 OA
ATOM      8  H   UNL d   1       5.217   0.045   1.496  0.00  0.00     0.190 HD
BRANCH   6   9
ATOM      9  C   UNL d   1       7.208   1.881   1.033  0.00  0.00     0.055 A 
ATOM     10  C   UNL d   1       7.843   0.925   1.842  0.00  0.00     0.049 A 
ATOM     11 CL   UNL d   1       7.183  -0.629   2.207  0.00  0.00    -0.083 Cl
ATOM     12  C   UNL d   1       9.107   1.198   2.396  0.00  0.00     0.025 A 
ATOM     13  C   UNL d   1       9.754   2.409   2.144  0.00  0.00     0.002 A 
ATOM     14  C   UNL d   1       9.149   3.352   1.326  0.00  0.00     0.001 A 
ATOM     15  C   UNL d   1       7.893   3.088   0.776  0.00  0.00     0.019 A 
ENDBRANCH   6   9
ENDBRANCH   2   5
BRANCH   1  16
ATOM     16  C   UNL d   1       1.431  -0.097   0.116  0.00  0.00     0.054 A 
ATOM     17  C   UNL d   1       0.650   1.078   0.149  0.00  0.00     0.023 A 
ATOM     18  C   UNL d   1      -0.552   1.062  -0.596  0.00  0.00     0.024 A 
ATOM     19  C   UNL d   1      -1.005  -0.081  -1.263  0.00  0.00     0.002 A 
ATOM     20  C   UNL d   1      -0.262  -1.250  -1.208  0.00  0.00     0.001 A 
ATOM     21  C   UNL d   1       0.951  -1.258  -0.523  0.00  0.00     0.019 A 
BRANCH  17  22
ATOM     22  N   UNL d   1       0.982   2.301   0.754  0.00  0.00    -0.296 NA
ATOM     23  C   UNL d   1       1.701   2.353   2.021  0.00  0.00     0.113 C 
ATOM     24  H   UNL d   1       0.180   2.930   0.780  0.00  0.00     0.127 HD
ENDBRANCH  17  22
ENDBRANCH   1  16
TORSDOF 4
