REMARK  5 active torsions:
REMARK  status: ('A' for Active; 'I' for Inactive)
REMARK    1  A    between atoms: C_6  and  C_1 
REMARK    2  A    between atoms: C_7  and  C_2 
REMARK    3  A    between atoms: N_9  and  C_3 
REMARK    4  A    between atoms: O_12  and  C_6 
REMARK    5  A    between atoms: C_17  and  O_12 
ROOT
ATOM      1  C   UNL d   1       0.099   1.558   0.098  0.00  0.00     0.084 A 
ATOM      2  C   UNL d   1      -1.327   1.273  -0.019  0.00  0.00    -0.000 A 
ATOM      3  C   UNL d   1       0.853   0.392   0.069  0.00  0.00     0.085 A 
ATOM      4  C   UNL d   1      -1.549  -0.089  -0.112  0.00  0.00     0.065 A 
ATOM      5  S   UNL d   1      -0.119  -1.006  -0.061  0.00  0.00    -0.083 SA
ENDROOT
BRANCH   2   6
ATOM      6  C   UNL d   1      -2.460   2.211  -0.095  0.00  0.00    -0.024 A 
ATOM      7  C   UNL d   1      -2.349   3.422  -0.795  0.00  0.00     0.013 A 
ATOM      8  C   UNL d   1      -3.421   4.319  -0.860  0.00  0.00     0.020 A 
ATOM      9  C   UNL d   1      -4.631   3.994  -0.257  0.00  0.00     0.011 A 
ATOM     10  C   UNL d   1      -4.775   2.787   0.421  0.00  0.00     0.020 A 
ATOM     11 BR   UNL d   1      -6.087   5.194  -0.362  0.00  0.00    -0.051 Br
ATOM     12  C   UNL d   1      -3.690   1.906   0.510  0.00  0.00     0.013 A 
ENDBRANCH   2   6
BRANCH   1  13
ATOM     13  C   UNL d   1       0.686   2.890   0.255  0.00  0.00     0.297 C 
ATOM     14  O   UNL d   1       0.121   3.815   0.826  0.00  0.00    -0.259 OA
BRANCH  13  15
ATOM     15  O   UNL d   1       1.906   3.016  -0.357  0.00  0.00    -0.318 OA
BRANCH  15  16
ATOM     16  C   UNL d   1       2.460   4.339  -0.354  0.00  0.00     0.174 C 
ATOM     17  C   UNL d   1       3.148   4.628   0.966  0.00  0.00     0.034 C 
ENDBRANCH  15  16
ENDBRANCH  13  15
ENDBRANCH   1  13
BRANCH   3  18
ATOM     18  N   UNL d   1       2.197   0.249   0.147  0.00  0.00    -0.393 N 
ATOM     19  H   UNL d   1       2.795   1.041  -0.084  0.00  0.00     0.156 HD
ATOM     20  H   UNL d   1       2.602  -0.649  -0.102  0.00  0.00     0.156 HD
ENDBRANCH   3  18
TORSDOF 5
