REMARK  6 active torsions:
REMARK  status: ('A' for Active; 'I' for Inactive)
REMARK    1  A    between atoms: C_15  and  N_1 
REMARK    2  A    between atoms: C_18  and  C_3 
REMARK    3  A    between atoms: C_6  and  S_14 
REMARK    4  A    between atoms: C_17  and  C_8 
REMARK    5  A    between atoms: S_14  and  C_17 
REMARK    6  A    between atoms: C_20  and  C_15 
ROOT
ATOM      1  C   UNL d   1       2.281   1.466  -0.127  0.00  0.00     0.160 C 
ENDROOT
BRANCH   1   2
ATOM      2  S   UNL d   1       3.807   0.484  -0.006  0.00  0.00    -0.085 SA
BRANCH   2   3
ATOM      3  C   UNL d   1       5.002   1.735  -0.070  0.00  0.00     0.163 A 
ATOM      4  N   UNL d   1       6.353   1.523   0.040  0.00  0.00    -0.315 N 
ATOM      5  C   UNL d   1       6.948   2.759  -0.152  0.00  0.00     0.134 A 
ATOM      6  C   UNL d   1       7.013   0.286   0.368  0.00  0.00     0.160 C 
ATOM      7  N   UNL d   1       5.976   3.655  -0.275  0.00  0.00    -0.283 N 
ATOM      8  N   UNL d   1       4.766   3.012  -0.239  0.00  0.00    -0.278 N 
ATOM      9  HN  UNL d   1       6.108   4.661  -0.378  1.00  0.00     0.188 HD
ATOM     10  HN  UNL d   1       3.849   3.448  -0.328  1.00  0.00     0.189 HD
BRANCH   5  11
ATOM     11  C   UNL d   1       8.382   3.090  -0.195  0.00  0.00     0.009 A 
ATOM     12  C   UNL d   1       9.360   2.222  -0.703  0.00  0.00     0.015 A 
ATOM     13  C   UNL d   1      10.707   2.602  -0.754  0.00  0.00     0.001 A 
ATOM     14  C   UNL d   1      11.097   3.865  -0.319  0.00  0.00     0.000 A 
ATOM     15  C   UNL d   1      10.141   4.751   0.167  0.00  0.00     0.001 A 
ATOM     16  C   UNL d   1       8.795   4.366   0.228  0.00  0.00     0.015 A 
ENDBRANCH   5  11
ENDBRANCH   2   3
ENDBRANCH   1   2
BRANCH   1  17
ATOM     17  C   UNL d   1       1.088   0.556   0.021  0.00  0.00     0.110 A 
ATOM     18  N   UNL d   1       0.386   0.049  -1.023  0.00  0.00    -0.306 N 
ATOM     19  C   UNL d   1      -0.612  -0.705  -0.451  0.00  0.00     0.194 A 
ATOM     20  N   UNL d   1      -0.433  -0.601   0.917  0.00  0.00    -0.275 N 
ATOM     21  S   UNL d   1      -1.830  -1.589  -1.147  0.00  0.00    -0.039 SA
ATOM     22  N   UNL d   1       0.636   0.196   1.194  0.00  0.00    -0.286 N 
ATOM     23  H   UNL d   1      -1.002  -1.021   1.642  0.00  0.00     0.189 HD
ATOM     24  HN  UNL d   1       1.002   0.454   2.111  1.00  0.00     0.188 HD
BRANCH  18  25
ATOM     25  C   UNL d   1       0.577   0.300  -2.447  0.00  0.00     0.171 C 
BRANCH  25  26
ATOM     26  C   UNL d   1       1.651  -0.541  -3.103  0.00  0.00    -0.040 A 
ATOM     27  C   UNL d   1       1.913  -1.865  -2.721  0.00  0.00     0.009 A 
ATOM     28  C   UNL d   1       2.868  -2.627  -3.398  0.00  0.00     0.001 A 
ATOM     29  C   UNL d   1       3.564  -2.083  -4.474  0.00  0.00     0.000 A 
ATOM     30  C   UNL d   1       3.302  -0.777  -4.879  0.00  0.00     0.001 A 
ATOM     31  C   UNL d   1       2.349  -0.014  -4.202  0.00  0.00     0.009 A 
ENDBRANCH  25  26
ENDBRANCH  18  25
ENDBRANCH   1  17
TORSDOF 6
