REMARK  4 active torsions:
REMARK  status: ('A' for Active; 'I' for Inactive)
REMARK    1  A    between atoms: C_6  and  N_1 
REMARK    2  A    between atoms: C_2  and  C_8 
REMARK    3  A    between atoms: O_3  and  C_2 
REMARK    4  A    between atoms: C_4  and  O_3 
ROOT
ATOM      1  C   UNL d   1      -3.277   4.177   3.347  0.00  0.00     0.293 C 
ATOM      2  O   UNL d   1      -4.277   4.531   2.743  0.00  0.00    -0.259 OA
ENDROOT
BRANCH   1   3
ATOM      3  C   UNL d   1      -2.298   5.114   3.967  0.00  0.00     0.039 A 
ATOM      4  C   UNL d   1      -1.163   4.652   4.653  0.00  0.00     0.020 A 
ATOM      5  C   UNL d   1      -0.365   5.538   5.383  0.00  0.00     0.037 A 
ATOM      6  C   UNL d   1      -0.693   6.900   5.415  0.00  0.00     0.102 A 
ATOM      7  C   UNL d   1      -1.780   7.385   4.675  0.00  0.00     0.037 A 
ATOM      8  C   UNL d   1      -2.579   6.490   3.952  0.00  0.00     0.020 A 
BRANCH   6   9
ATOM      9  N   UNL d   1       0.081   7.811   6.269  0.00  0.00    -0.116 N 
ATOM     10  O   UNL d   1      -0.234   9.008   6.269  0.00  0.00    -0.532 OA
ATOM     11  O   UNL d   1       0.993   7.322   6.953  0.00  0.00    -0.532 OA
ENDBRANCH   6   9
ENDBRANCH   1   3
BRANCH   1  12
ATOM     12  O   UNL d   1      -2.950   2.899   3.667  0.00  0.00    -0.310 OA
BRANCH  12  13
ATOM     13  C   UNL d   1      -3.965   1.898   3.452  0.00  0.00     0.164 C 
ATOM     14  C   UNL d   1      -5.005   1.929   4.603  0.00  0.00     0.305 C 
ATOM     15  N   UNL d   1      -5.011   0.671   5.399  0.00  0.00     0.090 N 
ATOM     16  C   UNL d   1      -3.654   0.446   5.945  0.00  0.00     0.273 C 
ATOM     17  C   UNL d   1      -5.354  -0.456   4.505  0.00  0.00     0.273 C 
ATOM     18  C   UNL d   1      -2.606   0.303   4.830  0.00  0.00     0.037 C 
ATOM     19  C   UNL d   1      -3.283   0.512   3.462  0.00  0.00     0.020 C 
ATOM     20  C   UNL d   1      -4.377  -0.560   3.323  0.00  0.00     0.037 C 
ENDBRANCH  12  13
ENDBRANCH   1  12
TORSDOF 4
