REMARK  4 active torsions:
REMARK  status: ('A' for Active; 'I' for Inactive)
REMARK    1  A    between atoms: C_5  and  N_1 
REMARK    2  A    between atoms: C_4  and  C_5 
REMARK    3  A    between atoms: O_18  and  C_8 
REMARK    4  A    between atoms: O_19  and  C_10 
ROOT
ATOM      1  N   UNL d   1      -2.191  -0.243   0.082  0.00  0.00    -0.343 N 
ATOM      2  C   UNL d   1      -1.257   0.764   0.299  0.00  0.00     0.254 C 
ATOM      3  C   UNL d   1       0.175   0.424   0.095  0.00  0.00     0.041 A 
ATOM      4  C   UNL d   1       0.591  -0.906   0.089  0.00  0.00    -0.038 A 
ATOM      5  C   UNL d   1       1.109   1.456  -0.052  0.00  0.00     0.057 A 
ATOM      6  C   UNL d   1       2.475   1.183  -0.194  0.00  0.00     0.102 A 
ATOM      7  C   UNL d   1       1.955  -1.188  -0.009  0.00  0.00     0.047 A 
ATOM      8  C   UNL d   1       2.905  -0.158  -0.149  0.00  0.00     0.102 A 
ATOM      9  C   UNL d   1      -1.756  -1.562  -0.371  0.00  0.00     0.131 C 
ATOM     10  O   UNL d   1      -1.538   1.897   0.675  0.00  0.00    -0.267 OA
ATOM     11  C   UNL d   1      -0.431  -1.992   0.264  0.00  0.00     0.059 C 
ENDROOT
BRANCH   1  12
ATOM     12  C   UNL d   1      -3.623   0.041   0.224  0.00  0.00     0.168 C 
BRANCH  12  13
ATOM     13  C   UNL d   1      -4.355   0.491  -1.031  0.00  0.00     0.003 A 
ATOM     14  C   UNL d   1      -4.892  -0.436  -1.950  0.00  0.00     0.043 A 
ATOM     15 CL   UNL d   1      -4.736  -2.149  -1.761  0.00  0.00    -0.084 Cl
ATOM     16  C   UNL d   1      -5.654  -0.023  -3.056  0.00  0.00     0.024 A 
ATOM     17  C   UNL d   1      -5.904   1.323  -3.278  0.00  0.00     0.003 A 
ATOM     18  C   UNL d   1      -5.381   2.260  -2.399  0.00  0.00     0.024 A 
ATOM     19  C   UNL d   1      -4.620   1.855  -1.290  0.00  0.00     0.043 A 
ATOM     20 CL   UNL d   1      -4.127   3.140  -0.243  0.00  0.00    -0.084 Cl
ENDBRANCH  12  13
ENDBRANCH   1  12
BRANCH   6  21
ATOM     21  O   UNL d   1       3.412   2.168  -0.370  0.00  0.00    -0.353 OA
ATOM     22  C   UNL d   1       2.959   3.515  -0.467  0.00  0.00     0.210 C 
ENDBRANCH   6  21
BRANCH   8  23
ATOM     23  O   UNL d   1       4.183  -0.648  -0.227  0.00  0.00    -0.353 OA
ATOM     24  C   UNL d   1       5.269   0.265  -0.270  0.00  0.00     0.210 C 
ENDBRANCH   8  23
TORSDOF 4
