REMARK  3 active torsions:
REMARK  status: ('A' for Active; 'I' for Inactive)
REMARK    1  A    between atoms: N_2  and  C_1 
REMARK    2  A    between atoms: C_12  and  C_7 
REMARK    3  A    between atoms: S_11  and  C_12 
ROOT
ATOM      1  C   UNL d   1      -1.785  -4.495  -1.422  0.00  0.00     0.134 C 
ATOM      2  N   UNL d   1      -2.272  -5.516  -1.170  0.00  0.00    -0.184 NA
ATOM      3  S   UNL d   1      -1.059  -3.010  -1.761  0.00  0.00    -0.044 SA
ENDROOT
BRANCH   3   4
ATOM      4  C   UNL d   1      -0.826  -2.463  -0.047  0.00  0.00     0.155 C 
BRANCH   4   5
ATOM      5  C   UNL d   1      -0.160  -1.134  -0.020  0.00  0.00     0.066 A 
ATOM      6  O   UNL d   1      -0.980  -0.037  -0.017  0.00  0.00    -0.292 OA
ATOM      7  C   UNL d   1      -0.160   1.050  -0.008  0.00  0.00     0.215 A 
ATOM      8  C   UNL d   1       1.165   0.684   0.007  0.00  0.00     0.065 A 
ATOM      9  C   UNL d   1       1.165  -0.735   0.004  0.00  0.00     0.038 A 
BRANCH   7  10
ATOM     10  N   UNL d   1      -0.792   2.332  -0.015  0.00  0.00    -0.090 N 
ATOM     11  O   UNL d   1      -0.036   3.314  -0.011  0.00  0.00    -0.530 OA
ATOM     12  O   UNL d   1      -2.029   2.369  -0.024  0.00  0.00    -0.530 OA
ENDBRANCH   7  10
ENDBRANCH   4   5
ENDBRANCH   3   4
TORSDOF 3
