REMARK  6 active torsions:
REMARK  status: ('A' for Active; 'I' for Inactive)
REMARK    1  A    between atoms: N_10  and  C_1 
REMARK    2  A    between atoms: S_3  and  N_10 
REMARK    3  A    between atoms: C_9  and  S_3 
REMARK    4  A    between atoms: C_20  and  N_5 
REMARK    5  A    between atoms: S_7  and  C_8 
REMARK    6  A    between atoms: C_19  and  S_7 
ROOT
ATOM      1  S   UNL d   1       0.702  -3.691   0.049  0.00  0.00     0.270 S 
ATOM      2  O   UNL d   1       0.011  -4.941   0.301  0.00  0.00    -0.200 OA
ATOM      3  O   UNL d   1       1.437  -3.486  -1.173  0.00  0.00    -0.200 OA
ENDROOT
BRANCH   1   4
ATOM      4  N   UNL d   1      -0.495  -2.511   0.190  0.00  0.00    -0.273 N 
ATOM      5  H   UNL d   1      -1.441  -2.837   0.014  0.00  0.00     0.179 HD
BRANCH   4   6
ATOM      6  C   UNL d   1      -0.141  -1.155   0.115  0.00  0.00     0.136 C 
ATOM      7  C   UNL d   1       1.216  -0.534   0.054  0.00  0.00     0.296 C 
ATOM      8  N   UNL d   1       1.018   0.827   0.271  0.00  0.00    -0.217 N 
ATOM      9  O   UNL d   1       2.276  -1.117  -0.087  0.00  0.00    -0.264 OA
ATOM     10  N   UNL d   1      -0.366   1.078   0.202  0.00  0.00    -0.289 N 
ATOM     11  C   UNL d   1      -1.031  -0.148   0.197  0.00  0.00     0.058 C 
ATOM     12  C   UNL d   1      -0.866   2.435   0.216  0.00  0.00     0.178 C 
ATOM     13  C   UNL d   1      -2.515  -0.273   0.332  0.00  0.00     0.072 C 
BRANCH   8  14
ATOM     14  C   UNL d   1       1.975   1.772  -0.122  0.00  0.00     0.060 A 
ATOM     15  C   UNL d   1       2.517   1.778  -1.411  0.00  0.00     0.031 A 
ATOM     16  C   UNL d   1       3.601   2.607  -1.700  0.00  0.00     0.002 A 
ATOM     17  C   UNL d   1       4.156   3.405  -0.699  0.00  0.00     0.000 A 
ATOM     18  C   UNL d   1       3.620   3.389   0.589  0.00  0.00     0.002 A 
ATOM     19  C   UNL d   1       2.524   2.579   0.876  0.00  0.00     0.031 A 
ENDBRANCH   8  14
ENDBRANCH   4   6
ENDBRANCH   1   4
BRANCH   1  20
ATOM     20  C   UNL d   1       1.827  -3.520   1.429  0.00  0.00     0.121 A 
ATOM     21  S   UNL d   1       3.146  -4.611   1.486  0.00  0.00    -0.065 SA
ATOM     22  C   UNL d   1       3.788  -3.876   2.894  0.00  0.00     0.106 A 
ATOM     23  C   UNL d   1       2.996  -2.830   3.326  0.00  0.00     0.033 A 
ATOM     24  C   UNL d   1       1.857  -2.643   2.500  0.00  0.00     0.035 A 
BRANCH  22  25
ATOM     25  S   UNL d   1       5.329  -4.497   3.535  0.00  0.00     0.213 S 
ATOM     26  O   UNL d   1       5.268  -4.219   4.960  0.00  0.00    -0.217 OA
ATOM     27  O   UNL d   1       5.508  -5.845   3.033  0.00  0.00    -0.217 OA
BRANCH  25  28
ATOM     28  C   UNL d   1       6.569  -3.447   2.823  0.00  0.00     0.064 A 
ATOM     29  C   UNL d   1       6.970  -2.292   3.502  0.00  0.00     0.024 A 
ATOM     30  C   UNL d   1       7.937  -1.464   2.935  0.00  0.00     0.002 A 
ATOM     31  C   UNL d   1       8.509  -1.798   1.707  0.00  0.00     0.000 A 
ATOM     32  C   UNL d   1       8.121  -2.965   1.044  0.00  0.00     0.002 A 
ATOM     33  C   UNL d   1       7.150  -3.797   1.602  0.00  0.00     0.024 A 
ENDBRANCH  25  28
ENDBRANCH  22  25
ENDBRANCH   1  20
TORSDOF 6
