REMARK  5 active torsions:
REMARK  status: ('A' for Active; 'I' for Inactive)
REMARK       I    between atoms: N_2  and  C_1 
REMARK    1  A    between atoms: C_4  and  C_1 
REMARK    2  A    between atoms: C_20  and  N_3 
REMARK    3  A    between atoms: N_8  and  C_21 
REMARK    4  A    between atoms: C_19  and  C_14 
REMARK    5  A    between atoms: C_21  and  C_20 
ROOT
ATOM      1  C   UNL d   1       0.822  -0.183  -0.011  0.00  0.00     0.253 C 
ATOM      2  N   UNL d   1       0.229  -0.208  -1.271  0.00  0.00    -0.345 N 
ATOM      3  N   UNL d   1      -0.411   0.096  -4.144  0.00  0.00     0.093 N 
ATOM      4  O   UNL d   1       1.859  -0.792   0.251  0.00  0.00    -0.267 OA
ATOM      5  C   UNL d   1       0.680  -1.213  -2.241  0.00  0.00     0.156 C 
ATOM      6  C   UNL d   1      -0.895   0.629  -1.711  0.00  0.00     0.156 C 
ATOM      7  C   UNL d   1      -0.706   1.145  -3.149  0.00  0.00     0.292 C 
ATOM      8  C   UNL d   1       0.783  -0.652  -3.676  0.00  0.00     0.292 C 
ENDROOT
BRANCH   3   9
ATOM      9  C   UNL d   1      -1.540  -0.824  -4.385  0.00  0.00     0.292 C 
BRANCH   9  10
ATOM     10  C   UNL d   1      -2.815  -0.153  -4.932  0.00  0.00     0.149 C 
BRANCH  10  11
ATOM     11  N   UNL d   1      -3.829  -1.195  -5.146  0.00  0.00    -0.396 N 
ATOM     12  C   UNL d   1      -4.956  -0.733  -5.568  0.00  0.00     0.094 C 
ATOM     13  HN  UNL d   1      -3.658  -2.186  -4.976  1.00  0.00     0.158 HD
BRANCH  12  14
ATOM     14  C   UNL d   1      -6.104  -1.624  -5.830  0.00  0.00    -0.021 A 
ATOM     15  C   UNL d   1      -6.004  -3.001  -5.609  0.00  0.00     0.013 A 
ATOM     16  C   UNL d   1      -7.100  -3.826  -5.860  0.00  0.00     0.001 A 
ATOM     17  C   UNL d   1      -8.293  -3.275  -6.331  0.00  0.00     0.000 A 
ATOM     18  C   UNL d   1      -8.392  -1.901  -6.550  0.00  0.00     0.001 A 
ATOM     19  C   UNL d   1      -7.301  -1.070  -6.299  0.00  0.00     0.013 A 
ENDBRANCH  12  14
ENDBRANCH  10  11
ENDBRANCH   9  10
ENDBRANCH   3   9
BRANCH   1  20
ATOM     20  C   UNL d   1       0.209   0.611   1.088  0.00  0.00     0.032 A 
ATOM     21  C   UNL d   1      -1.168   0.576   1.342  0.00  0.00     0.018 A 
ATOM     22  C   UNL d   1      -1.713   1.351   2.368  0.00  0.00     0.025 A 
ATOM     23  C   UNL d   1      -0.874   2.113   3.179  0.00  0.00     0.034 A 
ATOM     24  C   UNL d   1       0.506   2.104   2.976  0.00  0.00     0.025 A 
ATOM     25 CL   UNL d   1      -1.548   3.061   4.447  0.00  0.00    -0.084 Cl
ATOM     26  C   UNL d   1       1.048   1.352   1.930  0.00  0.00     0.018 A 
ENDBRANCH   1  20
TORSDOF 5
