REMARK  5 active torsions:
REMARK  status: ('A' for Active; 'I' for Inactive)
REMARK    1  A    between atoms: C_8  and  C_1 
REMARK    2  A    between atoms: C_11  and  C_6 
REMARK    3  A    between atoms: O_14  and  C_7 
REMARK    4  A    between atoms: O_15  and  C_8 
REMARK    5  A    between atoms: C_19  and  O_15 
ROOT
ATOM      1  C   UNL d   1      -0.834   1.310   0.042  0.00  0.00     0.088 A 
ATOM      2  C   UNL d   1      -1.489   0.074   0.032  0.00  0.00     0.113 A 
ATOM      3  N   UNL d   1       0.641  -1.020  -0.094  0.00  0.00    -0.337 N 
ATOM      4  HN  UNL d   1       1.169  -1.892  -0.142  1.00  0.00     0.168 HD
ATOM      5  C   UNL d   1       0.578   1.373  -0.034  0.00  0.00     0.075 A 
ATOM      6  C   UNL d   1       1.303   0.167  -0.073  0.00  0.00     0.042 A 
ATOM      7  C   UNL d   1      -0.704  -1.060  -0.053  0.00  0.00     0.162 A 
ATOM      8  C   UNL d   1      -2.904  -0.060   0.152  0.00  0.00     0.105 C 
ATOM      9  N   UNL d   1      -4.044  -0.261   0.236  0.00  0.00    -0.191 NA
ATOM     10 CL   UNL d   1       1.357   2.918  -0.131  0.00  0.00    -0.081 Cl
ENDROOT
BRANCH   1  11
ATOM     11  C   UNL d   1      -1.612   2.549   0.293  0.00  0.00     0.296 C 
ATOM     12  O   UNL d   1      -1.313   3.351   1.161  0.00  0.00    -0.259 OA
BRANCH  11  13
ATOM     13  O   UNL d   1      -2.712   2.593  -0.498  0.00  0.00    -0.318 OA
BRANCH  13  14
ATOM     14  C   UNL d   1      -3.708   3.567  -0.133  0.00  0.00     0.174 C 
ATOM     15  C   UNL d   1      -3.982   4.477  -1.312  0.00  0.00     0.034 C 
ENDBRANCH  13  14
ENDBRANCH  11  13
ENDBRANCH   1  11
BRANCH   7  16
ATOM     16  O   UNL d   1      -1.190  -2.332  -0.074  0.00  0.00    -0.345 OA
ATOM     17  H   UNL d   1      -2.160  -2.351  -0.036  0.00  0.00     0.219 HD
ENDBRANCH   7  16
BRANCH   6  18
ATOM     18  C   UNL d   1       2.841   0.035  -0.051  0.00  0.00    -0.007 C 
ATOM     19  C   UNL d   1       3.272  -1.462  -0.050  0.00  0.00     0.021 C 
ATOM     20  C   UNL d   1       3.492   0.652  -1.303  0.00  0.00     0.021 C 
ATOM     21  C   UNL d   1       3.438   0.636   1.239  0.00  0.00     0.021 C 
ENDBRANCH   6  18
TORSDOF 5
