REMARK  6 active torsions:
REMARK  status: ('A' for Active; 'I' for Inactive)
REMARK    1  A    between atoms: C_7  and  C_3 
REMARK    2  A    between atoms: C_15  and  N_5 
REMARK    3  A    between atoms: N_19  and  C_7 
REMARK    4  A    between atoms: C_8  and  C_9 
REMARK    5  A    between atoms: C_9  and  O_12 
REMARK    6  A    between atoms: O_12  and  N_10 
ROOT
ATOM      1  C   UNL d   1       2.754   0.045   0.053  0.00  0.00     0.116 C 
ATOM      2  N   UNL d   1       1.575   0.023  -0.512  0.00  0.00    -0.245 N 
ATOM      3  HN  UNL d   1       1.180  -0.803  -0.961  1.00  0.00     0.196 HD
ENDROOT
BRANCH   1   4
ATOM      4  C   UNL d   1       3.562  -1.232   0.043  0.00  0.00     0.088 A 
ATOM      5  C   UNL d   1       5.043  -1.233   0.079  0.00  0.00     0.266 A 
ATOM      6  N   UNL d   1       5.670  -2.468   0.010  0.00  0.00    -0.270 N 
ATOM      7  O   UNL d   1       5.656  -0.166   0.161  0.00  0.00    -0.267 OA
ATOM      8  C   UNL d   1       5.011  -3.699   0.002  0.00  0.00     0.335 A 
ATOM      9  C   UNL d   1       7.123  -2.475   0.016  0.00  0.00     0.164 C 
ATOM     10  N   UNL d   1       3.605  -3.631   0.005  0.00  0.00    -0.274 N 
ATOM     11  O   UNL d   1       5.641  -4.759   0.036  0.00  0.00    -0.246 OA
ATOM     12  C   UNL d   1       2.937  -2.417   0.029  0.00  0.00     0.122 A 
BRANCH  10  13
ATOM     13  C   UNL d   1       2.879  -4.866   0.018  0.00  0.00     0.043 A 
ATOM     14  C   UNL d   1       1.898  -5.104   0.989  0.00  0.00     0.030 A 
ATOM     15  C   UNL d   1       1.254  -6.344   1.048  0.00  0.00     0.002 A 
ATOM     16  C   UNL d   1       1.552  -7.335   0.113  0.00  0.00     0.000 A 
ATOM     17  C   UNL d   1       2.499  -7.094  -0.878  0.00  0.00     0.002 A 
ATOM     18  C   UNL d   1       3.168  -5.869  -0.918  0.00  0.00     0.030 A 
ENDBRANCH  10  13
ENDBRANCH   1   4
BRANCH   1  19
ATOM     19  N   UNL d   1       3.269   1.188   0.622  0.00  0.00    -0.286 NA
ATOM     20  H   UNL d   1       4.290   1.250   0.610  0.00  0.00     0.125 HD
ATOM     21  H   UNL d   1       2.819   2.039   0.302  0.00  0.00     0.125 HD
ENDBRANCH   1  19
BRANCH   2  22
ATOM     22  O   UNL d   1       0.906   1.271  -0.435  0.00  0.00    -0.193 OA
BRANCH  22  23
ATOM     23  C   UNL d   1      -0.238   1.216  -1.190  0.00  0.00     0.316 C 
ATOM     24  O   UNL d   1      -0.608   0.278  -1.887  0.00  0.00    -0.257 OA
BRANCH  23  25
ATOM     25  C   UNL d   1      -1.109   2.405  -0.997  0.00  0.00     0.063 A 
ATOM     26  C   UNL d   1      -0.667   3.720  -0.817  0.00  0.00     0.050 A 
ATOM     27 CL   UNL d   1       0.999   4.176  -0.827  0.00  0.00    -0.083 Cl
ATOM     28  C   UNL d   1      -1.605   4.758  -0.672  0.00  0.00     0.025 A 
ATOM     29  C   UNL d   1      -2.975   4.501  -0.721  0.00  0.00     0.002 A 
ATOM     30  C   UNL d   1      -3.425   3.200  -0.928  0.00  0.00     0.001 A 
ATOM     31  C   UNL d   1      -2.500   2.161  -1.066  0.00  0.00     0.019 A 
ENDBRANCH  23  25
ENDBRANCH  22  23
ENDBRANCH   2  22
TORSDOF 6
