REMARK  4 active torsions:
REMARK  status: ('A' for Active; 'I' for Inactive)
REMARK    1  A    between atoms: C_2  and  C_1 
REMARK    2  A    between atoms: C_3  and  C_1 
REMARK    3  A    between atoms: C_8  and  C_3 
REMARK    4  A    between atoms: O_11  and  C_7 
ROOT
ATOM      1  C   UNL d   1       1.038   0.150  -0.065  0.00  0.00     0.163 C 
ATOM      2  O   UNL d   1       1.324   1.333   0.120  0.00  0.00    -0.292 OA
ENDROOT
BRANCH   1   3
ATOM      3  C   UNL d   1       1.482  -0.513  -1.323  0.00  0.00     0.010 A 
ATOM      4  C   UNL d   1       0.770  -1.572  -1.898  0.00  0.00     0.018 A 
ATOM      5  C   UNL d   1       1.251  -2.181  -3.060  0.00  0.00     0.037 A 
ATOM      6  C   UNL d   1       2.433  -1.733  -3.641  0.00  0.00     0.065 A 
ATOM      7  C   UNL d   1       3.139  -0.667  -3.093  0.00  0.00     0.037 A 
ATOM      8  C   UNL d   1       2.657  -0.052  -1.935  0.00  0.00     0.018 A 
BRANCH   6   9
ATOM      9  O   UNL d   1       2.870  -2.373  -4.762  0.00  0.00    -0.361 OA
ATOM     10  H   UNL d   1       3.709  -1.973  -5.044  0.00  0.00     0.217 HD
ENDBRANCH   6   9
ENDBRANCH   1   3
BRANCH   1  11
ATOM     11  C   UNL d   1       0.295  -0.670   0.974  0.00  0.00     0.122 C 
BRANCH  11  12
ATOM     12  C   UNL d   1      -1.212  -0.632   0.884  0.00  0.00    -0.051 A 
ATOM     13  C   UNL d   1      -1.951  -1.734   1.344  0.00  0.00     0.007 A 
ATOM     14  C   UNL d   1      -3.346  -1.727   1.301  0.00  0.00     0.001 A 
ATOM     15  C   UNL d   1      -4.022  -0.614   0.808  0.00  0.00     0.000 A 
ATOM     16  C   UNL d   1      -3.303   0.497   0.375  0.00  0.00     0.001 A 
ATOM     17  C   UNL d   1      -1.907   0.495   0.423  0.00  0.00     0.007 A 
ENDBRANCH  11  12
ENDBRANCH   1  11
TORSDOF 4
