REMARK  3 active torsions:
REMARK  status: ('A' for Active; 'I' for Inactive)
REMARK    1  A    between atoms: C_3  and  C_1 
REMARK       I    between atoms: N_10  and  C_3 
REMARK    2  A    between atoms: C_14  and  C_4 
REMARK    3  A    between atoms: C_7  and  N_10 
ROOT
ATOM      1  C   UNL d   1      -2.779  -1.286  -0.075  0.00  0.00     0.259 C 
ATOM      2  N   UNL d   1      -3.930  -0.541   0.053  0.00  0.00    -0.307 N 
ATOM      3  O   UNL d   1      -2.742  -2.498  -0.270  0.00  0.00    -0.267 OA
ATOM      4  H   UNL d   1      -3.879   0.459   0.104  0.00  0.00     0.170 HD
ENDROOT
BRANCH   1   5
ATOM      5  C   UNL d   1      -1.509  -0.555   0.035  0.00  0.00     0.064 A 
ATOM      6  C   UNL d   1      -0.232  -1.167  -0.211  0.00  0.00     0.053 A 
ATOM      7  C   UNL d   1       0.741  -0.222   0.015  0.00  0.00     0.062 A 
ATOM      8  O   UNL d   1       0.143   0.943   0.385  0.00  0.00    -0.318 OA
ATOM      9  C   UNL d   1      -1.207   0.744   0.427  0.00  0.00     0.065 A 
ATOM     10  C   UNL d   1      -1.942   1.940   0.892  0.00  0.00     0.077 C 
BRANCH   7  11
ATOM     11  C   UNL d   1       2.245  -0.209  -0.053  0.00  0.00    -0.002 C 
ATOM     12  C   UNL d   1       2.803  -1.614  -0.347  0.00  0.00     0.021 C 
ATOM     13  C   UNL d   1       2.696   0.744  -1.175  0.00  0.00     0.021 C 
ATOM     14  C   UNL d   1       2.824   0.270   1.291  0.00  0.00     0.021 C 
ENDBRANCH   7  11
ENDBRANCH   1   5
BRANCH   2  15
ATOM     15  C   UNL d   1      -5.180  -1.107   0.248  0.00  0.00     0.130 A 
ATOM     16  N   UNL d   1      -5.457  -2.414   0.227  0.00  0.00    -0.245 N 
ATOM     17  O   UNL d   1      -6.768  -2.548   0.624  0.00  0.00    -0.241 OA
ATOM     18  HN  UNL d   1      -4.820  -3.167  -0.034  1.00  0.00     0.196 HD
ATOM     19  C   UNL d   1      -7.286  -1.322   0.883  0.00  0.00     0.076 A 
ATOM     20  C   UNL d   1      -6.344  -0.366   0.583  0.00  0.00     0.084 A 
ATOM     21  C   UNL d   1      -8.641  -1.305   1.460  0.00  0.00     0.079 C 
ENDBRANCH   2  15
TORSDOF 3
