REMARK  6 active torsions:
REMARK  status: ('A' for Active; 'I' for Inactive)
REMARK    1  A    between atoms: S_15  and  C_2 
REMARK    2  A    between atoms: N_6  and  C_3 
REMARK    3  A    between atoms: C_18  and  N_10 
REMARK    4  A    between atoms: C_14  and  N_17 
REMARK    5  A    between atoms: C_25  and  S_15 
REMARK    6  A    between atoms: C_16  and  C_25 
REMARK       I    between atoms: N_17  and  C_16 
ROOT
ATOM      1  C   UNL d   1       0.718   0.258   0.495  0.00  0.00     0.086 C 
ATOM      2  C   UNL d   1      -0.203   1.301   0.592  0.00  0.00     0.092 C 
ATOM      3  C   UNL d   1      -1.144  -1.276   0.136  0.00  0.00     0.077 C 
ATOM      4  N   UNL d   1      -1.526   1.119   0.389  0.00  0.00    -0.351 N 
ATOM      5  HN  UNL d   1      -2.169   1.911   0.389  1.00  0.00     0.166 HD
ATOM      6  C   UNL d   1       0.248  -1.044   0.209  0.00  0.00    -0.008 C 
ATOM      7  C   UNL d   1      -1.983  -0.148   0.186  0.00  0.00     0.035 C 
ATOM      8  C   UNL d   1       2.112   0.492   0.719  0.00  0.00     0.103 C 
ATOM      9  N   UNL d   1       3.249   0.674   0.879  0.00  0.00    -0.191 NA
ATOM     10  C   UNL d   1       1.234  -2.172   0.016  0.00  0.00     0.052 C 
ATOM     11  C   UNL d   1      -3.472  -0.240   0.015  0.00  0.00     0.070 C 
ENDROOT
BRANCH   2  12
ATOM     12  S   UNL d   1       0.177   2.970   1.085  0.00  0.00    -0.101 SA
BRANCH  12  13
ATOM     13  C   UNL d   1       0.966   3.614  -0.414  0.00  0.00     0.184 C 
BRANCH  13  14
ATOM     14  C   UNL d   1       0.062   3.876  -1.609  0.00  0.00     0.231 C 
ATOM     15  N   UNL d   1      -1.272   3.550  -1.481  0.00  0.00    -0.326 N 
ATOM     16  H   UNL d   1      -1.580   3.243  -0.559  0.00  0.00     0.169 HD
ATOM     17  O   UNL d   1       0.564   4.382  -2.614  0.00  0.00    -0.272 OA
BRANCH  15  18
ATOM     18  C   UNL d   1      -2.272   3.701  -2.467  0.00  0.00     0.037 A 
ATOM     19  C   UNL d   1      -1.995   3.928  -3.818  0.00  0.00     0.053 A 
ATOM     20  C   UNL d   1      -3.034   4.122  -4.729  0.00  0.00     0.037 A 
ATOM     21 CL   UNL d   1      -2.672   4.402  -6.389  0.00  0.00    -0.084 Cl
ATOM     22  C   UNL d   1      -4.359   4.095  -4.311  0.00  0.00     0.048 A 
ATOM     23  C   UNL d   1      -4.638   3.839  -2.972  0.00  0.00     0.037 A 
ATOM     24  C   UNL d   1      -3.606   3.625  -2.054  0.00  0.00     0.053 A 
ATOM     25 CL   UNL d   1      -6.274   3.804  -2.438  0.00  0.00    -0.084 Cl
ENDBRANCH  15  18
ENDBRANCH  13  14
ENDBRANCH  12  13
ENDBRANCH   2  12
BRANCH   3  26
ATOM     26  N   UNL d   1      -1.693  -2.578   0.035  0.00  0.00    -0.298 N 
ATOM     27  N   UNL d   1      -1.413  -3.238   1.067  0.00  0.00    -0.300 N 
ATOM     28  HN  UNL d   1      -0.788  -2.902   1.800  1.00  0.00     0.187 HD
ATOM     29  HN  UNL d   1      -2.234  -2.928  -0.756  1.00  0.00     0.187 HD
BRANCH  27  30
ATOM     30  C   UNL d   1      -2.058  -4.494   1.101  0.00  0.00     0.054 A 
ATOM     31  C   UNL d   1      -1.330  -5.694   1.248  0.00  0.00    -0.034 A 
ATOM     32  C   UNL d   1       0.172  -5.746   1.242  0.00  0.00     0.050 C 
ATOM     33  C   UNL d   1      -2.021  -6.913   1.392  0.00  0.00     0.009 A 
ATOM     34  C   UNL d   1      -3.413  -6.947   1.416  0.00  0.00     0.001 A 
ATOM     35  C   UNL d   1      -4.136  -5.768   1.284  0.00  0.00     0.002 A 
ATOM     36  C   UNL d   1      -3.462  -4.554   1.129  0.00  0.00     0.031 A 
ENDBRANCH  27  30
ENDBRANCH   3  26
TORSDOF 6
