REMARK  11 active torsions:
REMARK  status: ('A' for Active; 'I' for Inactive)
REMARK    1  A    between atoms: C_8  and  C_2 
REMARK    2  A    between atoms: S_9  and  C_5 
REMARK    3  A    between atoms: C_19  and  S_9 
REMARK    4  A    between atoms: C_10  and  C_18 
REMARK    5  A    between atoms: C_24  and  C_11 
REMARK    6  A    between atoms: C_12  and  C_19 
REMARK       I    between atoms: N_16  and  C_12 
REMARK    7  A    between atoms: C_22  and  N_16 
REMARK    8  A    between atoms: C_27  and  C_24 
REMARK    9  A    between atoms: C_30  and  C_27 
REMARK   10  A    between atoms: C_28  and  C_29 
REMARK   11  A    between atoms: C_29  and  C_30 
ROOT
ATOM      1  N   UNL d   1      -1.308   0.676   0.359  0.00  0.00    -0.315 N 
ATOM      2  C   UNL d   1      -0.088   1.175  -0.060  0.00  0.00     0.135 A 
ATOM      3  N   UNL d   1       0.579   0.186  -0.637  0.00  0.00    -0.283 N 
ATOM      4  HN  UNL d   1       1.518   0.254  -1.029  1.00  0.00     0.188 HD
ATOM      5  C   UNL d   1      -1.344  -0.621  -0.083  0.00  0.00     0.163 A 
ATOM      6  N   UNL d   1      -0.196  -0.943  -0.623  0.00  0.00    -0.278 N 
ATOM      7  HN  UNL d   1       0.072  -1.864  -0.969  1.00  0.00     0.189 HD
ATOM      8  C   UNL d   1      -2.373   1.352   1.056  0.00  0.00     0.160 C 
ENDROOT
BRANCH   2   9
ATOM      9  C   UNL d   1       0.387   2.559   0.002  0.00  0.00     0.026 A 
ATOM     10  C   UNL d   1       1.131   3.084  -1.066  0.00  0.00     0.038 A 
ATOM     11  C   UNL d   1       1.561   4.412  -1.032  0.00  0.00     0.034 A 
ATOM     12  C   UNL d   1       1.213   5.183   0.064  0.00  0.00     0.108 A 
ATOM     13  N   UNL d   1       0.522   4.712   1.128  0.00  0.00    -0.373 N 
ATOM     14  C   UNL d   1       0.155   3.408   1.078  0.00  0.00     0.102 A 
ATOM     15  HN  UNL d   1       0.290   5.306   1.924  1.00  0.00     0.164 HD
BRANCH  11  16
ATOM     16  C   UNL d   1       2.347   4.962  -2.084  0.00  0.00    -0.066 C 
ATOM     17  C   UNL d   1       3.033   5.471  -2.934  0.00  0.00    -0.101 C 
BRANCH  17  18
ATOM     18  C   UNL d   1       3.863   6.138  -3.943  0.00  0.00     0.094 C 
BRANCH  18  19
ATOM     19  C   UNL d   1       3.185   7.419  -4.425  0.00  0.00     0.012 C 
BRANCH  19  20
ATOM     20  C   UNL d   1       4.034   8.140  -5.469  0.00  0.00     0.001 C 
BRANCH  20  21
ATOM     21  C   UNL d   1       3.343   9.413  -5.957  0.00  0.00    -0.000 C 
BRANCH  21  22
ATOM     22  C   UNL d   1       4.191  10.133  -7.004  0.00  0.00    -0.005 C 
ATOM     23  C   UNL d   1       3.507  11.398  -7.496  0.00  0.00     0.005 C 
ENDBRANCH  21  22
ENDBRANCH  20  21
ENDBRANCH  19  20
ENDBRANCH  18  19
ENDBRANCH  17  18
ENDBRANCH  11  16
ENDBRANCH   2   9
BRANCH   5  24
ATOM     24  S   UNL d   1      -2.754  -1.613  -0.032  0.00  0.00    -0.083 SA
BRANCH  24  25
ATOM     25  C   UNL d   1      -2.403  -2.824  -1.333  0.00  0.00     0.185 C 
BRANCH  25  26
ATOM     26  C   UNL d   1      -2.438  -2.220  -2.731  0.00  0.00     0.231 C 
ATOM     27  N   UNL d   1      -1.267  -1.581  -3.106  0.00  0.00    -0.327 N 
ATOM     28  H   UNL d   1      -0.531  -1.511  -2.402  0.00  0.00     0.169 HD
ATOM     29  O   UNL d   1      -3.428  -2.385  -3.442  0.00  0.00    -0.272 OA
BRANCH  27  30
ATOM     30  C   UNL d   1      -0.943  -1.078  -4.383  0.00  0.00     0.034 A 
ATOM     31  C   UNL d   1      -1.864  -0.963  -5.426  0.00  0.00     0.029 A 
ATOM     32  C   UNL d   1      -1.451  -0.560  -6.699  0.00  0.00     0.002 A 
ATOM     33  C   UNL d   1      -0.113  -0.263  -6.939  0.00  0.00     0.000 A 
ATOM     34  C   UNL d   1       0.807  -0.328  -5.895  0.00  0.00     0.002 A 
ATOM     35  C   UNL d   1       0.391  -0.718  -4.618  0.00  0.00     0.029 A 
ENDBRANCH  27  30
ENDBRANCH  25  26
ENDBRANCH  24  25
ENDBRANCH   5  24
TORSDOF 11
