REMARK  2 active torsions:
REMARK  status: ('A' for Active; 'I' for Inactive)
REMARK    1  A    between atoms: C_2  and  C_6 
REMARK    2  A    between atoms: C_10  and  N_7 
ROOT
ATOM      1  C   UNL d   1       4.963   3.738   0.612  0.00  0.00     0.050 A 
ATOM      2  C   UNL d   1       4.553   2.426   0.308  0.00  0.00     0.045 A 
ATOM      3  C   UNL d   1       3.263   1.974   0.618  0.00  0.00     0.034 A 
ATOM      4  C   UNL d   1       4.059   4.609   1.233  0.00  0.00     0.016 A 
ATOM      5  C   UNL d   1       2.773   4.178   1.541  0.00  0.00     0.003 A 
ATOM      6  C   UNL d   1       2.381   2.876   1.228  0.00  0.00     0.029 A 
ENDROOT
BRANCH   3   7
ATOM      7  N   UNL d   1       2.876   0.681   0.229  0.00  0.00    -0.337 N 
ATOM      8  C   UNL d   1       1.606   0.231   0.027  0.00  0.00     0.141 C 
ATOM      9  N   UNL d   1       0.525   0.921  -0.118  0.00  0.00    -0.369 N 
ATOM     10  S   UNL d   1       1.442  -1.510  -0.106  0.00  0.00    -0.083 SA
ATOM     11  C   UNL d   1      -0.646   0.050  -0.282  0.00  0.00     0.142 C 
ATOM     12  HN  UNL d   1       0.488   1.940  -0.120  1.00  0.00     0.161 HD
ATOM     13  C   UNL d   1      -0.221  -1.317  -0.821  0.00  0.00     0.024 C 
ATOM     14  C   UNL d   1      -0.109  -1.322  -2.348  0.00  0.00     0.029 C 
ATOM     15  C   UNL d   1      -1.162  -2.418  -0.340  0.00  0.00     0.029 C 
ATOM     16  H   UNL d   1       3.609  -0.010   0.172  0.00  0.00     0.168 HD
ENDBRANCH   3   7
BRANCH   1  17
ATOM     17  C   UNL d   1       6.351   4.222   0.273  0.00  0.00     0.417 C 
ATOM     18  F   UNL d   1       7.125   3.278  -0.332  0.00  0.00    -0.166 F 
ATOM     19  F   UNL d   1       6.341   5.292  -0.569  0.00  0.00    -0.166 F 
ATOM     20  F   UNL d   1       7.044   4.620   1.376  0.00  0.00    -0.166 F 
ENDBRANCH   1  17
TORSDOF 2
