REMARK  3 active torsions:
REMARK  status: ('A' for Active; 'I' for Inactive)
REMARK    1  A    between atoms: C_6  and  C_2 
REMARK    2  A    between atoms: C_16  and  N_5 
REMARK    3  A    between atoms: C_14  and  C_10 
ROOT
ATOM      1  N   UNL d   1      -0.706   1.199   0.044  0.00  0.00    -0.270 N 
ATOM      2  C   UNL d   1       1.424   0.008  -0.015  0.00  0.00     0.082 A 
ATOM      3  C   UNL d   1      -1.436   0.013   0.045  0.00  0.00     0.335 A 
ATOM      4  C   UNL d   1       0.674   1.290  -0.037  0.00  0.00     0.265 A 
ATOM      5  N   UNL d   1      -0.669  -1.169   0.001  0.00  0.00    -0.274 N 
ATOM      6  C   UNL d   1       0.716  -1.129  -0.045  0.00  0.00     0.122 A 
ATOM      7  O   UNL d   1      -2.670   0.024   0.036  0.00  0.00    -0.246 OA
ATOM      8  O   UNL d   1       1.251   2.373  -0.151  0.00  0.00    -0.267 OA
ATOM      9  C   UNL d   1      -1.435   2.456   0.011  0.00  0.00     0.164 C 
ENDROOT
BRANCH   2  10
ATOM     10  C   UNL d   1       2.854  -0.039  -0.023  0.00  0.00     0.091 A 
ATOM     11  N   UNL d   1       3.593  -0.958  -0.626  0.00  0.00    -0.352 N 
ATOM     12  C   UNL d   1       4.953  -0.695  -0.499  0.00  0.00     0.024 A 
ATOM     13  HN  UNL d   1       3.210  -1.762  -1.123  1.00  0.00     0.166 HD
ATOM     14  C   UNL d   1       5.238   0.419   0.267  0.00  0.00     0.077 A 
ATOM     15  S   UNL d   1       3.802   1.109   0.873  0.00  0.00    -0.081 SA
BRANCH  12  16
ATOM     16  C   UNL d   1       5.964  -1.593  -1.196  0.00  0.00    -0.008 C 
ATOM     17  C   UNL d   1       5.268  -2.772  -1.907  0.00  0.00     0.021 C 
ATOM     18  C   UNL d   1       6.742  -0.785  -2.254  0.00  0.00     0.021 C 
ATOM     19  C   UNL d   1       6.962  -2.173  -0.174  0.00  0.00     0.021 C 
ENDBRANCH  12  16
ENDBRANCH   2  10
BRANCH   5  20
ATOM     20  C   UNL d   1      -1.370  -2.420  -0.013  0.00  0.00     0.043 A 
ATOM     21  C   UNL d   1      -1.075  -3.395  -0.976  0.00  0.00     0.030 A 
ATOM     22  C   UNL d   1      -1.828  -4.572  -1.037  0.00  0.00     0.002 A 
ATOM     23  C   UNL d   1      -2.847  -4.805  -0.114  0.00  0.00     0.000 A 
ATOM     24  C   UNL d   1      -3.117  -3.862   0.874  0.00  0.00     0.002 A 
ATOM     25  C   UNL d   1      -2.389  -2.672   0.917  0.00  0.00     0.030 A 
ENDBRANCH   5  20
TORSDOF 3
