REMARK  3 active torsions:
REMARK  status: ('A' for Active; 'I' for Inactive)
REMARK    1  A    between atoms: C_2  and  C_1 
REMARK       I    between atoms: N_3  and  C_1 
REMARK    2  A    between atoms: C_4  and  N_3 
REMARK       I    between atoms: C_6  and  N_7 
REMARK    3  A    between atoms: N_7  and  C_9 
ROOT
ATOM      1  C   UNL d   1      -1.090   1.213   0.348  0.00  0.00     0.043 A 
ATOM      2  C   UNL d   1      -1.682   2.265  -0.366  0.00  0.00     0.059 A 
ATOM      3  C   UNL d   1      -3.067   2.395  -0.444  0.00  0.00     0.036 A 
ATOM      4  C   UNL d   1      -1.885   0.328   1.089  0.00  0.00    -0.035 A 
ATOM      5  C   UNL d   1      -3.280   0.459   1.004  0.00  0.00     0.011 A 
ATOM      6  C   UNL d   1      -3.864   1.473   0.238  0.00  0.00     0.030 A 
ATOM      7  C   UNL d   1      -1.334  -0.705   2.033  0.00  0.00     0.050 C 
ENDROOT
BRANCH   1   8
ATOM      8  N   UNL d   1       0.317   1.154   0.296  0.00  0.00    -0.322 N 
ATOM      9  C   UNL d   1       1.025   0.019  -0.050  0.00  0.00     0.257 C 
ATOM     10  O   UNL d   1       0.520  -1.069  -0.316  0.00  0.00    -0.267 OA
ATOM     11  H   UNL d   1       0.777   2.031   0.076  0.00  0.00     0.169 HD
BRANCH   9  12
ATOM     12  C   UNL d   1       2.518   0.146  -0.071  0.00  0.00     0.054 A 
ATOM     13  C   UNL d   1       3.244   1.341  -0.202  0.00  0.00     0.049 A 
ATOM     14 CL   UNL d   1       2.533   2.873  -0.577  0.00  0.00    -0.083 Cl
ATOM     15  C   UNL d   1       4.639   1.334  -0.067  0.00  0.00     0.025 A 
ATOM     16  C   UNL d   1       5.323   0.143   0.169  0.00  0.00     0.002 A 
ATOM     17  C   UNL d   1       4.621  -1.054   0.239  0.00  0.00     0.001 A 
ATOM     18  C   UNL d   1       3.231  -1.054   0.116  0.00  0.00     0.019 A 
ENDBRANCH   9  12
ENDBRANCH   1   8
BRANCH   3  19
ATOM     19  N   UNL d   1      -3.718   3.399  -1.193  0.00  0.00    -0.327 N 
ATOM     20  C   UNL d   1      -3.128   4.411  -1.929  0.00  0.00     0.218 C 
ATOM     21  O   UNL d   1      -1.925   4.639  -2.041  0.00  0.00    -0.274 OA
ATOM     22  C   UNL d   1      -4.125   5.292  -2.639  0.00  0.00     0.117 C 
ATOM     23  H   UNL d   1      -4.728   3.362  -1.189  0.00  0.00     0.169 HD
ENDBRANCH   3  19
TORSDOF 3
