REMARK  3 active torsions:
REMARK  status: ('A' for Active; 'I' for Inactive)
REMARK    1  A    between atoms: N_2  and  S_1 
REMARK    2  A    between atoms: C_3  and  S_1 
REMARK    3  A    between atoms: C_6  and  N_2 
ROOT
ATOM      1  N   UNL d   1       2.185   2.860  -0.149  0.00  0.00    -0.346 N 
ATOM      2  HN  UNL d   1       2.845   2.083  -0.143  1.00  0.00     0.167 HD
ATOM      3  C   UNL d   1       0.910   2.692  -0.534  0.00  0.00     0.094 A 
ATOM      4  C   UNL d   1       2.555   4.095   0.227  0.00  0.00     0.043 A 
ATOM      5  C   UNL d   1       1.657   5.185   0.245  0.00  0.00    -0.009 A 
ATOM      6  C   UNL d   1       0.331   4.953  -0.144  0.00  0.00     0.017 A 
ATOM      7  C   UNL d   1      -0.051   3.683  -0.555  0.00  0.00     0.044 A 
ATOM      8  C   UNL d   1       3.873   4.322   0.597  0.00  0.00     0.030 A 
ATOM      9  C   UNL d   1       2.101   6.461   0.632  0.00  0.00     0.013 A 
ATOM     10  C   UNL d   1       4.320   5.592   0.976  0.00  0.00     0.002 A 
ATOM     11  C   UNL d   1       3.432   6.662   0.993  0.00  0.00     0.001 A 
ENDROOT
BRANCH   3  12
ATOM     12  N   UNL d   1       0.665   1.397  -1.031  0.00  0.00    -0.166 NA
ATOM     13  H   UNL d   1       1.327   0.744  -0.614  0.00  0.00     0.147 HD
BRANCH  12  14
ATOM     14  S   UNL d   1       0.788   1.288  -2.715  0.00  0.00     0.253 S 
ATOM     15  O   UNL d   1      -0.054   2.296  -3.324  0.00  0.00    -0.205 OA
ATOM     16  O   UNL d   1       0.644  -0.110  -3.061  0.00  0.00    -0.205 OA
BRANCH  14  17
ATOM     17  C   UNL d   1       2.447   1.721  -3.208  0.00  0.00     0.115 A 
ATOM     18  S   UNL d   1       3.707   0.743  -2.583  0.00  0.00    -0.089 SA
ATOM     19  C   UNL d   1       4.904   1.652  -3.403  0.00  0.00     0.051 A 
ATOM     20  C   UNL d   1       4.360   2.685  -4.134  0.00  0.00     0.009 A 
ATOM     21  C   UNL d   1       2.940   2.727  -4.017  0.00  0.00     0.033 A 
ENDBRANCH  14  17
ENDBRANCH  12  14
ENDBRANCH   3  12
TORSDOF 3
