REMARK  6 active torsions:
REMARK  status: ('A' for Active; 'I' for Inactive)
REMARK    1  A    between atoms: C_4  and  N_1 
REMARK    2  A    between atoms: C_3  and  O_5 
REMARK    3  A    between atoms: C_10  and  C_3 
REMARK    4  A    between atoms: O_5  and  C_8 
REMARK    5  A    between atoms: O_23  and  C_9 
REMARK    6  A    between atoms: C_20  and  C_11 
ROOT
ATOM      1  C   UNL d   1       4.651   2.817  -2.234  0.00  0.00     0.112 A 
ATOM      2  C   UNL d   1       5.227   1.547  -2.043  0.00  0.00     0.102 A 
ATOM      3  C   UNL d   1       4.512   0.578  -1.334  0.00  0.00     0.052 A 
ATOM      4  C   UNL d   1       3.357   3.088  -1.782  0.00  0.00     0.041 A 
ATOM      5  C   UNL d   1       3.240   0.876  -0.834  0.00  0.00    -0.018 A 
ATOM      6  C   UNL d   1       2.654   2.118  -1.069  0.00  0.00     0.016 A 
ENDROOT
BRANCH   5   7
ATOM      7  C   UNL d   1       2.488  -0.125  -0.058  0.00  0.00     0.100 C 
ATOM      8  N   UNL d   1       2.721  -1.392  -0.189  0.00  0.00    -0.364 N 
ATOM      9  HN  UNL d   1       3.465  -1.731  -0.800  1.00  0.00     0.165 HD
BRANCH   8  10
ATOM     10  C   UNL d   1       1.912  -2.287   0.541  0.00  0.00     0.043 A 
ATOM     11  C   UNL d   1       0.516  -2.371   0.338  0.00  0.00    -0.034 A 
ATOM     12  C   UNL d   1      -0.237  -3.314   1.061  0.00  0.00     0.015 A 
ATOM     13  C   UNL d   1      -0.235  -1.479  -0.614  0.00  0.00     0.050 C 
ATOM     14  C   UNL d   1       0.373  -4.211   1.939  0.00  0.00    -0.061 A 
ATOM     15  C   UNL d   1       1.755  -4.142   2.119  0.00  0.00     0.015 A 
ATOM     16  C   UNL d   1      -0.457  -5.234   2.655  0.00  0.00     0.048 C 
ATOM     17  C   UNL d   1       2.530  -3.186   1.437  0.00  0.00    -0.034 A 
ATOM     18  C   UNL d   1       4.021  -3.215   1.639  0.00  0.00     0.050 C 
ENDBRANCH   8  10
ENDBRANCH   5   7
BRANCH   2  19
ATOM     19  O   UNL d   1       6.492   1.357  -2.542  0.00  0.00    -0.353 OA
ATOM     20  C   UNL d   1       6.876   0.003  -2.763  0.00  0.00     0.210 C 
ENDBRANCH   2  19
BRANCH   1  21
ATOM     21  O   UNL d   1       5.461   3.784  -2.894  0.00  0.00    -0.272 OA
BRANCH  21  22
ATOM     22  C   UNL d   1       5.192   5.142  -2.978  0.00  0.00     0.298 C 
ATOM     23  O   UNL d   1       4.182   5.725  -2.612  0.00  0.00    -0.259 OA
BRANCH  22  24
ATOM     24  C   UNL d   1       6.345   5.863  -3.582  0.00  0.00     0.040 A 
ATOM     25  C   UNL d   1       6.184   7.230  -3.867  0.00  0.00     0.019 A 
ATOM     26  C   UNL d   1       7.238   7.972  -4.404  0.00  0.00     0.025 A 
ATOM     27  C   UNL d   1       8.458   7.353  -4.659  0.00  0.00     0.034 A 
ATOM     28  C   UNL d   1       8.631   5.997  -4.379  0.00  0.00     0.025 A 
ATOM     29 CL   UNL d   1       9.759   8.265  -5.317  0.00  0.00    -0.084 Cl
ATOM     30  C   UNL d   1       7.578   5.250  -3.841  0.00  0.00     0.019 A 
ENDBRANCH  22  24
ENDBRANCH  21  22
ENDBRANCH   1  21
TORSDOF 6
