REMARK  8 active torsions:
REMARK  status: ('A' for Active; 'I' for Inactive)
REMARK    1  A    between atoms: C_2  and  C_1 
REMARK    2  A    between atoms: C_3  and  C_1 
REMARK    3  A    between atoms: N_4  and  C_1 
REMARK    4  A    between atoms: O_8  and  C_2 
REMARK    5  A    between atoms: O_9  and  C_3 
REMARK    6  A    between atoms: C_7  and  N_4 
REMARK    7  A    between atoms: C_10  and  O_8 
REMARK    8  A    between atoms: C_11  and  O_9 
ROOT
ATOM      1  C   UNL d   1       0.985   0.139  -0.008  0.00  0.00     0.283 C 
ENDROOT
BRANCH   1   2
ATOM      2  C   UNL d   1       0.499   0.463   1.403  0.00  0.00     0.291 C 
ATOM      3  O   UNL d   1       1.049   1.218   2.191  0.00  0.00    -0.262 OA
BRANCH   2   4
ATOM      4  O   UNL d   1      -0.653  -0.230   1.660  0.00  0.00    -0.320 OA
BRANCH   4   5
ATOM      5  C   UNL d   1      -1.072  -0.268   3.031  0.00  0.00     0.174 C 
ATOM      6  C   UNL d   1      -0.452  -1.500   3.661  0.00  0.00     0.034 C 
ENDBRANCH   4   5
ENDBRANCH   2   4
ENDBRANCH   1   2
BRANCH   1   7
ATOM      7  C   UNL d   1       0.504   1.237  -0.948  0.00  0.00     0.291 C 
ATOM      8  O   UNL d   1       1.234   2.056  -1.500  0.00  0.00    -0.262 OA
BRANCH   7   9
ATOM      9  O   UNL d   1      -0.858   1.228  -1.048  0.00  0.00    -0.320 OA
BRANCH   9  10
ATOM     10  C   UNL d   1      -1.423   2.393  -1.663  0.00  0.00     0.174 C 
ATOM     11  C   UNL d   1      -1.569   3.472  -0.603  0.00  0.00     0.034 C 
ENDBRANCH   9  10
ENDBRANCH   7   9
ENDBRANCH   1   7
BRANCH   1  12
ATOM     12  N   UNL d   1       2.466   0.072  -0.069  0.00  0.00    -0.368 N 
ATOM     13  H   UNL d   1       2.887   1.000  -0.004  0.00  0.00     0.161 HD
BRANCH  12  14
ATOM     14  C   UNL d   1       3.224  -0.934   0.509  0.00  0.00     0.029 A 
ATOM     15  C   UNL d   1       2.719  -2.183   0.883  0.00  0.00     0.029 A 
ATOM     16  C   UNL d   1       3.571  -3.203   1.325  0.00  0.00     0.002 A 
ATOM     17  C   UNL d   1       4.946  -2.993   1.387  0.00  0.00     0.000 A 
ATOM     18  C   UNL d   1       5.469  -1.760   1.015  0.00  0.00     0.002 A 
ATOM     19  C   UNL d   1       4.614  -0.749   0.574  0.00  0.00     0.029 A 
ENDBRANCH  12  14
ENDBRANCH   1  12
TORSDOF 8
