REMARK  6 active torsions:
REMARK  status: ('A' for Active; 'I' for Inactive)
REMARK    1  A    between atoms: N_2  and  C_1 
REMARK    2  A    between atoms: N_5  and  C_1 
REMARK    3  A    between atoms: C_7  and  N_2 
REMARK    4  A    between atoms: C_10  and  N_5 
REMARK    5  A    between atoms: O_19  and  C_14 
REMARK    6  A    between atoms: C_20  and  O_19 
ROOT
ATOM      1  C   UNL d   1       0.929  -0.043  -0.048  0.00  0.00     0.176 C 
ATOM      2  S   UNL d   1       0.424  -1.627  -0.276  0.00  0.00    -0.041 SA
ENDROOT
BRANCH   1   3
ATOM      3  N   UNL d   1       2.238   0.355   0.237  0.00  0.00    -0.333 N 
ATOM      4  H   UNL d   1       2.277   1.078   0.946  0.00  0.00     0.168 HD
BRANCH   3   5
ATOM      5  C   UNL d   1       3.425  -0.378   0.030  0.00  0.00     0.035 A 
ATOM      6  C   UNL d   1       3.623  -1.165  -1.110  0.00  0.00     0.055 A 
ATOM      7  C   UNL d   1       4.820  -1.867  -1.292  0.00  0.00     0.058 A 
ATOM      8 CL   UNL d   1       4.987  -2.806  -2.732  0.00  0.00    -0.082 Cl
ATOM      9  C   UNL d   1       5.831  -1.778  -0.332  0.00  0.00     0.055 A 
ATOM     10  C   UNL d   1       5.650  -0.966   0.791  0.00  0.00     0.028 A 
ATOM     11 CL   UNL d   1       7.327  -2.630  -0.479  0.00  0.00    -0.083 Cl
ATOM     12  C   UNL d   1       4.458  -0.254   0.962  0.00  0.00     0.031 A 
ENDBRANCH   3   5
ENDBRANCH   1   3
BRANCH   1  13
ATOM     13  N   UNL d   1       0.115   1.092  -0.106  0.00  0.00    -0.333 N 
ATOM     14  H   UNL d   1       0.551   1.868  -0.590  0.00  0.00     0.168 HD
BRANCH  13  15
ATOM     15  C   UNL d   1      -1.290   1.152   0.010  0.00  0.00     0.034 A 
ATOM     16  C   UNL d   1      -1.994   0.345   0.905  0.00  0.00     0.032 A 
ATOM     17  C   UNL d   1      -3.386   0.435   1.004  0.00  0.00     0.039 A 
ATOM     18  C   UNL d   1      -4.090   1.340   0.213  0.00  0.00     0.068 A 
ATOM     19  C   UNL d   1      -3.382   2.175  -0.655  0.00  0.00     0.039 A 
ATOM     20  C   UNL d   1      -1.987   2.097  -0.745  0.00  0.00     0.032 A 
BRANCH  18  21
ATOM     21  O   UNL d   1      -5.448   1.504   0.203  0.00  0.00    -0.352 OA
BRANCH  21  22
ATOM     22  C   UNL d   1      -6.197   0.654   1.073  0.00  0.00     0.171 C 
ATOM     23  C   UNL d   1      -7.672   0.954   0.889  0.00  0.00     0.034 C 
ENDBRANCH  21  22
ENDBRANCH  18  21
ENDBRANCH  13  15
ENDBRANCH   1  13
TORSDOF 6
