REMARK  1 active torsions:
REMARK  status: ('A' for Active; 'I' for Inactive)
REMARK    1  A    between atoms: C_5  and  C_1 
ROOT
ATOM      1  C   UNL d   1       2.283   0.119  -0.083  0.00  0.00     0.239 C 
ATOM      2  N   UNL d   1       1.441   1.318  -0.224  0.00  0.00    -0.260 NA
ATOM      3  O   UNL d   1       1.492  -1.100  -0.072  0.00  0.00    -0.324 OA
ATOM      4  C   UNL d   1       0.163   0.750  -0.070  0.00  0.00     0.044 A 
ATOM      5  C   UNL d   1       0.209  -0.631  -0.025  0.00  0.00     0.092 A 
ATOM      6  C   UNL d   1      -1.045   1.415  -0.034  0.00  0.00     0.026 A 
ATOM      7  C   UNL d   1      -0.925  -1.410   0.051  0.00  0.00     0.039 A 
ATOM      8  C   UNL d   1      -2.155  -0.753   0.086  0.00  0.00     0.003 A 
ATOM      9  C   UNL d   1      -2.215   0.651   0.049  0.00  0.00     0.002 A 
ATOM     10  H   UNL d   1       1.614   2.018   0.489  0.00  0.00     0.130 HD
ENDROOT
BRANCH   1  11
ATOM     11  C   UNL d   1       3.272   0.047  -1.231  0.00  0.00    -0.013 A 
ATOM     12  C   UNL d   1       4.655   0.073  -0.991  0.00  0.00     0.036 A 
ATOM     13  C   UNL d   1       5.566  -0.009  -2.052  0.00  0.00     0.056 A 
ATOM     14 CL   UNL d   1       7.250   0.026  -1.665  0.00  0.00    -0.083 Cl
ATOM     15  C   UNL d   1       5.101  -0.118  -3.368  0.00  0.00     0.055 A 
ATOM     16  C   UNL d   1       3.728  -0.141  -3.618  0.00  0.00     0.026 A 
ATOM     17 CL   UNL d   1       6.168  -0.228  -4.722  0.00  0.00    -0.083 Cl
ATOM     18  C   UNL d   1       2.823  -0.058  -2.558  0.00  0.00     0.013 A 
ENDBRANCH   1  11
TORSDOF 1
