REMARK  7 active torsions:
REMARK  status: ('A' for Active; 'I' for Inactive)
REMARK    1  A    between atoms: C_2  and  C_1 
REMARK    2  A    between atoms: C_3  and  O_10 
REMARK    3  A    between atoms: C_6  and  C_20 
REMARK       I    between atoms: N_9  and  C_6 
REMARK    4  A    between atoms: S_11  and  C_7 
REMARK    5  A    between atoms: C_21  and  N_9 
REMARK    6  A    between atoms: O_10  and  C_22 
REMARK    7  A    between atoms: C_20  and  S_11 
ROOT
ATOM      1  C   UNL d   1      -0.471  -8.108   0.058  0.00  0.00     0.231 C 
ATOM      2  N   UNL d   1      -1.688  -8.269  -0.588  0.00  0.00    -0.327 N 
ATOM      3  O   UNL d   1       0.212  -9.020   0.533  0.00  0.00    -0.272 OA
ATOM      4  H   UNL d   1      -2.079  -7.446  -1.033  0.00  0.00     0.169 HD
ENDROOT
BRANCH   1   5
ATOM      5  C   UNL d   1       0.105  -6.706   0.034  0.00  0.00     0.184 C 
BRANCH   5   6
ATOM      6  S   UNL d   1      -1.093  -5.422   0.495  0.00  0.00    -0.103 SA
BRANCH   6   7
ATOM      7  C   UNL d   1      -0.050  -3.985   0.293  0.00  0.00     0.070 A 
ATOM      8  C   UNL d   1      -0.567  -2.720   0.540  0.00  0.00     0.038 A 
ATOM      9  C   UNL d   1       0.218  -1.605   0.244  0.00  0.00     0.020 A 
ATOM     10  C   UNL d   1       1.498  -1.777  -0.289  0.00  0.00     0.063 A 
ATOM     11  C   UNL d   1       1.953  -3.076  -0.441  0.00  0.00     0.105 A 
ATOM     12  N   UNL d   1       1.207  -4.171  -0.168  0.00  0.00    -0.360 N 
ATOM     13  HN  UNL d   1       1.582  -5.110  -0.306  1.00  0.00     0.166 HD
BRANCH  10  14
ATOM     14  C   UNL d   1       2.333  -0.617  -0.740  0.00  0.00     0.418 C 
ATOM     15  F   UNL d   1       3.524  -0.982  -1.289  0.00  0.00    -0.166 F 
ATOM     16  F   UNL d   1       2.635   0.242   0.273  0.00  0.00    -0.166 F 
ATOM     17  F   UNL d   1       1.701   0.129  -1.686  0.00  0.00    -0.166 F 
ENDBRANCH  10  14
ENDBRANCH   6   7
ENDBRANCH   5   6
ENDBRANCH   1   5
BRANCH   2  18
ATOM     18  C   UNL d   1      -2.346  -9.505  -0.809  0.00  0.00     0.034 A 
ATOM     19  C   UNL d   1      -1.996 -10.682  -0.150  0.00  0.00     0.032 A 
ATOM     20  C   UNL d   1      -2.598 -11.902  -0.475  0.00  0.00     0.039 A 
ATOM     21  C   UNL d   1      -3.539 -11.964  -1.495  0.00  0.00     0.078 A 
ATOM     22  C   UNL d   1      -3.968 -10.775  -2.087  0.00  0.00     0.039 A 
ATOM     23  C   UNL d   1      -3.383  -9.548  -1.745  0.00  0.00     0.032 A 
BRANCH  21  24
ATOM     24  O   UNL d   1      -4.140 -13.106  -1.925  0.00  0.00    -0.255 OA
BRANCH  24  25
ATOM     25  C   UNL d   1      -3.347 -14.284  -2.046  0.00  0.00     0.530 C 
ATOM     26  F   UNL d   1      -2.050 -14.131  -1.705  0.00  0.00    -0.144 F 
ATOM     27  F   UNL d   1      -3.881 -15.255  -1.272  0.00  0.00    -0.144 F 
ATOM     28  F   UNL d   1      -3.388 -14.704  -3.331  0.00  0.00    -0.144 F 
ENDBRANCH  24  25
ENDBRANCH  21  24
ENDBRANCH   2  18
TORSDOF 7
