REMARK  6 active torsions:
REMARK  status: ('A' for Active; 'I' for Inactive)
REMARK    1  A    between atoms: N_3  and  S_1 
REMARK    2  A    between atoms: C_6  and  S_1 
REMARK    3  A    between atoms: C_2  and  C_5 
REMARK    4  A    between atoms: C_5  and  N_3 
REMARK    5  A    between atoms: S_7  and  C_4 
REMARK    6  A    between atoms: C_13  and  S_7 
ROOT
ATOM      1  C   UNL d   1       0.520   2.222   3.266  0.00  0.00    -0.001 A 
ATOM      2  C   UNL d   1      -0.284   1.884   4.385  0.00  0.00     0.015 A 
ATOM      3  C   UNL d   1       0.946   3.562   3.139  0.00  0.00     0.043 A 
ATOM      4 CL   UNL d   1       2.044   4.085   1.905  0.00  0.00    -0.084 Cl
ATOM      5  C   UNL d   1      -0.643   2.879   5.313  0.00  0.00     0.019 A 
ATOM      6  C   UNL d   1      -0.252   4.203   5.136  0.00  0.00     0.003 A 
ATOM      7  C   UNL d   1       0.545   4.543   4.052  0.00  0.00     0.024 A 
ENDROOT
BRANCH   1   8
ATOM      8  C   UNL d   1       0.923   1.184   2.243  0.00  0.00     0.174 C 
BRANCH   8   9
ATOM      9  N   UNL d   1      -0.177   0.529   1.527  0.00  0.00    -0.311 N 
ATOM     10  H   UNL d   1       0.036  -0.371   1.104  0.00  0.00     0.172 HD
BRANCH   9  11
ATOM     11  S   UNL d   1      -1.303   1.402   0.642  0.00  0.00     0.259 S 
ATOM     12  O   UNL d   1      -1.840   2.467   1.459  0.00  0.00    -0.201 OA
ATOM     13  O   UNL d   1      -2.164   0.422   0.013  0.00  0.00    -0.201 OA
BRANCH  11  14
ATOM     14  C   UNL d   1      -0.314   2.118  -0.643  0.00  0.00     0.079 A 
ATOM     15  C   UNL d   1       0.222   1.286  -1.631  0.00  0.00     0.026 A 
ATOM     16  C   UNL d   1       1.006   1.839  -2.642  0.00  0.00     0.008 A 
ATOM     17  C   UNL d   1       1.254   3.218  -2.674  0.00  0.00    -0.062 A 
ATOM     18  C   UNL d   1       0.692   4.042  -1.690  0.00  0.00     0.008 A 
ATOM     19  C   UNL d   1       2.100   3.799  -3.769  0.00  0.00     0.048 C 
ATOM     20  C   UNL d   1      -0.103   3.497  -0.683  0.00  0.00     0.026 A 
ENDBRANCH  11  14
ENDBRANCH   9  11
ENDBRANCH   8   9
ENDBRANCH   1   8
BRANCH   2  21
ATOM     21  S   UNL d   1      -0.701   0.191   4.806  0.00  0.00    -0.090 SA
BRANCH  21  22
ATOM     22  C   UNL d   1      -2.425  -0.051   4.400  0.00  0.00     0.005 A 
ATOM     23  C   UNL d   1      -2.851  -1.385   4.268  0.00  0.00     0.020 A 
ATOM     24  C   UNL d   1      -4.191  -1.700   4.023  0.00  0.00     0.025 A 
ATOM     25  C   UNL d   1      -5.128  -0.679   3.914  0.00  0.00     0.034 A 
ATOM     26  C   UNL d   1      -4.728   0.649   4.037  0.00  0.00     0.025 A 
ATOM     27 CL   UNL d   1      -6.783  -1.062   3.642  0.00  0.00    -0.084 Cl
ATOM     28  C   UNL d   1      -3.381   0.962   4.275  0.00  0.00     0.020 A 
ENDBRANCH  21  22
ENDBRANCH   2  21
TORSDOF 6
