REMARK  4 active torsions:
REMARK  status: ('A' for Active; 'I' for Inactive)
REMARK    1  A    between atoms: C_8  and  C_1 
REMARK    2  A    between atoms: C_7  and  C_4 
REMARK    3  A    between atoms: O_14  and  C_8 
REMARK    4  A    between atoms: C_18  and  O_14 
ROOT
ATOM      1  C   UNL d   1      -0.529  -1.413  -0.040  0.00  0.00     0.067 C 
ATOM      2  C   UNL d   1      -1.443  -0.411  -0.083  0.00  0.00     0.026 C 
ATOM      3  C   UNL d   1       0.353   1.268  -0.184  0.00  0.00     0.323 C 
ATOM      4  C   UNL d   1       0.955  -1.137   0.003  0.00  0.00     0.162 C 
ATOM      5  N   UNL d   1      -0.990   0.921  -0.104  0.00  0.00    -0.308 N 
ATOM      6  N   UNL d   1       1.240   0.250  -0.269  0.00  0.00    -0.330 N 
ATOM      7  O   UNL d   1       0.770   2.424  -0.202  0.00  0.00    -0.247 OA
ATOM      8  C   UNL d   1      -2.943  -0.614  -0.096  0.00  0.00     0.069 C 
ATOM      9  C   UNL d   1      -1.894   2.066  -0.051  0.00  0.00     0.161 C 
ATOM     10  H   UNL d   1       2.205   0.552  -0.283  0.00  0.00     0.165 HD
ENDROOT
BRANCH   4  11
ATOM     11  C   UNL d   1       1.616  -1.528   1.324  0.00  0.00    -0.009 A 
ATOM     12  C   UNL d   1       2.707  -2.413   1.399  0.00  0.00     0.042 A 
ATOM     13 CL   UNL d   1       3.429  -3.128   0.001  0.00  0.00    -0.084 Cl
ATOM     14  C   UNL d   1       3.271  -2.749   2.637  0.00  0.00     0.024 A 
ATOM     15  C   UNL d   1       2.771  -2.196   3.814  0.00  0.00     0.002 A 
ATOM     16  C   UNL d   1       1.708  -1.302   3.759  0.00  0.00     0.001 A 
ATOM     17  C   UNL d   1       1.137  -0.971   2.529  0.00  0.00     0.011 A 
ENDBRANCH   4  11
BRANCH   1  18
ATOM     18  C   UNL d   1      -0.906  -2.856   0.079  0.00  0.00     0.293 C 
ATOM     19  O   UNL d   1      -1.964  -3.262   0.538  0.00  0.00    -0.259 OA
BRANCH  18  20
ATOM     20  O   UNL d   1       0.124  -3.662  -0.290  0.00  0.00    -0.318 OA
BRANCH  20  21
ATOM     21  C   UNL d   1       0.052  -5.026   0.158  0.00  0.00     0.174 C 
ATOM     22  C   UNL d   1      -0.076  -5.971  -1.020  0.00  0.00     0.034 C 
ENDBRANCH  20  21
ENDBRANCH  18  20
ENDBRANCH   1  18
TORSDOF 4
