REMARK  6 active torsions:
REMARK  status: ('A' for Active; 'I' for Inactive)
REMARK    1  A    between atoms: S_9  and  C_3 
REMARK    2  A    between atoms: O_10  and  C_4 
REMARK    3  A    between atoms: C_19  and  C_8 
REMARK    4  A    between atoms: C_11  and  S_9 
REMARK    5  A    between atoms: C_13  and  C_11 
REMARK    6  A    between atoms: C_20  and  C_19 
ROOT
ATOM      1  N   UNL d   1      -0.324  -1.215   0.050  0.00  0.00    -0.318 N 
ATOM      2  HN  UNL d   1      -0.877  -2.072   0.046  1.00  0.00     0.170 HD
ATOM      3  C   UNL d   1       1.018  -1.223   0.059  0.00  0.00     0.146 A 
ATOM      4  C   UNL d   1      -0.880  -0.005   0.047  0.00  0.00     0.143 A 
ATOM      5  N   UNL d   1       1.796  -0.125   0.059  0.00  0.00    -0.340 N 
ATOM      6  HN  UNL d   1       2.814  -0.194   0.069  1.00  0.00     0.167 HD
ATOM      7  C   UNL d   1      -0.206   1.184   0.047  0.00  0.00     0.081 A 
ATOM      8  C   UNL d   1       1.167   1.076   0.046  0.00  0.00     0.015 A 
ENDROOT
BRANCH   3   9
ATOM      9  S   UNL d   1       1.780  -2.822  -0.012  0.00  0.00    -0.089 SA
BRANCH   9  10
ATOM     10  C   UNL d   1       3.268  -2.507   0.981  0.00  0.00     0.121 C 
BRANCH  10  11
ATOM     11  C   UNL d   1       4.063  -3.783   1.166  0.00  0.00    -0.048 A 
ATOM     12  C   UNL d   1       4.994  -4.187   0.196  0.00  0.00     0.009 A 
ATOM     13  C   UNL d   1       5.700  -5.384   0.343  0.00  0.00     0.024 A 
ATOM     14  C   UNL d   1       5.478  -6.186   1.459  0.00  0.00     0.034 A 
ATOM     15  C   UNL d   1       4.555  -5.803   2.430  0.00  0.00     0.024 A 
ATOM     16 CL   UNL d   1       6.342  -7.664   1.636  0.00  0.00    -0.084 Cl
ATOM     17  C   UNL d   1       3.848  -4.606   2.283  0.00  0.00     0.009 A 
ENDBRANCH  10  11
ENDBRANCH   9  10
ENDBRANCH   3   9
BRANCH   4  18
ATOM     18  O   UNL d   1      -2.238  -0.018   0.031  0.00  0.00    -0.346 OA
ATOM     19  H   UNL d   1      -2.407  -0.977   0.012  0.00  0.00     0.219 HD
ENDBRANCH   4  18
BRANCH   8  20
ATOM     20  C   UNL d   1       2.029   2.313   0.037  0.00  0.00     0.057 C 
BRANCH  20  21
ATOM     21  C   UNL d   1       2.271   2.896   1.431  0.00  0.00     0.002 C 
ATOM     22  C   UNL d   1       3.105   1.987   2.323  0.00  0.00     0.005 C 
ENDBRANCH  20  21
ENDBRANCH   8  20
TORSDOF 6
