REMARK  7 active torsions:
REMARK  status: ('A' for Active; 'I' for Inactive)
REMARK    1  A    between atoms: C_9  and  C_2 
REMARK    2  A    between atoms: S_10  and  C_5 
REMARK    3  A    between atoms: C_8  and  O_13 
REMARK    4  A    between atoms: C_22  and  S_10 
REMARK    5  A    between atoms: C_11  and  C_12 
REMARK    6  A    between atoms: O_13  and  C_21 
REMARK    7  A    between atoms: C_23  and  C_22 
ROOT
ATOM      1  O   UNL d   1      -1.132   0.030  -0.248  0.00  0.00    -0.267 OA
ATOM      2  C   UNL d   1      -0.263  -0.993   0.054  0.00  0.00     0.175 A 
ATOM      3  N   UNL d   1       0.932  -0.558   0.390  0.00  0.00    -0.277 N 
ATOM      4  HN  UNL d   1       1.732  -1.126   0.669  1.00  0.00     0.189 HD
ATOM      5  C   UNL d   1      -0.323   1.132  -0.092  0.00  0.00     0.204 A 
ATOM      6  N   UNL d   1       0.894   0.812   0.291  0.00  0.00    -0.272 N 
ATOM      7  HN  UNL d   1       1.662   1.457   0.478  1.00  0.00     0.189 HD
ENDROOT
BRANCH   5   8
ATOM      8  S   UNL d   1      -0.778   2.767  -0.445  0.00  0.00    -0.080 SA
BRANCH   8   9
ATOM      9  C   UNL d   1      -2.544   2.772  -0.059  0.00  0.00     0.121 C 
BRANCH   9  10
ATOM     10  C   UNL d   1      -3.120   4.154  -0.278  0.00  0.00    -0.048 A 
ATOM     11  C   UNL d   1      -3.629   4.522  -1.530  0.00  0.00     0.011 A 
ATOM     12  C   UNL d   1      -4.105   5.817  -1.747  0.00  0.00     0.037 A 
ATOM     13  C   UNL d   1      -4.091   6.769  -0.725  0.00  0.00     0.078 A 
ATOM     14  C   UNL d   1      -3.547   6.426   0.511  0.00  0.00     0.037 A 
ATOM     15  C   UNL d   1      -3.079   5.123   0.737  0.00  0.00     0.011 A 
BRANCH  13  16
ATOM     16  O   UNL d   1      -4.575   7.988  -1.085  0.00  0.00    -0.255 OA
BRANCH  16  17
ATOM     17  C   UNL d   1      -5.157   8.838  -0.108  0.00  0.00     0.530 C 
ATOM     18  F   UNL d   1      -5.382   8.245   1.083  0.00  0.00    -0.144 F 
ATOM     19  F   UNL d   1      -4.365   9.915   0.081  0.00  0.00    -0.144 F 
ATOM     20  F   UNL d   1      -6.349   9.272  -0.581  0.00  0.00    -0.144 F 
ENDBRANCH  16  17
ENDBRANCH  13  16
ENDBRANCH   9  10
ENDBRANCH   8   9
ENDBRANCH   5   8
BRANCH   2  21
ATOM     21  C   UNL d   1      -0.722  -2.374  -0.058  0.00  0.00     0.017 A 
ATOM     22  C   UNL d   1      -2.042  -2.723  -0.370  0.00  0.00     0.016 A 
ATOM     23  C   UNL d   1      -2.418  -4.074  -0.473  0.00  0.00     0.009 A 
ATOM     24  C   UNL d   1      -1.494  -5.121  -0.272  0.00  0.00    -0.051 A 
ATOM     25  C   UNL d   1      -0.175  -4.753   0.030  0.00  0.00     0.009 A 
ATOM     26  C   UNL d   1       0.200  -3.408   0.133  0.00  0.00     0.016 A 
BRANCH  24  27
ATOM     27  C   UNL d   1      -1.933  -6.595  -0.370  0.00  0.00    -0.024 C 
ATOM     28  C   UNL d   1      -0.787  -7.602  -0.116  0.00  0.00     0.019 C 
ATOM     29  C   UNL d   1      -3.030  -6.881   0.677  0.00  0.00     0.019 C 
ATOM     30  C   UNL d   1      -2.491  -6.893  -1.778  0.00  0.00     0.019 C 
ENDBRANCH  24  27
ENDBRANCH   2  21
TORSDOF 7
