REMARK  5 active torsions:
REMARK  status: ('A' for Active; 'I' for Inactive)
REMARK    1  A    between atoms: C_2  and  S_1 
REMARK    2  A    between atoms: C_4  and  S_1 
REMARK    3  A    between atoms: C_7  and  C_3 
REMARK    4  A    between atoms: C_6  and  C_4 
REMARK    5  A    between atoms: O_16  and  C_7 
ROOT
ATOM      1  C   UNL d   1       1.034   4.062  -2.181  0.00  0.00     0.150 A 
ATOM      2  O   UNL d   1       0.368   2.985  -1.655  0.00  0.00    -0.308 OA
ATOM      3  C   UNL d   1       1.037   1.855  -2.028  0.00  0.00     0.068 A 
ATOM      4  C   UNL d   1       2.123   3.611  -2.902  0.00  0.00     0.046 A 
ATOM      5  C   UNL d   1       2.118   2.199  -2.815  0.00  0.00     0.036 A 
ENDROOT
BRANCH   3   6
ATOM      6  C   UNL d   1       0.435   0.580  -1.556  0.00  0.00     0.209 C 
BRANCH   6   7
ATOM      7  S   UNL d   1       1.701  -0.644  -1.243  0.00  0.00     0.202 S 
ATOM      8  O   UNL d   1       2.293  -0.954  -2.540  0.00  0.00    -0.223 OA
ATOM      9  O   UNL d   1       2.566  -0.090  -0.209  0.00  0.00    -0.223 OA
BRANCH   7  10
ATOM     10  C   UNL d   1       0.820  -2.129  -0.597  0.00  0.00     0.292 C 
ATOM     11 CL   UNL d   1      -0.949  -1.917  -0.615  0.00  0.00    -0.067 Cl
ATOM     12 CL   UNL d   1       1.233  -3.545  -1.611  0.00  0.00    -0.067 Cl
ATOM     13 CL   UNL d   1       1.347  -2.452   1.080  0.00  0.00    -0.067 Cl
ENDBRANCH   7  10
ENDBRANCH   6   7
ENDBRANCH   3   6
BRANCH   1  14
ATOM     14  C   UNL d   1       0.557   5.406  -1.943  0.00  0.00     0.316 C 
ATOM     15  O   UNL d   1       1.081   6.427  -2.372  0.00  0.00    -0.257 OA
BRANCH  14  16
ATOM     16  O   UNL d   1      -0.568   5.379  -1.170  0.00  0.00    -0.321 OA
ATOM     17  C   UNL d   1      -1.104   6.670  -0.881  0.00  0.00     0.213 C 
ENDBRANCH  14  16
ENDBRANCH   1  14
TORSDOF 5
