REMARK  0 active torsions:
REMARK  status: ('A' for Active; 'I' for Inactive)
ROOT
ATOM      1  C   UNL d   1       0.647   1.242   0.005  0.00  0.00     0.021 A 
ATOM      2  C   UNL d   1      -0.020   0.007   0.003  0.00  0.00    -0.006 A 
ATOM      3  C   UNL d   1       2.125   1.300   0.011  0.00  0.00     0.160 A 
ATOM      4  C   UNL d   1       0.667  -1.221  -0.003  0.00  0.00    -0.046 A 
ATOM      5  C   UNL d   1       2.925   0.024  -0.031  0.00  0.00     0.088 A 
ATOM      6  O   UNL d   1       2.695   2.391   0.039  0.00  0.00    -0.292 OA
ATOM      7  C   UNL d   1       2.165  -1.293  -0.028  0.00  0.00     0.047 A 
ATOM      8  C   UNL d   1      -1.438   0.005   0.005  0.00  0.00    -0.025 A 
ATOM      9  C   UNL d   1      -0.068   2.449   0.005  0.00  0.00     0.016 A 
ATOM     10  C   UNL d   1      -1.458   2.438   0.003  0.00  0.00     0.002 A 
ATOM     11  C   UNL d   1      -1.445  -2.423   0.007  0.00  0.00     0.001 A 
ATOM     12  C   UNL d   1      -0.054  -2.427   0.003  0.00  0.00     0.008 A 
ATOM     13  C   UNL d   1      -2.139   1.222   0.003  0.00  0.00     0.012 A 
ATOM     14  C   UNL d   1      -2.133  -1.213   0.006  0.00  0.00     0.012 A 
ENDROOT
TORSDOF 0
