REMARK  6 active torsions:
REMARK  status: ('A' for Active; 'I' for Inactive)
REMARK       I    between atoms: C_2  and  N_7 
REMARK    1  A    between atoms: C_4  and  C_2 
REMARK    2  A    between atoms: C_5  and  C_6 
REMARK    3  A    between atoms: O_11  and  C_5 
REMARK    4  A    between atoms: N_7  and  C_8 
REMARK    5  A    between atoms: C_12  and  C_8 
REMARK    6  A    between atoms: C_13  and  C_8 
ROOT
ATOM      1  C   UNL d   1       0.958  -2.518  -4.300  0.00  0.00    -0.086 C 
ATOM      2  C   UNL d   1       1.800  -3.358  -4.105  0.00  0.00     0.015 C 
ATOM      3  C   UNL d   1      -0.020  -1.456  -4.646  0.00  0.00     0.095 C 
ENDROOT
BRANCH   3   4
ATOM      4  N   UNL d   1       0.779  -0.262  -4.939  0.00  0.00    -0.338 N 
ATOM      5  C   UNL d   1       0.294   0.904  -5.443  0.00  0.00     0.242 C 
ATOM      6  O   UNL d   1      -0.868   1.144  -5.742  0.00  0.00    -0.269 OA
ATOM      7  H   UNL d   1       1.701  -0.240  -4.520  0.00  0.00     0.164 HD
BRANCH   5   8
ATOM      8  C   UNL d   1       1.311   1.965  -5.541  0.00  0.00     0.080 C 
ATOM      9  C   UNL d   1       1.176   3.176  -4.987  0.00  0.00     0.086 C 
BRANCH   9  10
ATOM     10  C   UNL d   1       0.116   3.720  -4.116  0.00  0.00     0.165 C 
ATOM     11  O   UNL d   1       0.343   4.697  -3.418  0.00  0.00    -0.647 OA
BRANCH  10  12
ATOM     12  O   UNL d   1      -1.077   3.107  -4.125  0.00  0.00    -0.773 OA
ATOM     13  H   UNL d   1      -1.216   2.430  -4.830  0.00  0.00     0.167 HD
ENDBRANCH  10  12
ENDBRANCH   9  10
ENDBRANCH   5   8
ENDBRANCH   3   4
BRANCH   3  14
ATOM     14  C   UNL d   1      -0.865  -1.946  -5.860  0.00  0.00     0.040 C 
ATOM     15  C   UNL d   1      -0.088  -2.250  -7.135  0.00  0.00     0.009 C 
ENDBRANCH   3  14
BRANCH   3  16
ATOM     16  C   UNL d   1      -1.008  -1.224  -3.469  0.00  0.00     0.040 C 
ATOM     17  C   UNL d   1      -0.393  -0.760  -2.154  0.00  0.00     0.009 C 
ENDBRANCH   3  16
TORSDOF 6
