REMARK  2 active torsions:
REMARK  status: ('A' for Active; 'I' for Inactive)
REMARK       I    between atoms: N_2  and  C_1 
REMARK    1  A    between atoms: C_5  and  C_1 
REMARK    2  A    between atoms: C_3  and  N_4 
ROOT
ATOM      1  C   UNL d   1       0.930  -0.106   0.037  0.00  0.00     0.277 C 
ATOM      2  N   UNL d   1       0.180  -0.331   1.194  0.00  0.00    -0.343 N 
ATOM      3  N   UNL d   1      -0.575  -1.571   3.654  0.00  0.00    -0.375 N 
ATOM      4  C   UNL d   1       0.659   0.200   2.480  0.00  0.00     0.146 C 
ATOM      5  C   UNL d   1      -1.069  -1.105   1.276  0.00  0.00     0.146 C 
ATOM      6  C   UNL d   1       0.740  -0.904   3.555  0.00  0.00     0.143 C 
ATOM      7  C   UNL d   1      -1.024  -2.172   2.390  0.00  0.00     0.143 C 
ATOM      8  O   UNL d   1       2.074   0.357   0.120  0.00  0.00    -0.265 OA
ENDROOT
BRANCH   3   9
ATOM      9  C   UNL d   1      -1.096  -1.954   4.889  0.00  0.00     0.077 A 
ATOM     10  C   UNL d   1      -1.464  -3.281   5.218  0.00  0.00     0.077 A 
ATOM     11 CL   UNL d   1      -1.141  -4.658   4.217  0.00  0.00    -0.080 Cl
ATOM     12  C   UNL d   1      -2.072  -3.553   6.447  0.00  0.00     0.113 A 
ATOM     13  N   UNL d   1      -2.324  -2.631   7.399  0.00  0.00    -0.372 N 
ATOM     14  C   UNL d   1      -1.950  -1.371   7.100  0.00  0.00     0.113 A 
ATOM     15  HN  UNL d   1      -2.767  -2.872   8.286  1.00  0.00     0.164 HD
ATOM     16  C   UNL d   1      -1.359  -0.989   5.895  0.00  0.00     0.077 A 
ATOM     17 CL   UNL d   1      -1.086   0.710   5.682  0.00  0.00    -0.080 Cl
ENDBRANCH   3   9
BRANCH   1  18
ATOM     18  C   UNL d   1       0.368  -0.449  -1.258  0.00  0.00     0.142 A 
ATOM     19  O   UNL d   1      -0.983  -0.383  -1.486  0.00  0.00    -0.317 OA
ATOM     20  C   UNL d   1      -1.198  -0.744  -2.776  0.00  0.00     0.143 A 
ATOM     21  C   UNL d   1      -0.006  -1.012  -3.405  0.00  0.00     0.027 A 
ATOM     22  C   UNL d   1       1.003  -0.796  -2.438  0.00  0.00     0.045 A 
ENDBRANCH   1  18
TORSDOF 2
