REMARK  4 active torsions:
REMARK  status: ('A' for Active; 'I' for Inactive)
REMARK    1  A    between atoms: C_5  and  C_1 
REMARK    2  A    between atoms: C_10  and  C_6 
REMARK       I    between atoms: C_8  and  N_9 
REMARK    3  A    between atoms: C_11  and  C_8 
REMARK    4  A    between atoms: N_9  and  C_14 
ROOT
ATOM      1  C   UNL d   1       0.372  -0.881  -0.159  0.00  0.00     0.071 A 
ATOM      2  N   UNL d   1       1.098  -0.190  -1.050  0.00  0.00    -0.260 N 
ATOM      3  HN  UNL d   1       1.952  -0.496  -1.517  1.00  0.00     0.195 HD
ATOM      4  C   UNL d   1      -0.794  -0.163   0.194  0.00  0.00     0.072 A 
ATOM      5  C   UNL d   1      -0.656   1.062  -0.414  0.00  0.00     0.111 A 
ATOM      6  O   UNL d   1       0.448   1.029  -1.209  0.00  0.00    -0.237 OA
ENDROOT
BRANCH   5   7
ATOM      7  C   UNL d   1      -1.359   2.330  -0.259  0.00  0.00     0.002 A 
ATOM      8  C   UNL d   1      -2.303   2.434   0.777  0.00  0.00     0.043 A 
ATOM      9  C   UNL d   1      -2.920   3.638   1.111  0.00  0.00     0.035 A 
ATOM     10  C   UNL d   1      -2.622   4.766   0.344  0.00  0.00     0.029 A 
ATOM     11  C   UNL d   1      -1.714   4.680  -0.719  0.00  0.00     0.003 A 
ATOM     12  C   UNL d   1      -1.075   3.469  -1.016  0.00  0.00     0.014 A 
BRANCH   9  13
ATOM     13  N   UNL d   1      -3.790   3.772   2.219  0.00  0.00    -0.327 N 
ATOM     14  C   UNL d   1      -4.182   2.765   3.094  0.00  0.00     0.229 C 
ATOM     15  O   UNL d   1      -3.874   1.579   2.990  0.00  0.00    -0.272 OA
ATOM     16  H   UNL d   1      -4.133   4.707   2.397  0.00  0.00     0.169 HD
BRANCH  14  17
ATOM     17  C   UNL d   1      -5.048   3.236   4.280  0.00  0.00     0.030 C 
ATOM     18  C   UNL d   1      -6.311   3.948   3.779  0.00  0.00     0.025 C 
ATOM     19  C   UNL d   1      -5.476   2.004   5.104  0.00  0.00     0.025 C 
ATOM     20  C   UNL d   1      -4.227   4.165   5.184  0.00  0.00     0.025 C 
ENDBRANCH  14  17
ENDBRANCH   9  13
ENDBRANCH   5   7
BRANCH   1  21
ATOM     21  C   UNL d   1       0.805  -2.154   0.407  0.00  0.00     0.036 A 
ATOM     22  C   UNL d   1       1.034  -2.275   1.796  0.00  0.00     0.048 A 
ATOM     23 CL   UNL d   1       0.903  -0.937   2.893  0.00  0.00    -0.083 Cl
ATOM     24  C   UNL d   1       1.395  -3.502   2.362  0.00  0.00     0.025 A 
ATOM     25  C   UNL d   1       1.549  -4.627   1.558  0.00  0.00     0.003 A 
ATOM     26  C   UNL d   1       1.337  -4.523   0.186  0.00  0.00     0.025 A 
ATOM     27  C   UNL d   1       0.962  -3.299  -0.389  0.00  0.00     0.048 A 
ATOM     28 CL   UNL d   1       0.660  -3.302  -2.094  0.00  0.00    -0.083 Cl
ENDBRANCH   1  21
TORSDOF 4
