REMARK  4 active torsions:
REMARK  status: ('A' for Active; 'I' for Inactive)
REMARK    1  A    between atoms: C_4  and  N_1 
REMARK    2  A    between atoms: N_16  and  C_2 
REMARK    3  A    between atoms: C_14  and  C_3 
REMARK    4  A    between atoms: C_10  and  C_11 
ROOT
ATOM      1  N   UNL d   1       0.947  -0.621  -0.128  0.00  0.00    -0.222 N 
ATOM      2  C   UNL d   1       0.988   0.776   0.009  0.00  0.00     0.135 A 
ATOM      3  C   UNL d   1      -0.325   1.212  -0.033  0.00  0.00     0.036 A 
ATOM      4  N   UNL d   1      -0.335  -1.075  -0.160  0.00  0.00    -0.301 N 
ATOM      5  HN  UNL d   1      -0.652  -2.043  -0.219  1.00  0.00     0.186 HD
ATOM      6  C   UNL d   1      -1.082   0.024  -0.097  0.00  0.00     0.124 A 
ENDROOT
BRANCH   1   7
ATOM      7  C   UNL d   1       2.076  -1.507  -0.143  0.00  0.00     0.150 A 
ATOM      8  N   UNL d   1       3.214  -1.067   0.496  0.00  0.00    -0.349 N 
ATOM      9  C   UNL d   1       4.285  -1.892   0.534  0.00  0.00     0.106 A 
ATOM     10  HN  UNL d   1       3.248  -0.144   0.929  1.00  0.00     0.167 HD
ATOM     11  C   UNL d   1       4.319  -3.134  -0.069  0.00  0.00     0.065 A 
ATOM     12  C   UNL d   1       3.168  -3.555  -0.747  0.00  0.00     0.045 A 
ATOM     13  C   UNL d   1       2.024  -2.748  -0.784  0.00  0.00     0.080 A 
ATOM     14 CL   UNL d   1       0.728  -3.329  -1.768  0.00  0.00    -0.080 Cl
BRANCH  11  15
ATOM     15  C   UNL d   1       5.565  -3.962  -0.001  0.00  0.00     0.418 C 
ATOM     16  F   UNL d   1       5.487  -5.118  -0.713  0.00  0.00    -0.166 F 
ATOM     17  F   UNL d   1       6.652  -3.299  -0.480  0.00  0.00    -0.166 F 
ATOM     18  F   UNL d   1       5.878  -4.324   1.272  0.00  0.00    -0.166 F 
ENDBRANCH  11  15
ENDBRANCH   1   7
BRANCH   2  19
ATOM     19  N   UNL d   1       2.157   1.471   0.107  0.00  0.00    -0.383 N 
ATOM     20  H   UNL d   1       2.996   0.938   0.361  0.00  0.00     0.157 HD
ATOM     21  H   UNL d   1       2.150   2.399   0.524  0.00  0.00     0.157 HD
ENDBRANCH   2  19
BRANCH   3  22
ATOM     22  C   UNL d   1      -0.774   2.596  -0.013  0.00  0.00    -0.021 A 
ATOM     23  C   UNL d   1      -0.060   3.599  -0.689  0.00  0.00     0.014 A 
ATOM     24  C   UNL d   1      -0.495   4.926  -0.667  0.00  0.00     0.024 A 
ATOM     25  C   UNL d   1      -1.664   5.258   0.011  0.00  0.00     0.034 A 
ATOM     26  C   UNL d   1      -2.402   4.274   0.664  0.00  0.00     0.024 A 
ATOM     27 CL   UNL d   1      -2.202   6.892   0.036  0.00  0.00    -0.084 Cl
ATOM     28  C   UNL d   1      -1.958   2.947   0.653  0.00  0.00     0.014 A 
ENDBRANCH   3  22
TORSDOF 4
