REMARK  4 active torsions:
REMARK  status: ('A' for Active; 'I' for Inactive)
REMARK    1  A    between atoms: C_11  and  N_1 
REMARK    2  A    between atoms: C_2  and  C_10 
REMARK    3  A    between atoms: C_10  and  C_5 
REMARK    4  A    between atoms: C_14  and  C_9 
ROOT
ATOM      1  C   UNL d   1       1.980  -3.036  -0.072  0.00  0.00     0.019 A 
ATOM      2  N   UNL d   1       1.455  -5.821  -0.201  0.00  0.00    -0.297 N 
ATOM      3  HN  UNL d   1       1.268  -6.823  -0.249  1.00  0.00     0.187 HD
ATOM      4  N   UNL d   1       1.189  -4.999  -1.252  0.00  0.00    -0.266 N 
ATOM      5  C   UNL d   1       1.388  -3.643  -1.290  0.00  0.00     0.266 A 
ATOM      6  C   UNL d   1       2.268  -3.829   0.971  0.00  0.00     0.045 A 
ATOM      7  C   UNL d   1       1.957  -5.274   0.866  0.00  0.00     0.059 A 
ATOM      8  O   UNL d   1       1.081  -2.973  -2.271  0.00  0.00    -0.266 OA
ATOM      9  H   UNL d   1       0.766  -5.429  -2.067  0.00  0.00     0.190 HD
ENDROOT
BRANCH   1  10
ATOM     10  C   UNL d   1       2.123  -1.536  -0.029  0.00  0.00     0.102 C 
BRANCH  10  11
ATOM     11  C   UNL d   1       3.503  -0.945   0.144  0.00  0.00     0.021 A 
ATOM     12  N   UNL d   1       3.769   0.430   0.198  0.00  0.00    -0.326 N 
ATOM     13  C   UNL d   1       5.145   0.586   0.138  0.00  0.00     0.097 A 
ATOM     14  C   UNL d   1       5.751  -0.646   0.118  0.00  0.00     0.020 A 
ATOM     15  C   UNL d   1       4.725  -1.606   0.120  0.00  0.00     0.027 A 
BRANCH  12  16
ATOM     16  C   UNL d   1       2.853   1.528   0.257  0.00  0.00     0.038 A 
ATOM     17  C   UNL d   1       1.636   1.435   0.942  0.00  0.00     0.031 A 
ATOM     18  C   UNL d   1       0.731   2.502   0.936  0.00  0.00     0.026 A 
ATOM     19  C   UNL d   1       1.050   3.680   0.268  0.00  0.00     0.034 A 
ATOM     20  C   UNL d   1       2.280   3.810  -0.370  0.00  0.00     0.026 A 
ATOM     21 CL   UNL d   1      -0.076   4.979   0.238  0.00  0.00    -0.084 Cl
ATOM     22  C   UNL d   1       3.183   2.741  -0.371  0.00  0.00     0.031 A 
ENDBRANCH  12  16
ENDBRANCH  10  11
ENDBRANCH   1  10
BRANCH   7  23
ATOM     23  C   UNL d   1       2.229  -6.134   2.057  0.00  0.00    -0.008 A 
ATOM     24  C   UNL d   1       2.513  -7.489   1.850  0.00  0.00     0.014 A 
ATOM     25  C   UNL d   1       2.722  -8.345   2.935  0.00  0.00     0.007 A 
ATOM     26  C   UNL d   1       2.644  -7.859   4.245  0.00  0.00    -0.062 A 
ATOM     27  C   UNL d   1       2.361  -6.506   4.453  0.00  0.00     0.007 A 
ATOM     28  C   UNL d   1       2.849  -8.794   5.400  0.00  0.00     0.048 C 
ATOM     29  C   UNL d   1       2.148  -5.646   3.369  0.00  0.00     0.014 A 
ENDBRANCH   7  23
TORSDOF 4
