REMARK  2 active torsions:
REMARK  status: ('A' for Active; 'I' for Inactive)
REMARK    1  A    between atoms: C_9  and  C_1 
REMARK    2  A    between atoms: C_10  and  C_6 
ROOT
ATOM      1  C   UNL d   1       0.082   1.296  -0.026  0.00  0.00     0.115 A 
ATOM      2  N   UNL d   1       1.227   0.591  -0.072  0.00  0.00    -0.351 N 
ATOM      3  HN  UNL d   1       2.138   1.048  -0.107  1.00  0.00     0.166 HD
ATOM      4  N   UNL d   1      -1.142   0.738   0.023  0.00  0.00    -0.351 N 
ATOM      5  HN  UNL d   1      -1.989   1.305   0.052  1.00  0.00     0.166 HD
ATOM      6  C   UNL d   1      -0.088  -1.450  -0.015  0.00  0.00     0.005 A 
ATOM      7  C   UNL d   1       1.108  -0.755  -0.071  0.00  0.00     0.103 A 
ATOM      8  C   UNL d   1      -1.190  -0.613   0.030  0.00  0.00     0.103 A 
ENDROOT
BRANCH   1   9
ATOM      9  C   UNL d   1       0.176   2.769  -0.025  0.00  0.00     0.008 A 
ATOM     10  C   UNL d   1       1.423   3.425  -0.048  0.00  0.00     0.015 A 
ATOM     11  C   UNL d   1       1.516   4.820  -0.049  0.00  0.00     0.001 A 
ATOM     12  C   UNL d   1       0.360   5.593  -0.027  0.00  0.00     0.000 A 
ATOM     13  C   UNL d   1      -0.887   4.975  -0.002  0.00  0.00     0.001 A 
ATOM     14  C   UNL d   1      -0.975   3.579  -0.001  0.00  0.00     0.015 A 
ENDBRANCH   1   9
BRANCH   6  15
ATOM     15  C   UNL d   1      -0.176  -2.921  -0.005  0.00  0.00    -0.023 A 
ATOM     16  C   UNL d   1      -1.266  -3.597  -0.585  0.00  0.00     0.012 A 
ATOM     17  C   UNL d   1      -1.348  -4.993  -0.576  0.00  0.00     0.001 A 
ATOM     18  C   UNL d   1      -0.336  -5.747   0.006  0.00  0.00     0.000 A 
ATOM     19  C   UNL d   1       0.755  -5.108   0.585  0.00  0.00     0.001 A 
ATOM     20  C   UNL d   1       0.830  -3.711   0.583  0.00  0.00     0.012 A 
ENDBRANCH   6  15
TORSDOF 2
