REMARK  10 active torsions:
REMARK  status: ('A' for Active; 'I' for Inactive)
REMARK    1  A    between atoms: C_19  and  C_4 
REMARK    2  A    between atoms: C_6  and  C_18 
REMARK    3  A    between atoms: C_22  and  N_13 
REMARK    4  A    between atoms: N_14  and  C_21 
REMARK    5  A    between atoms: C_18  and  C_25 
REMARK    6  A    between atoms: C_24  and  C_19 
REMARK    7  A    between atoms: C_21  and  C_24 
REMARK    8  A    between atoms: C_25  and  C_22 
REMARK    9  A    between atoms: O_39  and  C_24 
REMARK   10  A    between atoms: O_38  and  C_25 
ROOT
ATOM      1  N   UNL d   1      -2.341  -0.780   0.305  0.00  0.00     0.094 N 
ATOM      2  N   UNL d   1      -2.471   2.182   0.917  0.00  0.00     0.094 N 
ATOM      3  C   UNL d   1      -1.220   1.382   1.008  0.00  0.00     0.302 C 
ATOM      4  C   UNL d   1      -3.607  -0.017   0.296  0.00  0.00     0.302 C 
ATOM      5  C   UNL d   1      -1.433  -0.127   1.280  0.00  0.00     0.302 C 
ATOM      6  C   UNL d   1      -3.411   1.496   0.004  0.00  0.00     0.302 C 
ENDROOT
BRANCH   2   7
ATOM      7  C   UNL d   1      -2.122   3.553   0.434  0.00  0.00     0.303 C 
BRANCH   7   8
ATOM      8  C   UNL d   1      -3.319   4.511   0.191  0.00  0.00     0.147 C 
BRANCH   8   9
ATOM      9  C   UNL d   1      -2.990   6.006  -0.009  0.00  0.00     0.047 C 
BRANCH   9  10
ATOM     10  C   UNL d   1      -2.066   6.496  -1.140  0.00  0.00     0.057 A 
ATOM     11  C   UNL d   1      -2.452   6.239  -2.595  0.00  0.00    -0.021 A 
ATOM     12  C   UNL d   1      -1.396   5.550  -3.249  0.00  0.00    -0.016 A 
ATOM     13  C   UNL d   1      -3.525   6.715  -3.339  0.00  0.00     0.020 A 
ATOM     14  C   UNL d   1      -0.321   5.320  -2.313  0.00  0.00    -0.017 A 
ATOM     15  C   UNL d   1      -1.437   5.296  -4.613  0.00  0.00     0.032 A 
ATOM     16  C   UNL d   1      -0.662   5.907  -1.074  0.00  0.00    -0.038 A 
ATOM     17  C   UNL d   1       0.892   4.677  -2.469  0.00  0.00     0.032 A 
ATOM     18  C   UNL d   1       0.218   5.901  -0.001  0.00  0.00     0.010 A 
ATOM     19  C   UNL d   1       1.435   5.241  -0.158  0.00  0.00     0.019 A 
ATOM     20  C   UNL d   1       1.763   4.630  -1.379  0.00  0.00     0.011 A 
ATOM     21 BR   UNL d   1       3.415   3.725  -1.545  0.00  0.00    -0.051 Br
ATOM     22  C   UNL d   1      -2.531   5.759  -5.343  0.00  0.00     0.013 A 
ATOM     23  C   UNL d   1      -3.567   6.467  -4.718  0.00  0.00     0.038 A 
ATOM     24 BR   UNL d   1      -2.587   5.489  -7.214  0.00  0.00    -0.051 Br
ATOM     25 BR   UNL d   1      -4.875   7.804  -2.589  0.00  0.00    -0.050 Br
ENDBRANCH   9  10
ENDBRANCH   8   9
BRANCH   8  26
ATOM     26  O   UNL d   1      -4.172   4.464   1.353  0.00  0.00    -0.394 OA
ATOM     27  H   UNL d   1      -3.873   3.696   1.880  0.00  0.00     0.210 HD
ENDBRANCH   8  26
ENDBRANCH   7   8
ENDBRANCH   2   7
BRANCH   1  28
ATOM     28  C   UNL d   1      -2.539  -2.192   0.713  0.00  0.00     0.303 C 
BRANCH  28  29
ATOM     29  C   UNL d   1      -3.464  -3.080  -0.159  0.00  0.00     0.147 C 
BRANCH  29  30
ATOM     30  C   UNL d   1      -3.015  -3.395  -1.600  0.00  0.00     0.047 C 
BRANCH  30  31
ATOM     31  C   UNL d   1      -1.843  -4.360  -1.879  0.00  0.00     0.056 A 
ATOM     32  C   UNL d   1      -1.900  -5.727  -1.209  0.00  0.00    -0.038 A 
ATOM     33  C   UNL d   1      -0.716  -5.958  -0.474  0.00  0.00    -0.018 A 
ATOM     34  C   UNL d   1      -2.906  -6.680  -1.267  0.00  0.00     0.009 A 
ATOM     35  C   UNL d   1      -0.547  -7.134   0.239  0.00  0.00     0.013 A 
ATOM     36  C   UNL d   1       0.167  -4.824  -0.641  0.00  0.00    -0.018 A 
ATOM     37  C   UNL d   1      -1.568  -8.088   0.202  0.00  0.00     0.001 A 
ATOM     38  C   UNL d   1      -2.734  -7.865  -0.549  0.00  0.00     0.001 A 
ATOM     39  C   UNL d   1      -0.466  -3.867  -1.465  0.00  0.00    -0.038 A 
ATOM     40  C   UNL d   1       1.451  -4.606  -0.168  0.00  0.00     0.013 A 
ATOM     41  C   UNL d   1       0.186  -2.708  -1.853  0.00  0.00     0.009 A 
ATOM     42  C   UNL d   1       1.484  -2.495  -1.387  0.00  0.00     0.001 A 
ATOM     43  C   UNL d   1       2.108  -3.432  -0.546  0.00  0.00     0.001 A 
ENDBRANCH  30  31
ENDBRANCH  29  30
BRANCH  29  44
ATOM     44  O   UNL d   1      -3.795  -4.271   0.562  0.00  0.00    -0.394 OA
ATOM     45  H   UNL d   1      -2.969  -4.723   0.798  0.00  0.00     0.210 HD
ENDBRANCH  29  44
ENDBRANCH  28  29
ENDBRANCH   1  28
TORSDOF 10
