REMARK  2 active torsions:
REMARK  status: ('A' for Active; 'I' for Inactive)
REMARK    1  A    between atoms: C_2  and  C_10 
REMARK    2  A    between atoms: N_4  and  C_14 
ROOT
ATOM      1  C   UNL d   1      -0.114  -0.680   0.004  0.00  0.00     0.107 A 
ATOM      2  C   UNL d   1       1.081  -1.363  -0.090  0.00  0.00     0.069 A 
ATOM      3  C   UNL d   1      -0.162   0.692   0.037  0.00  0.00     0.105 A 
ATOM      4  O   UNL d   1      -1.352  -1.242   0.062  0.00  0.00    -0.323 OA
ATOM      5  O   UNL d   1      -1.433   1.167   0.121  0.00  0.00    -0.323 OA
ATOM      6  C   UNL d   1      -2.183  -0.065   0.120  0.00  0.00     0.352 A 
ATOM      7  C   UNL d   1       2.272  -0.626  -0.157  0.00  0.00     0.034 A 
ATOM      8  C   UNL d   1       0.982   1.456  -0.028  0.00  0.00     0.042 A 
ATOM      9  C   UNL d   1       2.207   0.785  -0.138  0.00  0.00     0.032 A 
ENDROOT
BRANCH   7  10
ATOM     10  N   UNL d   1       3.467  -1.347  -0.319  0.00  0.00    -0.365 N 
ATOM     11  C   UNL d   1       4.549  -0.940   0.268  0.00  0.00     0.107 C 
ATOM     12  HN  UNL d   1       3.483  -2.187  -0.896  1.00  0.00     0.165 HD
BRANCH  11  13
ATOM     13  C   UNL d   1       5.780  -1.678   0.115  0.00  0.00     0.020 A 
ATOM     14  S   UNL d   1       7.216  -1.065   0.814  0.00  0.00    -0.101 SA
ATOM     15  C   UNL d   1       8.133  -2.397   0.254  0.00  0.00     0.050 A 
ATOM     16  C   UNL d   1       7.362  -3.293  -0.454  0.00  0.00     0.008 A 
ATOM     17  C   UNL d   1       6.003  -2.873  -0.540  0.00  0.00     0.021 A 
ENDBRANCH  11  13
ENDBRANCH   7  10
TORSDOF 2
