REMARK  11 active torsions:
REMARK  status: ('A' for Active; 'I' for Inactive)
REMARK    1  A    between atoms: C_9  and  C_1 
REMARK    2  A    between atoms: S_13  and  C_5 
REMARK       I    between atoms: C_8  and  N_10 
REMARK    3  A    between atoms: O_14  and  C_8 
REMARK    4  A    between atoms: C_9  and  N_10 
REMARK    5  A    between atoms: C_16  and  C_9 
REMARK    6  A    between atoms: C_11  and  C_21 
REMARK       I    between atoms: N_12  and  C_11 
REMARK    7  A    between atoms: C_17  and  N_12 
REMARK    8  A    between atoms: C_21  and  S_13 
REMARK    9  A    between atoms: C_20  and  O_14 
REMARK   10  A    between atoms: C_24  and  C_16 
REMARK   11  A    between atoms: S_23  and  C_22 
ROOT
ATOM      1  C   UNL d   1      -0.972  -0.911   0.971  0.00  0.00     0.164 A 
ATOM      2  O   UNL d   1      -1.668  -0.510   2.088  0.00  0.00    -0.270 OA
ATOM      3  N   UNL d   1      -0.333   0.085   0.393  0.00  0.00    -0.279 N 
ATOM      4  HN  UNL d   1       0.254   0.032  -0.440  1.00  0.00     0.189 HD
ATOM      5  C   UNL d   1      -1.398   0.837   2.120  0.00  0.00     0.203 A 
ATOM      6  N   UNL d   1      -0.613   1.211   1.132  0.00  0.00    -0.272 N 
ATOM      7  HN  UNL d   1      -0.276   2.156   0.950  1.00  0.00     0.189 HD
ENDROOT
BRANCH   1   8
ATOM      8  C   UNL d   1      -1.134  -2.312   0.464  0.00  0.00     0.167 C 
BRANCH   8   9
ATOM      9  N   UNL d   1      -0.208  -3.244   1.101  0.00  0.00    -0.324 N 
ATOM     10  C   UNL d   1      -0.100  -3.706   2.376  0.00  0.00     0.362 C 
ATOM     11  O   UNL d   1       0.819  -4.456   2.664  0.00  0.00    -0.238 OA
ATOM     12  H   UNL d   1       0.523  -3.622   0.512  0.00  0.00     0.165 HD
BRANCH  10  13
ATOM     13  O   UNL d   1      -1.054  -3.262   3.226  0.00  0.00    -0.294 OA
BRANCH  13  14
ATOM     14  C   UNL d   1      -0.955  -3.612   4.643  0.00  0.00     0.061 C 
ATOM     15  C   UNL d   1       0.336  -3.048   5.258  0.00  0.00     0.046 C 
ATOM     16  C   UNL d   1      -2.166  -2.939   5.315  0.00  0.00     0.046 C 
ATOM     17  C   UNL d   1      -1.059  -5.127   4.872  0.00  0.00     0.046 C 
ENDBRANCH  13  14
ENDBRANCH  10  13
ENDBRANCH   8   9
BRANCH   8  18
ATOM     18  C   UNL d   1      -2.611  -2.728   0.419  0.00  0.00     0.072 C 
BRANCH  18  19
ATOM     19  C   UNL d   1      -2.894  -4.002  -0.345  0.00  0.00    -0.056 A 
ATOM     20  C   UNL d   1      -3.040  -5.213   0.349  0.00  0.00     0.007 A 
ATOM     21  C   UNL d   1      -3.383  -6.381  -0.326  0.00  0.00     0.001 A 
ATOM     22  C   UNL d   1      -3.583  -6.360  -1.706  0.00  0.00     0.000 A 
ATOM     23  C   UNL d   1      -3.415  -5.171  -2.411  0.00  0.00     0.001 A 
ATOM     24  C   UNL d   1      -3.069  -3.997  -1.737  0.00  0.00     0.007 A 
ENDBRANCH  18  19
ENDBRANCH   8  18
ENDBRANCH   1   8
BRANCH   5  25
ATOM     25  S   UNL d   1      -2.040   1.954   3.285  0.00  0.00    -0.075 SA
BRANCH  25  26
ATOM     26  C   UNL d   1      -2.377   0.843   4.669  0.00  0.00     0.186 C 
BRANCH  26  27
ATOM     27  C   UNL d   1      -2.727   1.573   5.961  0.00  0.00     0.231 C 
ATOM     28  N   UNL d   1      -2.102   2.795   6.136  0.00  0.00    -0.326 N 
ATOM     29  H   UNL d   1      -1.643   3.179   5.315  0.00  0.00     0.169 HD
ATOM     30  O   UNL d   1      -3.467   1.024   6.777  0.00  0.00    -0.272 OA
BRANCH  28  31
ATOM     31  C   UNL d   1      -2.173   3.639   7.265  0.00  0.00     0.035 A 
ATOM     32  C   UNL d   1      -2.693   3.235   8.501  0.00  0.00     0.048 A 
ATOM     33  C   UNL d   1      -2.771   4.121   9.582  0.00  0.00     0.002 A 
ATOM     34  C   UNL d   1      -2.289   5.423   9.421  0.00  0.00     0.018 A 
ATOM     35  C   UNL d   1      -1.744   5.832   8.204  0.00  0.00     0.004 A 
ATOM     36  C   UNL d   1      -1.680   4.941   7.132  0.00  0.00     0.029 A 
BRANCH  33  37
ATOM     37  S   UNL d   1      -3.409   3.655  11.187  0.00  0.00    -0.134 SA
ATOM     38  C   UNL d   1      -4.651   2.404  10.753  0.00  0.00     0.095 C 
ENDBRANCH  33  37
ENDBRANCH  28  31
ENDBRANCH  26  27
ENDBRANCH  25  26
ENDBRANCH   5  25
TORSDOF 11
