REMARK  3 active torsions:
REMARK  status: ('A' for Active; 'I' for Inactive)
REMARK    1  A    between atoms: C_12  and  C_2 
REMARK    2  A    between atoms: C_15  and  C_10 
REMARK    3  A    between atoms: C_13  and  C_11 
ROOT
ATOM      1  N   UNL d   1       0.305   0.623   0.031  0.00  0.00    -0.235 N 
ATOM      2  C   UNL d   1      -0.815   1.448   0.032  0.00  0.00     0.144 A 
ATOM      3  C   UNL d   1       0.151  -0.767   0.034  0.00  0.00     0.130 A 
ATOM      4  N   UNL d   1       1.616   0.960   0.039  0.00  0.00    -0.291 N 
ATOM      5  HN  UNL d   1       2.006   1.902   0.065  1.00  0.00     0.187 HD
ATOM      6  N   UNL d   1      -1.069  -1.376   0.067  0.00  0.00    -0.340 N 
ATOM      7  HN  UNL d   1      -1.157  -2.392   0.091  1.00  0.00     0.167 HD
ATOM      8  C   UNL d   1      -2.046   0.895   0.047  0.00  0.00     0.067 A 
ATOM      9  C   UNL d   1       1.418  -1.296  -0.001  0.00  0.00     0.082 A 
ATOM     10  C   UNL d   1       2.297  -0.192   0.006  0.00  0.00     0.062 A 
ATOM     11  C   UNL d   1      -2.115  -0.601   0.065  0.00  0.00     0.046 A 
ENDROOT
BRANCH  11  12
ATOM     12  C   UNL d   1      -3.472  -1.219   0.112  0.00  0.00    -0.009 A 
ATOM     13  C   UNL d   1      -3.630  -2.425   0.811  0.00  0.00     0.026 A 
ATOM     14  C   UNL d   1      -4.880  -3.061   0.881  0.00  0.00    -0.025 A 
ATOM     15  C   UNL d   1      -5.052  -4.265   1.583  0.00  0.00     0.012 A 
ATOM     16  C   UNL d   1      -5.990  -2.478   0.227  0.00  0.00    -0.026 A 
ATOM     17  C   UNL d   1      -6.300  -4.888   1.636  0.00  0.00     0.001 A 
ATOM     18  C   UNL d   1      -7.392  -4.316   0.990  0.00  0.00     0.001 A 
ATOM     19  C   UNL d   1      -7.238  -3.118   0.291  0.00  0.00     0.012 A 
ATOM     20  C   UNL d   1      -5.819  -1.277  -0.478  0.00  0.00     0.013 A 
ATOM     21  C   UNL d   1      -4.569  -0.653  -0.541  0.00  0.00     0.014 A 
ENDBRANCH  11  12
BRANCH   2  22
ATOM     22  C   UNL d   1      -0.634   2.919   0.022  0.00  0.00     0.434 C 
ATOM     23  F   UNL d   1       0.635   3.383  -0.002  0.00  0.00    -0.165 F 
ATOM     24  F   UNL d   1      -1.261   3.467  -1.057  0.00  0.00    -0.165 F 
ATOM     25  F   UNL d   1      -1.227   3.481   1.112  0.00  0.00    -0.165 F 
ENDBRANCH   2  22
BRANCH  10  26
ATOM     26  C   UNL d   1       3.760  -0.218   0.001  0.00  0.00    -0.008 A 
ATOM     27  C   UNL d   1       4.491   0.805   0.625  0.00  0.00     0.015 A 
ATOM     28  C   UNL d   1       5.888   0.766   0.655  0.00  0.00     0.024 A 
ATOM     29  C   UNL d   1       6.563  -0.291   0.051  0.00  0.00     0.034 A 
ATOM     30  C   UNL d   1       5.855  -1.306  -0.588  0.00  0.00     0.024 A 
ATOM     31 CL   UNL d   1       8.282  -0.347   0.096  0.00  0.00    -0.084 Cl
ATOM     32  C   UNL d   1       4.457  -1.271  -0.612  0.00  0.00     0.015 A 
ENDBRANCH  10  26
TORSDOF 3
