REMARK  8 active torsions:
REMARK  status: ('A' for Active; 'I' for Inactive)
REMARK    1  A    between atoms: C_2  and  N_1 
REMARK    2  A    between atoms: O_5  and  C_3 
REMARK    3  A    between atoms: C_4  and  O_5 
REMARK    4  A    between atoms: C_8  and  C_4 
REMARK    5  A    between atoms: C_6  and  C_8 
REMARK    6  A    between atoms: C_10  and  C_6 
REMARK    7  A    between atoms: C_7  and  C_10 
REMARK    8  A    between atoms: O_12  and  C_7 
ROOT
ATOM      1  C   UNL d   1       5.941  -2.063  -1.048  0.00  0.00     0.264 C 
ATOM      2  O   UNL d   1       5.854  -2.914  -0.174  0.00  0.00    -0.265 OA
ENDROOT
BRANCH   1   3
ATOM      3  O   UNL d   1       5.180  -0.887  -1.131  0.00  0.00    -0.277 OA
BRANCH   3   4
ATOM      4  C   UNL d   1       4.691  -0.439   0.119  0.00  0.00     0.105 C 
ATOM      5  C   UNL d   1       3.324  -0.163   0.390  0.00  0.00     0.064 C 
ATOM      6  C   UNL d   1       3.080   0.115   1.760  0.00  0.00     0.032 C 
ATOM      7  C   UNL d   1       4.079   0.206   2.743  0.00  0.00     0.002 C 
ATOM      8  C   UNL d   1       5.406   0.062   2.398  0.00  0.00     0.003 C 
ATOM      9  C   UNL d   1       5.711  -0.248   1.086  0.00  0.00     0.040 C 
BRANCH   5  10
ATOM     10  N   UNL d   1       2.275  -0.087  -0.531  0.00  0.00    -0.379 N 
ATOM     11  C   UNL d   1       0.853  -0.024  -0.116  0.00  0.00     0.123 C 
ATOM     12  C   UNL d   1       0.147   1.136  -0.819  0.00  0.00     0.020 C 
ATOM     13  C   UNL d   1       0.216   0.956  -2.326  0.00  0.00     0.003 C 
ATOM     14  C   UNL d   1       1.669   0.809  -2.764  0.00  0.00     0.020 C 
ATOM     15  C   UNL d   1       2.432  -0.275  -1.982  0.00  0.00     0.123 C 
ENDBRANCH   5  10
ENDBRANCH   3   4
ENDBRANCH   1   3
BRANCH   1  16
ATOM     16  C   UNL d   1       6.936  -2.125  -2.201  0.00  0.00     0.121 C 
BRANCH  16  17
ATOM     17  C   UNL d   1       8.332  -2.746  -1.869  0.00  0.00    -0.022 C 
ATOM     18  C   UNL d   1       9.195  -1.798  -0.999  0.00  0.00     0.010 C 
ATOM     19  C   UNL d   1      10.647  -2.196  -1.275  0.00  0.00     0.001 C 
ATOM     20  C   UNL d   1      10.655  -2.821  -2.668  0.00  0.00     0.001 C 
ATOM     21  C   UNL d   1       9.205  -2.788  -3.149  0.00  0.00     0.010 C 
BRANCH  17  22
ATOM     22  C   UNL d   1       8.280  -4.143  -1.185  0.00  0.00     0.119 C 
BRANCH  22  23
ATOM     23  C   UNL d   1       7.391  -5.169  -1.857  0.00  0.00     0.140 C 
ATOM     24  O   UNL d   1       6.999  -5.115  -3.013  0.00  0.00    -0.650 OA
BRANCH  23  25
ATOM     25  O   UNL d   1       7.120  -6.223  -1.057  0.00  0.00    -0.776 OA
ATOM     26  H   UNL d   1       7.458  -6.122  -0.147  0.00  0.00     0.167 HD
ENDBRANCH  23  25
ENDBRANCH  22  23
ENDBRANCH  17  22
ENDBRANCH  16  17
ENDBRANCH   1  16
TORSDOF 8
