REMARK  4 active torsions:
REMARK  status: ('A' for Active; 'I' for Inactive)
REMARK    1  A    between atoms: C_5  and  N_1 
REMARK    2  A    between atoms: C_4  and  C_6 
REMARK    3  A    between atoms: O_16  and  C_4 
REMARK    4  A    between atoms: C_17  and  O_16 
ROOT
ATOM      1  C   UNL d   1       0.093   2.286  -0.117  0.00  0.00     0.045 A 
ATOM      2  C   UNL d   1       0.210   5.123  -0.214  0.00  0.00     0.039 A 
ATOM      3  C   UNL d   1      -0.572   3.077   0.835  0.00  0.00     0.031 A 
ATOM      4  C   UNL d   1       0.805   2.957  -1.124  0.00  0.00     0.031 A 
ATOM      5  C   UNL d   1      -0.510   4.479   0.793  0.00  0.00     0.020 A 
ATOM      6  C   UNL d   1       0.866   4.352  -1.175  0.00  0.00     0.020 A 
ENDROOT
BRANCH   1   7
ATOM      7  N   UNL d   1       0.052   0.859  -0.076  0.00  0.00    -0.252 N 
ATOM      8  C   UNL d   1       0.978   0.045  -0.692  0.00  0.00     0.231 A 
ATOM      9  C   UNL d   1       0.623  -1.389  -0.449  0.00  0.00     0.113 A 
ATOM     10  O   UNL d   1       1.986   0.350  -1.317  0.00  0.00    -0.273 OA
ATOM     11  C   UNL d   1      -0.625  -1.339   0.393  0.00  0.00     0.113 A 
ATOM     12  C   UNL d   1      -0.899   0.121   0.589  0.00  0.00     0.231 A 
ATOM     13  O   UNL d   1      -1.873   0.508   1.226  0.00  0.00    -0.273 OA
ENDBRANCH   1   7
BRANCH   2  14
ATOM     14  C   UNL d   1       0.187   6.609  -0.280  0.00  0.00     0.293 C 
ATOM     15  O   UNL d   1      -0.458   7.314   0.478  0.00  0.00    -0.259 OA
BRANCH  14  16
ATOM     16  O   UNL d   1       0.892   7.022  -1.361  0.00  0.00    -0.318 OA
BRANCH  16  17
ATOM     17  C   UNL d   1       0.608   8.347  -1.825  0.00  0.00     0.174 C 
ATOM     18  C   UNL d   1      -0.550   8.262  -2.804  0.00  0.00     0.034 C 
ENDBRANCH  16  17
ENDBRANCH  14  16
ENDBRANCH   2  14
TORSDOF 4
