REMARK  6 active torsions:
REMARK  status: ('A' for Active; 'I' for Inactive)
REMARK    1  A    between atoms: N_3  and  S_1 
REMARK    2  A    between atoms: C_9  and  S_1 
REMARK    3  A    between atoms: C_2  and  C_5 
REMARK    4  A    between atoms: N_7  and  N_3 
REMARK       I    between atoms: C_5  and  N_12 
REMARK       I    between atoms: C_8  and  N_7 
REMARK    5  A    between atoms: C_17  and  C_8 
REMARK    6  A    between atoms: N_12  and  C_17 
ROOT
ATOM      1  N   UNL d   1       0.876   2.636   0.613  0.00  0.00    -0.259 N 
ATOM      2  C   UNL d   1       0.491   3.933   0.341  0.00  0.00     0.254 C 
ATOM      3  O   UNL d   1      -0.373   4.221  -0.487  0.00  0.00    -0.270 OA
ATOM      4  H   UNL d   1       1.452   2.401   1.424  0.00  0.00     0.190 HD
ENDROOT
BRANCH   1   5
ATOM      5  N   UNL d   1       0.272   1.569  -0.144  0.00  0.00    -0.220 N 
ATOM      6  H   UNL d   1      -0.378   1.789  -0.905  0.00  0.00     0.200 HD
BRANCH   5   7
ATOM      7  S   UNL d   1       0.376  -0.027   0.369  0.00  0.00     0.276 S 
ATOM      8  O   UNL d   1       1.735  -0.269   0.805  0.00  0.00    -0.199 OA
ATOM      9  O   UNL d   1      -0.269  -0.851  -0.632  0.00  0.00    -0.199 OA
BRANCH   7  10
ATOM     10  C   UNL d   1      -0.663   0.012   1.809  0.00  0.00     0.081 A 
ATOM     11  C   UNL d   1      -2.029  -0.252   1.683  0.00  0.00     0.026 A 
ATOM     12  C   UNL d   1      -2.836  -0.245   2.821  0.00  0.00     0.008 A 
ATOM     13  C   UNL d   1      -2.284   0.017   4.084  0.00  0.00    -0.062 A 
ATOM     14  C   UNL d   1      -0.913   0.280   4.194  0.00  0.00     0.008 A 
ATOM     15  C   UNL d   1      -3.159  -0.013   5.302  0.00  0.00     0.048 C 
ATOM     16  C   UNL d   1      -0.100   0.272   3.060  0.00  0.00     0.026 A 
ENDBRANCH   7  10
ENDBRANCH   5   7
ENDBRANCH   1   5
BRANCH   2  17
ATOM     17  C   UNL d   1       1.149   4.968   1.243  0.00  0.00     0.227 C 
BRANCH  17  18
ATOM     18  N   UNL d   1       0.345   5.196   2.423  0.00  0.00    -0.348 N 
ATOM     19  C   UNL d   1       0.452   4.402   3.545  0.00  0.00     0.258 C 
ATOM     20  O   UNL d   1       1.215   3.435   3.550  0.00  0.00    -0.267 OA
ATOM     21  H   UNL d   1      -0.400   5.883   2.389  0.00  0.00     0.163 HD
BRANCH  19  22
ATOM     22  C   UNL d   1      -0.374   4.787   4.683  0.00  0.00     0.073 A 
ATOM     23  S   UNL d   1      -1.435   6.133   4.625  0.00  0.00    -0.096 SA
ATOM     24  C   UNL d   1      -1.919   5.914   6.246  0.00  0.00     0.057 A 
ATOM     25  C   UNL d   1      -1.307   4.831   6.846  0.00  0.00    -0.054 A 
ATOM     26  C   UNL d   1      -0.418   4.182   5.927  0.00  0.00     0.031 A 
ATOM     27  C   UNL d   1      -1.540   4.409   8.257  0.00  0.00     0.048 C 
ENDBRANCH  19  22
ENDBRANCH  17  18
ENDBRANCH   2  17
TORSDOF 6
