REMARK  5 active torsions:
REMARK  status: ('A' for Active; 'I' for Inactive)
REMARK    1  A    between atoms: C_2  and  S_1 
REMARK    2  A    between atoms: N_5  and  S_1 
REMARK    3  A    between atoms: C_8  and  N_5 
REMARK    4  A    between atoms: O_17  and  C_15 
REMARK    5  A    between atoms: C_19  and  O_17 
ROOT
ATOM      1  N   UNL d   1       0.203  -1.037   1.380  0.00  0.00    -0.178 NA
ATOM      2  H   UNL d   1       0.913  -0.421   1.782  0.00  0.00     0.146 HD
ENDROOT
BRANCH   1   3
ATOM      3  S   UNL d   1      -0.208  -0.355  -0.124  0.00  0.00     0.252 S 
ATOM      4  O   UNL d   1      -0.650   1.001   0.141  0.00  0.00    -0.205 OA
ATOM      5  O   UNL d   1       0.870  -0.602  -1.059  0.00  0.00    -0.205 OA
BRANCH   3   6
ATOM      6  C   UNL d   1      -1.615  -1.159  -0.856  0.00  0.00     0.116 A 
ATOM      7  S   UNL d   1      -2.988  -1.402   0.130  0.00  0.00    -0.074 SA
ATOM      8  C   UNL d   1      -3.850  -2.200  -1.124  0.00  0.00     0.042 A 
ATOM      9  C   UNL d   1      -5.151  -2.774  -0.898  0.00  0.00     0.117 A 
ATOM     10  C   UNL d   1      -3.128  -2.196  -2.302  0.00  0.00     0.024 A 
ATOM     11  O   UNL d   1      -5.792  -2.739   0.316  0.00  0.00    -0.237 OA
ATOM     12  C   UNL d   1      -5.970  -3.458  -1.777  0.00  0.00     0.059 A 
ATOM     13  N   UNL d   1      -7.008  -3.396   0.237  0.00  0.00    -0.272 N 
ATOM     14  C   UNL d   1      -7.097  -3.820  -1.022  0.00  0.00     0.117 A 
ATOM     15  HN  UNL d   1      -7.690  -3.528   0.984  1.00  0.00     0.194 HD
ATOM     16  C   UNL d   1      -1.843  -1.598  -2.148  0.00  0.00     0.034 A 
ENDBRANCH   3   6
ENDBRANCH   1   3
BRANCH   1  17
ATOM     17  C   UNL d   1       0.650  -2.403   1.370  0.00  0.00     0.056 A 
ATOM     18  C   UNL d   1       1.982  -2.757   1.104  0.00  0.00     0.098 A 
ATOM     19  C   UNL d   1       2.333  -4.114   1.037  0.00  0.00     0.039 A 
ATOM     20  C   UNL d   1       1.393  -5.102   1.331  0.00  0.00     0.003 A 
ATOM     21  C   UNL d   1       0.088  -4.744   1.651  0.00  0.00     0.002 A 
ATOM     22  C   UNL d   1      -0.288  -3.400   1.651  0.00  0.00     0.027 A 
BRANCH  18  23
ATOM     23  O   UNL d   1       2.907  -1.743   0.924  0.00  0.00    -0.309 OA
BRANCH  23  24
ATOM     24  C   UNL d   1       4.199  -1.994   1.336  0.00  0.00     0.076 A 
ATOM     25  C   UNL d   1       5.229  -1.778   0.419  0.00  0.00     0.037 A 
ATOM     26  C   UNL d   1       6.545  -2.079   0.774  0.00  0.00     0.003 A 
ATOM     27  C   UNL d   1       6.831  -2.582   2.045  0.00  0.00     0.000 A 
ATOM     28  C   UNL d   1       5.806  -2.757   2.974  0.00  0.00     0.003 A 
ATOM     29  C   UNL d   1       4.491  -2.445   2.628  0.00  0.00     0.037 A 
ENDBRANCH  23  24
ENDBRANCH  18  23
ENDBRANCH   1  17
TORSDOF 5
