REMARK  6 active torsions:
REMARK  status: ('A' for Active; 'I' for Inactive)
REMARK    1  A    between atoms: S_3  and  C_1 
REMARK    2  A    between atoms: S_2  and  C_4 
REMARK    3  A    between atoms: N_12  and  S_2 
REMARK    4  A    between atoms: C_18  and  S_3 
REMARK    5  A    between atoms: C_7  and  C_19 
REMARK    6  A    between atoms: C_19  and  N_12 
ROOT
ATOM      1  S   UNL d   1      -0.629   2.873  -0.437  0.00  0.00     0.265 S 
ATOM      2  O   UNL d   1      -1.316   3.133   0.806  0.00  0.00    -0.200 OA
ATOM      3  O   UNL d   1       0.521   3.632  -0.844  0.00  0.00    -0.200 OA
ENDROOT
BRANCH   1   4
ATOM      4  C   UNL d   1      -0.026   1.201  -0.275  0.00  0.00     0.121 A 
ATOM      5  C   UNL d   1      -0.037   0.299   0.774  0.00  0.00     0.057 A 
ATOM      6  C   UNL d   1       0.585  -0.939   0.428  0.00  0.00     0.072 A 
ATOM      7  C   UNL d   1       1.085  -0.926  -0.857  0.00  0.00     0.074 A 
ATOM      8  S   UNL d   1       0.764   0.556  -1.651  0.00  0.00    -0.087 SA
BRANCH   6   9
ATOM      9  S   UNL d   1       0.693  -2.313   1.481  0.00  0.00     0.207 S 
ATOM     10  O   UNL d   1      -0.464  -2.177   2.364  0.00  0.00    -0.217 OA
ATOM     11  O   UNL d   1       0.851  -3.442   0.605  0.00  0.00    -0.217 OA
BRANCH   9  12
ATOM     12  C   UNL d   1       2.170  -2.088   2.423  0.00  0.00     0.064 A 
ATOM     13  C   UNL d   1       2.115  -1.435   3.658  0.00  0.00     0.024 A 
ATOM     14  C   UNL d   1       3.286  -1.266   4.397  0.00  0.00     0.002 A 
ATOM     15  C   UNL d   1       4.497  -1.766   3.915  0.00  0.00     0.000 A 
ATOM     16  C   UNL d   1       4.540  -2.449   2.699  0.00  0.00     0.002 A 
ATOM     17  C   UNL d   1       3.376  -2.613   1.948  0.00  0.00     0.024 A 
ENDBRANCH   9  12
ENDBRANCH   6   9
ENDBRANCH   1   4
BRANCH   1  18
ATOM     18  N   UNL d   1      -1.758   2.929  -1.681  0.00  0.00    -0.311 N 
ATOM     19  H   UNL d   1      -1.415   2.496  -2.545  0.00  0.00     0.172 HD
BRANCH  18  20
ATOM     20  C   UNL d   1      -3.172   2.653  -1.355  0.00  0.00     0.172 C 
BRANCH  20  21
ATOM     21  C   UNL d   1      -3.952   2.943  -2.614  0.00  0.00    -0.022 C 
ATOM     22  C   UNL d   1      -4.211   1.979  -3.658  0.00  0.00    -0.009 C 
ATOM     23  C   UNL d   1      -4.136   2.644  -4.884  0.00  0.00     0.015 C 
ATOM     24  C   UNL d   1      -4.176   0.569  -3.661  0.00  0.00     0.037 C 
ATOM     25  C   UNL d   1      -3.659   1.998  -6.032  0.00  0.00     0.021 C 
ATOM     26  S   UNL d   1      -4.687   4.263  -4.691  0.00  0.00    -0.101 SA
ATOM     27  C   UNL d   1      -3.279   0.660  -5.909  0.00  0.00     0.025 C 
ATOM     28  C   UNL d   1      -3.638  -0.066  -4.780  0.00  0.00     0.035 C 
ATOM     29 CL   UNL d   1      -3.338  -1.759  -4.721  0.00  0.00    -0.084 Cl
ATOM     30  C   UNL d   1      -4.350   4.207  -3.014  0.00  0.00     0.060 C 
ENDBRANCH  20  21
ENDBRANCH  18  20
ENDBRANCH   1  18
TORSDOF 6
