REMARK  3 active torsions:
REMARK  status: ('A' for Active; 'I' for Inactive)
REMARK    1  A    between atoms: N_2  and  S_1 
REMARK    2  A    between atoms: C_3  and  S_1 
REMARK    3  A    between atoms: C_17  and  C_13 
ROOT
ATOM      1  S   UNL d   1       0.991   0.019   0.093  0.00  0.00     0.243 S 
ATOM      2  O   UNL d   1       0.669   0.853  -1.046  0.00  0.00    -0.206 OA
ATOM      3  O   UNL d   1       0.624  -1.381   0.128  0.00  0.00    -0.206 OA
ENDROOT
BRANCH   1   4
ATOM      4  N   UNL d   1       0.351   0.787   1.492  0.00  0.00    -0.206 NA
ATOM      5  C   UNL d   1       0.486   2.275   1.489  0.00  0.00     0.112 C 
ATOM      6  C   UNL d   1       0.108   2.858   2.864  0.00  0.00    -0.001 C 
ATOM      7  C   UNL d   1      -1.310   2.401   3.243  0.00  0.00     0.007 C 
ATOM      8  C   UNL d   1      -1.444   0.884   3.186  0.00  0.00     0.016 C 
ATOM      9  C   UNL d   1      -1.037   0.352   1.814  0.00  0.00     0.107 C 
BRANCH   6  10
ATOM     10  C   UNL d   1       1.186   2.512   3.913  0.00  0.00     0.001 C 
ATOM     11  C   UNL d   1       0.903   3.079   5.297  0.00  0.00     0.005 C 
ENDBRANCH   6  10
ENDBRANCH   1   4
BRANCH   1  12
ATOM     12  C   UNL d   1       2.745   0.082   0.367  0.00  0.00     0.074 A 
ATOM     13  C   UNL d   1       3.261  -0.485   1.536  0.00  0.00     0.025 A 
ATOM     14  C   UNL d   1       4.642  -0.510   1.739  0.00  0.00     0.008 A 
ATOM     15  C   UNL d   1       5.511   0.016   0.773  0.00  0.00    -0.062 A 
ATOM     16  C   UNL d   1       4.979   0.587  -0.392  0.00  0.00     0.008 A 
ATOM     17  C   UNL d   1       6.995  -0.043   1.002  0.00  0.00     0.048 C 
ATOM     18  C   UNL d   1       3.597   0.622  -0.598  0.00  0.00     0.025 A 
ENDBRANCH   1  12
TORSDOF 3
