REMARK  4 active torsions:
REMARK  status: ('A' for Active; 'I' for Inactive)
REMARK    1  A    between atoms: C_7  and  C_1 
REMARK    2  A    between atoms: N_11  and  C_2 
REMARK    3  A    between atoms: C_6  and  C_7 
REMARK    4  A    between atoms: C_16  and  N_11 
ROOT
ATOM      1  C   UNL d   1       1.338  -1.123  -0.026  0.00  0.00     0.087 A 
ATOM      2  C   UNL d   1       0.521   1.248   0.014  0.00  0.00     0.098 A 
ATOM      3  C   UNL d   1      -0.509   0.320   0.021  0.00  0.00     0.106 A 
ATOM      4  S   UNL d   1       2.032   0.438  -0.146  0.00  0.00    -0.064 SA
ATOM      5  C   UNL d   1      -0.042  -1.035   0.020  0.00  0.00     0.071 A 
ATOM      6  C   UNL d   1      -1.889   0.706   0.047  0.00  0.00     0.104 C 
ATOM      7  N   UNL d   1      -3.001   1.037   0.052  0.00  0.00    -0.191 NA
ATOM      8  N   UNL d   1      -0.849  -2.121   0.069  0.00  0.00    -0.397 N 
ATOM      9  H   UNL d   1      -1.864  -2.080   0.000  0.00  0.00     0.156 HD
ATOM     10  H   UNL d   1      -0.480  -3.065  -0.072  0.00  0.00     0.156 HD
ENDROOT
BRANCH   2  11
ATOM     11  N   UNL d   1       0.419   2.613   0.009  0.00  0.00    -0.349 N 
ATOM     12  H   UNL d   1      -0.487   3.040  -0.181  0.00  0.00     0.166 HD
BRANCH  11  13
ATOM     13  C   UNL d   1       1.262   3.529   0.688  0.00  0.00     0.034 A 
ATOM     14  C   UNL d   1       2.061   3.171   1.782  0.00  0.00     0.053 A 
ATOM     15  C   UNL d   1       2.889   4.111   2.397  0.00  0.00     0.036 A 
ATOM     16 CL   UNL d   1       3.844   3.643   3.752  0.00  0.00    -0.084 Cl
ATOM     17  C   UNL d   1       2.943   5.420   1.931  0.00  0.00     0.024 A 
ATOM     18  C   UNL d   1       2.165   5.791   0.837  0.00  0.00     0.004 A 
ATOM     19  C   UNL d   1       1.332   4.851   0.221  0.00  0.00     0.029 A 
ENDBRANCH  11  13
ENDBRANCH   2  11
BRANCH   1  20
ATOM     20  C   UNL d   1       2.160  -2.332  -0.107  0.00  0.00     0.225 C 
ATOM     21  O   UNL d   1       1.746  -3.366  -0.634  0.00  0.00    -0.284 OA
BRANCH  20  22
ATOM     22  C   UNL d   1       3.494  -2.258   0.467  0.00  0.00     0.128 A 
ATOM     23  O   UNL d   1       3.725  -1.465   1.561  0.00  0.00    -0.306 OA
ATOM     24  C   UNL d   1       5.038  -1.587   1.886  0.00  0.00     0.086 A 
ATOM     25  C   UNL d   1       5.672  -0.914   2.928  0.00  0.00     0.040 A 
ATOM     26  C   UNL d   1       5.668  -2.480   1.030  0.00  0.00     0.002 A 
ATOM     27  C   UNL d   1       7.037  -1.171   3.094  0.00  0.00     0.026 A 
ATOM     28  C   UNL d   1       7.706  -2.062   2.250  0.00  0.00     0.035 A 
ATOM     29  C   UNL d   1       7.041  -2.729   1.212  0.00  0.00     0.038 A 
ATOM     30 CL   UNL d   1       9.388  -2.346   2.490  0.00  0.00    -0.084 Cl
ATOM     31  C   UNL d   1       4.660  -2.928   0.134  0.00  0.00     0.055 A 
ENDBRANCH  20  22
ENDBRANCH   1  20
TORSDOF 4
