REMARK  4 active torsions:
REMARK  status: ('A' for Active; 'I' for Inactive)
REMARK    1  A    between atoms: C_7  and  C_1 
REMARK    2  A    between atoms: C_2  and  C_7 
REMARK    3  A    between atoms: C_18  and  C_7 
REMARK    4  A    between atoms: C_23  and  C_18 
ROOT
ATOM      1  C   UNL d   1       0.757   1.337  -1.773  0.00  0.00     0.022 C 
ENDROOT
BRANCH   1   2
ATOM      2  C   UNL d   1      -0.086   2.588  -2.205  0.00  0.00     0.130 C 
ATOM      3  C   UNL d   1      -1.581   2.523  -1.930  0.00  0.00     0.139 C 
ATOM      4  C   UNL d   1      -2.495   1.814  -2.915  0.00  0.00     0.088 C 
ATOM      5  O   UNL d   1      -2.039   2.935  -0.863  0.00  0.00    -0.297 OA
ATOM      6  C   UNL d   1      -2.143   1.969  -4.409  0.00  0.00    -0.035 C 
ATOM      7  C   UNL d   1      -0.628   1.916  -4.635  0.00  0.00     0.088 C 
ATOM      8  C   UNL d   1      -2.792   0.803  -5.182  0.00  0.00     0.015 C 
ATOM      9  C   UNL d   1      -2.708   3.287  -4.977  0.00  0.00     0.015 C 
ATOM     10  C   UNL d   1       0.074   2.865  -3.694  0.00  0.00     0.139 C 
ATOM     11  O   UNL d   1       0.771   3.785  -4.121  0.00  0.00    -0.297 OA
ENDBRANCH   1   2
BRANCH   1  12
ATOM     12  C   UNL d   1       0.815   1.047  -0.233  0.00  0.00     0.130 C 
ATOM     13  C   UNL d   1       1.729  -0.145   0.085  0.00  0.00     0.139 C 
ATOM     14  C   UNL d   1       1.185  -1.543  -0.212  0.00  0.00     0.088 C 
ATOM     15  O   UNL d   1       2.894   0.012   0.439  0.00  0.00    -0.297 OA
ATOM     16  C   UNL d   1      -0.252  -1.781   0.308  0.00  0.00    -0.035 C 
ATOM     17  C   UNL d   1      -1.160  -0.586  -0.034  0.00  0.00     0.088 C 
ATOM     18  C   UNL d   1      -0.828  -3.041  -0.366  0.00  0.00     0.015 C 
ATOM     19  C   UNL d   1      -0.236  -2.020   1.831  0.00  0.00     0.015 C 
ATOM     20  C   UNL d   1      -0.506   0.696   0.429  0.00  0.00     0.139 C 
ATOM     21  O   UNL d   1      -0.939   1.321   1.393  0.00  0.00    -0.297 OA
ENDBRANCH   1  12
BRANCH   1  22
ATOM     22  C   UNL d   1       2.211   1.445  -2.353  0.00  0.00     0.006 C 
BRANCH  22  23
ATOM     23  C   UNL d   1       3.003   2.678  -1.895  0.00  0.00    -0.004 C 
ATOM     24  C   UNL d   1       4.388   2.712  -2.526  0.00  0.00     0.005 C 
ENDBRANCH  22  23
ENDBRANCH   1  22
TORSDOF 4
