REMARK  4 active torsions:
REMARK  status: ('A' for Active; 'I' for Inactive)
REMARK    1  A    between atoms: C_9  and  N_1 
REMARK    2  A    between atoms: N_5  and  C_10 
REMARK    3  A    between atoms: N_11  and  N_7 
REMARK    4  A    between atoms: C_18  and  C_17 
ROOT
ATOM      1  N   UNL d   1       1.080   0.277   0.209  0.00  0.00    -0.287 N 
ATOM      2  C   UNL d   1       0.708  -1.046   0.084  0.00  0.00     0.165 C 
ATOM      3  C   UNL d   1       0.221   1.132  -0.463  0.00  0.00     0.240 C 
ATOM      4  S   UNL d   1      -0.957  -1.176  -0.492  0.00  0.00    -0.078 SA
ATOM      5  C   UNL d   1      -1.188   0.604  -0.459  0.00  0.00     0.144 C 
ATOM      6  N   UNL d   1       1.462  -2.068   0.357  0.00  0.00    -0.280 N 
ATOM      7  HN  UNL d   1       2.430  -1.986   0.666  1.00  0.00     0.189 HD
ATOM      8  O   UNL d   1       0.512   2.204  -0.984  0.00  0.00    -0.272 OA
ATOM      9  C   UNL d   1      -1.880   1.031   0.829  0.00  0.00     0.031 C 
ENDROOT
BRANCH   6  10
ATOM     10  N   UNL d   1       0.811  -3.290   0.184  0.00  0.00    -0.309 N 
ATOM     11  C   UNL d   1       1.551  -4.322   0.422  0.00  0.00     0.118 C 
ATOM     12  HN  UNL d   1      -0.164  -3.362  -0.106  1.00  0.00     0.186 HD
BRANCH  11  13
ATOM     13  C   UNL d   1       0.974  -5.683   0.325  0.00  0.00    -0.017 A 
ATOM     14  C   UNL d   1      -0.360  -5.859  -0.064  0.00  0.00     0.048 A 
ATOM     15  C   UNL d   1      -0.897  -7.150  -0.114  0.00  0.00     0.103 A 
ATOM     16  C   UNL d   1      -0.111  -8.263   0.219  0.00  0.00     0.036 A 
ATOM     17  C   UNL d   1       1.221  -8.076   0.598  0.00  0.00     0.003 A 
ATOM     18  C   UNL d   1       1.766  -6.789   0.650  0.00  0.00     0.013 A 
BRANCH  15  19
ATOM     19  N   UNL d   1      -2.300  -7.343  -0.509  0.00  0.00    -0.116 N 
ATOM     20  O   UNL d   1      -2.955  -6.343  -0.825  0.00  0.00    -0.532 OA
ATOM     21  O   UNL d   1      -2.744  -8.501  -0.501  0.00  0.00    -0.532 OA
ENDBRANCH  15  19
ENDBRANCH  11  13
ENDBRANCH   6  10
BRANCH   1  22
ATOM     22  C   UNL d   1       2.410   0.765   0.692  0.00  0.00     0.031 C 
ATOM     23  C   UNL d   1       3.438   0.785  -0.449  0.00  0.00     0.038 C 
ATOM     24  C   UNL d   1       2.282   2.200   1.276  0.00  0.00     0.038 C 
ATOM     25  C   UNL d   1       2.959  -0.091   1.856  0.00  0.00     0.038 C 
ENDBRANCH   1  22
TORSDOF 4
