REMARK  6 active torsions:
REMARK  status: ('A' for Active; 'I' for Inactive)
REMARK    1  A    between atoms: S_12  and  C_2 
REMARK    2  A    between atoms: C_6  and  C_3 
REMARK    3  A    between atoms: C_19  and  S_12 
REMARK    4  A    between atoms: C_22  and  C_14 
REMARK    5  A    between atoms: C_15  and  C_19 
REMARK       I    between atoms: N_16  and  C_15 
REMARK    6  A    between atoms: C_17  and  N_16 
ROOT
ATOM      1  C   UNL d   1      -0.353  -4.951   0.835  0.00  0.00     0.088 A 
ATOM      2  C   UNL d   1      -1.609  -5.570   0.961  0.00  0.00     0.092 A 
ATOM      3  C   UNL d   1      -0.292  -3.613   0.393  0.00  0.00    -0.004 A 
ATOM      4  N   UNL d   1      -2.776  -4.927   0.714  0.00  0.00    -0.352 N 
ATOM      5  HN  UNL d   1      -3.677  -5.398   0.800  1.00  0.00     0.166 HD
ATOM      6  C   UNL d   1      -1.492  -2.947   0.202  0.00  0.00    -0.024 A 
ATOM      7  C   UNL d   1      -2.684  -3.641   0.351  0.00  0.00     0.017 A 
ATOM      8  C   UNL d   1       0.841  -5.625   1.244  0.00  0.00     0.103 C 
ATOM      9  N   UNL d   1       1.817  -6.138   1.615  0.00  0.00    -0.191 NA
ATOM     10  C   UNL d   1      -1.764  -1.509  -0.118  0.00  0.00     0.042 C 
ATOM     11  C   UNL d   1      -3.868  -2.742   0.127  0.00  0.00     0.058 C 
ATOM     12  C   UNL d   1      -3.214  -1.378   0.378  0.00  0.00     0.011 C 
ENDROOT
BRANCH   2  13
ATOM     13  S   UNL d   1      -1.804  -7.216   1.649  0.00  0.00    -0.101 SA
BRANCH  13  14
ATOM     14  C   UNL d   1      -3.469  -7.681   1.058  0.00  0.00     0.184 C 
BRANCH  14  15
ATOM     15  C   UNL d   1      -4.657  -7.090   1.814  0.00  0.00     0.231 C 
ATOM     16  N   UNL d   1      -4.364  -6.150   2.777  0.00  0.00    -0.326 N 
ATOM     17  H   UNL d   1      -3.453  -5.720   2.676  0.00  0.00     0.169 HD
ATOM     18  O   UNL d   1      -5.797  -7.457   1.522  0.00  0.00    -0.272 OA
BRANCH  16  19
ATOM     19  C   UNL d   1      -5.275  -5.502   3.626  0.00  0.00     0.036 A 
ATOM     20  C   UNL d   1      -4.903  -4.253   4.135  0.00  0.00     0.050 A 
ATOM     21  C   UNL d   1      -5.776  -3.538   4.958  0.00  0.00     0.019 A 
ATOM     22  C   UNL d   1      -5.414  -2.230   5.408  0.00  0.00    -0.078 C 
ATOM     23  C   UNL d   1      -7.007  -4.090   5.314  0.00  0.00     0.021 A 
ATOM     24  C   UNL d   1      -5.111  -1.123   5.762  0.00  0.00     0.018 C 
ATOM     25  C   UNL d   1      -7.367  -5.350   4.837  0.00  0.00     0.004 A 
ATOM     26  C   UNL d   1      -6.507  -6.050   3.988  0.00  0.00     0.029 A 
ENDBRANCH  16  19
ENDBRANCH  14  15
ENDBRANCH  13  14
ENDBRANCH   2  13
BRANCH   3  27
ATOM     27  C   UNL d   1       0.978  -2.905   0.184  0.00  0.00     0.014 C 
ATOM     28  C   UNL d   1       1.717  -2.949  -0.937  0.00  0.00     0.012 C 
BRANCH  28  29
ATOM     29  C   UNL d   1       1.396  -3.699  -2.156  0.00  0.00    -0.036 A 
ATOM     30  C   UNL d   1       0.758  -3.057  -3.223  0.00  0.00     0.011 A 
ATOM     31  C   UNL d   1       0.476  -3.756  -4.400  0.00  0.00     0.001 A 
ATOM     32  C   UNL d   1       0.829  -5.100  -4.515  0.00  0.00     0.000 A 
ATOM     33  C   UNL d   1       1.471  -5.744  -3.458  0.00  0.00     0.001 A 
ATOM     34  C   UNL d   1       1.759  -5.044  -2.283  0.00  0.00     0.011 A 
ENDBRANCH  28  29
ENDBRANCH   3  27
TORSDOF 6
