REMARK  4 active torsions:
REMARK  status: ('A' for Active; 'I' for Inactive)
REMARK    1  A    between atoms: C_5  and  N_1 
REMARK    2  A    between atoms: C_2  and  C_8 
REMARK       I    between atoms: N_3  and  C_2 
REMARK    3  A    between atoms: C_4  and  N_3 
REMARK       I    between atoms: C_9  and  N_10 
REMARK    4  A    between atoms: N_10  and  C_12 
ROOT
ATOM      1  C   UNL d   1      -3.792   3.849   4.580  0.00  0.00     0.256 C 
ATOM      2  N   UNL d   1      -3.114   2.808   3.981  0.00  0.00    -0.322 N 
ATOM      3  O   UNL d   1      -4.756   3.739   5.331  0.00  0.00    -0.267 OA
ATOM      4  H   UNL d   1      -2.148   2.967   3.729  0.00  0.00     0.169 HD
ENDROOT
BRANCH   2   5
ATOM      5  C   UNL d   1      -3.590   1.479   3.938  0.00  0.00     0.041 A 
ATOM      6  C   UNL d   1      -2.701   0.402   4.061  0.00  0.00    -0.033 A 
ATOM      7  C   UNL d   1      -3.183  -0.909   3.855  0.00  0.00     0.038 A 
ATOM      8  C   UNL d   1      -1.271   0.556   4.502  0.00  0.00     0.050 C 
ATOM      9  C   UNL d   1      -4.524  -1.160   3.533  0.00  0.00     0.035 A 
ATOM     10  C   UNL d   1      -5.403  -0.081   3.466  0.00  0.00     0.032 A 
ATOM     11  C   UNL d   1      -4.941   1.224   3.676  0.00  0.00     0.032 A 
BRANCH   9  12
ATOM     12  N   UNL d   1      -4.891  -2.502   3.289  0.00  0.00    -0.327 N 
ATOM     13  C   UNL d   1      -6.120  -2.974   2.868  0.00  0.00     0.218 C 
ATOM     14  O   UNL d   1      -7.130  -2.311   2.659  0.00  0.00    -0.274 OA
ATOM     15  C   UNL d   1      -6.141  -4.469   2.656  0.00  0.00     0.117 C 
ATOM     16  H   UNL d   1      -4.151  -3.184   3.396  0.00  0.00     0.169 HD
ENDBRANCH   9  12
ENDBRANCH   2   5
BRANCH   1  17
ATOM     17  C   UNL d   1      -3.255   5.207   4.314  0.00  0.00     0.032 A 
ATOM     18  C   UNL d   1      -2.920   5.598   3.011  0.00  0.00     0.019 A 
ATOM     19  C   UNL d   1      -2.589   6.933   2.747  0.00  0.00     0.037 A 
ATOM     20  C   UNL d   1      -2.588   7.869   3.793  0.00  0.00     0.102 A 
ATOM     21  C   UNL d   1      -2.882   7.472   5.105  0.00  0.00     0.037 A 
ATOM     22  C   UNL d   1      -3.223   6.140   5.360  0.00  0.00     0.019 A 
BRANCH  20  23
ATOM     23  N   UNL d   1      -2.322   9.285   3.503  0.00  0.00    -0.116 N 
ATOM     24  O   UNL d   1      -2.344  10.082   4.451  0.00  0.00    -0.532 OA
ATOM     25  O   UNL d   1      -2.097   9.598   2.325  0.00  0.00    -0.532 OA
ENDBRANCH  20  23
ENDBRANCH   1  17
TORSDOF 4
