REMARK  3 active torsions:
REMARK  status: ('A' for Active; 'I' for Inactive)
REMARK       I    between atoms: N_2  and  C_1 
REMARK       I    between atoms: N_4  and  C_1 
REMARK    1  A    between atoms: C_3  and  N_2 
REMARK    2  A    between atoms: C_14  and  N_4 
REMARK    3  A    between atoms: C_9  and  C_10 
ROOT
ATOM      1  C   UNL d   1       1.081  -0.037  -0.069  0.00  0.00     0.321 C 
ATOM      2  N   UNL d   1       2.416   0.243  -0.297  0.00  0.00    -0.338 N 
ATOM      3  N   UNL d   1       0.320   1.109  -0.040  0.00  0.00    -0.309 N 
ATOM      4  O   UNL d   1       0.671  -1.184   0.059  0.00  0.00    -0.247 OA
ATOM      5  H   UNL d   1       2.741   1.071   0.181  0.00  0.00     0.164 HD
ATOM      6  H   UNL d   1       0.738   1.925  -0.458  0.00  0.00     0.170 HD
ENDROOT
BRANCH   2   7
ATOM      7  C   UNL d   1       3.346  -0.883  -0.352  0.00  0.00     0.094 C 
ATOM      8  C   UNL d   1       4.820  -0.461  -0.551  0.00  0.00     0.064 C 
ATOM      9  C   UNL d   1       5.393  -1.671  -1.224  0.00  0.00    -0.050 A 
ATOM     10  C   UNL d   1       6.723  -2.026  -1.371  0.00  0.00     0.007 A 
ATOM     11  C   UNL d   1       4.379  -2.463  -1.771  0.00  0.00    -0.050 A 
ATOM     12  C   UNL d   1       7.023  -3.198  -2.073  0.00  0.00     0.001 A 
ATOM     13  C   UNL d   1       6.001  -3.986  -2.624  0.00  0.00     0.001 A 
ATOM     14  C   UNL d   1       4.664  -3.616  -2.480  0.00  0.00     0.007 A 
ATOM     15  C   UNL d   1       3.033  -1.869  -1.507  0.00  0.00     0.064 C 
ENDBRANCH   2   7
BRANCH   3  16
ATOM     16  C   UNL d   1      -1.055   1.174   0.277  0.00  0.00     0.036 A 
ATOM     17  C   UNL d   1      -1.749   0.130   0.886  0.00  0.00     0.030 A 
ATOM     18  C   UNL d   1      -3.100   0.266   1.218  0.00  0.00     0.010 A 
ATOM     19  C   UNL d   1      -3.807   1.452   0.962  0.00  0.00    -0.051 A 
ATOM     20  C   UNL d   1      -3.104   2.485   0.323  0.00  0.00     0.010 A 
ATOM     21  C   UNL d   1      -1.745   2.352  -0.007  0.00  0.00     0.030 A 
BRANCH  19  22
ATOM     22  C   UNL d   1      -5.273   1.578   1.410  0.00  0.00    -0.024 C 
ATOM     23  C   UNL d   1      -5.900   2.953   1.091  0.00  0.00     0.019 C 
ATOM     24  C   UNL d   1      -6.136   0.502   0.717  0.00  0.00     0.019 C 
ATOM     25  C   UNL d   1      -5.360   1.382   2.941  0.00  0.00     0.019 C 
ENDBRANCH  19  22
ENDBRANCH   3  16
TORSDOF 3
