REMARK  2 active torsions:
REMARK  status: ('A' for Active; 'I' for Inactive)
REMARK    1  A    between atoms: C_2  and  C_1 
REMARK       I    between atoms: N_5  and  C_2 
REMARK    2  A    between atoms: N_7  and  N_5 
ROOT
ATOM      1  C   UNL d   1       0.852  -1.183  -0.071  0.00  0.00     0.050 A 
ATOM      2  C   UNL d   1       0.236   0.077  -0.042  0.00  0.00     0.026 A 
ATOM      3 BR   UNL d   1      -1.641   0.354  -0.164  0.00  0.00    -0.050 Br
ATOM      4  C   UNL d   1       2.258  -1.251  -0.047  0.00  0.00     0.018 A 
ATOM      5  C   UNL d   1       1.022   1.237   0.027  0.00  0.00     0.020 A 
ATOM      6  C   UNL d   1       3.033  -0.092   0.020  0.00  0.00     0.001 A 
ATOM      7  C   UNL d   1       2.414   1.153   0.058  0.00  0.00     0.001 A 
ENDROOT
BRANCH   1   8
ATOM      8  C   UNL d   1       0.144  -2.489  -0.165  0.00  0.00     0.267 C 
ATOM      9  O   UNL d   1       0.649  -3.422  -0.788  0.00  0.00    -0.266 OA
ATOM     10  N   UNL d   1      -1.055  -2.617   0.520  0.00  0.00    -0.290 N 
ATOM     11  H   UNL d   1      -1.432  -1.849   1.074  0.00  0.00     0.183 HD
BRANCH  10  12
ATOM     12  N   UNL d   1      -1.747  -3.846   0.487  0.00  0.00    -0.247 NA
ATOM     13  H   UNL d   1      -1.068  -4.554   0.170  0.00  0.00     0.143 HD
ATOM     14  H   UNL d   1      -2.421  -3.802  -0.282  0.00  0.00     0.143 HD
ENDBRANCH  10  12
ENDBRANCH   1   8
TORSDOF 2
