REMARK  3 active torsions:
REMARK  status: ('A' for Active; 'I' for Inactive)
REMARK    1  A    between atoms: C_8  and  N_1 
REMARK    2  A    between atoms: C_9  and  C_6 
REMARK    3  A    between atoms: O_11  and  C_9 
ROOT
ATOM      1  N   UNL d   1      -0.043  -1.156   0.003  0.00  0.00    -0.197 N 
ATOM      2  N   UNL d   1       1.236  -0.715   0.173  0.00  0.00    -0.279 N 
ATOM      3  HN  UNL d   1       2.085  -1.259   0.327  1.00  0.00     0.189 HD
ATOM      4  N   UNL d   1      -0.983  -0.186  -0.167  0.00  0.00    -0.282 N 
ATOM      5  HN  UNL d   1      -1.987  -0.291  -0.312  1.00  0.00     0.189 HD
ATOM      6  C   UNL d   1       1.095   0.617   0.087  0.00  0.00     0.074 A 
ATOM      7  C   UNL d   1      -0.264   0.939  -0.098  0.00  0.00     0.050 A 
ATOM      8  C   UNL d   1      -0.900   2.269  -0.216  0.00  0.00     0.072 C 
ENDROOT
BRANCH   1   9
ATOM      9  C   UNL d   1      -0.371  -2.536   0.004  0.00  0.00     0.074 A 
ATOM     10  C   UNL d   1       0.616  -3.493   0.283  0.00  0.00     0.033 A 
ATOM     11  C   UNL d   1       0.288  -4.851   0.286  0.00  0.00     0.002 A 
ATOM     12  C   UNL d   1      -1.014  -5.257  -0.001  0.00  0.00     0.000 A 
ATOM     13  C   UNL d   1      -1.998  -4.308  -0.283  0.00  0.00     0.002 A 
ATOM     14  C   UNL d   1      -1.681  -2.948  -0.277  0.00  0.00     0.033 A 
ENDBRANCH   1   9
BRANCH   6  15
ATOM     15  C   UNL d   1       2.277   1.516   0.189  0.00  0.00     0.224 C 
BRANCH  15  16
ATOM     16  O   UNL d   1       3.483   0.862  -0.211  0.00  0.00    -0.395 OA
ATOM     17  H   UNL d   1       3.296  -0.092  -0.099  0.00  0.00     0.209 HD
ENDBRANCH  15  16
ENDBRANCH   6  15
TORSDOF 3
