REMARK  4 active torsions:
REMARK  status: ('A' for Active; 'I' for Inactive)
REMARK       I    between atoms: N_2  and  C_1 
REMARK       I    between atoms: N_3  and  C_1 
REMARK       I    between atoms: C_4  and  N_2 
REMARK    1  A    between atoms: C_12  and  N_2 
REMARK    2  A    between atoms: C_7  and  N_3 
REMARK    3  A    between atoms: C_8  and  C_4 
REMARK    4  A    between atoms: C_16  and  C_12 
ROOT
ATOM      1  N   UNL d   1      -3.573  -0.616   3.461  0.00  0.00    -0.197 NA
ATOM      2  C   UNL d   1      -2.826   0.164   3.034  0.00  0.00     0.068 C 
ATOM      3  C   UNL d   1      -1.868   1.157   2.557  0.00  0.00     0.227 C 
ENDROOT
BRANCH   3   4
ATOM      4  C   UNL d   1      -1.176   0.697   1.289  0.00  0.00     0.240 C 
ATOM      5  N   UNL d   1       0.072   0.068   1.361  0.00  0.00    -0.269 N 
ATOM      6  C   UNL d   1       0.835  -0.308   0.226  0.00  0.00     0.329 C 
ATOM      7  N   UNL d   1       0.235  -0.108  -0.995  0.00  0.00    -0.308 N 
ATOM      8  O   UNL d   1       1.960  -0.792   0.339  0.00  0.00    -0.246 OA
ATOM      9  H   UNL d   1      -0.518   0.573  -1.029  0.00  0.00     0.170 HD
ATOM     10  O   UNL d   1      -1.733   0.940   0.210  0.00  0.00    -0.272 OA
BRANCH   5  11
ATOM     11  C   UNL d   1       0.679  -0.359   2.631  0.00  0.00     0.136 C 
BRANCH  11  12
ATOM     12  C   UNL d   1       0.190  -1.736   3.104  0.00  0.00     0.016 C 
ATOM     13  C   UNL d   1       0.329  -2.849   2.074  0.00  0.00     0.006 C 
ENDBRANCH  11  12
ENDBRANCH   5  11
BRANCH   7  14
ATOM     14  C   UNL d   1       0.647  -0.699  -2.207  0.00  0.00     0.042 A 
ATOM     15  C   UNL d   1       0.412  -0.044  -3.428  0.00  0.00    -0.035 A 
ATOM     16  C   UNL d   1      -0.086   1.371  -3.523  0.00  0.00     0.050 C 
ATOM     17  C   UNL d   1       0.707  -0.719  -4.627  0.00  0.00     0.009 A 
ATOM     18  C   UNL d   1       1.244  -2.006  -4.618  0.00  0.00     0.001 A 
ATOM     19  C   UNL d   1       1.507  -2.634  -3.406  0.00  0.00     0.002 A 
ATOM     20  C   UNL d   1       1.215  -1.982  -2.209  0.00  0.00     0.030 A 
ENDBRANCH   7  14
ENDBRANCH   3   4
TORSDOF 4
