REMARK  0 active torsions:
REMARK  status: ('A' for Active; 'I' for Inactive)
ROOT
ATOM      1  C   UNL d   1      -0.162  -1.472  -0.148  0.00  0.00    -0.019 A 
ATOM      2  C   UNL d   1       0.088  -0.324  -1.173  0.00  0.00    -0.019 A 
ATOM      3  C   UNL d   1      -1.741   0.271   0.265  0.00  0.00     0.128 C 
ATOM      4  C   UNL d   1       1.791  -0.234   0.494  0.00  0.00     0.128 C 
ATOM      5  C   UNL d   1      -0.999   0.748  -0.945  0.00  0.00     0.089 C 
ATOM      6  C   UNL d   1       1.489   0.250  -0.888  0.00  0.00     0.089 C 
ATOM      7  C   UNL d   1      -1.503  -1.179   0.547  0.00  0.00     0.089 C 
ATOM      8  C   UNL d   1       1.010  -1.460   0.856  0.00  0.00     0.089 C 
ATOM      9  O   UNL d   1      -2.531   0.961   0.891  0.00  0.00    -0.298 OA
ATOM     10  O   UNL d   1       2.654   0.256   1.211  0.00  0.00    -0.298 OA
ATOM     11  C   UNL d   1      -0.225  -2.788  -0.938  0.00  0.00     0.011 A 
ATOM     12  C   UNL d   1       0.007  -0.947  -2.573  0.00  0.00     0.011 A 
ATOM     13  C   UNL d   1      -0.112  -2.455  -2.416  0.00  0.00     0.002 A 
ENDROOT
TORSDOF 0
