REMARK  3 active torsions:
REMARK  status: ('A' for Active; 'I' for Inactive)
REMARK    1  A    between atoms: C_2  and  C_1 
REMARK    2  A    between atoms: O_11  and  C_1 
REMARK    3  A    between atoms: C_8  and  C_7 
ROOT
ATOM      1  C   UNL d   1      -0.950   0.508  -0.586  0.00  0.00     0.233 C 
ATOM      2  N   UNL d   1      -0.373   0.797   0.732  0.00  0.00    -0.198 NA
ATOM      3  N   UNL d   1       0.861   0.247   0.893  0.00  0.00    -0.322 N 
ATOM      4  HN  UNL d   1       1.555   0.495   1.598  1.00  0.00     0.180 HD
ATOM      5  C   UNL d   1      -0.227  -0.792  -0.925  0.00  0.00     0.124 C 
ATOM      6  C   UNL d   1       0.976  -0.659  -0.031  0.00  0.00     0.035 C 
ATOM      7  H   UNL d   1      -0.379   1.790   0.958  0.00  0.00     0.150 HD
ENDROOT
BRANCH   6   8
ATOM      8  C   UNL d   1       2.178  -1.515  -0.199  0.00  0.00    -0.012 A 
ATOM      9  C   UNL d   1       2.268  -2.462  -1.224  0.00  0.00     0.025 A 
ATOM     10  C   UNL d   1       3.417  -3.260  -1.373  0.00  0.00    -0.025 A 
ATOM     11  C   UNL d   1       3.524  -4.207  -2.404  0.00  0.00     0.012 A 
ATOM     12  C   UNL d   1       4.489  -3.105  -0.464  0.00  0.00    -0.026 A 
ATOM     13  C   UNL d   1       4.669  -4.995  -2.535  0.00  0.00     0.001 A 
ATOM     14  C   UNL d   1       5.723  -4.847  -1.637  0.00  0.00     0.001 A 
ATOM     15  C   UNL d   1       5.634  -3.907  -0.608  0.00  0.00     0.012 A 
ATOM     16  C   UNL d   1       4.390  -2.156   0.562  0.00  0.00     0.013 A 
ATOM     17  C   UNL d   1       3.243  -1.364   0.695  0.00  0.00     0.014 A 
ENDBRANCH   6   8
BRANCH   1  18
ATOM     18  C   UNL d   1      -2.498   0.326  -0.609  0.00  0.00     0.434 C 
ATOM     19  F   UNL d   1      -3.009  -0.049   0.584  0.00  0.00    -0.166 F 
ATOM     20  F   UNL d   1      -3.093   1.503  -0.945  0.00  0.00    -0.166 F 
ATOM     21  F   UNL d   1      -2.889  -0.591  -1.526  0.00  0.00    -0.166 F 
ENDBRANCH   1  18
BRANCH   1  22
ATOM     22  O   UNL d   1      -0.517   1.513  -1.517  0.00  0.00    -0.366 OA
ATOM     23  H   UNL d   1      -1.099   2.282  -1.379  0.00  0.00     0.212 HD
ENDBRANCH   1  22
TORSDOF 3
