REMARK  7 active torsions:
REMARK  status: ('A' for Active; 'I' for Inactive)
REMARK    1  A    between atoms: C_5  and  C_1 
REMARK    2  A    between atoms: C_7  and  C_2 
REMARK    3  A    between atoms: O_14  and  C_7 
REMARK    4  A    between atoms: C_8  and  C_13 
REMARK    5  A    between atoms: N_10  and  O_14 
REMARK    6  A    between atoms: C_15  and  C_12 
REMARK    7  A    between atoms: N_24  and  C_12 
ROOT
ATOM      1  N   UNL d   1       2.445   2.695  -0.016  0.00  0.00    -0.246 N 
ATOM      2  HN  UNL d   1       3.164   1.987  -0.164  1.00  0.00     0.196 HD
ATOM      3  C   UNL d   1       2.694   3.962   0.112  0.00  0.00     0.109 C 
ENDROOT
BRANCH   1   4
ATOM      4  O   UNL d   1       1.067   2.409   0.072  0.00  0.00    -0.193 OA
BRANCH   4   5
ATOM      5  C   UNL d   1       0.850   1.069  -0.148  0.00  0.00     0.324 C 
ATOM      6  O   UNL d   1       1.727   0.231  -0.341  0.00  0.00    -0.257 OA
BRANCH   5   7
ATOM      7  C   UNL d   1      -0.570   0.770  -0.089  0.00  0.00     0.115 A 
ATOM      8  C   UNL d   1      -1.713   1.514  -0.366  0.00  0.00     0.140 A 
ATOM      9  N   UNL d   1      -2.911   0.801  -0.168  0.00  0.00    -0.349 N 
ATOM     10  C   UNL d   1      -2.675  -0.434   0.207  0.00  0.00     0.048 A 
ATOM     11  HN  UNL d   1      -3.843   1.195  -0.300  1.00  0.00     0.166 HD
ATOM     12  C   UNL d   1      -3.732  -1.451   0.468  0.00  0.00     0.076 C 
ATOM     13  S   UNL d   1      -1.024  -0.834   0.375  0.00  0.00    -0.069 SA
BRANCH   8  14
ATOM     14  C   UNL d   1      -1.833   2.924  -0.877  0.00  0.00     0.434 C 
ATOM     15  F   UNL d   1      -0.645   3.534  -1.127  0.00  0.00    -0.165 F 
ATOM     16  F   UNL d   1      -2.528   2.979  -2.044  0.00  0.00    -0.165 F 
ATOM     17  F   UNL d   1      -2.484   3.725   0.007  0.00  0.00    -0.165 F 
ENDBRANCH   8  14
ENDBRANCH   5   7
ENDBRANCH   4   5
ENDBRANCH   1   4
BRANCH   3  18
ATOM     18  C   UNL d   1       4.132   4.379   0.073  0.00  0.00     0.004 A 
ATOM     19  C   UNL d   1       5.041   3.654  -0.711  0.00  0.00     0.030 A 
ATOM     20  C   UNL d   1       6.404   3.987  -0.713  0.00  0.00     0.048 A 
ATOM     21  C   UNL d   1       6.841   5.061   0.081  0.00  0.00     0.016 A 
ATOM     22  C   UNL d   1       5.934   5.788   0.855  0.00  0.00     0.002 A 
ATOM     23  C   UNL d   1       4.580   5.452   0.850  0.00  0.00     0.015 A 
BRANCH  20  24
ATOM     24  C   UNL d   1       7.400   3.198  -1.528  0.00  0.00     0.417 C 
ATOM     25  F   UNL d   1       6.841   2.197  -2.261  0.00  0.00    -0.166 F 
ATOM     26  F   UNL d   1       8.073   3.979  -2.419  0.00  0.00    -0.166 F 
ATOM     27  F   UNL d   1       8.354   2.610  -0.755  0.00  0.00    -0.166 F 
ENDBRANCH  20  24
ENDBRANCH   3  18
BRANCH   3  28
ATOM     28  N   UNL d   1       1.730   4.930   0.268  0.00  0.00    -0.286 NA
ATOM     29  H   UNL d   1       0.812   4.621  -0.039  0.00  0.00     0.125 HD
ATOM     30  H   UNL d   1       1.960   5.848  -0.101  0.00  0.00     0.125 HD
ENDBRANCH   3  28
TORSDOF 7
