REMARK  1 active torsions:
REMARK  status: ('A' for Active; 'I' for Inactive)
REMARK    1  A    between atoms: C_8  and  C_1 
ROOT
ATOM      1  C   UNL d   1      -1.587   1.273   0.011  0.00  0.00     0.049 C 
ATOM      2  C   UNL d   1      -2.998   1.022  -0.410  0.00  0.00     0.007 A 
ATOM      3  C   UNL d   1      -3.962   1.999  -0.710  0.00  0.00     0.052 A 
ATOM      4  C   UNL d   1      -3.782   3.463  -0.552  0.00  0.00     0.294 C 
ATOM      5  N   UNL d   1      -1.184   1.957   1.019  0.00  0.00    -0.388 N 
ATOM      6  HN  UNL d   1      -0.186   1.901   1.221  1.00  0.00     0.159 HD
ATOM      7  O   UNL d   1      -2.482   3.817  -0.598  0.00  0.00    -0.317 OA
ATOM      8  O   UNL d   1      -4.718   4.210  -0.319  0.00  0.00    -0.259 OA
ATOM      9  C   UNL d   1      -1.954   2.794   1.906  0.00  0.00     0.122 C 
ATOM     10  C   UNL d   1      -3.362  -0.339  -0.497  0.00  0.00     0.015 A 
ATOM     11  C   UNL d   1      -5.260   1.596  -1.091  0.00  0.00     0.018 A 
ATOM     12  C   UNL d   1      -1.531   4.242   1.611  0.00  0.00     0.046 C 
ATOM     13  C   UNL d   1      -2.141   4.846   0.337  0.00  0.00     0.180 C 
ATOM     14  C   UNL d   1      -4.650  -0.721  -0.879  0.00  0.00     0.001 A 
ATOM     15  C   UNL d   1      -5.599   0.246  -1.179  0.00  0.00     0.001 A 
ENDROOT
BRANCH   1  16
ATOM     16  C   UNL d   1      -0.481   0.679  -0.822  0.00  0.00    -0.009 A 
ATOM     17  C   UNL d   1      -0.584   0.586  -2.215  0.00  0.00     0.014 A 
ATOM     18  C   UNL d   1       0.522   0.179  -2.966  0.00  0.00     0.001 A 
ATOM     19  C   UNL d   1       1.728  -0.134  -2.335  0.00  0.00     0.000 A 
ATOM     20  C   UNL d   1       1.830  -0.056  -0.948  0.00  0.00     0.001 A 
ATOM     21  C   UNL d   1       0.730   0.349  -0.194  0.00  0.00     0.014 A 
ENDBRANCH   1  16
TORSDOF 1
