REMARK  4 active torsions:
REMARK  status: ('A' for Active; 'I' for Inactive)
REMARK    1  A    between atoms: C_3  and  C_1 
REMARK    2  A    between atoms: C_15  and  N_2 
REMARK    3  A    between atoms: C_16  and  C_10 
REMARK    4  A    between atoms: C_17  and  C_11 
ROOT
ATOM      1  C   UNL d   1      -0.381  -2.760  -0.095  0.00  0.00     0.054 A 
ATOM      2  N   UNL d   1      -0.195  -4.878   1.020  0.00  0.00    -0.340 N 
ATOM      3  HN  UNL d   1       0.087  -5.431   1.829  1.00  0.00     0.167 HD
ATOM      4  C   UNL d   1      -0.002  -3.528   1.004  0.00  0.00     0.059 A 
ATOM      5  C   UNL d   1      -0.763  -5.470  -0.048  0.00  0.00     0.116 A 
ATOM      6  N   UNL d   1      -1.173  -4.804  -1.135  0.00  0.00    -0.351 N 
ATOM      7  HN  UNL d   1      -1.626  -5.276  -1.917  1.00  0.00     0.166 HD
ATOM      8  C   UNL d   1      -0.953  -3.478  -1.137  0.00  0.00     0.107 A 
ENDROOT
BRANCH   1   9
ATOM      9  C   UNL d   1      -0.151  -1.325  -0.246  0.00  0.00     0.152 A 
ATOM     10  N   UNL d   1      -1.026  -0.392  -0.798  0.00  0.00    -0.224 N 
ATOM     11  N   UNL d   1      -0.341   0.751  -1.023  0.00  0.00     0.001 NA
ATOM     12  N   UNL d   1       0.851   0.574  -0.478  0.00  0.00    -0.007 NA
ATOM     13  N   UNL d   1       0.991  -0.702  -0.011  0.00  0.00    -0.269 N 
ATOM     14  HN  UNL d   1       1.818  -1.098   0.435  1.00  0.00     0.185 HD
BRANCH  10  15
ATOM     15  C   UNL d   1      -2.389  -0.515  -1.153  0.00  0.00     0.056 A 
ATOM     16  C   UNL d   1      -3.253  -1.346  -0.427  0.00  0.00     0.031 A 
ATOM     17  C   UNL d   1      -4.568  -1.523  -0.858  0.00  0.00     0.002 A 
ATOM     18  C   UNL d   1      -5.020  -0.879  -2.009  0.00  0.00     0.000 A 
ATOM     19  C   UNL d   1      -4.170  -0.026  -2.714  0.00  0.00     0.002 A 
ATOM     20  C   UNL d   1      -2.861   0.177  -2.278  0.00  0.00     0.031 A 
ENDBRANCH  10  15
ENDBRANCH   1   9
BRANCH   4  21
ATOM     21  C   UNL d   1       0.630  -3.018   2.252  0.00  0.00    -0.008 A 
ATOM     22  C   UNL d   1       1.572  -3.805   2.942  0.00  0.00     0.014 A 
ATOM     23  C   UNL d   1       2.193  -3.360   4.115  0.00  0.00     0.001 A 
ATOM     24  C   UNL d   1       1.891  -2.102   4.625  0.00  0.00     0.000 A 
ATOM     25  C   UNL d   1       0.954  -1.307   3.977  0.00  0.00     0.001 A 
ATOM     26  C   UNL d   1       0.316  -1.770   2.820  0.00  0.00     0.014 A 
ENDBRANCH   4  21
BRANCH   5  27
ATOM     27  C   UNL d   1      -0.908  -6.938  -0.045  0.00  0.00     0.008 A 
ATOM     28  C   UNL d   1      -1.534  -7.619  -1.109  0.00  0.00     0.015 A 
ATOM     29  C   UNL d   1      -1.646  -9.013  -1.121  0.00  0.00     0.001 A 
ATOM     30  C   UNL d   1      -1.128  -9.761  -0.070  0.00  0.00     0.000 A 
ATOM     31  C   UNL d   1      -0.509  -9.117   0.998  0.00  0.00     0.001 A 
ATOM     32  C   UNL d   1      -0.403  -7.723   1.010  0.00  0.00     0.015 A 
ENDBRANCH   5  27
TORSDOF 4
