REMARK  5 active torsions:
REMARK  status: ('A' for Active; 'I' for Inactive)
REMARK    1  A    between atoms: C_3  and  C_1 
REMARK    2  A    between atoms: C_7  and  C_2 
REMARK       I    between atoms: N_8  and  C_3 
REMARK    3  A    between atoms: C_10  and  C_6 
REMARK    4  A    between atoms: C_12  and  N_8 
REMARK    5  A    between atoms: C_17  and  C_10 
ROOT
ATOM      1  C   UNL d   1       0.488  -2.296  -0.092  0.00  0.00     0.261 C 
ATOM      2  N   UNL d   1      -0.269  -3.467  -0.037  0.00  0.00    -0.322 N 
ATOM      3  O   UNL d   1       0.047  -1.182  -0.372  0.00  0.00    -0.267 OA
ATOM      4  H   UNL d   1       0.083  -4.209   0.574  0.00  0.00     0.169 HD
ENDROOT
BRANCH   2   5
ATOM      5  C   UNL d   1      -1.676  -3.464  -0.248  0.00  0.00     0.049 C 
ATOM      6  C   UNL d   1      -2.534  -4.313   0.481  0.00  0.00     0.043 C 
ATOM      7  C   UNL d   1      -3.908  -4.023   0.517  0.00  0.00     0.041 C 
ATOM      8  C   UNL d   1      -4.429  -2.996  -0.267  0.00  0.00     0.035 C 
ATOM      9  C   UNL d   1      -3.612  -2.300  -1.146  0.00  0.00     0.026 C 
ATOM     10 CL   UNL d   1      -6.091  -2.576  -0.138  0.00  0.00    -0.084 Cl
ATOM     11  C   UNL d   1      -2.242  -2.542  -1.139  0.00  0.00     0.032 C 
BRANCH   6  12
ATOM     12  C   UNL d   1      -2.015  -5.473   1.266  0.00  0.00     0.194 C 
ATOM     13  O   UNL d   1      -0.860  -5.458   1.685  0.00  0.00    -0.287 OA
BRANCH  12  14
ATOM     14  C   UNL d   1      -2.866  -6.675   1.506  0.00  0.00     0.015 A 
ATOM     15  C   UNL d   1      -2.905  -7.239   2.785  0.00  0.00     0.015 A 
ATOM     16  C   UNL d   1      -3.701  -8.359   3.031  0.00  0.00     0.001 A 
ATOM     17  C   UNL d   1      -4.449  -8.929   2.000  0.00  0.00     0.000 A 
ATOM     18  C   UNL d   1      -4.397  -8.383   0.717  0.00  0.00     0.001 A 
ATOM     19  C   UNL d   1      -3.605  -7.260   0.467  0.00  0.00     0.015 A 
ENDBRANCH  12  14
ENDBRANCH   6  12
ENDBRANCH   2   5
BRANCH   1  20
ATOM     20  C   UNL d   1       1.885  -2.436   0.243  0.00  0.00     0.093 A 
ATOM     21  C   UNL d   1       2.733  -1.551   0.986  0.00  0.00     0.085 A 
ATOM     22  N   UNL d   1       4.004  -1.990   0.935  0.00  0.00    -0.259 N 
ATOM     23  O   UNL d   1       4.000  -3.132   0.170  0.00  0.00    -0.241 OA
ATOM     24  HN  UNL d   1       4.815  -1.559   1.380  1.00  0.00     0.195 HD
ATOM     25  C   UNL d   1       2.740  -3.394  -0.254  0.00  0.00     0.090 A 
ATOM     26  C   UNL d   1       2.585  -4.536  -1.174  0.00  0.00     0.080 C 
BRANCH  21  27
ATOM     27  C   UNL d   1       2.431  -0.307   1.707  0.00  0.00     0.015 A 
ATOM     28  C   UNL d   1       1.395  -0.176   2.647  0.00  0.00     0.046 A 
ATOM     29 CL   UNL d   1       0.363  -1.488   3.106  0.00  0.00    -0.083 Cl
ATOM     30  C   UNL d   1       1.198   1.040   3.323  0.00  0.00     0.025 A 
ATOM     31  C   UNL d   1       2.039   2.127   3.092  0.00  0.00     0.002 A 
ATOM     32  C   UNL d   1       3.082   2.009   2.180  0.00  0.00     0.001 A 
ATOM     33  C   UNL d   1       3.270   0.806   1.492  0.00  0.00     0.015 A 
ENDBRANCH  21  27
ENDBRANCH   1  20
TORSDOF 5
