REMARK  6 active torsions:
REMARK  status: ('A' for Active; 'I' for Inactive)
REMARK    1  A    between atoms: N_3  and  S_1 
REMARK    2  A    between atoms: C_10  and  S_1 
REMARK    3  A    between atoms: S_2  and  N_5 
REMARK    4  A    between atoms: C_15  and  S_2 
REMARK    5  A    between atoms: C_4  and  N_3 
REMARK    6  A    between atoms: N_5  and  C_21 
ROOT
ATOM      1  C   UNL d   1       0.333  -1.306  -1.255  0.00  0.00     0.075 A 
ATOM      2  C   UNL d   1       0.785  -2.627  -1.131  0.00  0.00     0.027 A 
ATOM      3  C   UNL d   1      -0.526  -0.948  -2.294  0.00  0.00     0.027 A 
ATOM      4  C   UNL d   1      -0.547  -3.242  -3.061  0.00  0.00     0.042 A 
ATOM      5  C   UNL d   1      -0.965  -1.919  -3.196  0.00  0.00     0.031 A 
ATOM      6  C   UNL d   1       0.353  -3.596  -2.053  0.00  0.00     0.031 A 
ENDROOT
BRANCH   1   7
ATOM      7  S   UNL d   1       0.702  -0.093   0.003  0.00  0.00     0.248 S 
ATOM      8  O   UNL d   1      -0.184   1.034  -0.203  0.00  0.00    -0.205 OA
ATOM      9  O   UNL d   1       0.693  -0.798   1.270  0.00  0.00    -0.205 OA
BRANCH   7  10
ATOM     10  N   UNL d   1       2.271   0.415  -0.210  0.00  0.00    -0.151 NA
ATOM     11  H   UNL d   1       2.885  -0.029   0.464  0.00  0.00     0.149 HD
BRANCH  10  12
ATOM     12  C   UNL d   1       2.796   0.277  -1.484  0.00  0.00     0.171 A 
ATOM     13  N   UNL d   1       2.282   0.972  -2.498  0.00  0.00    -0.336 N 
ATOM     14  C   UNL d   1       2.858   0.752  -3.697  0.00  0.00     0.009 A 
ATOM     15  HN  UNL d   1       1.509   1.625  -2.376  1.00  0.00     0.168 HD
ATOM     16  C   UNL d   1       2.245   1.414  -4.896  0.00  0.00     0.068 C 
ATOM     17  C   UNL d   1       3.898  -0.146  -3.861  0.00  0.00     0.049 A 
ATOM     18  C   UNL d   1       4.291  -0.866  -2.748  0.00  0.00     0.009 A 
ATOM     19  N   UNL d   1       3.750  -0.653  -1.538  0.00  0.00    -0.336 N 
ATOM     20  C   UNL d   1       5.242  -2.016  -2.869  0.00  0.00     0.068 C 
ATOM     21  HN  UNL d   1       4.051  -1.169  -0.711  1.00  0.00     0.168 HD
ENDBRANCH  10  12
ENDBRANCH   7  10
ENDBRANCH   1   7
BRANCH   4  22
ATOM     22  N   UNL d   1      -1.103  -4.194  -3.955  0.00  0.00    -0.281 N 
ATOM     23  H   UNL d   1      -2.064  -4.052  -4.259  0.00  0.00     0.179 HD
BRANCH  22  24
ATOM     24  S   UNL d   1      -0.172  -4.947  -5.130  0.00  0.00     0.263 S 
ATOM     25  O   UNL d   1       0.760  -5.849  -4.481  0.00  0.00    -0.200 OA
ATOM     26  O   UNL d   1      -1.105  -5.426  -6.129  0.00  0.00    -0.200 OA
BRANCH  24  27
ATOM     27  C   UNL d   1       0.772  -3.630  -5.866  0.00  0.00     0.079 A 
ATOM     28  C   UNL d   1       2.074  -3.405  -5.413  0.00  0.00     0.025 A 
ATOM     29  C   UNL d   1       2.878  -2.475  -6.065  0.00  0.00     0.002 A 
ATOM     30  C   UNL d   1       2.376  -1.738  -7.136  0.00  0.00     0.000 A 
ATOM     31  C   UNL d   1       1.070  -1.959  -7.585  0.00  0.00     0.002 A 
ATOM     32  C   UNL d   1       0.270  -2.919  -6.963  0.00  0.00     0.025 A 
ENDBRANCH  24  27
ENDBRANCH  22  24
ENDBRANCH   4  22
TORSDOF 6
