REMARK  4 active torsions:
REMARK  status: ('A' for Active; 'I' for Inactive)
REMARK    1  A    between atoms: N_2  and  C_1 
REMARK    2  A    between atoms: C_5  and  N_2 
REMARK    3  A    between atoms: C_6  and  N_4 
REMARK    4  A    between atoms: C_10  and  C_6 
ROOT
ATOM      1  C   UNL d   1       1.077  -0.081  -0.070  0.00  0.00     0.168 C 
ATOM      2  S   UNL d   1       0.340   0.069  -1.557  0.00  0.00    -0.041 SA
ATOM      3  N   UNL d   1       2.441  -0.039  -0.061  0.00  0.00    -0.367 N 
ATOM      4  H   UNL d   1       2.827   0.057  -0.995  0.00  0.00     0.161 HD
ENDROOT
BRANCH   1   5
ATOM      5  N   UNL d   1       0.489  -0.283   1.143  0.00  0.00    -0.359 N 
ATOM      6  H   UNL d   1       1.083  -0.067   1.927  0.00  0.00     0.162 HD
BRANCH   5   7
ATOM      7  C   UNL d   1      -0.893  -0.677   1.505  0.00  0.00     0.021 C 
ATOM      8  C   UNL d   1      -1.262  -2.018   0.849  0.00  0.00     0.037 C 
ATOM      9  C   UNL d   1      -0.926  -0.870   3.037  0.00  0.00     0.037 C 
ATOM     10  C   UNL d   1      -1.929   0.402   1.153  0.00  0.00     0.037 C 
ENDBRANCH   5   7
ENDBRANCH   1   5
BRANCH   3  11
ATOM     11  C   UNL d   1       3.377  -0.450   0.976  0.00  0.00     0.126 C 
BRANCH  11  12
ATOM     12  C   UNL d   1       3.386  -1.967   1.237  0.00  0.00    -0.005 C 
ATOM     13  C   UNL d   1       3.606  -2.780  -0.041  0.00  0.00     0.011 C 
ATOM     14  C   UNL d   1       4.475  -2.310   2.256  0.00  0.00     0.011 C 
ENDBRANCH  11  12
ENDBRANCH   3  11
TORSDOF 4
