REMARK  2 active torsions:
REMARK  status: ('A' for Active; 'I' for Inactive)
REMARK    1  A    between atoms: C_7  and  C_1 
REMARK    2  A    between atoms: O_12  and  C_6 
ROOT
ATOM      1  C   UNL d   1      -0.675   1.111   0.012  0.00  0.00     0.119 A 
ATOM      2  N   UNL d   1      -1.402  -0.022   0.050  0.00  0.00    -0.322 N 
ATOM      3  HN  UNL d   1      -2.421  -0.019   0.070  1.00  0.00     0.169 HD
ATOM      4  N   UNL d   1       0.674   1.147  -0.011  0.00  0.00    -0.345 N 
ATOM      5  HN  UNL d   1       1.177   2.035  -0.035  1.00  0.00     0.167 HD
ATOM      6  C   UNL d   1      -0.688  -1.150   0.059  0.00  0.00     0.143 A 
ATOM      7  C   UNL d   1       0.677  -1.237   0.034  0.00  0.00     0.080 A 
ATOM      8  C   UNL d   1       1.336  -0.030  -0.000  0.00  0.00     0.011 A 
ATOM      9  C   UNL d   1       2.831   0.040  -0.029  0.00  0.00     0.068 C 
ENDROOT
BRANCH   1  10
ATOM     10  C   UNL d   1      -1.393   2.391  -0.033  0.00  0.00     0.023 A 
ATOM     11  C   UNL d   1      -0.714   3.610  -0.100  0.00  0.00     0.102 A 
ATOM     12  N   UNL d   1      -1.303   4.833  -0.169  0.00  0.00    -0.374 N 
ATOM     13  C   UNL d   1      -2.650   4.855  -0.169  0.00  0.00     0.087 A 
ATOM     14  HN  UNL d   1      -0.753   5.690  -0.217  1.00  0.00     0.164 HD
ATOM     15  C   UNL d   1      -3.432   3.717  -0.096  0.00  0.00     0.018 A 
ATOM     16  C   UNL d   1      -2.794   2.479  -0.025  0.00  0.00     0.018 A 
ENDBRANCH   1  10
BRANCH   6  17
ATOM     17  O   UNL d   1      -1.437  -2.283   0.092  0.00  0.00    -0.346 OA
ATOM     18  H   UNL d   1      -2.335  -1.905   0.099  0.00  0.00     0.219 HD
ENDBRANCH   6  17
TORSDOF 2
