REMARK  1 active torsions:
REMARK  status: ('A' for Active; 'I' for Inactive)
REMARK    1  A    between atoms: C_7  and  C_2 
ROOT
ATOM      1  N   UNL d   1      -1.332  -0.640  -0.563  0.00  0.00    -0.203 NA
ATOM      2  C   UNL d   1      -0.307  -1.517  -0.003  0.00  0.00     0.276 C 
ATOM      3  C   UNL d   1      -0.774   0.528  -1.078  0.00  0.00     0.236 C 
ATOM      4  C   UNL d   1       0.924  -0.649  -0.043  0.00  0.00     0.016 A 
ATOM      5  C   UNL d   1       0.654   0.514  -0.760  0.00  0.00     0.037 A 
ATOM      6  N   UNL d   1      -0.784  -1.796   1.374  0.00  0.00     0.118 N 
ATOM      7  O   UNL d   1      -1.359   1.480  -1.562  0.00  0.00    -0.274 OA
ATOM      8  C   UNL d   1      -2.449  -0.498   0.338  0.00  0.00     0.132 C 
ATOM      9  C   UNL d   1      -1.782  -0.749   1.677  0.00  0.00     0.288 C 
ATOM     10  C   UNL d   1       2.169  -0.812   0.549  0.00  0.00     0.012 A 
ATOM     11  C   UNL d   1       1.575   1.533  -0.926  0.00  0.00     0.017 A 
ATOM     12  C   UNL d   1       3.123   0.203   0.395  0.00  0.00     0.001 A 
ATOM     13  C   UNL d   1       2.830   1.364  -0.341  0.00  0.00     0.001 A 
ATOM     14  H   UNL d   1      -1.294  -2.677   1.312  0.00  0.00     0.319 HD
ENDROOT
BRANCH   2  15
ATOM     15  C   UNL d   1      -0.154  -2.824  -0.800  0.00  0.00     0.000 A 
ATOM     16  C   UNL d   1      -0.852  -3.058  -2.000  0.00  0.00     0.011 A 
ATOM     17  C   UNL d   1      -0.717  -4.267  -2.693  0.00  0.00     0.001 A 
ATOM     18  C   UNL d   1       0.126  -5.262  -2.208  0.00  0.00     0.000 A 
ATOM     19  C   UNL d   1       0.829  -5.055  -1.024  0.00  0.00     0.001 A 
ATOM     20  C   UNL d   1       0.686  -3.851  -0.326  0.00  0.00     0.011 A 
ENDBRANCH   2  15
TORSDOF 1
