REMARK  7 active torsions:
REMARK  status: ('A' for Active; 'I' for Inactive)
REMARK    1  A    between atoms: N_5  and  C_1 
REMARK    2  A    between atoms: N_6  and  C_1 
REMARK       I    between atoms: C_2  and  N_4 
REMARK    3  A    between atoms: C_3  and  C_2 
REMARK    4  A    between atoms: N_4  and  N_5 
REMARK    5  A    between atoms: C_13  and  N_6 
REMARK    6  A    between atoms: O_18  and  C_11 
REMARK    7  A    between atoms: O_19  and  C_12 
ROOT
ATOM      1  C   UNL d   1       0.066   3.266   1.754  0.00  0.00     0.270 C 
ATOM      2  N   UNL d   1       0.669   2.070   1.397  0.00  0.00    -0.264 N 
ATOM      3  O   UNL d   1       0.758   4.231   2.073  0.00  0.00    -0.266 OA
ATOM      4  H   UNL d   1       1.683   2.059   1.463  0.00  0.00     0.190 HD
ENDROOT
BRANCH   2   5
ATOM      5  N   UNL d   1       0.044   0.868   1.033  0.00  0.00    -0.273 N 
ATOM      6  H   UNL d   1       0.033   0.665   0.036  0.00  0.00     0.189 HD
BRANCH   5   7
ATOM      7  C   UNL d   1      -0.852   0.173   1.798  0.00  0.00     0.191 C 
ATOM      8  S   UNL d   1      -1.865  -0.929   1.055  0.00  0.00    -0.039 SA
BRANCH   7   9
ATOM      9  N   UNL d   1      -1.019   0.462   3.114  0.00  0.00    -0.332 N 
ATOM     10  H   UNL d   1      -1.965   0.333   3.458  0.00  0.00     0.168 HD
BRANCH   9  11
ATOM     11  C   UNL d   1      -0.041   0.781   4.068  0.00  0.00     0.035 A 
ATOM     12  C   UNL d   1      -0.431   1.511   5.191  0.00  0.00     0.053 A 
ATOM     13  C   UNL d   1       0.520   1.865   6.145  0.00  0.00     0.036 A 
ATOM     14 CL   UNL d   1       0.064   2.858   7.474  0.00  0.00    -0.084 Cl
ATOM     15  C   UNL d   1       1.841   1.435   6.023  0.00  0.00     0.024 A 
ATOM     16  C   UNL d   1       2.217   0.657   4.928  0.00  0.00     0.004 A 
ATOM     17  C   UNL d   1       1.280   0.342   3.945  0.00  0.00     0.029 A 
ENDBRANCH   9  11
ENDBRANCH   7   9
ENDBRANCH   5   7
ENDBRANCH   2   5
BRANCH   1  18
ATOM     18  C   UNL d   1      -1.407   3.382   1.854  0.00  0.00     0.038 A 
ATOM     19  C   UNL d   1      -1.930   3.962   3.021  0.00  0.00     0.054 A 
ATOM     20  C   UNL d   1      -3.305   3.954   3.241  0.00  0.00     0.071 A 
ATOM     21  C   UNL d   1      -4.152   3.372   2.291  0.00  0.00     0.073 A 
ATOM     22  C   UNL d   1      -3.638   2.842   1.105  0.00  0.00     0.071 A 
ATOM     23  C   UNL d   1      -2.264   2.881   0.875  0.00  0.00     0.054 A 
BRANCH  20  24
ATOM     24  O   UNL d   1      -3.940   4.441   4.351  0.00  0.00    -0.356 OA
ATOM     25  C   UNL d   1      -3.153   5.201   5.262  0.00  0.00     0.210 C 
ENDBRANCH  20  24
BRANCH  22  26
ATOM     26  O   UNL d   1      -4.368   2.254   0.110  0.00  0.00    -0.356 OA
ATOM     27  C   UNL d   1      -5.713   1.911   0.424  0.00  0.00     0.210 C 
ENDBRANCH  22  26
ENDBRANCH   1  18
TORSDOF 7
