REMARK  6 active torsions:
REMARK  status: ('A' for Active; 'I' for Inactive)
REMARK    1  A    between atoms: C_3  and  C_1 
REMARK    2  A    between atoms: C_6  and  CA_2 
REMARK       I    between atoms: N_7  and  C_3 
REMARK       I    between atoms: C_5  and  N_4 
REMARK    3  A    between atoms: O_20  and  C_5 
REMARK    4  A    between atoms: OXT_21  and  C_6 
REMARK    5  A    between atoms: C_17  and  N_7 
REMARK    6  A    between atoms: C_24  and  O_20 
ROOT
ATOM      1  C   UNL d   1      -2.090  -3.771   1.472  0.00  0.00     0.271 C 
ATOM      2  N   UNL d   1      -1.399  -3.912   0.272  0.00  0.00    -0.351 N 
ATOM      3  O   UNL d   1      -3.227  -3.324   1.368  0.00  0.00    -0.266 OA
ATOM      4  H   UNL d   1      -1.960  -3.545  -0.490  0.00  0.00     0.163 HD
ENDROOT
BRANCH   1   5
ATOM      5  C   UNL d   1      -1.516  -4.185   2.804  0.00  0.00     0.134 A 
ATOM      6  CA  UNL d   1      -2.046  -3.885   4.058  0.00  0.00     0.139 A 
ATOM      7  N   UNL d   1      -1.448  -4.342   5.232  0.00  0.00    -0.357 N 
ATOM      8  C   UNL d   1      -0.345  -5.102   5.101  0.00  0.00     0.105 A 
ATOM      9  HN  UNL d   1      -1.829  -4.111   6.149  1.00  0.00     0.165 HD
ATOM     10  C   UNL d   1       0.172  -5.412   3.868  0.00  0.00     0.105 A 
ATOM     11  N   UNL d   1      -0.395  -4.970   2.722  0.00  0.00    -0.358 N 
ATOM     12  HN  UNL d   1       0.003  -5.216   1.815  1.00  0.00     0.165 HD
BRANCH   6  13
ATOM     13  C   UNL d   1      -3.255  -3.059   4.376  0.00  0.00     0.196 C 
ATOM     14  O   UNL d   1      -4.020  -2.491   3.626  0.00  0.00    -0.645 OA
BRANCH  13  15
ATOM     15  OXT UNL d   1      -3.394  -2.963   5.741  0.00  0.00    -0.772 OA
ATOM     16  HXT UNL d   1      -2.661  -3.475   6.164  0.00  0.00     0.167 HD
ENDBRANCH  13  15
ENDBRANCH   6  13
ENDBRANCH   1   5
BRANCH   2  17
ATOM     17  C   UNL d   1       0.036  -4.073   0.015  0.00  0.00     0.087 C 
ATOM     18  C   UNL d   1       0.769  -2.744   0.190  0.00  0.00     0.045 C 
ATOM     19  C   UNL d   1       0.552  -1.829  -1.004  0.00  0.00     0.130 C 
ATOM     20  N   UNL d   1       0.979  -2.481  -2.232  0.00  0.00    -0.328 N 
ATOM     21  C   UNL d   1       0.342  -3.756  -2.538  0.00  0.00     0.130 C 
ATOM     22  C   UNL d   1       1.581  -1.694  -3.206  0.00  0.00     0.362 C 
ATOM     23  C   UNL d   1       0.324  -4.715  -1.351  0.00  0.00     0.045 C 
ATOM     24  O   UNL d   1       1.894  -0.521  -3.033  0.00  0.00    -0.238 OA
BRANCH  22  25
ATOM     25  O   UNL d   1       1.778  -2.361  -4.376  0.00  0.00    -0.304 OA
BRANCH  25  26
ATOM     26  C   UNL d   1       2.316  -1.576  -5.452  0.00  0.00     0.176 C 
ATOM     27  C   UNL d   1       1.175  -0.968  -6.245  0.00  0.00     0.034 C 
ENDBRANCH  25  26
ENDBRANCH  22  25
ENDBRANCH   2  17
TORSDOF 6
