REMARK  4 active torsions:
REMARK  status: ('A' for Active; 'I' for Inactive)
REMARK    1  A    between atoms: C_17  and  N_2 
REMARK    2  A    between atoms: N_5  and  C_12 
REMARK    3  A    between atoms: C_13  and  N_7 
REMARK    4  A    between atoms: C_14  and  C_17 
ROOT
ATOM      1  N   UNL d   1      -1.204   5.008  -3.240  0.00  0.00    -0.197 NA
ATOM      2  C   UNL d   1      -1.107   3.953  -2.767  0.00  0.00     0.060 C 
ATOM      3  C   UNL d   1      -0.970   2.619  -2.171  0.00  0.00     0.143 C 
ENDROOT
BRANCH   3   4
ATOM      4  C   UNL d   1      -1.260   2.671  -0.667  0.00  0.00     0.137 C 
BRANCH   4   5
ATOM      5  N   UNL d   1      -1.113   1.353  -0.034  0.00  0.00    -0.380 N 
ATOM      6  C   UNL d   1       0.103   0.681   0.005  0.00  0.00     0.036 A 
ATOM      7  C   UNL d   1       0.146  -0.728   0.049  0.00  0.00    -0.029 A 
ATOM      8  C   UNL d   1       1.328   1.364  -0.019  0.00  0.00     0.032 A 
ATOM      9  C   UNL d   1       1.381  -1.405   0.060  0.00  0.00     0.040 A 
ATOM     10  C   UNL d   1      -1.124  -1.544   0.093  0.00  0.00     0.042 C 
ATOM     11  C   UNL d   1       2.592  -0.711   0.020  0.00  0.00     0.048 A 
ATOM     12  C   UNL d   1       2.550   0.683  -0.023  0.00  0.00     0.033 A 
ATOM     13  C   UNL d   1      -2.354  -0.732  -0.292  0.00  0.00     0.024 C 
ATOM     14  C   UNL d   1      -2.307   0.624   0.391  0.00  0.00     0.123 C 
BRANCH  11  15
ATOM     15  N   UNL d   1       3.793  -1.444  -0.046  0.00  0.00    -0.300 N 
ATOM     16  N   UNL d   1       4.693  -0.936   0.656  0.00  0.00    -0.300 N 
ATOM     17  HN  UNL d   1       4.566  -0.107   1.237  1.00  0.00     0.187 HD
ATOM     18  HN  UNL d   1       3.913  -2.291  -0.602  1.00  0.00     0.187 HD
BRANCH  16  19
ATOM     19  C   UNL d   1       5.905  -1.647   0.548  0.00  0.00     0.048 A 
ATOM     20  C   UNL d   1       7.104  -0.921   0.518  0.00  0.00     0.032 A 
ATOM     21  C   UNL d   1       8.337  -1.575   0.435  0.00  0.00     0.021 A 
ATOM     22  C   UNL d   1       8.378  -2.967   0.389  0.00  0.00     0.011 A 
ATOM     23  C   UNL d   1       7.199  -3.708   0.430  0.00  0.00     0.021 A 
ATOM     24 BR   UNL d   1      10.041  -3.857   0.275  0.00  0.00    -0.051 Br
ATOM     25  C   UNL d   1       5.970  -3.048   0.515  0.00  0.00     0.032 A 
ENDBRANCH  16  19
ENDBRANCH  11  15
ENDBRANCH   4   5
ENDBRANCH   3   4
TORSDOF 4
