REMARK  9 active torsions:
REMARK  status: ('A' for Active; 'I' for Inactive)
REMARK    1  A    between atoms: C_9  and  C_1 
REMARK    2  A    between atoms: N_17  and  C_3 
REMARK    3  A    between atoms: C_16  and  C_6 
REMARK       I    between atoms: N_13  and  C_9 
REMARK    4  A    between atoms: C_19  and  C_10 
REMARK    5  A    between atoms: C_12  and  N_14 
REMARK    6  A    between atoms: N_20  and  C_12 
REMARK    7  A    between atoms: N_14  and  N_13 
REMARK    8  A    between atoms: C_23  and  N_20 
REMARK    9  A    between atoms: C_21  and  C_23 
ROOT
ATOM      1  C   UNL d   1       2.424   0.028   0.119  0.00  0.00     0.174 A 
ATOM      2  C   UNL d   1       0.311   0.850   0.075  0.00  0.00     0.056 A 
ATOM      3  C   UNL d   1       1.694   1.197   0.171  0.00  0.00     0.081 A 
ATOM      4  C   UNL d   1       0.297  -0.549   0.069  0.00  0.00     0.162 A 
ATOM      5  O   UNL d   1       1.571  -1.041   0.093  0.00  0.00    -0.285 OA
ATOM      6  C   UNL d   1      -0.941   1.508  -0.012  0.00  0.00    -0.007 A 
ATOM      7  N   UNL d   1      -0.774  -1.363   0.023  0.00  0.00    -0.335 N 
ATOM      8  HN  UNL d   1      -0.696  -2.380   0.039  1.00  0.00     0.168 HD
ATOM      9  C   UNL d   1      -1.962  -0.723  -0.047  0.00  0.00     0.045 A 
ATOM     10  C   UNL d   1      -2.073   0.671  -0.057  0.00  0.00     0.043 A 
ENDROOT
BRANCH   1  11
ATOM     11  C   UNL d   1       3.859  -0.181   0.069  0.00  0.00     0.296 C 
ATOM     12  N   UNL d   1       4.245  -1.503   0.154  0.00  0.00    -0.262 N 
ATOM     13  H   UNL d   1       3.558  -2.252   0.208  0.00  0.00     0.190 HD
ATOM     14  O   UNL d   1       4.682   0.721  -0.070  0.00  0.00    -0.264 OA
BRANCH  12  15
ATOM     15  N   UNL d   1       5.566  -1.847  -0.168  0.00  0.00    -0.273 N 
ATOM     16  H   UNL d   1       6.131  -1.072  -0.522  0.00  0.00     0.189 HD
BRANCH  15  17
ATOM     17  C   UNL d   1       6.242  -2.813   0.535  0.00  0.00     0.186 C 
ATOM     18  S   UNL d   1       5.687  -3.609   1.893  0.00  0.00    -0.040 SA
BRANCH  17  19
ATOM     19  N   UNL d   1       7.455  -3.170   0.012  0.00  0.00    -0.363 N 
ATOM     20  H   UNL d   1       7.927  -3.888   0.548  0.00  0.00     0.162 HD
BRANCH  19  21
ATOM     21  C   UNL d   1       7.793  -3.108  -1.396  0.00  0.00     0.148 C 
BRANCH  21  22
ATOM     22  C   UNL d   1       9.049  -2.319  -1.550  0.00  0.00    -0.018 C 
ATOM     23  C   UNL d   1       9.131  -1.161  -2.220  0.00  0.00     0.008 C 
ENDBRANCH  21  22
ENDBRANCH  19  21
ENDBRANCH  17  19
ENDBRANCH  15  17
ENDBRANCH  12  15
ENDBRANCH   1  11
BRANCH   3  24
ATOM     24  N   UNL d   1       2.242   2.425   0.272  0.00  0.00    -0.396 N 
ATOM     25  H   UNL d   1       1.718   3.219   0.629  0.00  0.00     0.156 HD
ATOM     26  H   UNL d   1       3.254   2.534   0.374  0.00  0.00     0.156 HD
ENDBRANCH   3  24
BRANCH   6  27
ATOM     27  C   UNL d   1      -1.075   2.976  -0.081  0.00  0.00    -0.025 A 
ATOM     28  C   UNL d   1      -0.228   3.763  -0.879  0.00  0.00     0.012 A 
ATOM     29  C   UNL d   1      -0.312   5.158  -0.884  0.00  0.00     0.001 A 
ATOM     30  C   UNL d   1      -1.305   5.797  -0.150  0.00  0.00     0.000 A 
ATOM     31  C   UNL d   1      -2.211   5.040   0.585  0.00  0.00     0.001 A 
ATOM     32  C   UNL d   1      -2.088   3.647   0.628  0.00  0.00     0.012 A 
ENDBRANCH   6  27
BRANCH   9  33
ATOM     33  C   UNL d   1      -3.167  -1.585  -0.140  0.00  0.00    -0.009 A 
ATOM     34  C   UNL d   1      -3.245  -2.814   0.539  0.00  0.00     0.013 A 
ATOM     35  C   UNL d   1      -4.391  -3.617   0.463  0.00  0.00     0.001 A 
ATOM     36  C   UNL d   1      -5.483  -3.212  -0.297  0.00  0.00     0.000 A 
ATOM     37  C   UNL d   1      -5.433  -2.005  -0.985  0.00  0.00     0.001 A 
ATOM     38  C   UNL d   1      -4.288  -1.205  -0.907  0.00  0.00     0.013 A 
ENDBRANCH   9  33
TORSDOF 9
