REMARK  11 active torsions:
REMARK  status: ('A' for Active; 'I' for Inactive)
REMARK    1  A    between atoms: C_2  and  C_1 
REMARK    2  A    between atoms: N_3  and  C_1 
REMARK    3  A    between atoms: C_8  and  C_1 
REMARK    4  A    between atoms: N_5  and  C_2 
REMARK    5  A    between atoms: C_7  and  C_2 
REMARK    6  A    between atoms: C_11  and  C_9 
REMARK    7  A    between atoms: C_12  and  C_10 
REMARK    8  A    between atoms: O_17  and  C_13 
REMARK    9  A    between atoms: O_18  and  C_14 
REMARK   10  A    between atoms: O_19  and  C_15 
REMARK   11  A    between atoms: O_20  and  C_16 
ROOT
ATOM      1  C   UNL d   1       0.891   0.114  -0.126  0.00  0.00     0.144 C 
ENDROOT
BRANCH   1   2
ATOM      2  C   UNL d   1       0.432  -0.663   1.174  0.00  0.00     0.144 C 
BRANCH   2   3
ATOM      3  N   UNL d   1      -1.069  -0.694   1.240  0.00  0.00    -0.387 N 
ATOM      4  C   UNL d   1      -1.647  -1.658   0.601  0.00  0.00     0.097 C 
ATOM      5  HN  UNL d   1      -1.601   0.005   1.759  1.00  0.00     0.159 HD
BRANCH   4   6
ATOM      6  C   UNL d   1      -3.114  -1.732   0.472  0.00  0.00     0.012 A 
ATOM      7  C   UNL d   1      -3.925  -0.596   0.559  0.00  0.00     0.077 A 
ATOM      8  C   UNL d   1      -5.294  -0.695   0.328  0.00  0.00     0.037 A 
ATOM      9  C   UNL d   1      -5.864  -1.935   0.040  0.00  0.00     0.003 A 
ATOM     10  C   UNL d   1      -5.064  -3.078  -0.015  0.00  0.00     0.001 A 
ATOM     11  C   UNL d   1      -3.686  -2.977   0.190  0.00  0.00     0.015 A 
BRANCH   7  12
ATOM     12  O   UNL d   1      -3.442   0.649   0.845  0.00  0.00    -0.360 OA
ATOM     13  H   UNL d   1      -2.469   0.572   0.959  0.00  0.00     0.217 HD
ENDBRANCH   7  12
ENDBRANCH   4   6
ENDBRANCH   2   3
BRANCH   2  14
ATOM     14  C   UNL d   1       1.089  -2.023   1.449  0.00  0.00    -0.000 A 
ATOM     15  C   UNL d   1       0.723  -2.780   2.577  0.00  0.00     0.074 A 
ATOM     16  C   UNL d   1       1.284  -4.029   2.836  0.00  0.00     0.037 A 
ATOM     17  C   UNL d   1       2.225  -4.567   1.963  0.00  0.00     0.003 A 
ATOM     18  C   UNL d   1       2.616  -3.840   0.845  0.00  0.00     0.001 A 
ATOM     19  C   UNL d   1       2.064  -2.578   0.601  0.00  0.00     0.012 A 
BRANCH  15  20
ATOM     20  O   UNL d   1      -0.225  -2.349   3.465  0.00  0.00    -0.360 OA
ATOM     21  H   UNL d   1      -0.705  -1.599   3.059  0.00  0.00     0.217 HD
ENDBRANCH  15  20
ENDBRANCH   2  14
ENDBRANCH   1   2
BRANCH   1  22
ATOM     22  N   UNL d   1       0.468  -0.676  -1.312  0.00  0.00    -0.387 N 
ATOM     23  C   UNL d   1       1.204  -0.541  -2.362  0.00  0.00     0.097 C 
ATOM     24  HN  UNL d   1      -0.351  -1.284  -1.296  1.00  0.00     0.159 HD
BRANCH  23  25
ATOM     25  C   UNL d   1       0.907  -1.325  -3.571  0.00  0.00     0.012 A 
ATOM     26  C   UNL d   1       1.302  -0.885  -4.832  0.00  0.00     0.077 A 
ATOM     27  C   UNL d   1       1.058  -1.675  -5.953  0.00  0.00     0.037 A 
ATOM     28  C   UNL d   1       0.396  -2.898  -5.815  0.00  0.00     0.003 A 
ATOM     29  C   UNL d   1      -0.014  -3.336  -4.557  0.00  0.00     0.001 A 
ATOM     30  C   UNL d   1       0.241  -2.553  -3.433  0.00  0.00     0.015 A 
BRANCH  26  31
ATOM     31  O   UNL d   1       1.910   0.319  -5.050  0.00  0.00    -0.360 OA
ATOM     32  H   UNL d   1       1.517   0.979  -4.450  0.00  0.00     0.217 HD
ENDBRANCH  26  31
ENDBRANCH  23  25
ENDBRANCH   1  22
BRANCH   1  33
ATOM     33  C   UNL d   1       0.355   1.546  -0.163  0.00  0.00    -0.000 A 
ATOM     34  C   UNL d   1      -0.784   1.927  -0.888  0.00  0.00     0.074 A 
ATOM     35  C   UNL d   1      -1.258   3.237  -0.873  0.00  0.00     0.037 A 
ATOM     36  C   UNL d   1      -0.591   4.207  -0.129  0.00  0.00     0.003 A 
ATOM     37  C   UNL d   1       0.546   3.859   0.594  0.00  0.00     0.001 A 
ATOM     38  C   UNL d   1       1.015   2.541   0.581  0.00  0.00     0.012 A 
BRANCH  34  39
ATOM     39  O   UNL d   1      -1.499   1.042  -1.648  0.00  0.00    -0.360 OA
ATOM     40  H   UNL d   1      -1.067   0.169  -1.546  0.00  0.00     0.217 HD
ENDBRANCH  34  39
ENDBRANCH   1  33
TORSDOF 11
