REMARK  4 active torsions:
REMARK  status: ('A' for Active; 'I' for Inactive)
REMARK    1  A    between atoms: C_6  and  S_1 
REMARK    2  A    between atoms: N_9  and  S_1 
REMARK    3  A    between atoms: C_2  and  C_13 
REMARK    4  A    between atoms: C_19  and  N_9 
ROOT
ATOM      1  C   UNL d   1       1.584  -5.146  -1.646  0.00  0.00    -0.002 A 
ATOM      2  C   UNL d   1       0.844  -2.780  -0.315  0.00  0.00     0.042 A 
ATOM      3  C   UNL d   1       2.514  -4.114  -1.443  0.00  0.00     0.016 A 
ATOM      4  C   UNL d   1       0.281  -4.974  -1.146  0.00  0.00     0.016 A 
ATOM      5  C   UNL d   1      -0.091  -3.796  -0.488  0.00  0.00     0.031 A 
ATOM      6  C   UNL d   1       2.141  -2.935  -0.795  0.00  0.00     0.031 A 
ENDROOT
BRANCH   1   7
ATOM      7  C   UNL d   1       1.917  -6.377  -2.383  0.00  0.00     0.085 A 
ATOM      8  N   UNL d   1       1.340  -7.544  -2.177  0.00  0.00    -0.349 N 
ATOM      9  C   UNL d   1       1.788  -8.473  -3.101  0.00  0.00     0.050 A 
ATOM     10  HN  UNL d   1       0.659  -7.735  -1.442  1.00  0.00     0.166 HD
ATOM     11  C   UNL d   1       1.371  -9.815  -3.195  0.00  0.00     0.031 A 
ATOM     12  C   UNL d   1       2.723  -7.999  -4.020  0.00  0.00     0.034 A 
ATOM     13  C   UNL d   1       1.876 -10.631  -4.214  0.00  0.00     0.009 A 
ATOM     14  C   UNL d   1       2.801 -10.138  -5.137  0.00  0.00    -0.061 A 
ATOM     15  C   UNL d   1       3.246  -8.811  -5.041  0.00  0.00     0.028 A 
ATOM     16  C   UNL d   1       3.306 -11.030  -6.234  0.00  0.00     0.048 C 
ATOM     17  S   UNL d   1       3.054  -6.349  -3.677  0.00  0.00    -0.070 SA
ENDBRANCH   1   7
BRANCH   2  18
ATOM     18  N   UNL d   1       0.474  -1.557   0.284  0.00  0.00    -0.280 N 
ATOM     19  H   UNL d   1       0.101  -0.789  -0.266  0.00  0.00     0.179 HD
BRANCH  18  20
ATOM     20  S   UNL d   1       0.555  -1.354   1.939  0.00  0.00     0.269 S 
ATOM     21  O   UNL d   1       0.136   0.009   2.217  0.00  0.00    -0.200 OA
ATOM     22  O   UNL d   1      -0.077  -2.480   2.588  0.00  0.00    -0.200 OA
BRANCH  20  23
ATOM     23  C   UNL d   1       2.261  -1.437   2.437  0.00  0.00     0.120 A 
ATOM     24  S   UNL d   1       3.317  -0.290   1.727  0.00  0.00    -0.088 SA
ATOM     25  C   UNL d   1       4.675  -0.942   2.539  0.00  0.00     0.051 A 
ATOM     26  C   UNL d   1       4.331  -1.992   3.360  0.00  0.00     0.009 A 
ATOM     27  C   UNL d   1       2.937  -2.280   3.301  0.00  0.00     0.033 A 
ENDBRANCH  20  23
ENDBRANCH  18  20
ENDBRANCH   2  18
TORSDOF 4
