REMARK  2 active torsions:
REMARK  status: ('A' for Active; 'I' for Inactive)
REMARK    1  A    between atoms: C_4  and  N_1 
REMARK    2  A    between atoms: C_9  and  C_6 
ROOT
ATOM      1  N   UNL d   1       0.921  -0.077  -0.016  0.00  0.00    -0.364 N 
ATOM      2  HN  UNL d   1       0.364   0.762  -0.179  1.00  0.00     0.165 HD
ATOM      3  C   UNL d   1       2.212  -0.043  -0.111  0.00  0.00     0.101 C 
ENDROOT
BRANCH   1   4
ATOM      4  C   UNL d   1       0.302  -1.301   0.317  0.00  0.00     0.054 A 
ATOM      5  C   UNL d   1      -0.669  -1.368   1.332  0.00  0.00     0.062 A 
ATOM      6  C   UNL d   1      -1.320  -2.570   1.629  0.00  0.00     0.045 A 
ATOM      7 CL   UNL d   1      -1.101   0.033   2.252  0.00  0.00    -0.082 Cl
ATOM      8  C   UNL d   1      -1.006  -3.719   0.907  0.00  0.00     0.012 A 
ATOM      9  C   UNL d   1      -0.056  -3.675  -0.110  0.00  0.00     0.021 A 
ATOM     10 BR   UNL d   1      -1.884  -5.346   1.298  0.00  0.00    -0.051 Br
ATOM     11  C   UNL d   1       0.584  -2.469  -0.409  0.00  0.00     0.032 A 
ENDBRANCH   1   4
BRANCH   3  12
ATOM     12  C   UNL d   1       2.924   1.193  -0.467  0.00  0.00    -0.005 A 
ATOM     13  C   UNL d   1       4.265   1.130  -0.817  0.00  0.00     0.100 A 
ATOM     14  N   UNL d   1       5.000   2.212  -1.169  0.00  0.00    -0.374 N 
ATOM     15  C   UNL d   1       4.363   3.405  -1.164  0.00  0.00     0.087 A 
ATOM     16  HN  UNL d   1       5.985   2.131  -1.424  1.00  0.00     0.164 HD
ATOM     17  C   UNL d   1       3.027   3.565  -0.825  0.00  0.00     0.018 A 
ATOM     18  C   UNL d   1       2.293   2.435  -0.472  0.00  0.00     0.015 A 
ENDBRANCH   3  12
TORSDOF 2
