REMARK  3 active torsions:
REMARK  status: ('A' for Active; 'I' for Inactive)
REMARK    1  A    between atoms: C_2  and  S_1 
REMARK    2  A    between atoms: C_11  and  S_1 
REMARK    3  A    between atoms: C_3  and  C_4 
ROOT
ATOM      1  C   UNL d   1       0.415   1.550   0.975  0.00  0.00     0.145 C 
ATOM      2  C   UNL d   1      -0.478   2.398   0.421  0.00  0.00     0.054 C 
ATOM      3  C   UNL d   1       0.875   1.779   2.290  0.00  0.00     0.112 C 
ATOM      4  N   UNL d   1       1.229   1.995   3.374  0.00  0.00    -0.191 NA
ENDROOT
BRANCH   1   5
ATOM      5  S   UNL d   1       1.052   0.192   0.107  0.00  0.00     0.216 S 
ATOM      6  O   UNL d   1       1.867   0.681  -0.994  0.00  0.00    -0.216 OA
ATOM      7  O   UNL d   1      -0.005  -0.771  -0.147  0.00  0.00    -0.216 OA
BRANCH   5   8
ATOM      8  C   UNL d   1       2.182  -0.644   1.218  0.00  0.00     0.065 A 
ATOM      9  C   UNL d   1       1.706  -1.675   2.035  0.00  0.00     0.024 A 
ATOM     10  C   UNL d   1       2.605  -2.418   2.806  0.00  0.00     0.008 A 
ATOM     11  C   UNL d   1       3.979  -2.154   2.746  0.00  0.00    -0.062 A 
ATOM     12  C   UNL d   1       4.441  -1.105   1.940  0.00  0.00     0.008 A 
ATOM     13  C   UNL d   1       4.939  -2.975   3.558  0.00  0.00     0.048 C 
ATOM     14  C   UNL d   1       3.549  -0.357   1.165  0.00  0.00     0.024 A 
ENDBRANCH   5   8
ENDBRANCH   1   5
BRANCH   2  15
ATOM     15  C   UNL d   1      -1.042   2.250  -0.878  0.00  0.00     0.014 C 
ATOM     16  S   UNL d   1      -2.434   1.266  -1.059  0.00  0.00    -0.089 SA
ATOM     17  C   UNL d   1      -2.471   1.466  -2.759  0.00  0.00     0.016 A 
ATOM     18  C   UNL d   1      -3.353   0.838  -3.661  0.00  0.00     0.021 A 
ATOM     19  C   UNL d   1      -1.497   2.370  -3.186  0.00  0.00    -0.010 A 
ATOM     20  C   UNL d   1      -3.244   1.121  -5.024  0.00  0.00     0.025 A 
ATOM     21  C   UNL d   1      -2.293   2.024  -5.472  0.00  0.00     0.035 A 
ATOM     22  C   UNL d   1      -1.429   2.658  -4.575  0.00  0.00     0.037 A 
ATOM     23 CL   UNL d   1      -2.167   2.362  -7.155  0.00  0.00    -0.084 Cl
ATOM     24  C   UNL d   1      -0.697   2.860  -2.076  0.00  0.00    -0.033 C 
ATOM     25  C   UNL d   1       0.393   3.875  -2.254  0.00  0.00     0.050 C 
ENDBRANCH   2  15
TORSDOF 3
