REMARK  5 active torsions:
REMARK  status: ('A' for Active; 'I' for Inactive)
REMARK    1  A    between atoms: O_2  and  C_1 
REMARK    2  A    between atoms: C_12  and  O_2 
REMARK    3  A    between atoms: O_13  and  C_3 
REMARK    4  A    between atoms: O_10  and  N_5 
REMARK    5  A    between atoms: C_9  and  C_8 
ROOT
ATOM      1  C   UNL d   1       1.152  -0.372   0.208  0.00  0.00     0.103 A 
ATOM      2  C   UNL d   1       0.064  -1.269   0.200  0.00  0.00     0.101 A 
ATOM      3  C   UNL d   1       0.884   1.007   0.194  0.00  0.00     0.052 A 
ATOM      4  C   UNL d   1      -1.250  -0.775   0.154  0.00  0.00     0.040 A 
ATOM      5  C   UNL d   1      -0.437   1.478   0.167  0.00  0.00    -0.016 A 
ATOM      6  C   UNL d   1      -1.505   0.592   0.129  0.00  0.00     0.016 A 
ENDROOT
BRANCH   1   7
ATOM      7  O   UNL d   1       2.409  -0.897   0.312  0.00  0.00    -0.343 OA
BRANCH   7   8
ATOM      8  C   UNL d   1       3.587  -0.248  -0.156  0.00  0.00     0.129 C 
ATOM      9  C   UNL d   1       4.149   0.822   0.773  0.00  0.00     0.032 C 
ATOM     10  C   UNL d   1       4.766   1.887  -0.124  0.00  0.00     0.002 C 
ATOM     11  C   UNL d   1       4.546   1.467  -1.574  0.00  0.00     0.002 C 
ATOM     12  C   UNL d   1       3.543   0.324  -1.568  0.00  0.00     0.032 C 
ENDBRANCH   7   8
ENDBRANCH   1   7
BRANCH   2  13
ATOM     13  O   UNL d   1       0.084  -2.639   0.256  0.00  0.00    -0.353 OA
ATOM     14  C   UNL d   1       1.297  -3.314  -0.036  0.00  0.00     0.210 C 
ENDBRANCH   2  13
BRANCH   5  15
ATOM     15  C   UNL d   1      -0.749   2.920   0.224  0.00  0.00     0.125 C 
ATOM     16  N   UNL d   1       0.158   3.827   0.424  0.00  0.00    -0.280 N 
ATOM     17  HN  UNL d   1       1.158   3.656   0.527  1.00  0.00     0.193 HD
BRANCH  16  18
ATOM     18  O   UNL d   1      -0.468   5.076   0.474  0.00  0.00    -0.290 OA
ATOM     19  H   UNL d   1       0.264   5.670   0.726  0.00  0.00     0.244 HD
ENDBRANCH  16  18
ENDBRANCH   5  15
TORSDOF 5
