REMARK  1 active torsions:
REMARK  status: ('A' for Active; 'I' for Inactive)
REMARK    1  A    between atoms: C_9  and  C_4 
ROOT
ATOM      1  S   UNL d   1      -0.444  -1.793   0.572  0.00  0.00    -0.118 SA
ATOM      2  N   UNL d   1      -0.671   1.382   0.469  0.00  0.00    -0.326 N 
ATOM      3  C   UNL d   1      -1.864   0.966  -0.067  0.00  0.00     0.223 C 
ATOM      4  C   UNL d   1      -1.665  -1.475  -0.762  0.00  0.00     0.094 C 
ATOM      5  C   UNL d   1      -1.814  -0.027  -1.201  0.00  0.00     0.123 C 
ATOM      6  C   UNL d   1       0.814  -0.579   0.190  0.00  0.00     0.028 A 
ATOM      7  C   UNL d   1       0.596   0.809   0.258  0.00  0.00     0.051 A 
ATOM      8  O   UNL d   1      -2.918   1.487   0.290  0.00  0.00    -0.273 OA
ATOM      9  C   UNL d   1       2.110  -1.060  -0.043  0.00  0.00     0.021 A 
ATOM     10  C   UNL d   1       1.680   1.687   0.142  0.00  0.00     0.031 A 
ATOM     11  C   UNL d   1       2.959   1.196  -0.126  0.00  0.00     0.002 A 
ATOM     12  C   UNL d   1       3.173  -0.175  -0.228  0.00  0.00     0.002 A 
ATOM     13  H   UNL d   1      -0.730   2.267   0.958  0.00  0.00     0.169 HD
ENDROOT
BRANCH   4  14
ATOM     14  C   UNL d   1      -1.409  -2.376  -1.967  0.00  0.00    -0.044 A 
ATOM     15  C   UNL d   1      -2.398  -3.274  -2.399  0.00  0.00     0.008 A 
ATOM     16  C   UNL d   1      -2.179  -4.094  -3.510  0.00  0.00     0.001 A 
ATOM     17  C   UNL d   1      -0.970  -4.036  -4.199  0.00  0.00     0.000 A 
ATOM     18  C   UNL d   1       0.019  -3.149  -3.789  0.00  0.00     0.001 A 
ATOM     19  C   UNL d   1      -0.204  -2.319  -2.691  0.00  0.00     0.008 A 
ENDBRANCH   4  14
TORSDOF 1
