REMARK  8 active torsions:
REMARK  status: ('A' for Active; 'I' for Inactive)
REMARK    1  A    between atoms: C_2  and  S_1 
REMARK    2  A    between atoms: N_4  and  S_1 
REMARK    3  A    between atoms: C_15  and  N_4 
REMARK    4  A    between atoms: C_24  and  N_4 
REMARK    5  A    between atoms: O_21  and  C_6 
REMARK    6  A    between atoms: O_22  and  C_8 
REMARK    7  A    between atoms: O_23  and  C_9 
REMARK    8  A    between atoms: C_14  and  C_15 
ROOT
ATOM      1  N   UNL d   1       0.477   1.618   0.219  0.00  0.00    -0.303 N 
ENDROOT
BRANCH   1   2
ATOM      2  S   UNL d   1       1.333   0.130   0.263  0.00  0.00     0.262 S 
ATOM      3  O   UNL d   1       0.709  -0.868  -0.571  0.00  0.00    -0.200 OA
ATOM      4  O   UNL d   1       2.730   0.457   0.052  0.00  0.00    -0.200 OA
BRANCH   2   5
ATOM      5  C   UNL d   1       1.232  -0.432   1.965  0.00  0.00     0.103 A 
ATOM      6  C   UNL d   1       2.313  -0.080   2.798  0.00  0.00     0.052 A 
ATOM      7  C   UNL d   1       2.415  -0.585   4.099  0.00  0.00     0.057 A 
ATOM      8 CL   UNL d   1       3.762  -0.090   5.052  0.00  0.00    -0.083 Cl
ATOM      9  C   UNL d   1       1.442  -1.463   4.572  0.00  0.00     0.057 A 
ATOM     10  C   UNL d   1       0.368  -1.817   3.751  0.00  0.00     0.051 A 
ATOM     11 CL   UNL d   1       1.505  -2.159   6.152  0.00  0.00    -0.082 Cl
ATOM     12  C   UNL d   1       0.260  -1.311   2.444  0.00  0.00     0.059 A 
ATOM     13 CL   UNL d   1      -1.123  -1.839   1.570  0.00  0.00    -0.083 Cl
ENDBRANCH   2   5
ENDBRANCH   1   2
BRANCH   1  14
ATOM     14  C   UNL d   1      -0.988   1.601   0.005  0.00  0.00     0.174 C 
BRANCH  14  15
ATOM     15  C   UNL d   1      -1.431   0.943  -1.282  0.00  0.00    -0.034 A 
ATOM     16  C   UNL d   1      -2.314  -0.135  -1.251  0.00  0.00     0.048 A 
ATOM     17  C   UNL d   1      -2.637  -0.859  -2.410  0.00  0.00     0.104 A 
ATOM     18  C   UNL d   1      -2.105  -0.469  -3.662  0.00  0.00     0.135 A 
ATOM     19  C   UNL d   1      -1.253   0.659  -3.706  0.00  0.00     0.104 A 
ATOM     20  C   UNL d   1      -0.932   1.348  -2.521  0.00  0.00     0.048 A 
BRANCH  17  21
ATOM     21  O   UNL d   1      -3.407  -1.994  -2.320  0.00  0.00    -0.353 OA
ATOM     22  C   UNL d   1      -4.367  -2.037  -1.269  0.00  0.00     0.210 C 
ENDBRANCH  17  21
BRANCH  18  23
ATOM     23  O   UNL d   1      -2.363  -1.078  -4.862  0.00  0.00    -0.351 OA
ATOM     24  C   UNL d   1      -3.145  -2.260  -4.930  0.00  0.00     0.210 C 
ENDBRANCH  18  23
BRANCH  19  25
ATOM     25  O   UNL d   1      -0.614   1.223  -4.783  0.00  0.00    -0.353 OA
ATOM     26  C   UNL d   1      -0.841   0.727  -6.092  0.00  0.00     0.210 C 
ENDBRANCH  19  25
ENDBRANCH  14  15
ENDBRANCH   1  14
BRANCH   1  27
ATOM     27  C   UNL d   1       1.028   2.676   1.111  0.00  0.00     0.131 C 
ATOM     28  C   UNL d   1       0.388   4.046   0.970  0.00  0.00     0.027 C 
ENDBRANCH   1  27
TORSDOF 8
