REMARK  6 active torsions:
REMARK  status: ('A' for Active; 'I' for Inactive)
REMARK    1  A    between atoms: N_15  and  C_1 
REMARK    2  A    between atoms: C_8  and  C_2 
REMARK    3  A    between atoms: C_13  and  N_3 
REMARK    4  A    between atoms: N_6  and  C_9 
REMARK       I    between atoms: N_16  and  C_8 
REMARK    5  A    between atoms: N_10  and  N_16 
REMARK    6  A    between atoms: C_21  and  C_20 
ROOT
ATOM      1  C   UNL d   1      -0.613  -2.653  -0.139  0.00  0.00     0.274 C 
ATOM      2  N   UNL d   1       0.378  -3.610   0.058  0.00  0.00    -0.266 N 
ATOM      3  O   UNL d   1      -1.794  -2.916  -0.354  0.00  0.00    -0.266 OA
ATOM      4  H   UNL d   1       1.353  -3.330   0.105  0.00  0.00     0.190 HD
ENDROOT
BRANCH   1   5
ATOM      5  C   UNL d   1      -0.163  -1.273  -0.078  0.00  0.00     0.090 A 
ATOM      6  C   UNL d   1       0.905  -0.719   0.607  0.00  0.00     0.118 A 
ATOM      7  N   UNL d   1       0.837   0.671   0.383  0.00  0.00    -0.245 N 
ATOM      8  N   UNL d   1      -0.279   1.004  -0.316  0.00  0.00    -0.303 N 
ATOM      9  C   UNL d   1      -0.843  -0.163  -0.621  0.00  0.00     0.128 A 
ATOM     10  HN  UNL d   1      -0.610   1.939  -0.555  1.00  0.00     0.186 HD
BRANCH   6  11
ATOM     11  N   UNL d   1       1.781  -1.317   1.475  0.00  0.00    -0.286 NA
ATOM     12  H   UNL d   1       1.460  -2.164   1.947  0.00  0.00     0.125 HD
ATOM     13  H   UNL d   1       2.212  -0.712   2.180  0.00  0.00     0.125 HD
ENDBRANCH   6  11
BRANCH   7  14
ATOM     14  C   UNL d   1       1.699   1.688   0.883  0.00  0.00     0.058 A 
ATOM     15  C   UNL d   1       3.055   1.429   1.116  0.00  0.00     0.031 A 
ATOM     16  C   UNL d   1       3.861   2.398   1.715  0.00  0.00     0.002 A 
ATOM     17  C   UNL d   1       3.319   3.631   2.075  0.00  0.00     0.000 A 
ATOM     18  C   UNL d   1       1.982   3.915   1.796  0.00  0.00     0.002 A 
ATOM     19  C   UNL d   1       1.174   2.955   1.181  0.00  0.00     0.031 A 
ENDBRANCH   7  14
ENDBRANCH   1   5
BRANCH   2  20
ATOM     20  N   UNL d   1       0.013  -4.921   0.148  0.00  0.00    -0.308 N 
ATOM     21  C   UNL d   1       0.947  -5.811   0.232  0.00  0.00     0.118 C 
ATOM     22  HN  UNL d   1      -0.970  -5.192   0.150  1.00  0.00     0.186 HD
BRANCH  21  23
ATOM     23  C   UNL d   1       0.592  -7.247   0.361  0.00  0.00    -0.019 A 
ATOM     24  C   UNL d   1      -0.753  -7.630   0.465  0.00  0.00     0.015 A 
ATOM     25  C   UNL d   1      -1.100  -8.978   0.597  0.00  0.00     0.037 A 
ATOM     26  C   UNL d   1      -0.091  -9.946   0.619  0.00  0.00     0.102 A 
ATOM     27  C   UNL d   1       1.258  -9.573   0.512  0.00  0.00     0.037 A 
ATOM     28  C   UNL d   1       1.598  -8.218   0.384  0.00  0.00     0.015 A 
BRANCH  26  29
ATOM     29  N   UNL d   1      -0.449 -11.368   0.759  0.00  0.00    -0.116 N 
ATOM     30  O   UNL d   1       0.472 -12.192   0.770  0.00  0.00    -0.532 OA
ATOM     31  O   UNL d   1      -1.652 -11.652   0.860  0.00  0.00    -0.532 OA
ENDBRANCH  26  29
ENDBRANCH  21  23
ENDBRANCH   2  20
TORSDOF 6
