REMARK  6 active torsions:
REMARK  status: ('A' for Active; 'I' for Inactive)
REMARK    1  A    between atoms: C_9  and  C_1 
REMARK    2  A    between atoms: C_7  and  C_2 
REMARK    3  A    between atoms: S_11  and  C_5 
REMARK    4  A    between atoms: O_18  and  C_9 
REMARK    5  A    between atoms: C_17  and  S_11 
REMARK    6  A    between atoms: C_24  and  O_18 
ROOT
ATOM      1  C   UNL d   1      -1.596   1.356   0.041  0.00  0.00     0.072 A 
ATOM      2  C   UNL d   1      -2.240   0.123  -0.050  0.00  0.00     0.134 A 
ATOM      3  N   UNL d   1      -1.511  -1.040  -0.102  0.00  0.00    -0.345 N 
ATOM      4  HN  UNL d   1      -1.990  -1.941  -0.117  1.00  0.00     0.166 HD
ATOM      5  C   UNL d   1      -0.154  -0.995  -0.132  0.00  0.00     0.096 A 
ATOM      6  C   UNL d   1       0.539   0.208  -0.156  0.00  0.00     0.079 A 
ATOM      7  C   UNL d   1      -0.196   1.392  -0.046  0.00  0.00     0.045 A 
ATOM      8  C   UNL d   1       1.961   0.277  -0.276  0.00  0.00     0.102 C 
ATOM      9  N   UNL d   1       3.114   0.377  -0.399  0.00  0.00    -0.191 NA
ENDROOT
BRANCH   5  10
ATOM     10  S   UNL d   1       0.653  -2.567   0.074  0.00  0.00    -0.071 SA
BRANCH  10  11
ATOM     11  C   UNL d   1       0.746  -3.219  -1.578  0.00  0.00     0.007 A 
ATOM     12  C   UNL d   1       1.993  -3.648  -2.045  0.00  0.00     0.019 A 
ATOM     13  C   UNL d   1       2.107  -4.302  -3.273  0.00  0.00     0.008 A 
ATOM     14  C   UNL d   1       0.974  -4.546  -4.054  0.00  0.00    -0.062 A 
ATOM     15  C   UNL d   1      -0.272  -4.094  -3.601  0.00  0.00     0.008 A 
ATOM     16  C   UNL d   1       1.109  -5.307  -5.340  0.00  0.00     0.048 C 
ATOM     17  C   UNL d   1      -0.386  -3.439  -2.368  0.00  0.00     0.019 A 
ENDBRANCH  10  11
ENDBRANCH   5  10
BRANCH   1  18
ATOM     18  C   UNL d   1      -2.333   2.615   0.254  0.00  0.00     0.295 C 
ATOM     19  O   UNL d   1      -3.298   2.719   0.986  0.00  0.00    -0.259 OA
BRANCH  18  20
ATOM     20  O   UNL d   1      -1.771   3.567  -0.522  0.00  0.00    -0.318 OA
BRANCH  20  21
ATOM     21  C   UNL d   1      -2.544   4.757  -0.732  0.00  0.00     0.174 C 
ATOM     22  C   UNL d   1      -3.231   4.602  -2.075  0.00  0.00     0.034 C 
ENDBRANCH  20  21
ENDBRANCH  18  20
ENDBRANCH   1  18
BRANCH   2  23
ATOM     23  C   UNL d   1      -3.752  -0.029  -0.167  0.00  0.00     0.433 C 
ATOM     24  F   UNL d   1      -4.445   1.101  -0.465  0.00  0.00    -0.165 F 
ATOM     25  F   UNL d   1      -4.080  -0.889  -1.182  0.00  0.00    -0.165 F 
ATOM     26  F   UNL d   1      -4.323  -0.555   0.952  0.00  0.00    -0.165 F 
ENDBRANCH   2  23
TORSDOF 6
