REMARK  6 active torsions:
REMARK  status: ('A' for Active; 'I' for Inactive)
REMARK    1  A    between atoms: S_16  and  C_1 
REMARK    2  A    between atoms: C_2  and  S_15 
REMARK    3  A    between atoms: S_15  and  C_20 
REMARK    4  A    between atoms: C_19  and  S_16 
REMARK    5  A    between atoms: C_17  and  C_19 
REMARK    6  A    between atoms: C_20  and  C_18 
ROOT
ATOM      1  N   UNL d   1      -6.835  -0.569   0.022  0.00  0.00    -0.362 N 
ATOM      2  HN  UNL d   1      -6.373   0.340   0.030  1.00  0.00     0.165 HD
ATOM      3  C   UNL d   1      -6.106  -1.716   0.054  0.00  0.00     0.019 A 
ATOM      4  C   UNL d   1      -8.191  -0.656  -0.019  0.00  0.00     0.019 A 
ATOM      5  C   UNL d   1      -8.096  -3.052   0.011  0.00  0.00     0.004 A 
ATOM      6  C   UNL d   1      -6.708  -2.971   0.051  0.00  0.00     0.026 A 
ATOM      7  C   UNL d   1      -8.850  -1.883  -0.026  0.00  0.00     0.026 A 
ENDROOT
BRANCH   3   8
ATOM      8  C   UNL d   1      -4.599  -1.588   0.052  0.00  0.00     0.139 C 
BRANCH   8   9
ATOM      9  S   UNL d   1      -3.972  -0.829   1.582  0.00  0.00    -0.088 SA
BRANCH   9  10
ATOM     10  C   UNL d   1      -2.281  -0.824   1.256  0.00  0.00     0.145 A 
ATOM     11  N   UNL d   1      -1.654  -1.359   0.238  0.00  0.00    -0.335 N 
ATOM     12  C   UNL d   1      -0.324  -1.100   0.474  0.00  0.00     0.061 A 
ATOM     13  HN  UNL d   1      -2.061  -1.856  -0.554  1.00  0.00     0.168 HD
ATOM     14  C   UNL d   1       0.809  -1.442  -0.282  0.00  0.00     0.032 A 
ATOM     15  C   UNL d   1      -0.152  -0.394   1.664  0.00  0.00     0.061 A 
ATOM     16  C   UNL d   1       2.073  -1.067   0.189  0.00  0.00     0.002 A 
ATOM     17  C   UNL d   1       2.210  -0.363   1.389  0.00  0.00     0.002 A 
ATOM     18  C   UNL d   1       1.095  -0.007   2.157  0.00  0.00     0.032 A 
ATOM     19  N   UNL d   1      -1.429  -0.226   2.136  0.00  0.00    -0.335 N 
ATOM     20  H   UNL d   1      -1.706   0.244   2.984  0.00  0.00     0.168 HD
ENDBRANCH   9  10
ENDBRANCH   8   9
ENDBRANCH   3   8
BRANCH   4  21
ATOM     21  C   UNL d   1      -8.976   0.638  -0.036  0.00  0.00     0.139 C 
BRANCH  21  22
ATOM     22  S   UNL d   1      -8.681   1.584  -1.563  0.00  0.00    -0.088 SA
BRANCH  22  23
ATOM     23  C   UNL d   1      -9.638   2.983  -1.268  0.00  0.00     0.145 A 
ATOM     24  N   UNL d   1     -10.452   3.218  -0.268  0.00  0.00    -0.335 N 
ATOM     25  C   UNL d   1     -10.988   4.458  -0.540  0.00  0.00     0.061 A 
ATOM     26  HN  UNL d   1     -10.645   2.617   0.533  1.00  0.00     0.168 HD
ATOM     27  C   UNL d   1     -11.926   5.214   0.181  0.00  0.00     0.032 A 
ATOM     28  C   UNL d   1     -10.480   4.973  -1.732  0.00  0.00     0.061 A 
ATOM     29  C   UNL d   1     -12.324   6.457  -0.328  0.00  0.00     0.002 A 
ATOM     30  C   UNL d   1     -11.799   6.942  -1.529  0.00  0.00     0.002 A 
ATOM     31  C   UNL d   1     -10.858   6.209  -2.260  0.00  0.00     0.032 A 
ATOM     32  N   UNL d   1      -9.609   4.008  -2.166  0.00  0.00    -0.335 N 
ATOM     33  H   UNL d   1      -9.048   4.030  -3.003  0.00  0.00     0.168 HD
ENDBRANCH  22  23
ENDBRANCH  21  22
ENDBRANCH   4  21
TORSDOF 6
