REMARK  3 active torsions:
REMARK  status: ('A' for Active; 'I' for Inactive)
REMARK       I    between atoms: N_2  and  C_1 
REMARK       I    between atoms: N_5  and  C_1 
REMARK    1  A    between atoms: C_4  and  N_2 
REMARK    2  A    between atoms: C_9  and  N_5 
REMARK    3  A    between atoms: C_16  and  C_11 
ROOT
ATOM      1  N   UNL d   1      -6.324   0.974   2.462  0.00  0.00    -0.197 NA
ATOM      2  C   UNL d   1      -5.910   0.054   1.883  0.00  0.00     0.063 C 
ATOM      3  C   UNL d   1      -5.405  -1.119   1.151  0.00  0.00     0.162 C 
ENDROOT
BRANCH   3   4
ATOM      4  C   UNL d   1      -3.901  -1.105   1.029  0.00  0.00    -0.045 A 
ATOM      5  C   UNL d   1      -3.082  -1.654   2.025  0.00  0.00     0.010 A 
ATOM      6  C   UNL d   1      -1.687  -1.519   1.956  0.00  0.00     0.030 A 
ATOM      7  C   UNL d   1      -1.086  -0.838   0.891  0.00  0.00     0.036 A 
ATOM      8  C   UNL d   1      -1.908  -0.336  -0.120  0.00  0.00     0.030 A 
ATOM      9  C   UNL d   1      -3.297  -0.462  -0.053  0.00  0.00     0.010 A 
BRANCH   7  10
ATOM     10  N   UNL d   1       0.324  -0.681   0.906  0.00  0.00    -0.309 N 
ATOM     11  C   UNL d   1       1.088  -0.050  -0.068  0.00  0.00     0.325 C 
ATOM     12  N   UNL d   1       2.442  -0.119   0.226  0.00  0.00    -0.306 N 
ATOM     13  O   UNL d   1       0.631   0.446  -1.088  0.00  0.00    -0.247 OA
ATOM     14  H   UNL d   1       2.710  -0.817   0.902  0.00  0.00     0.171 HD
ATOM     15  H   UNL d   1       0.802  -1.010   1.729  0.00  0.00     0.170 HD
BRANCH  12  16
ATOM     16  C   UNL d   1       3.485   0.384  -0.599  0.00  0.00     0.075 A 
ATOM     17  C   UNL d   1       3.343   1.394  -1.563  0.00  0.00     0.143 A 
ATOM     18  F   UNL d   1       2.223   2.118  -1.680  0.00  0.00    -0.204 F 
ATOM     19  C   UNL d   1       4.401   1.750  -2.401  0.00  0.00     0.044 A 
ATOM     20  C   UNL d   1       5.640   1.133  -2.261  0.00  0.00     0.003 A 
ATOM     21  C   UNL d   1       5.820   0.176  -1.265  0.00  0.00     0.002 A 
ATOM     22  C   UNL d   1       4.753  -0.193  -0.437  0.00  0.00     0.033 A 
ENDBRANCH  12  16
ENDBRANCH   7  10
ENDBRANCH   3   4
TORSDOF 3
