REMARK  6 active torsions:
REMARK  status: ('A' for Active; 'I' for Inactive)
REMARK    1  A    between atoms: N_6  and  C_1 
REMARK    2  A    between atoms: C_2  and  C_3 
REMARK       I    between atoms: C_9  and  N_11 
REMARK    3  A    between atoms: C_18  and  C_9 
REMARK    4  A    between atoms: N_11  and  C_22 
REMARK    5  A    between atoms: C_21  and  C_18 
REMARK    6  A    between atoms: O_26  and  C_25 
ROOT
ATOM      1  N   UNL d   1       0.076   2.477  -0.066  0.00  0.00    -0.366 N 
ATOM      2  C   UNL d   1       1.183   2.937  -0.904  0.00  0.00     0.126 C 
ATOM      3  C   UNL d   1       0.098   3.050   1.282  0.00  0.00     0.126 C 
ATOM      4  C   UNL d   1      -0.224   4.526   1.100  0.00  0.00     0.045 C 
ATOM      5  C   UNL d   1       1.051   4.463  -1.069  0.00  0.00     0.045 C 
ATOM      6  C   UNL d   1       0.890   5.199   0.281  0.00  0.00     0.087 C 
ENDROOT
BRANCH   6   7
ATOM      7  N   UNL d   1       2.189   5.277   0.960  0.00  0.00    -0.356 N 
ATOM      8  C   UNL d   1       2.342   5.624   2.291  0.00  0.00     0.222 C 
ATOM      9  O   UNL d   1       1.415   5.801   3.074  0.00  0.00    -0.273 OA
ATOM     10  H   UNL d   1       2.982   5.508   0.372  0.00  0.00     0.162 HD
BRANCH   8  11
ATOM     11  C   UNL d   1       3.783   5.741   2.746  0.00  0.00     0.141 C 
BRANCH  11  12
ATOM     12  C   UNL d   1       4.241   7.173   2.851  0.00  0.00    -0.047 A 
ATOM     13  C   UNL d   1       3.537   8.089   3.656  0.00  0.00     0.044 A 
ATOM     14  C   UNL d   1       3.958   9.416   3.764  0.00  0.00     0.068 A 
ATOM     15  C   UNL d   1       5.097   9.825   3.073  0.00  0.00     0.037 A 
ATOM     16  C   UNL d   1       5.811   8.922   2.284  0.00  0.00     0.003 A 
ATOM     17  C   UNL d   1       5.389   7.602   2.173  0.00  0.00     0.007 A 
BRANCH  14  18
ATOM     18  O   UNL d   1       3.351  10.392   4.507  0.00  0.00    -0.356 OA
ATOM     19  C   UNL d   1       2.168  10.025   5.209  0.00  0.00     0.210 C 
ENDBRANCH  14  18
ENDBRANCH  11  12
ENDBRANCH   8  11
ENDBRANCH   6   7
BRANCH   1  20
ATOM     20  C   UNL d   1      -0.332   1.152  -0.162  0.00  0.00     0.125 A 
ATOM     21  N   UNL d   1       0.543   0.241  -0.660  0.00  0.00    -0.350 N 
ATOM     22  C   UNL d   1       0.131  -1.044  -0.800  0.00  0.00     0.106 A 
ATOM     23  HN  UNL d   1       1.489   0.518  -0.923  1.00  0.00     0.166 HD
ATOM     24  C   UNL d   1      -1.136  -1.500  -0.471  0.00  0.00     0.065 A 
ATOM     25  C   UNL d   1      -2.035  -0.567   0.038  0.00  0.00     0.045 A 
ATOM     26  C   UNL d   1      -1.645   0.763   0.182  0.00  0.00     0.078 A 
ATOM     27 CL   UNL d   1      -2.877   1.879   0.676  0.00  0.00    -0.080 Cl
BRANCH  24  28
ATOM     28  C   UNL d   1      -1.513  -2.929  -0.697  0.00  0.00     0.418 C 
ATOM     29  F   UNL d   1      -2.795  -3.211  -0.334  0.00  0.00    -0.166 F 
ATOM     30  F   UNL d   1      -1.408  -3.293  -2.003  0.00  0.00    -0.166 F 
ATOM     31  F   UNL d   1      -0.729  -3.793   0.001  0.00  0.00    -0.166 F 
ENDBRANCH  24  28
ENDBRANCH   1  20
TORSDOF 6
