REMARK  12 active torsions:
REMARK  status: ('A' for Active; 'I' for Inactive)
REMARK    1  A    between atoms: C_2  and  C_1 
REMARK    2  A    between atoms: C_3  and  O_16 
REMARK    3  A    between atoms: C_18  and  C_6 
REMARK    4  A    between atoms: C_7  and  O_12 
REMARK    5  A    between atoms: C_15  and  C_7 
REMARK    6  A    between atoms: O_12  and  N_9 
REMARK    7  A    between atoms: C_13  and  C_28 
REMARK    8  A    between atoms: N_29  and  C_13 
REMARK    9  A    between atoms: O_16  and  C_30 
REMARK   10  A    between atoms: O_27  and  C_18 
REMARK   11  A    between atoms: C_32  and  O_27 
REMARK   12  A    between atoms: C_28  and  C_33 
ROOT
ATOM      1  C   UNL d   1      -2.925  -8.528 -10.270  0.00  0.00     0.116 C 
ENDROOT
BRANCH   1   2
ATOM      2  C   UNL d   1      -3.540  -7.120 -10.319  0.00  0.00     0.100 C 
ATOM      3  N   UNL d   1      -3.832  -6.551  -9.190  0.00  0.00    -0.245 N 
ATOM      4  HN  UNL d   1      -3.700  -7.005  -8.286  1.00  0.00     0.196 HD
BRANCH   3   5
ATOM      5  O   UNL d   1      -4.350  -5.243  -9.332  0.00  0.00    -0.193 OA
BRANCH   5   6
ATOM      6  C   UNL d   1      -4.297  -4.622  -8.110  0.00  0.00     0.315 C 
ATOM      7  O   UNL d   1      -3.804  -5.065  -7.083  0.00  0.00    -0.257 OA
BRANCH   6   8
ATOM      8  C   UNL d   1      -4.918  -3.265  -8.139  0.00  0.00     0.041 A 
ATOM      9  C   UNL d   1      -4.786  -2.465  -6.989  0.00  0.00     0.020 A 
ATOM     10  C   UNL d   1      -5.345  -1.181  -6.924  0.00  0.00     0.038 A 
ATOM     11  C   UNL d   1      -6.019  -0.662  -8.024  0.00  0.00     0.078 A 
ATOM     12  C   UNL d   1      -6.186  -1.471  -9.157  0.00  0.00     0.038 A 
ATOM     13  C   UNL d   1      -5.641  -2.763  -9.223  0.00  0.00     0.020 A 
BRANCH  11  14
ATOM     14  O   UNL d   1      -6.580   0.575  -8.124  0.00  0.00    -0.255 OA
BRANCH  14  15
ATOM     15  C   UNL d   1      -6.142   1.628  -7.276  0.00  0.00     0.530 C 
ATOM     16  F   UNL d   1      -4.900   1.447  -6.782  0.00  0.00    -0.144 F 
ATOM     17  F   UNL d   1      -6.131   2.773  -7.997  0.00  0.00    -0.144 F 
ATOM     18  F   UNL d   1      -7.009   1.785  -6.253  0.00  0.00    -0.144 F 
ENDBRANCH  14  15
ENDBRANCH  11  14
ENDBRANCH   6   8
ENDBRANCH   5   6
ENDBRANCH   3   5
BRANCH   2  19
ATOM     19  N   UNL d   1      -3.709  -6.535 -11.551  0.00  0.00    -0.387 N 
ATOM     20  H   UNL d   1      -4.340  -5.744 -11.556  0.00  0.00     0.157 HD
ATOM     21  H   UNL d   1      -3.784  -7.144 -12.356  0.00  0.00     0.157 HD
ENDBRANCH   2  19
ENDBRANCH   1   2
BRANCH   1  22
ATOM     22  C   UNL d   1      -3.830  -9.618  -9.729  0.00  0.00    -0.051 A 
ATOM     23  C   UNL d   1      -4.141 -10.755 -10.490  0.00  0.00     0.010 A 
ATOM     24  C   UNL d   1      -4.941 -11.778  -9.956  0.00  0.00     0.037 A 
ATOM     25  C   UNL d   1      -5.454 -11.677  -8.662  0.00  0.00     0.069 A 
ATOM     26  C   UNL d   1      -5.109 -10.572  -7.885  0.00  0.00     0.037 A 
ATOM     27  C   UNL d   1      -4.306  -9.556  -8.414  0.00  0.00     0.010 A 
BRANCH  25  28
ATOM     28  O   UNL d   1      -6.248 -12.714  -8.238  0.00  0.00    -0.345 OA
BRANCH  28  29
ATOM     29  C   UNL d   1      -7.219 -12.351  -7.247  0.00  0.00     0.234 C 
BRANCH  29  30
ATOM     30  C   UNL d   1      -8.147 -13.503  -6.927  0.00  0.00     0.055 A 
ATOM     31  N   UNL d   1      -9.457 -13.337  -7.277  0.00  0.00    -0.365 N 
ATOM     32  C   UNL d   1     -10.331 -14.321  -6.965  0.00  0.00     0.104 A 
ATOM     33  HN  UNL d   1      -9.767 -12.493  -7.759  1.00  0.00     0.165 HD
ATOM     34  C   UNL d   1      -9.976 -15.490  -6.310  0.00  0.00     0.064 A 
ATOM     35  C   UNL d   1      -8.635 -15.641  -5.942  0.00  0.00     0.043 A 
ATOM     36  C   UNL d   1      -7.708 -14.642  -6.250  0.00  0.00     0.059 A 
ATOM     37 CL   UNL d   1      -6.078 -14.858  -5.735  0.00  0.00    -0.082 Cl
BRANCH  34  38
ATOM     38  C   UNL d   1     -11.019 -16.523  -6.024  0.00  0.00     0.418 C 
ATOM     39  F   UNL d   1     -10.522 -17.652  -5.449  0.00  0.00    -0.166 F 
ATOM     40  F   UNL d   1     -11.667 -16.933  -7.149  0.00  0.00    -0.166 F 
ATOM     41  F   UNL d   1     -11.986 -16.069  -5.181  0.00  0.00    -0.166 F 
ENDBRANCH  34  38
ENDBRANCH  29  30
ENDBRANCH  28  29
ENDBRANCH  25  28
ENDBRANCH   1  22
TORSDOF 12
