REMARK  6 active torsions:
REMARK  status: ('A' for Active; 'I' for Inactive)
REMARK    1  A    between atoms: C_15  and  C_1 
REMARK    2  A    between atoms: C_2  and  N_14 
REMARK    3  A    between atoms: N_5  and  C_2 
REMARK    4  A    between atoms: O_20  and  C_4 
REMARK    5  A    between atoms: C_6  and  N_5 
REMARK    6  A    between atoms: N_14  and  N_8 
ROOT
ATOM      1  N   UNL d   1       0.410   5.561   0.241  0.00  0.00    -0.276 N 
ATOM      2  H   UNL d   1       0.583   4.623   0.588  0.00  0.00     0.189 HD
ENDROOT
BRANCH   1   3
ATOM      3  C   UNL d   1       1.450   6.467   0.249  0.00  0.00     0.191 C 
ATOM      4  S   UNL d   1       1.296   8.135   0.255  0.00  0.00    -0.039 SA
BRANCH   3   5
ATOM      5  N   UNL d   1       2.712   5.933   0.354  0.00  0.00    -0.332 N 
ATOM      6  H   UNL d   1       3.409   6.595   0.677  0.00  0.00     0.168 HD
BRANCH   5   7
ATOM      7  C   UNL d   1       3.201   4.726  -0.189  0.00  0.00     0.040 A 
ATOM      8  C   UNL d   1       4.404   4.175   0.294  0.00  0.00    -0.034 A 
ATOM      9  C   UNL d   1       4.906   3.002  -0.303  0.00  0.00     0.028 A 
ATOM     10  C   UNL d   1       5.199   4.771   1.425  0.00  0.00     0.050 C 
ATOM     11  C   UNL d   1       4.230   2.395  -1.360  0.00  0.00     0.011 A 
ATOM     12  C   UNL d   1       3.059   2.952  -1.855  0.00  0.00     0.021 A 
ATOM     13 BR   UNL d   1       4.913   0.809  -2.127  0.00  0.00    -0.051 Br
ATOM     14  C   UNL d   1       2.550   4.113  -1.272  0.00  0.00     0.031 A 
ENDBRANCH   5   7
ENDBRANCH   3   5
ENDBRANCH   1   3
BRANCH   1  15
ATOM     15  N   UNL d   1      -0.865   5.948  -0.034  0.00  0.00    -0.309 N 
ATOM     16  C   UNL d   1      -1.812   5.185   0.415  0.00  0.00     0.121 C 
ATOM     17  HN  UNL d   1      -1.065   6.794  -0.567  1.00  0.00     0.186 HD
BRANCH  16  18
ATOM     18  C   UNL d   1      -3.224   5.511   0.120  0.00  0.00     0.017 A 
ATOM     19  C   UNL d   1      -4.262   4.857   0.789  0.00  0.00     0.099 A 
ATOM     20  C   UNL d   1      -5.589   5.217   0.519  0.00  0.00     0.069 A 
ATOM     21 CL   UNL d   1      -6.886   4.438   1.351  0.00  0.00    -0.081 Cl
ATOM     22  C   UNL d   1      -5.884   6.208  -0.415  0.00  0.00     0.050 A 
ATOM     23  C   UNL d   1      -4.842   6.839  -1.092  0.00  0.00     0.036 A 
ATOM     24  C   UNL d   1      -3.518   6.500  -0.830  0.00  0.00     0.039 A 
ATOM     25 CL   UNL d   1      -5.196   8.050  -2.260  0.00  0.00    -0.084 Cl
BRANCH  19  26
ATOM     26  O   UNL d   1      -3.974   3.880   1.704  0.00  0.00    -0.358 OA
ATOM     27  H   UNL d   1      -4.823   3.553   2.064  0.00  0.00     0.217 HD
ENDBRANCH  19  26
ENDBRANCH  16  18
ENDBRANCH   1  15
TORSDOF 6
