REMARK  1 active torsions:
REMARK  status: ('A' for Active; 'I' for Inactive)
REMARK    1  A    between atoms: C_12  and  N_3 
ROOT
ATOM      1  C   UNL d   1       0.282  -0.531  -0.021  0.00  0.00     0.138 A 
ATOM      2  C   UNL d   1       0.216   0.803  -0.026  0.00  0.00     0.120 A 
ATOM      3  N   UNL d   1       1.598  -1.021   0.024  0.00  0.00    -0.281 N 
ATOM      4  C   UNL d   1       2.563   0.022  -0.011  0.00  0.00     0.152 A 
ATOM      5  S   UNL d   1       1.720   1.596   0.022  0.00  0.00    -0.051 SA
ATOM      6  N   UNL d   1      -0.825  -1.344   0.000  0.00  0.00    -0.331 N 
ATOM      7  HN  UNL d   1      -0.739  -2.360   0.023  1.00  0.00     0.168 HD
ATOM      8  C   UNL d   1      -1.090   1.468  -0.033  0.00  0.00     0.267 A 
ATOM      9  N   UNL d   1      -2.147   0.597  -0.034  0.00  0.00    -0.312 N 
ATOM     10  C   UNL d   1      -1.982  -0.763  -0.011  0.00  0.00     0.081 A 
ATOM     11  S   UNL d   1       4.227  -0.016  -0.189  0.00  0.00    -0.052 SA
ATOM     12  O   UNL d   1      -1.251   2.680  -0.033  0.00  0.00    -0.267 OA
ATOM     13  C   UNL d   1      -3.244  -1.578  -0.002  0.00  0.00     0.089 C 
ATOM     14  H   UNL d   1      -3.064   1.020  -0.034  0.00  0.00     0.170 HD
ENDROOT
BRANCH   3  15
ATOM     15  C   UNL d   1       1.931  -2.421   0.085  0.00  0.00     0.042 A 
ATOM     16  C   UNL d   1       1.169  -3.379  -0.603  0.00  0.00     0.030 A 
ATOM     17  C   UNL d   1       1.464  -4.745  -0.519  0.00  0.00     0.002 A 
ATOM     18  C   UNL d   1       2.533  -5.183   0.255  0.00  0.00     0.000 A 
ATOM     19  C   UNL d   1       3.302  -4.254   0.947  0.00  0.00     0.002 A 
ATOM     20  C   UNL d   1       2.997  -2.890   0.869  0.00  0.00     0.030 A 
ENDBRANCH   3  15
TORSDOF 1
