REMARK  4 active torsions:
REMARK  status: ('A' for Active; 'I' for Inactive)
REMARK    1  A    between atoms: C_11  and  C_2 
REMARK    2  A    between atoms: C_13  and  C_10 
REMARK    3  A    between atoms: C_14  and  C_12 
REMARK    4  A    between atoms: O_28  and  C_22 
ROOT
ATOM      1  N   UNL d   1       0.318   0.634   0.059  0.00  0.00    -0.235 N 
ATOM      2  C   UNL d   1      -0.798   1.461   0.046  0.00  0.00     0.144 A 
ATOM      3  C   UNL d   1       0.164  -0.755   0.042  0.00  0.00     0.130 A 
ATOM      4  N   UNL d   1       1.627   0.974   0.081  0.00  0.00    -0.291 N 
ATOM      5  HN  UNL d   1       2.016   1.916   0.129  1.00  0.00     0.187 HD
ATOM      6  N   UNL d   1      -1.057  -1.363   0.053  0.00  0.00    -0.340 N 
ATOM      7  HN  UNL d   1      -1.148  -2.379   0.050  1.00  0.00     0.167 HD
ATOM      8  C   UNL d   1      -2.029   0.910   0.037  0.00  0.00     0.067 A 
ATOM      9  C   UNL d   1       1.431  -1.283   0.008  0.00  0.00     0.082 A 
ATOM     10  C   UNL d   1       2.309  -0.178   0.024  0.00  0.00     0.062 A 
ATOM     11  C   UNL d   1      -2.101  -0.586   0.068  0.00  0.00     0.046 A 
ENDROOT
BRANCH  11  12
ATOM     12  C   UNL d   1      -3.465  -1.196   0.090  0.00  0.00    -0.009 A 
ATOM     13  C   UNL d   1      -4.557  -0.560   0.694  0.00  0.00     0.016 A 
ATOM     14  C   UNL d   1      -5.825  -1.154   0.670  0.00  0.00     0.037 A 
ATOM     15  C   UNL d   1      -6.008  -2.394   0.058  0.00  0.00     0.068 A 
ATOM     16  C   UNL d   1      -4.919  -3.034  -0.535  0.00  0.00     0.037 A 
ATOM     17  C   UNL d   1      -3.651  -2.449  -0.508  0.00  0.00     0.016 A 
BRANCH  15  18
ATOM     18  O   UNL d   1      -7.203  -3.048  -0.055  0.00  0.00    -0.356 OA
ATOM     19  C   UNL d   1      -8.146  -2.795   0.981  0.00  0.00     0.210 C 
ENDBRANCH  15  18
ENDBRANCH  11  12
BRANCH   2  20
ATOM     20  C   UNL d   1      -0.610   2.932   0.021  0.00  0.00     0.434 C 
ATOM     21  F   UNL d   1       0.660   3.392  -0.012  0.00  0.00    -0.165 F 
ATOM     22  F   UNL d   1      -1.240   3.474  -1.059  0.00  0.00    -0.165 F 
ATOM     23  F   UNL d   1      -1.197   3.503   1.110  0.00  0.00    -0.165 F 
ENDBRANCH   2  20
BRANCH  10  24
ATOM     24  C   UNL d   1       3.770  -0.203   0.009  0.00  0.00    -0.008 A 
ATOM     25  C   UNL d   1       4.509   0.814   0.628  0.00  0.00     0.014 A 
ATOM     26  C   UNL d   1       5.905   0.757   0.659  0.00  0.00     0.007 A 
ATOM     27  C   UNL d   1       6.585  -0.309   0.062  0.00  0.00    -0.062 A 
ATOM     28  C   UNL d   1       5.851  -1.310  -0.583  0.00  0.00     0.007 A 
ATOM     29  C   UNL d   1       8.082  -0.379   0.129  0.00  0.00     0.048 C 
ATOM     30  C   UNL d   1       4.455  -1.256  -0.610  0.00  0.00     0.014 A 
ENDBRANCH  10  24
TORSDOF 4
