REMARK  7 active torsions:
REMARK  status: ('A' for Active; 'I' for Inactive)
REMARK    1  A    between atoms: N_2  and  C_1 
REMARK       I    between atoms: C_4  and  N_2 
REMARK    2  A    between atoms: C_8  and  C_3 
REMARK    3  A    between atoms: C_10  and  C_4 
REMARK    4  A    between atoms: C_5  and  C_12 
REMARK    5  A    between atoms: O_9  and  C_5 
REMARK    6  A    between atoms: C_13  and  C_10 
REMARK    7  A    between atoms: C_12  and  C_13 
ROOT
ATOM      1  C   UNL d   1       1.437  -0.403   0.237  0.00  0.00     0.045 A 
ATOM      2  C   UNL d   1       0.471  -1.429   0.077  0.00  0.00     0.001 A 
ATOM      3  C   UNL d   1       1.047   0.941   0.333  0.00  0.00     0.030 A 
ATOM      4  C   UNL d   1      -0.883  -1.033   0.021  0.00  0.00     0.014 A 
ATOM      5  C   UNL d   1      -0.297   1.298   0.251  0.00  0.00     0.002 A 
ATOM      6  C   UNL d   1      -1.263   0.311   0.097  0.00  0.00     0.001 A 
ENDROOT
BRANCH   1   7
ATOM      7  N   UNL d   1       2.819  -0.714   0.241  0.00  0.00    -0.326 N 
ATOM      8  C   UNL d   1       3.669  -0.271   1.242  0.00  0.00     0.222 C 
ATOM      9  O   UNL d   1       3.374   0.502   2.147  0.00  0.00    -0.273 OA
ATOM     10  H   UNL d   1       3.071  -1.588  -0.209  0.00  0.00     0.169 HD
BRANCH   8  11
ATOM     11  C   UNL d   1       5.055  -0.898   1.138  0.00  0.00     0.103 C 
BRANCH  11  12
ATOM     12  C   UNL d   1       5.767  -1.013   2.491  0.00  0.00     0.019 C 
BRANCH  12  13
ATOM     13  C   UNL d   1       5.124  -2.021   3.454  0.00  0.00     0.110 C 
BRANCH  13  14
ATOM     14  C   UNL d   1       5.212  -3.450   2.964  0.00  0.00     0.139 C 
ATOM     15  O   UNL d   1       5.936  -3.842   2.065  0.00  0.00    -0.650 OA
BRANCH  14  16
ATOM     16  O   UNL d   1       4.385  -4.275   3.638  0.00  0.00    -0.776 OA
ATOM     17  H   UNL d   1       3.867  -3.841   4.339  0.00  0.00     0.167 HD
ENDBRANCH  14  16
ENDBRANCH  13  14
ENDBRANCH  12  13
ENDBRANCH  11  12
ENDBRANCH   8  11
ENDBRANCH   1   7
BRANCH   2  18
ATOM     18  C   UNL d   1       0.807  -2.878   0.042  0.00  0.00    -0.024 A 
ATOM     19  C   UNL d   1       1.753  -3.441   0.921  0.00  0.00     0.012 A 
ATOM     20  C   UNL d   1       2.110  -4.791   0.851  0.00  0.00     0.001 A 
ATOM     21  C   UNL d   1       1.477  -5.628  -0.058  0.00  0.00     0.000 A 
ATOM     22  C   UNL d   1       0.497  -5.114  -0.902  0.00  0.00     0.001 A 
ATOM     23  C   UNL d   1       0.176  -3.752  -0.861  0.00  0.00     0.012 A 
ENDBRANCH   2  18
TORSDOF 7
