REMARK  4 active torsions:
REMARK  status: ('A' for Active; 'I' for Inactive)
REMARK    1  A    between atoms: C_7  and  C_1 
REMARK    2  A    between atoms: C_6  and  C_2 
REMARK    3  A    between atoms: C_8  and  C_3 
REMARK    4  A    between atoms: C_9  and  C_4 
ROOT
ATOM      1  C   UNL d   1       1.471  -0.727  -0.035  0.00  0.00     0.001 A 
ATOM      2  C   UNL d   1       1.477   0.731  -0.040  0.00  0.00     0.001 A 
ATOM      3  C   UNL d   1       0.215  -1.195   0.061  0.00  0.00     0.037 A 
ATOM      4  C   UNL d   1       0.223   1.210   0.027  0.00  0.00     0.037 A 
ATOM      5  C   UNL d   1      -0.642   0.010   0.089  0.00  0.00     0.195 A 
ATOM      6  O   UNL d   1      -1.860   0.015   0.152  0.00  0.00    -0.287 OA
ENDROOT
BRANCH   1   7
ATOM      7  C   UNL d   1       2.651  -1.594  -0.119  0.00  0.00    -0.024 A 
ATOM      8  C   UNL d   1       3.123  -2.021  -1.365  0.00  0.00     0.013 A 
ATOM      9  C   UNL d   1       4.253  -2.838  -1.449  0.00  0.00     0.007 A 
ATOM     10  C   UNL d   1       4.926  -3.239  -0.289  0.00  0.00    -0.062 A 
ATOM     11  C   UNL d   1       4.453  -2.811   0.956  0.00  0.00     0.007 A 
ATOM     12  C   UNL d   1       6.141  -4.114  -0.394  0.00  0.00     0.048 C 
ATOM     13  C   UNL d   1       3.323  -1.992   1.041  0.00  0.00     0.013 A 
ENDBRANCH   1   7
BRANCH   2  14
ATOM     14  C   UNL d   1       2.670   1.584  -0.071  0.00  0.00    -0.024 A 
ATOM     15  C   UNL d   1       3.285   1.973   1.127  0.00  0.00     0.014 A 
ATOM     16  C   UNL d   1       4.436   2.765   1.103  0.00  0.00     0.024 A 
ATOM     17  C   UNL d   1       4.973   3.168  -0.118  0.00  0.00     0.034 A 
ATOM     18  C   UNL d   1       4.369   2.787  -1.314  0.00  0.00     0.024 A 
ATOM     19 CL   UNL d   1       6.394   4.138  -0.147  0.00  0.00    -0.084 Cl
ATOM     20  C   UNL d   1       3.219   1.994  -1.292  0.00  0.00     0.014 A 
ENDBRANCH   2  14
BRANCH   3  21
ATOM     21  C   UNL d   1      -0.280  -2.564   0.133  0.00  0.00    -0.021 A 
ATOM     22  C   UNL d   1      -0.400  -3.204   1.373  0.00  0.00     0.012 A 
ATOM     23  C   UNL d   1      -0.916  -4.499   1.451  0.00  0.00     0.001 A 
ATOM     24  C   UNL d   1      -1.310  -5.164   0.291  0.00  0.00     0.000 A 
ATOM     25  C   UNL d   1      -1.177  -4.539  -0.949  0.00  0.00     0.001 A 
ATOM     26  C   UNL d   1      -0.662  -3.244  -1.029  0.00  0.00     0.012 A 
ENDBRANCH   3  21
BRANCH   4  27
ATOM     27  C   UNL d   1      -0.270   2.581   0.072  0.00  0.00    -0.021 A 
ATOM     28  C   UNL d   1      -0.497   3.297  -1.109  0.00  0.00     0.012 A 
ATOM     29  C   UNL d   1      -1.026   4.588  -1.059  0.00  0.00     0.001 A 
ATOM     30  C   UNL d   1      -1.325   5.175   0.170  0.00  0.00     0.000 A 
ATOM     31  C   UNL d   1      -1.085   4.475   1.351  0.00  0.00     0.001 A 
ATOM     32  C   UNL d   1      -0.557   3.183   1.304  0.00  0.00     0.012 A 
ENDBRANCH   4  27
TORSDOF 4
