REMARK  7 active torsions:
REMARK  status: ('A' for Active; 'I' for Inactive)
REMARK    1  A    between atoms: C_8  and  C_1 
REMARK       I    between atoms: N_9  and  C_1 
REMARK       I    between atoms: C_2  and  N_3 
REMARK    2  A    between atoms: N_3  and  C_4 
REMARK    3  A    between atoms: C_14  and  N_9 
REMARK    4  A    between atoms: C_10  and  O_12 
REMARK    5  A    between atoms: C_11  and  C_14 
REMARK    6  A    between atoms: C_17  and  C_11 
REMARK    7  A    between atoms: O_12  and  C_17 
ROOT
ATOM      1  C   UNL d   1       5.397  -1.661   1.425  0.00  0.00     0.177 C 
ENDROOT
BRANCH   1   2
ATOM      2  O   UNL d   1       6.811  -1.452   1.298  0.00  0.00    -0.351 OA
BRANCH   2   3
ATOM      3  C   UNL d   1       7.552  -2.346   2.036  0.00  0.00     0.070 A 
ATOM      4  C   UNL d   1       7.125  -3.642   2.331  0.00  0.00     0.066 A 
ATOM      5  C   UNL d   1       7.859  -4.482   3.164  0.00  0.00     0.037 A 
ATOM      6  C   UNL d   1       9.109  -4.051   3.618  0.00  0.00     0.029 A 
ATOM      7  C   UNL d   1       9.574  -2.774   3.283  0.00  0.00     0.005 A 
ATOM      8  C   UNL d   1       8.792  -1.918   2.501  0.00  0.00     0.037 A 
BRANCH   5   9
ATOM      9  N   UNL d   1       7.372  -5.741   3.574  0.00  0.00    -0.327 N 
ATOM     10  C   UNL d   1       6.053  -6.171   3.475  0.00  0.00     0.218 C 
ATOM     11  O   UNL d   1       5.099  -5.525   3.059  0.00  0.00    -0.274 OA
ATOM     12  C   UNL d   1       5.840  -7.575   3.977  0.00  0.00     0.117 C 
ATOM     13  H   UNL d   1       8.015  -6.322   4.098  0.00  0.00     0.169 HD
ENDBRANCH   5   9
ENDBRANCH   2   3
ENDBRANCH   1   2
BRANCH   1  14
ATOM     14  C   UNL d   1       4.617  -0.590   0.678  0.00  0.00     0.046 C 
BRANCH  14  15
ATOM     15  C   UNL d   1       3.114  -0.863   0.766  0.00  0.00     0.125 C 
BRANCH  15  16
ATOM     16  N   UNL d   1       2.605  -0.772   2.121  0.00  0.00    -0.361 N 
ATOM     17  C   UNL d   1       2.214   0.426   2.681  0.00  0.00     0.221 C 
ATOM     18  O   UNL d   1       2.228   1.481   2.054  0.00  0.00    -0.273 OA
ATOM     19  H   UNL d   1       2.591  -1.611   2.688  0.00  0.00     0.162 HD
BRANCH  17  20
ATOM     20  C   UNL d   1       1.722   0.309   4.128  0.00  0.00     0.078 C 
ATOM     21  C   UNL d   1       1.156   1.637   4.658  0.00  0.00     0.014 C 
ATOM     22  C   UNL d   1       2.229   2.655   5.044  0.00  0.00     0.001 C 
ATOM     23  C   UNL d   1       3.293   2.059   5.960  0.00  0.00     0.000 C 
ATOM     24  C   UNL d   1       3.888   0.786   5.370  0.00  0.00     0.001 C 
ATOM     25  C   UNL d   1       2.800  -0.241   5.073  0.00  0.00     0.014 C 
ENDBRANCH  17  20
ENDBRANCH  15  16
ENDBRANCH  14  15
ENDBRANCH   1  14
TORSDOF 7
