REMARK  4 active torsions:
REMARK  status: ('A' for Active; 'I' for Inactive)
REMARK    1  A    between atoms: C_2  and  C_1 
REMARK    2  A    between atoms: O_5  and  C_1 
REMARK    3  A    between atoms: C_4  and  C_2 
REMARK    4  A    between atoms: O_6  and  C_2 
ROOT
ATOM      1  C   UNL d   1       0.448  -0.162   1.276  0.00  0.00     0.248 C 
ENDROOT
BRANCH   1   2
ATOM      2  C   UNL d   1       1.186  -0.013  -0.065  0.00  0.00     0.174 C 
ATOM      3  O   UNL d   1       0.670   0.007  -1.172  0.00  0.00    -0.648 OA
BRANCH   2   4
ATOM      4  O   UNL d   1       2.529   0.121   0.127  0.00  0.00    -0.774 OA
ATOM      5  H   UNL d   1       2.690   0.089   1.101  0.00  0.00     0.167 HD
ENDBRANCH   2   4
ENDBRANCH   1   2
BRANCH   1   6
ATOM      6  C   UNL d   1      -0.451  -1.377   1.326  0.00  0.00    -0.019 A 
ATOM      7  C   UNL d   1       0.078  -2.671   1.180  0.00  0.00     0.010 A 
ATOM      8  C   UNL d   1      -0.754  -3.790   1.249  0.00  0.00     0.001 A 
ATOM      9  C   UNL d   1      -2.121  -3.630   1.460  0.00  0.00     0.000 A 
ATOM     10  C   UNL d   1      -2.659  -2.352   1.602  0.00  0.00     0.001 A 
ATOM     11  C   UNL d   1      -1.829  -1.231   1.538  0.00  0.00     0.010 A 
ENDBRANCH   1   6
BRANCH   1  12
ATOM     12  O   UNL d   1       1.434  -0.237   2.329  0.00  0.00    -0.380 OA
ATOM     13  H   UNL d   1       1.179  -0.983   2.904  0.00  0.00     0.211 HD
ENDBRANCH   1  12
TORSDOF 4
