REMARK  5 active torsions:
REMARK  status: ('A' for Active; 'I' for Inactive)
REMARK       I    between atoms: N_2  and  C_1 
REMARK    1  A    between atoms: C_9  and  C_1 
REMARK    2  A    between atoms: N_6  and  N_2 
REMARK       I    between atoms: C_4  and  N_6 
REMARK    3  A    between atoms: C_5  and  C_4 
REMARK    4  A    between atoms: C_22  and  C_10 
REMARK    5  A    between atoms: N_14  and  C_12 
ROOT
ATOM      1  C   UNL d   1       0.325  -3.381   1.103  0.00  0.00     0.259 C 
ATOM      2  N   UNL d   1       1.019  -2.194   1.097  0.00  0.00    -0.264 N 
ATOM      3  O   UNL d   1      -0.828  -3.481   0.687  0.00  0.00    -0.267 OA
ATOM      4  H   UNL d   1       1.984  -2.072   1.398  0.00  0.00     0.190 HD
ENDROOT
BRANCH   2   5
ATOM      5  N   UNL d   1       0.355  -1.051   0.628  0.00  0.00    -0.263 N 
ATOM      6  C   UNL d   1       1.101   0.030   0.197  0.00  0.00     0.270 C 
ATOM      7  O   UNL d   1       2.324   0.069   0.243  0.00  0.00    -0.266 OA
ATOM      8  H   UNL d   1      -0.615  -1.191   0.348  0.00  0.00     0.190 HD
BRANCH   6   9
ATOM      9  C   UNL d   1       0.308   1.170  -0.350  0.00  0.00     0.033 A 
ATOM     10  C   UNL d   1      -0.966   1.469   0.132  0.00  0.00     0.019 A 
ATOM     11  C   UNL d   1      -1.678   2.567  -0.378  0.00  0.00     0.030 A 
ATOM     12  C   UNL d   1      -1.154   3.411  -1.373  0.00  0.00     0.029 A 
ATOM     13  C   UNL d   1       0.141   3.089  -1.823  0.00  0.00     0.030 A 
ATOM     14  C   UNL d   1       0.865   1.992  -1.327  0.00  0.00     0.019 A 
BRANCH  12  15
ATOM     15  N   UNL d   1      -1.825   4.543  -1.827  0.00  0.00    -0.390 N 
ATOM     16  C   UNL d   1      -1.683   4.981  -3.218  0.00  0.00     0.149 C 
ATOM     17  C   UNL d   1      -3.065   4.996  -1.195  0.00  0.00     0.149 C 
ENDBRANCH  12  15
ENDBRANCH   6   9
ENDBRANCH   2   5
BRANCH   1  18
ATOM     18  C   UNL d   1       1.082  -4.524   1.675  0.00  0.00     0.076 C 
ATOM     19  C   UNL d   1       0.508  -5.736   1.704  0.00  0.00     0.017 C 
BRANCH  19  20
ATOM     20  C   UNL d   1       1.116  -6.959   2.253  0.00  0.00    -0.033 A 
ATOM     21  C   UNL d   1       0.779  -8.192   1.668  0.00  0.00     0.051 A 
ATOM     22  C   UNL d   1       1.304  -9.347   2.217  0.00  0.00     0.105 A 
ATOM     23  O   UNL d   1       1.080 -10.611   1.769  0.00  0.00    -0.323 OA
ATOM     24  C   UNL d   1       2.128  -9.317   3.313  0.00  0.00     0.105 A 
ATOM     25  C   UNL d   1       1.867 -11.374   2.707  0.00  0.00     0.352 A 
ATOM     26  O   UNL d   1       2.524 -10.560   3.700  0.00  0.00    -0.323 OA
ATOM     27  C   UNL d   1       2.471  -8.132   3.926  0.00  0.00     0.040 A 
ATOM     28  C   UNL d   1       1.956  -6.945   3.391  0.00  0.00     0.014 A 
ENDBRANCH  19  20
ENDBRANCH   1  18
TORSDOF 5
