REMARK  6 active torsions:
REMARK  status: ('A' for Active; 'I' for Inactive)
REMARK    1  A    between atoms: C_8  and  C_2 
REMARK    2  A    between atoms: S_19  and  C_5 
REMARK    3  A    between atoms: C_24  and  S_19 
REMARK    4  A    between atoms: C_20  and  C_24 
REMARK       I    between atoms: N_21  and  C_20 
REMARK    5  A    between atoms: C_28  and  N_21 
REMARK    6  A    between atoms: C_29  and  C_22 
ROOT
ATOM      1  N   UNL d   1      -0.525  -0.156   0.976  0.00  0.00    -0.315 N 
ATOM      2  C   UNL d   1      -0.356   1.067   0.354  0.00  0.00     0.134 C 
ATOM      3  N   UNL d   1       0.921   1.179   0.029  0.00  0.00    -0.283 N 
ATOM      4  HN  UNL d   1       1.366   2.014  -0.351  1.00  0.00     0.188 HD
ATOM      5  C   UNL d   1       0.657  -0.824   0.803  0.00  0.00     0.163 C 
ATOM      6  N   UNL d   1       1.548  -0.013   0.288  0.00  0.00    -0.278 N 
ATOM      7  HN  UNL d   1       2.529  -0.229   0.112  1.00  0.00     0.189 HD
ATOM      8  C   UNL d   1      -1.667  -0.636   1.709  0.00  0.00     0.160 C 
ENDROOT
BRANCH   5   9
ATOM      9  S   UNL d   1       0.885  -2.516   1.124  0.00  0.00    -0.083 SA
BRANCH   9  10
ATOM     10  C   UNL d   1       2.297  -2.802   0.019  0.00  0.00     0.185 C 
BRANCH  10  11
ATOM     11  C   UNL d   1       2.761  -4.240  -0.138  0.00  0.00     0.231 C 
ATOM     12  N   UNL d   1       2.097  -5.213   0.582  0.00  0.00    -0.327 N 
ATOM     13  H   UNL d   1       1.245  -4.932   1.048  0.00  0.00     0.169 HD
ATOM     14  O   UNL d   1       3.702  -4.456  -0.907  0.00  0.00    -0.272 OA
BRANCH  12  15
ATOM     15  C   UNL d   1       2.487  -6.568   0.720  0.00  0.00     0.034 A 
ATOM     16  C   UNL d   1       3.723  -7.055   0.291  0.00  0.00     0.030 A 
ATOM     17  C   UNL d   1       4.096  -8.382   0.521  0.00  0.00     0.010 A 
ATOM     18  C   UNL d   1       3.241  -9.267   1.185  0.00  0.00    -0.055 A 
ATOM     19  C   UNL d   1       1.986  -8.790   1.589  0.00  0.00     0.010 A 
ATOM     20  C   UNL d   1       1.616  -7.453   1.364  0.00  0.00     0.030 A 
BRANCH  18  21
ATOM     21  C   UNL d   1       3.677 -10.686   1.509  0.00  0.00     0.010 C 
ATOM     22  C   UNL d   1       4.033 -11.486   0.253  0.00  0.00     0.015 C 
ATOM     23  C   UNL d   1       4.854 -10.680   2.491  0.00  0.00     0.015 C 
ENDBRANCH  18  21
ENDBRANCH  12  15
ENDBRANCH  10  11
ENDBRANCH   9  10
ENDBRANCH   5   9
BRANCH   2  24
ATOM     24  C   UNL d   1      -1.379   2.076   0.050  0.00  0.00     0.012 A 
ATOM     25  C   UNL d   1      -1.022   3.443   0.146  0.00  0.00     0.049 A 
ATOM     26  C   UNL d   1      -2.023   4.358  -0.235  0.00  0.00     0.086 A 
ATOM     27  N   UNL d   1      -1.990   5.695  -0.262  0.00  0.00    -0.240 N 
ATOM     28  C   UNL d   1      -3.335   3.929  -0.695  0.00  0.00     0.085 A 
ATOM     29  O   UNL d   1      -3.233   6.096  -0.723  0.00  0.00    -0.156 OA
ATOM     30  HN  UNL d   1      -1.209   6.296   0.004  1.00  0.00     0.197 HD
ATOM     31  N   UNL d   1      -4.061   5.015  -0.981  0.00  0.00    -0.240 N 
ATOM     32  HN  UNL d   1      -5.023   5.043  -1.318  1.00  0.00     0.197 HD
ATOM     33  C   UNL d   1      -3.688   2.573  -0.798  0.00  0.00     0.035 A 
ATOM     34  C   UNL d   1      -2.666   1.674  -0.429  0.00  0.00     0.018 A 
ENDBRANCH   2  24
TORSDOF 6
