REMARK  3 active torsions:
REMARK  status: ('A' for Active; 'I' for Inactive)
REMARK    1  A    between atoms: C_4  and  C_1 
REMARK    2  A    between atoms: C_6  and  C_2 
REMARK    3  A    between atoms: C_14  and  N_8 
ROOT
ATOM      1  C   UNL d   1      -2.386  -0.160  -0.054  0.00  0.00     0.057 A 
ATOM      2  C   UNL d   1      -1.544  -1.276  -0.011  0.00  0.00     0.019 A 
ATOM      3  N   UNL d   1      -1.558   0.944  -0.041  0.00  0.00    -0.354 N 
ATOM      4  C   UNL d   1      -0.189  -0.803  -0.007  0.00  0.00     0.004 A 
ATOM      5  C   UNL d   1      -0.234   0.587  -0.020  0.00  0.00     0.043 A 
ATOM      6  C   UNL d   1       1.077  -1.427   0.009  0.00  0.00     0.014 A 
ATOM      7  C   UNL d   1       0.914   1.389  -0.018  0.00  0.00     0.030 A 
ATOM      8  C   UNL d   1       2.237  -0.644   0.003  0.00  0.00     0.001 A 
ATOM      9  C   UNL d   1       2.154   0.745  -0.011  0.00  0.00     0.002 A 
ATOM     10  H   UNL d   1      -1.886   1.899  -0.051  0.00  0.00     0.166 HD
ENDROOT
BRANCH   2  11
ATOM     11  C   UNL d   1      -2.004  -2.651   0.003  0.00  0.00     0.103 C 
ATOM     12  N   UNL d   1      -1.234  -3.602  -0.418  0.00  0.00    -0.365 N 
ATOM     13  HN  UNL d   1      -0.270  -3.411  -0.691  1.00  0.00     0.165 HD
BRANCH  12  14
ATOM     14  C   UNL d   1      -1.758  -4.902  -0.488  0.00  0.00     0.032 A 
ATOM     15  C   UNL d   1      -2.588  -5.457   0.493  0.00  0.00     0.036 A 
ATOM     16  C   UNL d   1      -3.108  -6.756   0.369  0.00  0.00    -0.054 A 
ATOM     17  C   UNL d   1      -4.024  -7.281   1.440  0.00  0.00     0.049 C 
ATOM     18  C   UNL d   1      -2.757  -7.535  -0.751  0.00  0.00    -0.056 A 
ATOM     19  C   UNL d   1      -1.903  -6.992  -1.717  0.00  0.00     0.009 A 
ATOM     20  C   UNL d   1      -3.274  -8.937  -0.922  0.00  0.00     0.049 C 
ATOM     21  C   UNL d   1      -1.412  -5.690  -1.587  0.00  0.00     0.030 A 
ENDBRANCH  12  14
ENDBRANCH   2  11
BRANCH   1  22
ATOM     22  C   UNL d   1      -3.855  -0.031  -0.194  0.00  0.00     0.013 A 
ATOM     23  C   UNL d   1      -4.620   0.997   0.396  0.00  0.00     0.046 A 
ATOM     24 CL   UNL d   1      -3.933   2.223   1.410  0.00  0.00    -0.083 Cl
ATOM     25  C   UNL d   1      -6.005   1.072   0.187  0.00  0.00     0.025 A 
ATOM     26  C   UNL d   1      -6.657   0.120  -0.593  0.00  0.00     0.002 A 
ATOM     27  C   UNL d   1      -5.925  -0.903  -1.180  0.00  0.00     0.001 A 
ATOM     28  C   UNL d   1      -4.540  -0.964  -0.997  0.00  0.00     0.015 A 
ENDBRANCH   1  22
TORSDOF 3
