REMARK  6 active torsions:
REMARK  status: ('A' for Active; 'I' for Inactive)
REMARK    1  A    between atoms: O_14  and  C_2 
REMARK    2  A    between atoms: C_3  and  O_15 
REMARK    3  A    between atoms: C_11  and  C_21 
REMARK       I    between atoms: N_13  and  C_11 
REMARK    4  A    between atoms: C_22  and  N_13 
REMARK    5  A    between atoms: C_21  and  O_14 
REMARK    6  A    between atoms: O_15  and  C_23 
ROOT
ATOM      1  C   UNL d   1       2.077   4.813   0.098  0.00  0.00     0.246 C 
ATOM      2  N   UNL d   1       0.804   5.330   0.121  0.00  0.00    -0.325 N 
ATOM      3  O   UNL d   1       3.033   5.593   0.044  0.00  0.00    -0.271 OA
ATOM      4  H   UNL d   1       0.775   6.300  -0.192  0.00  0.00     0.169 HD
ENDROOT
BRANCH   1   5
ATOM      5  C   UNL d   1       2.285   3.300   0.023  0.00  0.00     0.280 C 
BRANCH   5   6
ATOM      6  O   UNL d   1       2.909   2.856   1.221  0.00  0.00    -0.326 OA
BRANCH   6   7
ATOM      7  C   UNL d   1       2.914   1.481   1.366  0.00  0.00     0.156 A 
ATOM      8  C   UNL d   1       3.825   0.932   2.271  0.00  0.00     0.042 A 
ATOM      9  C   UNL d   1       3.731  -0.456   2.424  0.00  0.00     0.049 A 
ATOM     10  C   UNL d   1       4.789   1.668   3.000  0.00  0.00     0.020 A 
ATOM     11  N   UNL d   1       2.828  -1.194   1.766  0.00  0.00    -0.351 N 
ATOM     12  C   UNL d   1       4.607  -1.088   3.297  0.00  0.00     0.054 A 
ATOM     13  C   UNL d   1       2.001  -0.547   0.934  0.00  0.00     0.182 A 
ATOM     14  HN  UNL d   1       2.772  -2.205   1.893  1.00  0.00     0.166 HD
ATOM     15  N   UNL d   1       1.996   0.767   0.693  0.00  0.00    -0.332 N 
ATOM     16  HN  UNL d   1       1.340   1.199   0.042  1.00  0.00     0.168 HD
ATOM     17  C   UNL d   1       5.560  -0.364   4.013  0.00  0.00     0.036 A 
ATOM     18  C   UNL d   1       5.655   1.014   3.873  0.00  0.00     0.025 A 
ATOM     19 CL   UNL d   1       6.628  -1.188   5.082  0.00  0.00    -0.084 Cl
ENDBRANCH   6   7
ENDBRANCH   5   6
ENDBRANCH   1   5
BRANCH   2  20
ATOM     20  C   UNL d   1      -0.404   4.633   0.237  0.00  0.00     0.035 A 
ATOM     21  C   UNL d   1      -0.595   3.640   1.197  0.00  0.00     0.032 A 
ATOM     22  C   UNL d   1      -1.781   2.901   1.209  0.00  0.00     0.039 A 
ATOM     23  C   UNL d   1      -2.766   3.139   0.246  0.00  0.00     0.078 A 
ATOM     24  C   UNL d   1      -2.616   4.197  -0.645  0.00  0.00     0.039 A 
ATOM     25  C   UNL d   1      -1.440   4.956  -0.642  0.00  0.00     0.032 A 
BRANCH  23  26
ATOM     26  O   UNL d   1      -3.855   2.322   0.306  0.00  0.00    -0.255 OA
BRANCH  26  27
ATOM     27  C   UNL d   1      -4.373   1.833  -0.926  0.00  0.00     0.530 C 
ATOM     28  F   UNL d   1      -3.639   2.170  -2.008  0.00  0.00    -0.144 F 
ATOM     29  F   UNL d   1      -4.429   0.484  -0.867  0.00  0.00    -0.144 F 
ATOM     30  F   UNL d   1      -5.629   2.301  -1.094  0.00  0.00    -0.144 F 
ENDBRANCH  26  27
ENDBRANCH  23  26
ENDBRANCH   2  20
TORSDOF 6
