REMARK  3 active torsions:
REMARK  status: ('A' for Active; 'I' for Inactive)
REMARK    1  A    between atoms: C_4  and  C_1 
REMARK    2  A    between atoms: O_7  and  C_4 
REMARK    3  A    between atoms: N_8  and  O_7 
ROOT
ATOM      1  N   UNL d   1       4.022  -2.345  -0.015  0.00  0.00    -0.266 N 
ATOM      2  HN  UNL d   1       3.097  -2.279  -0.441  1.00  0.00     0.194 HD
ATOM      3  C   UNL d   1       4.554  -3.479   0.332  0.00  0.00     0.010 C 
ATOM      4  C   UNL d   1       3.754  -4.754   0.051  0.00  0.00     0.054 C 
ATOM      5  C   UNL d   1       5.918  -3.635   0.979  0.00  0.00     0.054 C 
ATOM      6  C   UNL d   1       3.220  -4.804  -1.381  0.00  0.00     0.006 C 
ATOM      7  C   UNL d   1       6.984  -3.903  -0.089  0.00  0.00     0.006 C 
ATOM      8  C   UNL d   1       2.842  -6.223  -1.841  0.00  0.00     0.000 C 
ATOM      9  C   UNL d   1       7.429  -5.373  -0.111  0.00  0.00     0.000 C 
ATOM     10  C   UNL d   1       3.674  -6.724  -3.035  0.00  0.00     0.000 C 
ATOM     11  C   UNL d   1       7.835  -5.861  -1.510  0.00  0.00     0.000 C 
ATOM     12  C   UNL d   1       4.814  -7.675  -2.635  0.00  0.00     0.000 C 
ATOM     13  C   UNL d   1       7.227  -7.232  -1.858  0.00  0.00     0.000 C 
ATOM     14  C   UNL d   1       6.212  -7.162  -3.012  0.00  0.00     0.000 C 
ENDROOT
BRANCH   1  15
ATOM     15  O   UNL d   1       4.825  -1.210   0.245  0.00  0.00    -0.195 OA
BRANCH  15  16
ATOM     16  C   UNL d   1       4.242  -0.100  -0.350  0.00  0.00     0.323 C 
ATOM     17  O   UNL d   1       3.240  -0.161  -1.060  0.00  0.00    -0.257 OA
BRANCH  16  18
ATOM     18  C   UNL d   1       4.947   1.145  -0.044  0.00  0.00     0.105 A 
ATOM     19  S   UNL d   1       4.300   2.565  -0.766  0.00  0.00    -0.082 SA
ATOM     20  C   UNL d   1       5.454   3.592  -0.035  0.00  0.00     0.018 A 
ATOM     21  C   UNL d   1       5.535   4.992  -0.186  0.00  0.00     0.020 A 
ATOM     22  C   UNL d   1       6.348   2.879   0.762  0.00  0.00     0.004 A 
ATOM     23  C   UNL d   1       6.538   5.695   0.484  0.00  0.00     0.001 A 
ATOM     24  C   UNL d   1       7.440   5.018   1.288  0.00  0.00     0.001 A 
ATOM     25  C   UNL d   1       7.354   3.625   1.431  0.00  0.00     0.014 A 
ATOM     26  C   UNL d   1       6.042   1.455   0.741  0.00  0.00     0.069 A 
ATOM     27 CL   UNL d   1       6.998   0.339   1.637  0.00  0.00    -0.082 Cl
ENDBRANCH  16  18
ENDBRANCH  15  16
ENDBRANCH   1  15
TORSDOF 3
