REMARK  3 active torsions:
REMARK  status: ('A' for Active; 'I' for Inactive)
REMARK    1  A    between atoms: C_3  and  C_1 
REMARK    2  A    between atoms: C_6  and  C_2 
REMARK    3  A    between atoms: O_4  and  C_6 
ROOT
ATOM      1  C   UNL d   1       1.383  -0.275   0.099  0.00  0.00    -0.018 A 
ATOM      2  C   UNL d   1       0.458  -1.354   0.026  0.00  0.00    -0.024 A 
ATOM      3  C   UNL d   1       0.838   1.034   0.132  0.00  0.00     0.013 A 
ATOM      4  C   UNL d   1      -0.930  -1.079   0.019  0.00  0.00     0.010 A 
ATOM      5  C   UNL d   1      -0.534   1.282   0.092  0.00  0.00     0.001 A 
ATOM      6  C   UNL d   1      -1.423   0.222   0.042  0.00  0.00     0.001 A 
ENDROOT
BRANCH   1   7
ATOM      7  C   UNL d   1       2.867  -0.423   0.118  0.00  0.00    -0.025 A 
ATOM      8  C   UNL d   1       3.692   0.464  -0.608  0.00  0.00     0.012 A 
ATOM      9  C   UNL d   1       5.089   0.355  -0.602  0.00  0.00     0.001 A 
ATOM     10  C   UNL d   1       5.703  -0.669   0.108  0.00  0.00     0.000 A 
ATOM     11  C   UNL d   1       4.922  -1.556   0.839  0.00  0.00     0.001 A 
ATOM     12  C   UNL d   1       3.528  -1.413   0.867  0.00  0.00     0.012 A 
ENDBRANCH   1   7
BRANCH   2  13
ATOM     13  C   UNL d   1       0.886  -2.807   0.004  0.00  0.00     0.203 C 
BRANCH  13  14
ATOM     14  O   UNL d   1      -0.136  -3.666  -0.500  0.00  0.00    -0.396 OA
ATOM     15  H   UNL d   1       0.093  -4.566  -0.214  0.00  0.00     0.209 HD
ENDBRANCH  13  14
ENDBRANCH   2  13
TORSDOF 3
