REMARK  2 active torsions:
REMARK  status: ('A' for Active; 'I' for Inactive)
REMARK    1  A    between atoms: C_9  and  N_3 
REMARK    2  A    between atoms: C_12  and  C_9 
ROOT
ATOM      1  N   UNL d   1       0.592   0.680  -0.771  0.00  0.00    -0.274 N 
ATOM      2  C   UNL d   1      -0.024  -0.504  -1.084  0.00  0.00     0.329 A 
ATOM      3  N   UNL d   1      -0.631  -1.157  -0.019  0.00  0.00    -0.304 N 
ATOM      4  C   UNL d   1       0.007   0.514   1.565  0.00  0.00     0.128 A 
ATOM      5  C   UNL d   1       0.720   1.220   0.480  0.00  0.00     0.271 A 
ATOM      6  C   UNL d   1      -0.623  -0.628   1.261  0.00  0.00     0.124 A 
ATOM      7  C   UNL d   1       0.015   1.036   2.884  0.00  0.00     0.106 C 
ATOM      8  N   UNL d   1      -0.017   1.409   3.982  0.00  0.00    -0.191 NA
ATOM      9  O   UNL d   1      -0.008  -0.921  -2.238  0.00  0.00    -0.246 OA
ATOM     10  O   UNL d   1       1.397   2.222   0.679  0.00  0.00    -0.266 OA
ATOM     11  H   UNL d   1       1.069   1.151  -1.525  0.00  0.00     0.173 HD
ENDROOT
BRANCH   3  12
ATOM     12  C   UNL d   1      -1.318  -2.427  -0.274  0.00  0.00     0.171 C 
BRANCH  12  13
ATOM     13  C   UNL d   1      -2.814  -2.257  -0.406  0.00  0.00    -0.038 A 
ATOM     14  C   UNL d   1      -3.356  -1.575  -1.508  0.00  0.00     0.032 A 
ATOM     15  C   UNL d   1      -4.734  -1.394  -1.616  0.00  0.00     0.034 A 
ATOM     16 CL   UNL d   1      -5.380  -0.537  -2.961  0.00  0.00    -0.084 Cl
ATOM     17  C   UNL d   1      -5.591  -1.898  -0.640  0.00  0.00     0.024 A 
ATOM     18  C   UNL d   1      -5.065  -2.592   0.449  0.00  0.00     0.002 A 
ATOM     19  C   UNL d   1      -3.685  -2.770   0.567  0.00  0.00     0.009 A 
ENDBRANCH  12  13
ENDBRANCH   3  12
TORSDOF 2
