REMARK  3 active torsions:
REMARK  status: ('A' for Active; 'I' for Inactive)
REMARK    1  A    between atoms: C_6  and  C_1 
REMARK    2  A    between atoms: N_7  and  C_2 
REMARK    3  A    between atoms: O_9  and  C_6 
ROOT
ATOM      1  C   UNL d   1       1.390  -1.159  -0.022  0.00  0.00     0.080 A 
ATOM      2  C   UNL d   1       2.269  -0.073  -0.054  0.00  0.00     0.085 A 
ATOM      3  S   UNL d   1       1.454   1.450  -0.016  0.00  0.00    -0.076 SA
ATOM      4  C   UNL d   1       0.048  -0.678   0.045  0.00  0.00    -0.026 A 
ATOM      5  C   UNL d   1      -0.025   0.687   0.053  0.00  0.00    -0.008 A 
ATOM      6  C   UNL d   1      -1.314  -1.274   0.116  0.00  0.00     0.041 C 
ATOM      7  C   UNL d   1      -1.401   1.227   0.124  0.00  0.00     0.047 C 
ATOM      8  C   UNL d   1      -2.232  -0.050  -0.198  0.00  0.00     0.010 C 
ENDROOT
BRANCH   1   9
ATOM      9  C   UNL d   1       1.842  -2.550  -0.056  0.00  0.00     0.296 C 
ATOM     10  O   UNL d   1       3.022  -2.884  -0.138  0.00  0.00    -0.259 OA
BRANCH   9  11
ATOM     11  O   UNL d   1       0.811  -3.446   0.007  0.00  0.00    -0.322 OA
ATOM     12  C   UNL d   1       1.232  -4.810  -0.036  0.00  0.00     0.213 C 
ENDBRANCH   9  11
ENDBRANCH   1   9
BRANCH   2  13
ATOM     13  N   UNL d   1       3.616  -0.103  -0.103  0.00  0.00    -0.393 N 
ATOM     14  H   UNL d   1       4.119  -0.986  -0.200  0.00  0.00     0.156 HD
ATOM     15  H   UNL d   1       4.165   0.741  -0.212  0.00  0.00     0.156 HD
ENDBRANCH   2  13
TORSDOF 3
