REMARK  5 active torsions:
REMARK  status: ('A' for Active; 'I' for Inactive)
REMARK    1  A    between atoms: C_4  and  C_1 
REMARK    2  A    between atoms: O_10  and  C_2 
REMARK    3  A    between atoms: O_11  and  C_4 
REMARK    4  A    between atoms: O_12  and  C_8 
REMARK    5  A    between atoms: C_13  and  O_11 
ROOT
ATOM      1  C   UNL d   1      -0.724  -1.206  -0.050  0.00  0.00     0.088 A 
ATOM      2  C   UNL d   1      -1.470  -0.022  -0.024  0.00  0.00     0.087 A 
ATOM      3  C   UNL d   1      -0.823   1.206   0.030  0.00  0.00     0.093 A 
ATOM      4  C   UNL d   1       0.662  -1.084   0.004  0.00  0.00     0.110 A 
ATOM      5  N   UNL d   1       1.324   0.099   0.058  0.00  0.00    -0.346 N 
ATOM      6  HN  UNL d   1       2.342   0.151   0.095  1.00  0.00     0.167 HD
ATOM      7  C   UNL d   1       0.553   1.197   0.058  0.00  0.00     0.142 A 
ENDROOT
BRANCH   1   8
ATOM      8  C   UNL d   1      -1.274  -2.568  -0.219  0.00  0.00     0.297 C 
ATOM      9  O   UNL d   1      -0.582  -3.570  -0.282  0.00  0.00    -0.259 OA
BRANCH   8  10
ATOM     10  O   UNL d   1      -2.615  -2.506  -0.418  0.00  0.00    -0.318 OA
BRANCH  10  11
ATOM     11  C   UNL d   1      -3.199  -3.665  -1.035  0.00  0.00     0.174 C 
ATOM     12  C   UNL d   1      -3.134  -3.475  -2.540  0.00  0.00     0.034 C 
ENDBRANCH  10  11
ENDBRANCH   8  10
ENDBRANCH   1   8
BRANCH   2  13
ATOM     13  O   UNL d   1      -2.838   0.029  -0.070  0.00  0.00    -0.359 OA
ATOM     14  H   UNL d   1      -3.186  -0.883  -0.144  0.00  0.00     0.217 HD
ENDBRANCH   2  13
BRANCH   7  15
ATOM     15  O   UNL d   1       1.250   2.358   0.066  0.00  0.00    -0.346 OA
ATOM     16  H   UNL d   1       2.160   2.010   0.049  0.00  0.00     0.219 HD
ENDBRANCH   7  15
TORSDOF 5
