REMARK  4 active torsions:
REMARK  status: ('A' for Active; 'I' for Inactive)
REMARK    1  A    between atoms: C_4  and  C_1 
REMARK    2  A    between atoms: C_5  and  C_1 
REMARK    3  A    between atoms: O_6  and  N_2 
REMARK    4  A    between atoms: C_9  and  C_5 
ROOT
ATOM      1  C   UNL d   1       0.972  -0.079   0.016  0.00  0.00     0.046 C 
ATOM      2  N   UNL d   1       0.164  -0.647   0.871  0.00  0.00    -0.272 N 
ATOM      3  HN  UNL d   1      -0.849  -0.674   0.752  1.00  0.00     0.194 HD
ENDROOT
BRANCH   1   4
ATOM      4  C   UNL d   1       0.340   0.528  -1.204  0.00  0.00    -0.011 A 
ATOM      5  C   UNL d   1       0.834   1.699  -1.789  0.00  0.00     0.013 A 
ATOM      6  C   UNL d   1       0.211   2.237  -2.920  0.00  0.00     0.001 A 
ATOM      7  C   UNL d   1      -0.911   1.615  -3.465  0.00  0.00     0.000 A 
ATOM      8  C   UNL d   1      -1.418   0.458  -2.878  0.00  0.00     0.001 A 
ATOM      9  C   UNL d   1      -0.798  -0.083  -1.749  0.00  0.00     0.013 A 
ENDBRANCH   1   4
BRANCH   1  10
ATOM     10  C   UNL d   1       2.513  -0.021   0.129  0.00  0.00     0.034 C 
ATOM     11  C   UNL d   1       3.111  -1.424  -0.025  0.00  0.00     0.016 C 
BRANCH  10  12
ATOM     12  C   UNL d   1       3.030   0.671   1.403  0.00  0.00     0.006 C 
ATOM     13  C   UNL d   1       2.589   2.124   1.521  0.00  0.00     0.006 C 
ENDBRANCH  10  12
ENDBRANCH   1  10
BRANCH   2  14
ATOM     14  O   UNL d   1       0.821  -1.211   1.959  0.00  0.00    -0.290 OA
ATOM     15  H   UNL d   1       0.081  -1.549   2.497  0.00  0.00     0.244 HD
ENDBRANCH   2  14
TORSDOF 4
