REMARK  6 active torsions:
REMARK  status: ('A' for Active; 'I' for Inactive)
REMARK    1  A    between atoms: N_2  and  C_1 
REMARK    2  A    between atoms: C_3  and  C_9 
REMARK    3  A    between atoms: S_8  and  C_4 
REMARK       I    between atoms: C_5  and  N_7 
REMARK    4  A    between atoms: C_12  and  C_5 
REMARK    5  A    between atoms: N_7  and  C_10 
REMARK    6  A    between atoms: C_11  and  S_8 
ROOT
ATOM      1  S   UNL d   1       1.452  -2.214  -1.342  0.00  0.00    -0.086 SA
ENDROOT
BRANCH   1   2
ATOM      2  C   UNL d   1       1.010  -3.303  -2.681  0.00  0.00     0.038 A 
ATOM      3  C   UNL d   1       0.601  -4.640  -2.599  0.00  0.00     0.120 A 
ATOM      4  C   UNL d   1      -0.145  -5.246  -3.631  0.00  0.00     0.053 A 
ATOM      5  C   UNL d   1      -0.472  -4.526  -4.787  0.00  0.00     0.050 A 
ATOM      6  C   UNL d   1       0.036  -3.231  -4.931  0.00  0.00     0.017 A 
ATOM      7  C   UNL d   1       0.757  -2.630  -3.892  0.00  0.00     0.022 A 
BRANCH   3   8
ATOM      8  N   UNL d   1       0.962  -5.503  -1.489  0.00  0.00    -0.114 N 
ATOM      9  O   UNL d   1       2.168  -5.726  -1.325  0.00  0.00    -0.532 OA
ATOM     10  O   UNL d   1       0.036  -6.101  -0.916  0.00  0.00    -0.532 OA
ENDBRANCH   3   8
BRANCH   5  11
ATOM     11  C   UNL d   1      -1.395  -5.095  -5.838  0.00  0.00     0.417 C 
ATOM     12  F   UNL d   1      -1.791  -6.371  -5.580  0.00  0.00    -0.166 F 
ATOM     13  F   UNL d   1      -2.538  -4.366  -5.963  0.00  0.00    -0.166 F 
ATOM     14  F   UNL d   1      -0.827  -5.118  -7.074  0.00  0.00    -0.166 F 
ENDBRANCH   5  11
ENDBRANCH   1   2
BRANCH   1  15
ATOM     15  C   UNL d   1       2.909  -2.840  -0.521  0.00  0.00     0.032 A 
ATOM     16  C   UNL d   1       3.083  -2.654   0.871  0.00  0.00     0.052 A 
ATOM     17  C   UNL d   1       4.381  -2.678   1.405  0.00  0.00     0.031 A 
ATOM     18  C   UNL d   1       5.473  -3.023   0.608  0.00  0.00     0.002 A 
ATOM     19  C   UNL d   1       5.281  -3.340  -0.732  0.00  0.00     0.002 A 
ATOM     20  C   UNL d   1       4.013  -3.220  -1.301  0.00  0.00     0.021 A 
BRANCH  16  21
ATOM     21  N   UNL d   1       2.039  -2.420   1.807  0.00  0.00    -0.324 N 
ATOM     22  C   UNL d   1       0.796  -3.050   1.785  0.00  0.00     0.255 C 
ATOM     23  O   UNL d   1       0.446  -3.852   0.921  0.00  0.00    -0.270 OA
ATOM     24  H   UNL d   1       2.317  -2.059   2.714  0.00  0.00     0.169 HD
BRANCH  22  25
ATOM     25  C   UNL d   1      -0.134  -2.764   2.971  0.00  0.00     0.270 C 
ATOM     26 CL   UNL d   1       0.606  -1.703   4.193  0.00  0.00    -0.098 Cl
ATOM     27 CL   UNL d   1      -1.647  -2.049   2.377  0.00  0.00    -0.098 Cl
ENDBRANCH  22  25
ENDBRANCH  16  21
ENDBRANCH   1  15
TORSDOF 6
