REMARK  7 active torsions:
REMARK  status: ('A' for Active; 'I' for Inactive)
REMARK    1  A    between atoms: C_2  and  C_1 
REMARK    2  A    between atoms: O_6  and  C_2 
REMARK    3  A    between atoms: N_4  and  C_3 
REMARK    4  A    between atoms: C_5  and  N_4 
REMARK    5  A    between atoms: C_9  and  O_6 
REMARK    6  A    between atoms: C_7  and  C_9 
REMARK    7  A    between atoms: C_12  and  C_7 
ROOT
ATOM      1  C   UNL d   1       1.183  -0.066  -0.135  0.00  0.00     0.066 A 
ATOM      2  C   UNL d   1       0.467  -1.275  -0.059  0.00  0.00     0.049 A 
ATOM      3  C   UNL d   1       0.493   1.165  -0.077  0.00  0.00     0.020 A 
ATOM      4  C   UNL d   1      -0.933  -1.204   0.095  0.00  0.00     0.030 A 
ATOM      5  C   UNL d   1      -0.892   1.207   0.058  0.00  0.00     0.001 A 
ATOM      6  C   UNL d   1      -1.605   0.021   0.142  0.00  0.00     0.002 A 
ENDROOT
BRANCH   1   7
ATOM      7  C   UNL d   1       2.645  -0.035  -0.432  0.00  0.00     0.296 C 
ATOM      8  O   UNL d   1       3.269  -0.875  -1.056  0.00  0.00    -0.259 OA
BRANCH   7   9
ATOM      9  O   UNL d   1       3.147   1.151  -0.013  0.00  0.00    -0.310 OA
BRANCH   9  10
ATOM     10  C   UNL d   1       4.193   1.686  -0.831  0.00  0.00     0.263 C 
BRANCH  10  11
ATOM     11  C   UNL d   1       3.975   3.194  -0.913  0.00  0.00     0.183 C 
ATOM     12  O   UNL d   1       3.180   3.796  -0.188  0.00  0.00    -0.290 OA
BRANCH  11  13
ATOM     13  C   UNL d   1       4.769   3.981  -1.898  0.00  0.00     0.012 A 
ATOM     14  C   UNL d   1       5.311   3.409  -3.056  0.00  0.00     0.015 A 
ATOM     15  C   UNL d   1       6.035   4.198  -3.952  0.00  0.00     0.001 A 
ATOM     16  C   UNL d   1       6.226   5.556  -3.698  0.00  0.00     0.000 A 
ATOM     17  C   UNL d   1       5.681   6.134  -2.553  0.00  0.00     0.001 A 
ATOM     18  C   UNL d   1       4.949   5.351  -1.659  0.00  0.00     0.015 A 
ENDBRANCH  11  13
ENDBRANCH  10  11
ENDBRANCH   9  10
ENDBRANCH   7   9
ENDBRANCH   1   7
BRANCH   2  19
ATOM     19  N   UNL d   1       1.105  -2.536  -0.080  0.00  0.00    -0.353 N 
ATOM     20  H   UNL d   1       1.747  -2.669   0.700  0.00  0.00     0.166 HD
BRANCH  19  21
ATOM     21  C   UNL d   1       0.608  -3.757  -0.586  0.00  0.00     0.071 A 
ATOM     22  C   UNL d   1       0.854  -4.963   0.086  0.00  0.00     0.142 A 
ATOM     23  F   UNL d   1       1.555  -4.951   1.230  0.00  0.00    -0.204 F 
ATOM     24  C   UNL d   1       0.371  -6.179  -0.395  0.00  0.00     0.044 A 
ATOM     25  C   UNL d   1      -0.366  -6.209  -1.577  0.00  0.00     0.003 A 
ATOM     26  C   UNL d   1      -0.619  -5.023  -2.266  0.00  0.00     0.002 A 
ATOM     27  C   UNL d   1      -0.139  -3.806  -1.771  0.00  0.00     0.033 A 
ENDBRANCH  19  21
ENDBRANCH   2  19
TORSDOF 7
