REMARK  3 active torsions:
REMARK  status: ('A' for Active; 'I' for Inactive)
REMARK    1  A    between atoms: C_2  and  C_1 
REMARK    2  A    between atoms: C_17  and  C_3 
REMARK    3  A    between atoms: C_11  and  C_13 
ROOT
ATOM      1  C   UNL d   1      -0.308   1.047  -0.013  0.00  0.00     0.193 A 
ATOM      2  C   UNL d   1      -0.244  -1.089  -0.001  0.00  0.00     0.191 A 
ATOM      3  O   UNL d   1      -1.126  -0.048   0.119  0.00  0.00    -0.270 OA
ATOM      4  N   UNL d   1       0.957   0.698  -0.179  0.00  0.00    -0.276 N 
ATOM      5  HN  UNL d   1       1.750   1.329  -0.295  1.00  0.00     0.189 HD
ATOM      6  N   UNL d   1       1.000  -0.681  -0.164  0.00  0.00    -0.276 N 
ATOM      7  HN  UNL d   1       1.828  -1.268  -0.260  1.00  0.00     0.189 HD
ENDROOT
BRANCH   2   8
ATOM      8  C   UNL d   1      -0.789  -2.441   0.046  0.00  0.00     0.085 A 
ATOM      9  N   UNL d   1      -2.140  -2.550   0.126  0.00  0.00    -0.362 N 
ATOM     10  C   UNL d   1      -2.672  -3.794   0.146  0.00  0.00     0.104 A 
ATOM     11  HN  UNL d   1      -2.734  -1.722   0.170  1.00  0.00     0.165 HD
ATOM     12  C   UNL d   1      -1.922  -4.958   0.092  0.00  0.00     0.063 A 
ATOM     13  C   UNL d   1      -0.532  -4.826   0.014  0.00  0.00     0.020 A 
ATOM     14  C   UNL d   1       0.043  -3.554  -0.010  0.00  0.00     0.035 A 
BRANCH  12  15
ATOM     15  C   UNL d   1      -2.587  -6.300   0.115  0.00  0.00     0.418 C 
ATOM     16  F   UNL d   1      -3.945  -6.236   0.192  0.00  0.00    -0.166 F 
ATOM     17  F   UNL d   1      -2.310  -7.036  -0.996  0.00  0.00    -0.166 F 
ATOM     18  F   UNL d   1      -2.189  -7.058   1.174  0.00  0.00    -0.166 F 
ENDBRANCH  12  15
ENDBRANCH   2   8
BRANCH   1  19
ATOM     19  C   UNL d   1      -0.786   2.460   0.006  0.00  0.00     0.110 A 
ATOM     20  N   UNL d   1      -2.066   2.793   0.214  0.00  0.00    -0.257 N 
ATOM     21  O   UNL d   1      -2.108   4.176   0.139  0.00  0.00    -0.242 OA
ATOM     22  HN  UNL d   1      -2.847   2.161   0.391  1.00  0.00     0.195 HD
ATOM     23  C   UNL d   1      -0.862   4.654  -0.120  0.00  0.00     0.075 A 
ATOM     24  C   UNL d   1       0.018   3.603  -0.203  0.00  0.00     0.070 A 
ATOM     25  C   UNL d   1      -0.736   6.115  -0.255  0.00  0.00     0.079 C 
ENDBRANCH   1  19
TORSDOF 3
