REMARK  4 active torsions:
REMARK  status: ('A' for Active; 'I' for Inactive)
REMARK    1  A    between atoms: C_9  and  C_2 
REMARK    2  A    between atoms: S_11  and  C_9 
REMARK    3  A    between atoms: C_13  and  S_11 
REMARK    4  A    between atoms: O_20  and  C_12 
ROOT
ATOM      1  C   UNL d   1       1.267   0.473  -0.994  0.00  0.00     0.092 A 
ATOM      2  C   UNL d   1       1.059  -1.778   0.027  0.00  0.00    -0.030 A 
ATOM      3  O   UNL d   1       0.565   1.037   0.087  0.00  0.00    -0.275 OA
ATOM      4  C   UNL d   1       0.193   0.264   1.167  0.00  0.00     0.288 A 
ATOM      5  C   UNL d   1       1.556  -0.898  -1.054  0.00  0.00     0.005 A 
ATOM      6  C   UNL d   1       0.454  -1.178   1.069  0.00  0.00     0.091 A 
ATOM      7  C   UNL d   1       1.669   1.379  -1.979  0.00  0.00     0.074 A 
ATOM      8  C   UNL d   1       2.318  -1.335  -2.147  0.00  0.00     0.017 A 
ATOM      9  O   UNL d   1      -0.346   0.739   2.160  0.00  0.00    -0.260 OA
ATOM     10  C   UNL d   1       2.401   0.908  -3.055  0.00  0.00     0.068 A 
ATOM     11  C   UNL d   1       2.735  -0.438  -3.142  0.00  0.00     0.037 A 
ENDROOT
BRANCH   2  12
ATOM     12  C   UNL d   1       1.246  -3.285  -0.035  0.00  0.00     0.119 C 
BRANCH  12  13
ATOM     13  S   UNL d   1      -0.265  -4.189   0.495  0.00  0.00    -0.125 SA
BRANCH  13  14
ATOM     14  C   UNL d   1       0.357  -5.838   0.786  0.00  0.00     0.000 A 
ATOM     15  C   UNL d   1      -0.121  -6.540   1.900  0.00  0.00     0.019 A 
ATOM     16  C   UNL d   1       0.316  -7.841   2.168  0.00  0.00     0.008 A 
ATOM     17  C   UNL d   1       1.236  -8.468   1.321  0.00  0.00    -0.062 A 
ATOM     18  C   UNL d   1       1.690  -7.780   0.191  0.00  0.00     0.008 A 
ATOM     19  C   UNL d   1       1.721  -9.853   1.632  0.00  0.00     0.048 C 
ATOM     20  C   UNL d   1       1.251  -6.477  -0.076  0.00  0.00     0.019 A 
ENDBRANCH  13  14
ENDBRANCH  12  13
ENDBRANCH   2  12
BRANCH  10  21
ATOM     21  O   UNL d   1       2.822   1.738  -4.050  0.00  0.00    -0.361 OA
ATOM     22  H   UNL d   1       2.498   2.636  -3.870  0.00  0.00     0.217 HD
ENDBRANCH  10  21
TORSDOF 4
