REMARK  6 active torsions:
REMARK  status: ('A' for Active; 'I' for Inactive)
REMARK    1  A    between atoms: S_7  and  C_1 
REMARK    2  A    between atoms: C_8  and  N_2 
REMARK    3  A    between atoms: C_18  and  S_7 
REMARK    4  A    between atoms: O_12  and  C_13 
REMARK    5  A    between atoms: C_14  and  O_12 
REMARK    6  A    between atoms: C_17  and  C_14 
ROOT
ATOM      1  C   UNL d   1       2.047   1.510   0.010  0.00  0.00     0.046 A 
ATOM      2  C   UNL d   1       3.031   1.326  -0.965  0.00  0.00     0.033 A 
ATOM      3  C   UNL d   1       2.193   2.548   0.938  0.00  0.00     0.033 A 
ATOM      4  C   UNL d   1       4.281   3.204  -0.077  0.00  0.00     0.069 A 
ATOM      5  C   UNL d   1       3.299   3.394   0.893  0.00  0.00     0.039 A 
ATOM      6  C   UNL d   1       4.128   2.191  -1.025  0.00  0.00     0.039 A 
ENDROOT
BRANCH   1   7
ATOM      7  N   UNL d   1       0.936   0.652   0.082  0.00  0.00    -0.241 N 
ATOM      8  C   UNL d   1      -0.374   0.946   0.314  0.00  0.00     0.170 A 
ATOM      9  N   UNL d   1      -1.139  -0.085   0.533  0.00  0.00    -0.275 N 
ATOM     10  N   UNL d   1      -0.281  -1.149   0.432  0.00  0.00    -0.249 N 
ATOM     11  HN  UNL d   1      -2.139  -0.098   0.731  1.00  0.00     0.189 HD
ATOM     12  C   UNL d   1       1.016  -0.721   0.141  0.00  0.00     0.347 A 
ATOM     13  H   UNL d   1      -0.563  -2.106   0.600  0.00  0.00     0.192 HD
ATOM     14  O   UNL d   1       1.986  -1.452   0.040  0.00  0.00    -0.245 OA
BRANCH   8  15
ATOM     15  S   UNL d   1      -0.955   2.573   0.173  0.00  0.00    -0.088 SA
BRANCH  15  16
ATOM     16  C   UNL d   1      -2.339   2.624   1.347  0.00  0.00     0.047 C 
ATOM     17  C   UNL d   1      -1.899   2.302   2.773  0.00  0.00     0.021 C 
ATOM     18  C   UNL d   1      -2.910   4.043   1.289  0.00  0.00     0.021 C 
ENDBRANCH  15  16
ENDBRANCH   8  15
ENDBRANCH   1   7
BRANCH   4  19
ATOM     19  O   UNL d   1       5.425   3.948  -0.176  0.00  0.00    -0.347 OA
BRANCH  19  20
ATOM     20  C   UNL d   1       5.855   4.541   1.052  0.00  0.00     0.214 C 
BRANCH  20  21
ATOM     21  C   UNL d   1       7.327   4.852   0.976  0.00  0.00    -0.034 A 
ATOM     22  C   UNL d   1       7.800   6.141   1.254  0.00  0.00     0.009 A 
ATOM     23  C   UNL d   1       9.169   6.404   1.246  0.00  0.00     0.001 A 
ATOM     24  C   UNL d   1      10.076   5.384   0.965  0.00  0.00     0.000 A 
ATOM     25  C   UNL d   1       9.615   4.098   0.686  0.00  0.00     0.001 A 
ATOM     26  C   UNL d   1       8.247   3.832   0.693  0.00  0.00     0.009 A 
ENDBRANCH  20  21
ENDBRANCH  19  20
ENDBRANCH   4  19
TORSDOF 6
