REMARK  3 active torsions:
REMARK  status: ('A' for Active; 'I' for Inactive)
REMARK    1  A    between atoms: C_12  and  C_1 
REMARK       I    between atoms: C_2  and  N_8 
REMARK    2  A    between atoms: C_5  and  C_2 
REMARK    3  A    between atoms: N_8  and  C_21 
ROOT
ATOM      1  C   UNL d   1       0.163  -6.432  -0.439  0.00  0.00     0.256 C 
ATOM      2  N   UNL d   1      -0.634  -5.300  -0.451  0.00  0.00    -0.323 N 
ATOM      3  O   UNL d   1       1.385  -6.465  -0.462  0.00  0.00    -0.267 OA
ATOM      4  H   UNL d   1      -1.636  -5.428  -0.401  0.00  0.00     0.169 HD
ENDROOT
BRANCH   1   5
ATOM      5  C   UNL d   1      -0.564  -7.735  -0.350  0.00  0.00     0.033 A 
ATOM      6  C   UNL d   1       0.080  -8.785   0.326  0.00  0.00     0.038 A 
ATOM      7  C   UNL d   1      -0.614  -9.992   0.504  0.00  0.00     0.033 A 
ATOM      8  S   UNL d   1      -0.115 -11.420   1.329  0.00  0.00    -0.083 SA
ATOM      9  C   UNL d   1      -1.903 -10.183   0.003  0.00  0.00     0.049 A 
ATOM     10  C   UNL d   1      -1.636 -12.130   0.997  0.00  0.00     0.139 A 
ATOM     11  N   UNL d   1      -2.477 -11.410   0.290  0.00  0.00    -0.359 N 
ATOM     12  HN  UNL d   1      -3.408 -11.708  -0.002  1.00  0.00     0.166 HD
ATOM     13  C   UNL d   1      -2.506  -9.141  -0.731  0.00  0.00     0.032 A 
ATOM     14  C   UNL d   1      -1.833  -7.924  -0.905  0.00  0.00     0.019 A 
ENDBRANCH   1   5
BRANCH   2  15
ATOM     15  C   UNL d   1      -0.198  -3.957  -0.514  0.00  0.00     0.035 A 
ATOM     16  C   UNL d   1       1.142  -3.572  -0.469  0.00  0.00     0.030 A 
ATOM     17  C   UNL d   1       1.503  -2.226  -0.592  0.00  0.00     0.018 A 
ATOM     18  C   UNL d   1       0.528  -1.235  -0.768  0.00  0.00     0.048 A 
ATOM     19  C   UNL d   1      -0.820  -1.617  -0.772  0.00  0.00     0.018 A 
ATOM     20  C   UNL d   1      -1.178  -2.964  -0.639  0.00  0.00     0.030 A 
BRANCH  18  21
ATOM     21  C   UNL d   1       0.946   0.201  -0.970  0.00  0.00     0.417 C 
ATOM     22  F   UNL d   1      -0.102   1.049  -1.164  0.00  0.00    -0.166 F 
ATOM     23  F   UNL d   1       1.754   0.357  -2.056  0.00  0.00    -0.166 F 
ATOM     24  F   UNL d   1       1.640   0.700   0.088  0.00  0.00    -0.166 F 
ENDBRANCH  18  21
ENDBRANCH   2  15
TORSDOF 3
