REMARK  6 active torsions:
REMARK  status: ('A' for Active; 'I' for Inactive)
REMARK    1  A    between atoms: C_11  and  S_1 
REMARK    2  A    between atoms: C_15  and  S_1 
REMARK    3  A    between atoms: C_2  and  N_9 
REMARK    4  A    between atoms: C_7  and  C_4 
REMARK    5  A    between atoms: C_19  and  C_11 
REMARK    6  A    between atoms: N_12  and  C_19 
ROOT
ATOM      1  N   UNL d   1       1.755  -3.386  -4.054  0.00  0.00    -0.377 N 
ATOM      2  N   UNL d   1       0.463  -0.721  -3.799  0.00  0.00     0.092 N 
ATOM      3  C   UNL d   1       2.462  -2.162  -4.466  0.00  0.00     0.153 C 
ATOM      4  C   UNL d   1       0.695  -3.179  -3.048  0.00  0.00     0.153 C 
ATOM      5  C   UNL d   1       1.474  -1.036  -4.831  0.00  0.00     0.292 C 
ATOM      6  C   UNL d   1      -0.225  -1.993  -3.447  0.00  0.00     0.292 C 
ENDROOT
BRANCH   1   7
ATOM      7  C   UNL d   1       2.125  -4.650  -4.512  0.00  0.00     0.045 A 
ATOM      8  C   UNL d   1       3.466  -5.033  -4.834  0.00  0.00     0.018 A 
ATOM      9  C   UNL d   1       3.673  -6.275  -5.482  0.00  0.00     0.045 A 
ATOM     10  C   UNL d   1       4.626  -4.268  -4.541  0.00  0.00     0.022 C 
ATOM     11  C   UNL d   1       4.951  -6.627  -5.904  0.00  0.00     0.031 C 
ATOM     12  N   UNL d   1       2.690  -7.148  -5.726  0.00  0.00    -0.352 N 
ATOM     13  C   UNL d   1       6.052  -5.792  -5.710  0.00  0.00     0.009 C 
ATOM     14  C   UNL d   1       5.897  -4.597  -5.023  0.00  0.00    -0.061 C 
ATOM     15  C   UNL d   1       7.057  -3.672  -4.810  0.00  0.00     0.048 C 
ATOM     16  C   UNL d   1       1.425  -6.823  -5.356  0.00  0.00     0.119 A 
ATOM     17  HN  UNL d   1       2.887  -8.039  -6.181  1.00  0.00     0.166 HD
ATOM     18  C   UNL d   1       1.121  -5.597  -4.771  0.00  0.00     0.064 A 
BRANCH  16  19
ATOM     19  C   UNL d   1       0.299  -7.811  -5.611  0.00  0.00     0.432 C 
ATOM     20  F   UNL d   1       0.684  -8.979  -6.201  0.00  0.00    -0.165 F 
ATOM     21  F   UNL d   1      -0.344  -8.178  -4.460  0.00  0.00    -0.165 F 
ATOM     22  F   UNL d   1      -0.678  -7.297  -6.417  0.00  0.00    -0.165 F 
ENDBRANCH  16  19
ENDBRANCH   1   7
BRANCH   2  23
ATOM     23  C   UNL d   1       1.020  -0.065  -2.596  0.00  0.00     0.287 C 
BRANCH  23  24
ATOM     24  C   UNL d   1       1.627   1.311  -2.880  0.00  0.00     0.176 C 
BRANCH  24  25
ATOM     25  S   UNL d   1       2.161   2.073  -1.362  0.00  0.00     0.177 S 
ATOM     26  O   UNL d   1       3.154   1.210  -0.753  0.00  0.00    -0.223 OA
ATOM     27  O   UNL d   1       0.988   2.492  -0.618  0.00  0.00    -0.223 OA
BRANCH  25  28
ATOM     28  C   UNL d   1       3.003   3.546  -1.903  0.00  0.00     0.059 A 
ATOM     29  C   UNL d   1       2.277   4.724  -2.097  0.00  0.00     0.023 A 
ATOM     30  C   UNL d   1       2.951   5.890  -2.467  0.00  0.00     0.002 A 
ATOM     31  C   UNL d   1       4.337   5.877  -2.631  0.00  0.00     0.000 A 
ATOM     32  C   UNL d   1       5.057   4.700  -2.426  0.00  0.00     0.002 A 
ATOM     33  C   UNL d   1       4.392   3.529  -2.057  0.00  0.00     0.023 A 
ENDBRANCH  25  28
ENDBRANCH  24  25
ENDBRANCH  23  24
ENDBRANCH   2  23
TORSDOF 6
