REMARK  3 active torsions:
REMARK  status: ('A' for Active; 'I' for Inactive)
REMARK    1  A    between atoms: C_2  and  C_1 
REMARK       I    between atoms: N_9  and  C_2 
REMARK    2  A    between atoms: C_16  and  C_5 
REMARK    3  A    between atoms: C_12  and  N_9 
ROOT
ATOM      1  C   UNL d   1       0.920  -1.785  -0.164  0.00  0.00     0.073 C 
ATOM      2  N   UNL d   1       2.191   0.212  -0.264  0.00  0.00    -0.298 N 
ATOM      3  HN  UNL d   1       3.091   0.683  -0.355  1.00  0.00     0.187 HD
ATOM      4  C   UNL d   1       2.149  -1.141  -0.318  0.00  0.00     0.075 C 
ATOM      5  N   UNL d   1       1.062   0.963  -0.092  0.00  0.00    -0.299 N 
ATOM      6  HN  UNL d   1       1.140   1.975   0.007  1.00  0.00     0.187 HD
ATOM      7  C   UNL d   1      -0.284  -1.009  -0.118  0.00  0.00     0.010 A 
ATOM      8  C   UNL d   1      -0.141   0.386  -0.050  0.00  0.00     0.059 A 
ATOM      9  C   UNL d   1      -1.611  -1.523  -0.167  0.00  0.00     0.015 A 
ATOM     10  C   UNL d   1      -1.265   1.199   0.059  0.00  0.00     0.032 A 
ATOM     11  C   UNL d   1      -2.729  -0.696  -0.059  0.00  0.00     0.001 A 
ATOM     12  C   UNL d   1      -2.553   0.674   0.069  0.00  0.00     0.002 A 
ENDROOT
BRANCH   1  13
ATOM     13  C   UNL d   1       0.856  -3.269   0.010  0.00  0.00     0.259 C 
ATOM     14  N   UNL d   1       0.110  -3.676   1.112  0.00  0.00    -0.323 N 
ATOM     15  H   UNL d   1      -0.557  -3.012   1.487  0.00  0.00     0.169 HD
ATOM     16  O   UNL d   1       1.411  -4.017  -0.779  0.00  0.00    -0.267 OA
BRANCH  14  17
ATOM     17  C   UNL d   1      -0.160  -5.016   1.424  0.00  0.00     0.037 A 
ATOM     18  C   UNL d   1       0.831  -5.822   1.980  0.00  0.00     0.072 A 
ATOM     19  C   UNL d   1       0.467  -7.039   2.556  0.00  0.00     0.124 A 
ATOM     20  F   UNL d   1       1.402  -7.759   3.191  0.00  0.00    -0.205 F 
ATOM     21  C   UNL d   1      -0.858  -7.494   2.543  0.00  0.00    -0.023 A 
ATOM     22  C   UNL d   1      -1.827  -6.710   1.909  0.00  0.00     0.012 A 
ATOM     23  C   UNL d   1      -1.231  -8.761   3.245  0.00  0.00     0.051 C 
ATOM     24  C   UNL d   1      -1.484  -5.463   1.381  0.00  0.00     0.030 A 
ENDBRANCH  14  17
ENDBRANCH   1  13
BRANCH   4  25
ATOM     25  C   UNL d   1       3.475  -1.727  -0.615  0.00  0.00    -0.007 A 
ATOM     26  C   UNL d   1       4.014  -2.837   0.048  0.00  0.00     0.014 A 
ATOM     27  C   UNL d   1       5.282  -3.337  -0.292  0.00  0.00     0.001 A 
ATOM     28  C   UNL d   1       6.043  -2.720  -1.285  0.00  0.00     0.000 A 
ATOM     29  C   UNL d   1       5.544  -1.604  -1.939  0.00  0.00     0.001 A 
ATOM     30  C   UNL d   1       4.277  -1.118  -1.609  0.00  0.00     0.014 A 
ENDBRANCH   4  25
TORSDOF 3
