REMARK  5 active torsions:
REMARK  status: ('A' for Active; 'I' for Inactive)
REMARK    1  A    between atoms: N_5  and  C_1 
REMARK    2  A    between atoms: C_2  and  N_5 
REMARK    3  A    between atoms: N_7  and  C_2 
REMARK       I    between atoms: C_3  and  N_6 
REMARK    4  A    between atoms: C_4  and  C_3 
REMARK    5  A    between atoms: N_6  and  N_7 
ROOT
ATOM      1  C   UNL d   1       1.232   1.640   3.409  0.00  0.00     0.187 C 
ATOM      2  S   UNL d   1       1.307   3.188   4.044  0.00  0.00    -0.040 SA
ENDROOT
BRANCH   1   3
ATOM      3  N   UNL d   1       1.487   1.493   2.076  0.00  0.00    -0.357 N 
ATOM      4  H   UNL d   1       1.736   2.396   1.683  0.00  0.00     0.162 HD
BRANCH   3   5
ATOM      5  C   UNL d   1       0.785   0.611   1.117  0.00  0.00     0.033 C 
ATOM      6  C   UNL d   1      -0.748   0.840   1.179  0.00  0.00     0.035 C 
ATOM      7  C   UNL d   1      -1.469   0.014   0.100  0.00  0.00    -0.012 C 
ATOM      8  C   UNL d   1      -0.958   0.438  -1.286  0.00  0.00     0.009 C 
ATOM      9  C   UNL d   1      -1.168  -1.478   0.316  0.00  0.00     0.009 C 
ATOM     10  C   UNL d   1       0.555   0.184  -1.389  0.00  0.00    -0.012 C 
ATOM     11  C   UNL d   1       1.276   0.999  -0.307  0.00  0.00     0.035 C 
ATOM     12  C   UNL d   1       0.844  -1.307  -1.163  0.00  0.00     0.009 C 
ATOM     13  C   UNL d   1       0.348  -1.730   0.228  0.00  0.00    -0.012 C 
ATOM     14  C   UNL d   1       1.068  -0.899   1.312  0.00  0.00     0.035 C 
ENDBRANCH   3   5
ENDBRANCH   1   3
BRANCH   1  15
ATOM     15  N   UNL d   1       0.867   0.513   4.094  0.00  0.00    -0.274 N 
ATOM     16  H   UNL d   1       1.466  -0.302   3.968  0.00  0.00     0.189 HD
BRANCH  15  17
ATOM     17  N   UNL d   1       0.330   0.631   5.379  0.00  0.00    -0.264 N 
ATOM     18  C   UNL d   1       0.728  -0.232   6.376  0.00  0.00     0.271 C 
ATOM     19  O   UNL d   1       1.591  -1.090   6.221  0.00  0.00    -0.266 OA
ATOM     20  H   UNL d   1      -0.475   1.244   5.462  0.00  0.00     0.190 HD
BRANCH  18  21
ATOM     21  C   UNL d   1      -0.015  -0.108   7.653  0.00  0.00     0.049 A 
ATOM     22  C   UNL d   1      -0.109  -1.217   8.483  0.00  0.00     0.104 A 
ATOM     23  N   UNL d   1      -0.830  -1.239   9.633  0.00  0.00    -0.374 N 
ATOM     24  C   UNL d   1      -1.471  -0.100   9.974  0.00  0.00     0.087 A 
ATOM     25  HN  UNL d   1      -0.886  -2.077  10.212  1.00  0.00     0.164 HD
ATOM     26  C   UNL d   1      -1.412   1.067   9.230  0.00  0.00     0.018 A 
ATOM     27  C   UNL d   1      -0.665   1.065   8.052  0.00  0.00     0.020 A 
ENDBRANCH  18  21
ENDBRANCH  15  17
ENDBRANCH   1  15
TORSDOF 5
