REMARK  7 active torsions:
REMARK  status: ('A' for Active; 'I' for Inactive)
REMARK    1  A    between atoms: C_2  and  S_1 
REMARK    2  A    between atoms: N_7  and  S_1 
REMARK    3  A    between atoms: N_5  and  C_3 
REMARK    4  A    between atoms: N_6  and  C_4 
REMARK    5  A    between atoms: C_10  and  N_7 
REMARK    6  A    between atoms: C_8  and  S_9 
REMARK    7  A    between atoms: S_9  and  C_12 
ROOT
ATOM      1  C   UNL d   1       1.165  -0.587  -2.533  0.00  0.00     0.059 A 
ATOM      2  C   UNL d   1       2.539  -0.514  -2.816  0.00  0.00     0.033 A 
ATOM      3  C   UNL d   1       0.225  -0.481  -3.566  0.00  0.00     0.031 A 
ATOM      4  C   UNL d   1       2.945  -0.287  -4.140  0.00  0.00     0.021 A 
ATOM      5  C   UNL d   1       0.642  -0.266  -4.878  0.00  0.00     0.002 A 
ATOM      6  C   UNL d   1       1.999  -0.154  -5.162  0.00  0.00     0.002 A 
ENDROOT
BRANCH   1   7
ATOM      7  N   UNL d   1       0.660  -0.750  -1.199  0.00  0.00    -0.279 N 
ATOM      8  H   UNL d   1       1.223  -0.309  -0.465  0.00  0.00     0.179 HD
BRANCH   7   9
ATOM      9  S   UNL d   1       0.039  -2.248  -0.742  0.00  0.00     0.265 S 
ATOM     10  O   UNL d   1      -1.070  -2.006   0.154  0.00  0.00    -0.200 OA
ATOM     11  O   UNL d   1      -0.132  -3.092  -1.904  0.00  0.00    -0.200 OA
BRANCH   9  12
ATOM     12  C   UNL d   1       1.302  -2.984   0.272  0.00  0.00     0.112 A 
ATOM     13  C   UNL d   1       1.468  -2.604   1.608  0.00  0.00     0.126 A 
ATOM     14  C   UNL d   1       2.263  -3.357   2.485  0.00  0.00     0.038 A 
ATOM     15  C   UNL d   1       2.907  -4.499   2.013  0.00  0.00     0.003 A 
ATOM     16  C   UNL d   1       2.774  -4.871   0.674  0.00  0.00     0.002 A 
ATOM     17  C   UNL d   1       1.970  -4.125  -0.196  0.00  0.00     0.028 A 
BRANCH  13  18
ATOM     18  N   UNL d   1       0.927  -1.354   2.109  0.00  0.00    -0.114 N 
ATOM     19  O   UNL d   1       1.193  -0.341   1.452  0.00  0.00    -0.532 OA
ATOM     20  O   UNL d   1       0.330  -1.380   3.193  0.00  0.00    -0.532 OA
ENDBRANCH  13  18
ENDBRANCH   9  12
ENDBRANCH   7   9
ENDBRANCH   1   7
BRANCH   2  21
ATOM     21  S   UNL d   1       3.762  -0.842  -1.556  0.00  0.00    -0.086 SA
BRANCH  21  22
ATOM     22  C   UNL d   1       4.651   0.696  -1.351  0.00  0.00     0.038 A 
ATOM     23  C   UNL d   1       6.041   0.739  -1.139  0.00  0.00     0.121 A 
ATOM     24  C   UNL d   1       6.715   1.910  -0.761  0.00  0.00     0.061 A 
ATOM     25  C   UNL d   1       5.981   3.079  -0.609  0.00  0.00     0.036 A 
ATOM     26  C   UNL d   1       4.608   3.084  -0.854  0.00  0.00     0.025 A 
ATOM     27 CL   UNL d   1       6.767   4.519  -0.100  0.00  0.00    -0.084 Cl
ATOM     28  C   UNL d   1       3.947   1.902  -1.216  0.00  0.00     0.023 A 
BRANCH  23  29
ATOM     29  N   UNL d   1       6.851  -0.449  -1.309  0.00  0.00    -0.114 N 
ATOM     30  O   UNL d   1       6.954  -0.901  -2.457  0.00  0.00    -0.532 OA
ATOM     31  O   UNL d   1       7.422  -0.888  -0.301  0.00  0.00    -0.532 OA
ENDBRANCH  23  29
ENDBRANCH  21  22
ENDBRANCH   2  21
TORSDOF 7
