REMARK  2 active torsions:
REMARK  status: ('A' for Active; 'I' for Inactive)
REMARK       I    between atoms: C_2  and  N_1 
REMARK    1  A    between atoms: C_5  and  N_1 
REMARK    2  A    between atoms: C_8  and  C_2 
ROOT
ATOM      1  N   UNL d   1       3.108   1.286   0.521  0.00  0.00    -0.342 N 
ATOM      2  HN  UNL d   1       2.635   2.190   0.547  1.00  0.00     0.167 HD
ATOM      3  C   UNL d   1       2.404   0.164   0.305  0.00  0.00     0.108 A 
ATOM      4  C   UNL d   1       4.430   1.218   0.701  0.00  0.00     0.043 A 
ATOM      5  C   UNL d   1       5.132  -0.001   0.685  0.00  0.00    -0.009 A 
ATOM      6  C   UNL d   1       4.389  -1.168   0.464  0.00  0.00     0.017 A 
ATOM      7  C   UNL d   1       3.010  -1.085   0.272  0.00  0.00     0.049 A 
ATOM      8  C   UNL d   1       5.135   2.394   0.914  0.00  0.00     0.030 A 
ATOM      9  C   UNL d   1       6.525  -0.009   0.887  0.00  0.00     0.013 A 
ATOM     10  C   UNL d   1       6.516   2.391   1.113  0.00  0.00     0.002 A 
ATOM     11  C   UNL d   1       7.212   1.187   1.100  0.00  0.00     0.001 A 
ENDROOT
BRANCH   3  12
ATOM     12  N   UNL d   1       1.013   0.236   0.137  0.00  0.00    -0.313 N 
ATOM     13  C   UNL d   1       0.293   1.419   0.129  0.00  0.00     0.227 C 
ATOM     14  O   UNL d   1       0.766   2.552   0.113  0.00  0.00    -0.273 OA
ATOM     15  H   UNL d   1       0.520  -0.633   0.009  0.00  0.00     0.170 HD
BRANCH  13  16
ATOM     16  C   UNL d   1      -1.230   1.204   0.087  0.00  0.00     0.078 C 
ATOM     17  C   UNL d   1      -1.989   2.543   0.064  0.00  0.00     0.014 C 
ATOM     18  C   UNL d   1      -1.954   3.276   1.409  0.00  0.00     0.001 C 
ATOM     19  C   UNL d   1      -2.407   2.385   2.561  0.00  0.00     0.000 C 
ATOM     20  C   UNL d   1      -1.659   1.056   2.588  0.00  0.00     0.001 C 
ATOM     21  C   UNL d   1      -1.744   0.335   1.245  0.00  0.00     0.014 C 
ENDBRANCH  13  16
ENDBRANCH   3  12
TORSDOF 2
