REMARK  7 active torsions:
REMARK  status: ('A' for Active; 'I' for Inactive)
REMARK    1  A    between atoms: C_4  and  C_1 
REMARK    2  A    between atoms: C_11  and  C_2 
REMARK       I    between atoms: N_9  and  C_4 
REMARK    3  A    between atoms: C_15  and  C_5 
REMARK    4  A    between atoms: C_7  and  N_9 
REMARK    5  A    between atoms: O_18  and  C_11 
REMARK    6  A    between atoms: O_19  and  C_13 
REMARK    7  A    between atoms: O_20  and  C_14 
ROOT
ATOM      1  C   UNL d   1      -5.198   1.464   0.355  0.00  0.00     0.069 A 
ATOM      2  C   UNL d   1      -4.356   0.549  -0.303  0.00  0.00     0.054 A 
ATOM      3  C   UNL d   1      -5.672   2.599  -0.318  0.00  0.00     0.059 A 
ATOM      4  C   UNL d   1      -3.949   0.836  -1.617  0.00  0.00     0.070 A 
ATOM      5  C   UNL d   1      -5.342   2.815  -1.655  0.00  0.00     0.102 A 
ATOM      6  C   UNL d   1      -4.438   1.962  -2.306  0.00  0.00     0.103 A 
ENDROOT
BRANCH   2   7
ATOM      7  N   UNL d   1      -3.989  -0.678   0.324  0.00  0.00    -0.322 N 
ATOM      8  C   UNL d   1      -2.780  -1.326   0.151  0.00  0.00     0.258 C 
ATOM      9  O   UNL d   1      -1.806  -0.798  -0.381  0.00  0.00    -0.267 OA
ATOM     10  H   UNL d   1      -4.547  -0.961   1.130  0.00  0.00     0.169 HD
BRANCH   8  11
ATOM     11  C   UNL d   1      -2.675  -2.680   0.701  0.00  0.00     0.064 A 
ATOM     12  C   UNL d   1      -1.448  -3.339   1.061  0.00  0.00     0.053 A 
ATOM     13  C   UNL d   1      -1.760  -4.622   1.457  0.00  0.00     0.062 A 
ATOM     14  O   UNL d   1      -3.109  -4.791   1.368  0.00  0.00    -0.318 OA
ATOM     15  C   UNL d   1      -3.659  -3.637   0.899  0.00  0.00     0.065 A 
ATOM     16  C   UNL d   1      -5.118  -3.731   0.680  0.00  0.00     0.077 C 
BRANCH  13  17
ATOM     17  C   UNL d   1      -0.978  -5.821   1.942  0.00  0.00    -0.002 C 
ATOM     18  C   UNL d   1       0.536  -5.550   1.937  0.00  0.00     0.021 C 
ATOM     19  C   UNL d   1      -1.413  -6.162   3.380  0.00  0.00     0.021 C 
ATOM     20  C   UNL d   1      -1.255  -7.034   1.033  0.00  0.00     0.021 C 
ENDBRANCH  13  17
ENDBRANCH   8  11
ENDBRANCH   2   7
BRANCH   1  21
ATOM     21  C   UNL d   1      -5.563   1.264   1.777  0.00  0.00     0.295 C 
ATOM     22  O   UNL d   1      -5.679   0.151   2.282  0.00  0.00    -0.259 OA
BRANCH  21  23
ATOM     23  O   UNL d   1      -5.675   2.456   2.404  0.00  0.00    -0.322 OA
ATOM     24  C   UNL d   1      -5.978   2.399   3.801  0.00  0.00     0.213 C 
ENDBRANCH  21  23
ENDBRANCH   1  21
BRANCH   6  25
ATOM     25  O   UNL d   1      -4.084   2.304  -3.583  0.00  0.00    -0.353 OA
ATOM     26  C   UNL d   1      -3.294   1.390  -4.330  0.00  0.00     0.210 C 
ENDBRANCH   6  25
BRANCH   5  27
ATOM     27  O   UNL d   1      -5.942   3.921  -2.211  0.00  0.00    -0.353 OA
ATOM     28  C   UNL d   1      -6.458   3.719  -3.526  0.00  0.00     0.210 C 
ENDBRANCH   5  27
TORSDOF 7
