REMARK  3 active torsions:
REMARK  status: ('A' for Active; 'I' for Inactive)
REMARK    1  A    between atoms: C_4  and  N_1 
REMARK       I    between atoms: C_3  and  N_5 
REMARK    2  A    between atoms: C_8  and  C_3 
REMARK    3  A    between atoms: N_5  and  C_15 
ROOT
ATOM      1  C   UNL d   1      -3.096   0.337   0.573  0.00  0.00     0.030 A 
ATOM      2  C   UNL d   1      -3.105   0.082   1.949  0.00  0.00     0.031 A 
ATOM      3  C   UNL d   1      -4.315   0.698  -0.008  0.00  0.00     0.031 A 
ATOM      4  C   UNL d   1      -5.519   0.386   2.070  0.00  0.00     0.035 A 
ATOM      5  C   UNL d   1      -4.300   0.094   2.690  0.00  0.00     0.032 A 
ATOM      6  C   UNL d   1      -5.505   0.730   0.723  0.00  0.00     0.032 A 
ENDROOT
BRANCH   1   7
ATOM      7  N   UNL d   1      -1.956   0.192  -0.183  0.00  0.00    -0.378 N 
ATOM      8  C   UNL d   1      -2.002  -0.358  -1.546  0.00  0.00     0.153 C 
ATOM      9  C   UNL d   1      -1.496   0.678  -2.567  0.00  0.00     0.291 C 
ATOM     10  N   UNL d   1      -0.129   1.141  -2.236  0.00  0.00     0.087 N 
ATOM     11  C   UNL d   1      -0.136   1.730  -0.875  0.00  0.00     0.291 C 
ATOM     12  C   UNL d   1       0.340   2.106  -3.227  0.00  0.00     0.310 C 
ATOM     13  C   UNL d   1      -0.661   0.755   0.216  0.00  0.00     0.153 C 
ENDBRANCH   1   7
BRANCH   4  14
ATOM     14  N   UNL d   1      -6.705   0.254   2.830  0.00  0.00    -0.324 N 
ATOM     15  C   UNL d   1      -7.997   0.395   2.354  0.00  0.00     0.245 C 
ATOM     16  O   UNL d   1      -8.336   0.803   1.251  0.00  0.00    -0.268 OA
ATOM     17  H   UNL d   1      -6.585  -0.075   3.777  0.00  0.00     0.169 HD
BRANCH  15  18
ATOM     18  C   UNL d   1      -9.023  -0.051   3.340  0.00  0.00     0.070 C 
ATOM     19  C   UNL d   1     -10.293  -0.211   2.933  0.00  0.00    -0.026 C 
ATOM     20  C   UNL d   1     -11.411  -0.669   3.806  0.00  0.00     0.036 C 
ENDBRANCH  15  18
ENDBRANCH   4  14
TORSDOF 3
