REMARK  3 active torsions:
REMARK  status: ('A' for Active; 'I' for Inactive)
REMARK    1  A    between atoms: C_3  and  C_1 
REMARK       I    between atoms: N_2  and  C_3 
REMARK    2  A    between atoms: O_19  and  C_14 
REMARK    3  A    between atoms: O_20  and  C_16 
ROOT
ATOM      1  N   UNL d   1       0.860  -3.484  -0.056  0.00  0.00    -0.339 N 
ATOM      2  C   UNL d   1      -0.182  -2.546  -0.036  0.00  0.00     0.264 C 
ATOM      3  C   UNL d   1       1.387  -5.736  -0.987  0.00  0.00    -0.026 A 
ATOM      4  C   UNL d   1       1.042  -4.285  -1.277  0.00  0.00     0.117 C 
ATOM      5  C   UNL d   1       1.775  -6.170   0.288  0.00  0.00    -0.045 A 
ATOM      6  C   UNL d   1       1.306  -6.675  -2.031  0.00  0.00     0.049 A 
ATOM      7  C   UNL d   1       1.816  -3.752   1.024  0.00  0.00     0.131 C 
ATOM      8  C   UNL d   1       1.627  -8.021  -1.822  0.00  0.00     0.102 A 
ATOM      9  C   UNL d   1       2.075  -7.524   0.504  0.00  0.00     0.047 A 
ATOM     10  C   UNL d   1       2.007  -8.451  -0.540  0.00  0.00     0.102 A 
ATOM     11  O   UNL d   1      -1.025  -2.531  -0.935  0.00  0.00    -0.267 OA
ATOM     12  C   UNL d   1       1.782  -5.216   1.453  0.00  0.00     0.059 C 
ATOM     13  C   UNL d   1       2.111  -3.646  -2.175  0.00  0.00     0.037 C 
ENDROOT
BRANCH   2  14
ATOM     14  C   UNL d   1      -0.279  -1.602   1.051  0.00  0.00     0.110 C 
ATOM     15  C   UNL d   1      -1.385  -1.207   1.792  0.00  0.00     0.043 C 
ATOM     16  N   UNL d   1      -1.125  -0.209   2.727  0.00  0.00    -0.296 N 
ATOM     17  C   UNL d   1      -2.777  -1.705   1.694  0.00  0.00     0.071 C 
ATOM     18  N   UNL d   1       0.122   0.222   2.658  0.00  0.00    -0.061 NA
ATOM     19  HN  UNL d   1      -1.815   0.147   3.388  1.00  0.00     0.183 HD
ATOM     20  S   UNL d   1       0.995  -0.522   1.445  0.00  0.00     0.007 SA
ENDBRANCH   2  14
BRANCH   8  21
ATOM     21  O   UNL d   1       1.550  -8.976  -2.809  0.00  0.00    -0.353 OA
ATOM     22  C   UNL d   1       1.668  -8.509  -4.148  0.00  0.00     0.210 C 
ENDBRANCH   8  21
BRANCH  10  23
ATOM     23  O   UNL d   1       2.288  -9.791  -0.409  0.00  0.00    -0.353 OA
ATOM     24  C   UNL d   1       2.688 -10.254   0.873  0.00  0.00     0.210 C 
ENDBRANCH  10  23
TORSDOF 3
