REMARK  2 active torsions:
REMARK  status: ('A' for Active; 'I' for Inactive)
REMARK    1  A    between atoms: C_7  and  C_3 
REMARK    2  A    between atoms: C_8  and  C_4 
ROOT
ATOM      1  N   UNL d   1       1.441  -0.615   0.001  0.00  0.00    -0.349 N 
ATOM      2  HN  UNL d   1       2.326  -1.122  -0.007  1.00  0.00     0.166 HD
ATOM      3  C   UNL d   1       0.249  -1.181  -0.029  0.00  0.00     0.085 A 
ATOM      4  C   UNL d   1       1.323   0.767   0.045  0.00  0.00     0.050 A 
ATOM      5  S   UNL d   1      -1.074  -0.074   0.015  0.00  0.00    -0.081 SA
ATOM      6  C   UNL d   1       0.025   1.236   0.043  0.00  0.00     0.082 A 
ENDROOT
BRANCH   4   7
ATOM      7  C   UNL d   1       2.496   1.634   0.057  0.00  0.00    -0.006 A 
ATOM      8  C   UNL d   1       2.473   2.887   0.683  0.00  0.00     0.053 A 
ATOM      9  C   UNL d   1       3.590   3.728   0.650  0.00  0.00     0.102 A 
ATOM     10  O   UNL d   1       3.408   4.947   1.256  0.00  0.00    -0.348 OA
ATOM     11  C   UNL d   1       4.773   3.293   0.039  0.00  0.00     0.102 A 
ATOM     12  C   UNL d   1       4.075   6.015   0.582  0.00  0.00     0.178 C 
ATOM     13  C   UNL d   1       5.515   6.141   1.049  0.00  0.00     0.053 C 
ATOM     14  C   UNL d   1       6.197   4.788   1.150  0.00  0.00     0.178 C 
ATOM     15  O   UNL d   1       5.950   3.996  -0.013  0.00  0.00    -0.348 OA
ATOM     16  C   UNL d   1       4.799   2.050  -0.596  0.00  0.00     0.040 A 
ATOM     17  C   UNL d   1       3.672   1.222  -0.582  0.00  0.00     0.017 A 
ENDBRANCH   4   7
BRANCH   3  18
ATOM     18  C   UNL d   1       0.015  -2.636  -0.057  0.00  0.00     0.001 A 
ATOM     19  C   UNL d   1       0.935  -3.494   0.567  0.00  0.00     0.054 A 
ATOM     20  C   UNL d   1       0.743  -4.878   0.550  0.00  0.00     0.103 A 
ATOM     21  O   UNL d   1       1.693  -5.641   1.180  0.00  0.00    -0.346 OA
ATOM     22  C   UNL d   1      -0.379  -5.423  -0.077  0.00  0.00     0.102 A 
ATOM     23  C   UNL d   1       1.591  -7.019   0.801  0.00  0.00     0.202 C 
ATOM     24  C   UNL d   1       0.144  -7.484   0.840  0.00  0.00     0.202 C 
ATOM     25  O   UNL d   1      -0.646  -6.767  -0.115  0.00  0.00    -0.346 OA
ATOM     26  C   UNL d   1      -1.289  -4.590  -0.719  0.00  0.00     0.040 A 
ATOM     27  C   UNL d   1      -1.093  -3.205  -0.709  0.00  0.00     0.017 A 
ENDBRANCH   3  18
TORSDOF 2
