REMARK  5 active torsions:
REMARK  status: ('A' for Active; 'I' for Inactive)
REMARK    1  A    between atoms: C_2  and  C_1 
REMARK    2  A    between atoms: C_5  and  C_2 
REMARK    3  A    between atoms: C_3  and  C_6 
REMARK    4  A    between atoms: C_11  and  C_3 
REMARK    5  A    between atoms: C_6  and  C_5 
ROOT
ATOM      1  C   UNL d   1      -2.580   1.948   0.183  0.00  0.00     0.064 C 
ATOM      2  C   UNL d   1      -4.002   2.518   0.116  0.00  0.00     0.018 C 
ENDROOT
BRANCH   1   3
ATOM      3  C   UNL d   1      -2.356   1.403   1.595  0.00  0.00     0.163 C 
ATOM      4  O   UNL d   1      -1.751   2.058   2.445  0.00  0.00    -0.292 OA
BRANCH   3   5
ATOM      5  C   UNL d   1      -2.993   0.110   1.989  0.00  0.00     0.010 A 
ATOM      6  C   UNL d   1      -3.308  -0.890   1.060  0.00  0.00     0.015 A 
ATOM      7  C   UNL d   1      -3.949  -2.061   1.476  0.00  0.00     0.001 A 
ATOM      8  C   UNL d   1      -4.276  -2.241   2.820  0.00  0.00     0.000 A 
ATOM      9  C   UNL d   1      -3.951  -1.258   3.752  0.00  0.00     0.001 A 
ATOM     10  C   UNL d   1      -3.307  -0.089   3.340  0.00  0.00     0.015 A 
ENDBRANCH   3   5
ENDBRANCH   1   3
BRANCH   1  11
ATOM     11  C   UNL d   1      -1.573   3.055  -0.165  0.00  0.00     0.096 C 
BRANCH  11  12
ATOM     12  C   UNL d   1      -0.161   2.527  -0.409  0.00  0.00     0.167 C 
ATOM     13  O   UNL d   1       0.101   1.338  -0.208  0.00  0.00    -0.292 OA
BRANCH  12  14
ATOM     14  C   UNL d   1       0.844   3.453  -0.935  0.00  0.00     0.050 A 
ATOM     15  S   UNL d   1       0.489   5.085  -1.321  0.00  0.00    -0.098 SA
ATOM     16  C   UNL d   1       2.060   5.367  -1.925  0.00  0.00     0.050 A 
ATOM     17  C   UNL d   1       2.865   4.258  -1.802  0.00  0.00     0.009 A 
ATOM     18  C   UNL d   1       2.167   3.159  -1.219  0.00  0.00     0.023 A 
ENDBRANCH  12  14
ENDBRANCH  11  12
ENDBRANCH   1  11
TORSDOF 5
