REMARK  9 active torsions:
REMARK  status: ('A' for Active; 'I' for Inactive)
REMARK    1  A    between atoms: C_2  and  N_1 
REMARK    2  A    between atoms: C_12  and  C_2 
REMARK    3  A    between atoms: C_13  and  C_2 
REMARK    4  A    between atoms: C_3  and  C_14 
REMARK       I    between atoms: N_9  and  C_3 
REMARK    5  A    between atoms: S_10  and  C_6 
REMARK    6  A    between atoms: N_7  and  N_9 
REMARK    7  A    between atoms: C_14  and  S_10 
REMARK    8  A    between atoms: C_16  and  C_15 
REMARK    9  A    between atoms: O_22  and  C_17 
ROOT
ATOM      1  N   UNL d   1       0.278   0.937  -0.162  0.00  0.00     0.104 N 
ATOM      2  C   UNL d   1      -1.035   0.345   0.219  0.00  0.00     0.290 C 
ATOM      3  C   UNL d   1       0.911  -0.334   0.314  0.00  0.00     0.290 C 
ATOM      4  C   UNL d   1      -0.425  -1.055  -0.063  0.00  0.00     0.104 C 
ENDROOT
BRANCH   4   5
ATOM      5  S   UNL d   1      -0.384  -1.511  -1.868  0.00  0.00    -0.151 SA
BRANCH   5   6
ATOM      6  C   UNL d   1      -1.910  -2.446  -2.055  0.00  0.00     0.178 C 
BRANCH   6   7
ATOM      7  C   UNL d   1      -3.208  -1.663  -1.954  0.00  0.00     0.245 C 
ATOM      8  N   UNL d   1      -3.185  -0.329  -2.330  0.00  0.00    -0.270 N 
ATOM      9  H   UNL d   1      -2.314   0.134  -2.574  0.00  0.00     0.190 HD
ATOM     10  O   UNL d   1      -4.236  -2.263  -1.630  0.00  0.00    -0.271 OA
BRANCH   8  11
ATOM     11  N   UNL d   1      -4.362   0.354  -2.267  0.00  0.00    -0.308 N 
ATOM     12  C   UNL d   1      -4.381   1.634  -2.483  0.00  0.00     0.118 C 
ATOM     13  HN  UNL d   1      -5.227  -0.140  -2.050  1.00  0.00     0.186 HD
BRANCH  12  14
ATOM     14  C   UNL d   1      -5.682   2.344  -2.440  0.00  0.00    -0.019 A 
ATOM     15  C   UNL d   1      -6.865   1.642  -2.168  0.00  0.00     0.015 A 
ATOM     16  C   UNL d   1      -8.105   2.289  -2.164  0.00  0.00     0.037 A 
ATOM     17  C   UNL d   1      -8.179   3.654  -2.437  0.00  0.00     0.068 A 
ATOM     18  C   UNL d   1      -7.001   4.357  -2.712  0.00  0.00     0.037 A 
ATOM     19  C   UNL d   1      -5.753   3.713  -2.720  0.00  0.00     0.015 A 
BRANCH  17  20
ATOM     20  O   UNL d   1      -9.324   4.402  -2.475  0.00  0.00    -0.356 OA
ATOM     21  C   UNL d   1     -10.550   3.731  -2.197  0.00  0.00     0.210 C 
ENDBRANCH  17  20
ENDBRANCH  12  14
ENDBRANCH   8  11
ENDBRANCH   6   7
ENDBRANCH   5   6
ENDBRANCH   4   5
BRANCH   1  22
ATOM     22  C   UNL d   1       0.673   2.091   0.672  0.00  0.00     0.289 C 
BRANCH  22  23
ATOM     23  C   UNL d   1       2.033   2.639   0.217  0.00  0.00    -0.021 A 
ATOM     24  C   UNL d   1       2.221   3.107  -1.097  0.00  0.00     0.010 A 
ATOM     25  C   UNL d   1       3.404   3.746  -1.471  0.00  0.00     0.001 A 
ATOM     26  C   UNL d   1       4.432   3.901  -0.546  0.00  0.00     0.000 A 
ATOM     27  C   UNL d   1       4.289   3.387   0.742  0.00  0.00     0.001 A 
ATOM     28  C   UNL d   1       3.099   2.759   1.123  0.00  0.00     0.010 A 
ENDBRANCH  22  23
BRANCH  22  29
ATOM     29  C   UNL d   1      -0.366   3.228   0.687  0.00  0.00    -0.021 A 
ATOM     30  C   UNL d   1      -0.490   4.040   1.829  0.00  0.00     0.010 A 
ATOM     31  C   UNL d   1      -1.425   5.078   1.872  0.00  0.00     0.001 A 
ATOM     32  C   UNL d   1      -2.242   5.329   0.773  0.00  0.00     0.000 A 
ATOM     33  C   UNL d   1      -2.115   4.555  -0.377  0.00  0.00     0.001 A 
ATOM     34  C   UNL d   1      -1.178   3.521  -0.423  0.00  0.00     0.010 A 
ENDBRANCH  22  29
ENDBRANCH   1  22
TORSDOF 9
