REMARK  6 active torsions:
REMARK  status: ('A' for Active; 'I' for Inactive)
REMARK    1  A    between atoms: C_8  and  C_1 
REMARK    2  A    between atoms: O_9  and  C_2 
REMARK    3  A    between atoms: S_11  and  C_3 
REMARK    4  A    between atoms: O_15  and  C_8 
REMARK    5  A    between atoms: C_16  and  O_9 
REMARK    6  A    between atoms: C_20  and  O_15 
ROOT
ATOM      1  C   UNL d   1       2.914   1.302   0.005  0.00  0.00     0.107 A 
ATOM      2  C   UNL d   1       1.550   1.607  -0.163  0.00  0.00     0.107 A 
ATOM      3  C   UNL d   1       3.288  -0.033   0.086  0.00  0.00     0.089 A 
ATOM      4  C   UNL d   1       0.590   0.564  -0.261  0.00  0.00     0.027 A 
ATOM      5  N   UNL d   1       2.371  -1.031   0.072  0.00  0.00    -0.349 N 
ATOM      6  HN  UNL d   1       2.671  -2.001   0.175  1.00  0.00     0.166 HD
ATOM      7  C   UNL d   1       1.073  -0.745  -0.074  0.00  0.00     0.046 A 
ATOM      8  C   UNL d   1      -0.801   0.727  -0.521  0.00  0.00     0.040 A 
ATOM      9  C   UNL d   1       0.179  -1.809  -0.055  0.00  0.00     0.032 A 
ATOM     10  C   UNL d   1      -1.675  -0.353  -0.483  0.00  0.00     0.035 A 
ATOM     11  C   UNL d   1      -1.192  -1.626  -0.235  0.00  0.00     0.026 A 
ATOM     12 CL   UNL d   1      -3.359  -0.101  -0.719  0.00  0.00    -0.084 Cl
ENDROOT
BRANCH   2  13
ATOM     13  O   UNL d   1       1.241   2.942  -0.339  0.00  0.00    -0.309 OA
BRANCH  13  14
ATOM     14  C   UNL d   1       0.206   3.540   0.335  0.00  0.00     0.076 A 
ATOM     15  C   UNL d   1      -0.275   3.154   1.586  0.00  0.00     0.037 A 
ATOM     16  C   UNL d   1      -1.401   3.790   2.116  0.00  0.00     0.003 A 
ATOM     17  C   UNL d   1      -2.015   4.834   1.420  0.00  0.00     0.000 A 
ATOM     18  C   UNL d   1      -1.493   5.261   0.201  0.00  0.00     0.003 A 
ATOM     19  C   UNL d   1      -0.380   4.618  -0.336  0.00  0.00     0.037 A 
ENDBRANCH  13  14
ENDBRANCH   2  13
BRANCH   1  20
ATOM     20  C   UNL d   1       3.907   2.374   0.209  0.00  0.00     0.299 C 
ATOM     21  O   UNL d   1       4.662   2.412   1.165  0.00  0.00    -0.259 OA
BRANCH  20  22
ATOM     22  O   UNL d   1       3.797   3.314  -0.762  0.00  0.00    -0.318 OA
BRANCH  22  23
ATOM     23  C   UNL d   1       4.539   4.523  -0.530  0.00  0.00     0.174 C 
ATOM     24  C   UNL d   1       3.873   5.374   0.540  0.00  0.00     0.034 C 
ENDBRANCH  22  23
ENDBRANCH  20  22
ENDBRANCH   1  20
BRANCH   3  25
ATOM     25  S   UNL d   1       4.998  -0.572   0.109  0.00  0.00    -0.116 SA
ATOM     26  C   UNL d   1       4.802  -2.375   0.089  0.00  0.00     0.097 C 
ENDBRANCH   3  25
TORSDOF 6
