REMARK  4 active torsions:
REMARK  status: ('A' for Active; 'I' for Inactive)
REMARK       I    between atoms: N_3  and  C_1 
REMARK       I    between atoms: N_5  and  C_1 
REMARK    1  A    between atoms: C_2  and  O_10 
REMARK    2  A    between atoms: C_4  and  N_3 
REMARK    3  A    between atoms: C_15  and  N_5 
REMARK    4  A    between atoms: O_10  and  C_16 
ROOT
ATOM      1  C   UNL d   1       0.998   0.157  -0.130  0.00  0.00     0.321 C 
ATOM      2  N   UNL d   1       0.334  -0.940  -0.654  0.00  0.00    -0.338 N 
ATOM      3  N   UNL d   1       0.103   1.016   0.477  0.00  0.00    -0.309 N 
ATOM      4  O   UNL d   1       2.207   0.290  -0.210  0.00  0.00    -0.247 OA
ATOM      5  H   UNL d   1      -0.599  -0.736  -0.975  0.00  0.00     0.164 HD
ATOM      6  H   UNL d   1      -0.845   0.682   0.543  0.00  0.00     0.170 HD
ENDROOT
BRANCH   2   7
ATOM      7  C   UNL d   1       1.056  -1.940  -1.437  0.00  0.00     0.094 C 
ATOM      8  C   UNL d   1       0.113  -3.068  -1.919  0.00  0.00     0.064 C 
ATOM      9  C   UNL d   1       1.052  -4.221  -2.065  0.00  0.00    -0.050 A 
ATOM     10  C   UNL d   1       0.834  -5.417  -2.729  0.00  0.00     0.007 A 
ATOM     11  C   UNL d   1       2.243  -3.985  -1.372  0.00  0.00    -0.050 A 
ATOM     12  C   UNL d   1       1.844  -6.380  -2.707  0.00  0.00     0.001 A 
ATOM     13  C   UNL d   1       3.044  -6.141  -2.019  0.00  0.00     0.001 A 
ATOM     14  C   UNL d   1       3.247  -4.938  -1.339  0.00  0.00     0.007 A 
ATOM     15  C   UNL d   1       2.212  -2.650  -0.688  0.00  0.00     0.064 C 
ENDBRANCH   2   7
BRANCH   3  16
ATOM     16  C   UNL d   1       0.383   2.236   1.125  0.00  0.00     0.036 A 
ATOM     17  C   UNL d   1       1.656   2.797   1.229  0.00  0.00     0.032 A 
ATOM     18  C   UNL d   1       1.859   4.007   1.913  0.00  0.00     0.039 A 
ATOM     19  C   UNL d   1       0.781   4.693   2.464  0.00  0.00     0.078 A 
ATOM     20  C   UNL d   1      -0.493   4.127   2.372  0.00  0.00     0.039 A 
ATOM     21  C   UNL d   1      -0.694   2.913   1.708  0.00  0.00     0.032 A 
BRANCH  19  22
ATOM     22  O   UNL d   1       0.816   5.879   3.129  0.00  0.00    -0.255 OA
BRANCH  22  23
ATOM     23  C   UNL d   1       1.897   6.777   2.932  0.00  0.00     0.530 C 
ATOM     24  F   UNL d   1       2.582   6.568   1.789  0.00  0.00    -0.144 F 
ATOM     25  F   UNL d   1       1.396   8.033   2.883  0.00  0.00    -0.144 F 
ATOM     26  F   UNL d   1       2.747   6.705   3.979  0.00  0.00    -0.144 F 
ENDBRANCH  22  23
ENDBRANCH  19  22
ENDBRANCH   3  16
TORSDOF 4
