REMARK  5 active torsions:
REMARK  status: ('A' for Active; 'I' for Inactive)
REMARK    1  A    between atoms: C_6  and  C_1 
REMARK    2  A    between atoms: C_9  and  C_2 
REMARK    3  A    between atoms: S_3  and  C_4 
REMARK    4  A    between atoms: C_12  and  S_3 
REMARK    5  A    between atoms: O_18  and  C_9 
ROOT
ATOM      1  C   UNL d   1       1.215  -2.610  -1.235  0.00  0.00     0.144 C 
ATOM      2  C   UNL d   1       1.965  -2.733  -0.120  0.00  0.00     0.049 C 
ATOM      3  C   UNL d   1       1.753  -2.271  -2.489  0.00  0.00     0.112 C 
ATOM      4  N   UNL d   1       2.191  -2.013  -3.534  0.00  0.00    -0.191 NA
ENDROOT
BRANCH   1   5
ATOM      5  S   UNL d   1      -0.509  -2.744  -1.151  0.00  0.00     0.216 S 
ATOM      6  O   UNL d   1      -0.929  -3.170   0.176  0.00  0.00    -0.216 OA
ATOM      7  O   UNL d   1      -1.120  -1.566  -1.748  0.00  0.00    -0.216 OA
BRANCH   5   8
ATOM      8  C   UNL d   1      -0.857  -4.117  -2.243  0.00  0.00     0.065 A 
ATOM      9  C   UNL d   1      -0.891  -5.414  -1.722  0.00  0.00     0.025 A 
ATOM     10  C   UNL d   1      -1.131  -6.491  -2.578  0.00  0.00     0.025 A 
ATOM     11  C   UNL d   1      -1.349  -6.265  -3.938  0.00  0.00     0.034 A 
ATOM     12  C   UNL d   1      -1.357  -4.966  -4.448  0.00  0.00     0.025 A 
ATOM     13 CL   UNL d   1      -1.609  -7.600  -4.991  0.00  0.00    -0.084 Cl
ATOM     14  C   UNL d   1      -1.122  -3.883  -3.598  0.00  0.00     0.025 A 
ENDBRANCH   5   8
ENDBRANCH   1   5
BRANCH   2  15
ATOM     15  C   UNL d   1       3.368  -2.463  -0.046  0.00  0.00     0.006 A 
ATOM     16  C   UNL d   1       4.484  -3.365  -0.095  0.00  0.00     0.073 A 
ATOM     17  C   UNL d   1       5.618  -2.581   0.120  0.00  0.00     0.022 A 
ATOM     18  C   UNL d   1       7.066  -2.925   0.166  0.00  0.00     0.069 C 
ATOM     19  N   UNL d   1       5.223  -1.276   0.244  0.00  0.00    -0.362 N 
ATOM     20  C   UNL d   1       3.862  -1.177   0.111  0.00  0.00     0.017 A 
ATOM     21  H   UNL d   1       5.851  -0.494   0.382  0.00  0.00     0.165 HD
ATOM     22  C   UNL d   1       3.205   0.159   0.141  0.00  0.00     0.069 C 
BRANCH  16  23
ATOM     23  C   UNL d   1       4.563  -4.808  -0.331  0.00  0.00     0.295 C 
ATOM     24  O   UNL d   1       5.372  -5.529   0.244  0.00  0.00    -0.259 OA
BRANCH  23  25
ATOM     25  O   UNL d   1       3.733  -5.240  -1.326  0.00  0.00    -0.322 OA
ATOM     26  C   UNL d   1       4.008  -6.565  -1.806  0.00  0.00     0.213 C 
ENDBRANCH  23  25
ENDBRANCH  16  23
ENDBRANCH   2  15
TORSDOF 5
