REMARK  4 active torsions:
REMARK  status: ('A' for Active; 'I' for Inactive)
REMARK    1  A    between atoms: C_7  and  C_1 
REMARK    2  A    between atoms: C_8  and  C_2 
REMARK    3  A    between atoms: O_14  and  C_7 
REMARK    4  A    between atoms: O_13  and  C_8 
ROOT
ATOM      1  C   UNL d   1      -0.760   1.196   0.001  0.00  0.00     0.056 A 
ATOM      2  C   UNL d   1       0.759  -1.195  -0.003  0.00  0.00     0.056 A 
ATOM      3  C   UNL d   1       1.405   0.044  -0.005  0.00  0.00     0.029 A 
ATOM      4  C   UNL d   1      -1.407  -0.043   0.003  0.00  0.00     0.029 A 
ATOM      5  C   UNL d   1       0.647   1.224  -0.010  0.00  0.00     0.040 A 
ATOM      6  C   UNL d   1      -0.649  -1.224   0.009  0.00  0.00     0.040 A 
ATOM      7 BR   UNL d   1      -3.293  -0.254  -0.039  0.00  0.00    -0.050 Br
ATOM      8 BR   UNL d   1       3.292   0.255   0.038  0.00  0.00    -0.050 Br
ENDROOT
BRANCH   1   9
ATOM      9  C   UNL d   1      -1.426   2.526  -0.028  0.00  0.00     0.177 C 
ATOM     10  O   UNL d   1      -0.896   3.489  -0.556  0.00  0.00    -0.646 OA
BRANCH   9  11
ATOM     11  O   UNL d   1      -2.583   2.622   0.652  0.00  0.00    -0.773 OA
ATOM     12  H   UNL d   1      -2.943   1.787   1.008  0.00  0.00     0.167 HD
ENDBRANCH   9  11
ENDBRANCH   1   9
BRANCH   2  13
ATOM     13  C   UNL d   1       1.425  -2.525   0.025  0.00  0.00     0.177 C 
ATOM     14  O   UNL d   1       0.893  -3.490   0.551  0.00  0.00    -0.646 OA
BRANCH  13  15
ATOM     15  O   UNL d   1       2.584  -2.620  -0.651  0.00  0.00    -0.773 OA
ATOM     16  H   UNL d   1       2.944  -1.786  -1.006  0.00  0.00     0.167 HD
ENDBRANCH  13  15
ENDBRANCH   2  13
TORSDOF 4
