REMARK  6 active torsions:
REMARK  status: ('A' for Active; 'I' for Inactive)
REMARK       I    between atoms: N_2  and  C_1 
REMARK    1  A    between atoms: C_3  and  C_1 
REMARK    2  A    between atoms: C_9  and  N_2 
REMARK    3  A    between atoms: C_15  and  C_12 
REMARK    4  A    between atoms: C_17  and  C_15 
REMARK    5  A    between atoms: C_19  and  C_17 
REMARK    6  A    between atoms: C_18  and  C_19 
ROOT
ATOM      1  C   UNL d   1       0.259  -1.165  -0.648  0.00  0.00     0.032 A 
ATOM      2  C   UNL d   1       0.713  -2.459  -0.376  0.00  0.00     0.017 A 
ATOM      3  C   UNL d   1      -0.883  -0.974  -1.431  0.00  0.00     0.017 A 
ATOM      4  C   UNL d   1      -1.539  -2.071  -1.987  0.00  0.00     0.008 A 
ATOM      5  C   UNL d   1       0.057  -3.556  -0.938  0.00  0.00     0.008 A 
ATOM      6  C   UNL d   1      -1.056  -3.369  -1.770  0.00  0.00    -0.058 A 
ENDROOT
BRANCH   1   7
ATOM      7  C   UNL d   1       0.959   0.034  -0.120  0.00  0.00     0.256 C 
ATOM      8  N   UNL d   1       2.338  -0.057  -0.090  0.00  0.00    -0.322 N 
ATOM      9  H   UNL d   1       2.763  -0.856  -0.544  0.00  0.00     0.169 HD
ATOM     10  O   UNL d   1       0.290   1.017   0.181  0.00  0.00    -0.267 OA
BRANCH   8  11
ATOM     11  C   UNL d   1       3.219   0.948   0.361  0.00  0.00     0.050 A 
ATOM     12  C   UNL d   1       2.826   2.084   1.066  0.00  0.00     0.117 A 
ATOM     13  N   UNL d   1       3.680   3.057   1.479  0.00  0.00    -0.373 N 
ATOM     14  C   UNL d   1       4.980   2.894   1.170  0.00  0.00     0.088 A 
ATOM     15  HN  UNL d   1       3.351   3.872   1.998  1.00  0.00     0.164 HD
ATOM     16  C   UNL d   1       5.475   1.796   0.488  0.00  0.00     0.019 A 
ATOM     17  C   UNL d   1       4.581   0.805   0.087  0.00  0.00     0.032 A 
ENDBRANCH   8  11
ENDBRANCH   1   7
BRANCH   6  18
ATOM     18  C   UNL d   1      -1.711  -4.553  -2.441  0.00  0.00     0.038 C 
BRANCH  18  19
ATOM     19  C   UNL d   1      -1.682  -4.480  -3.973  0.00  0.00     0.005 C 
BRANCH  19  20
ATOM     20  C   UNL d   1      -0.263  -4.438  -4.553  0.00  0.00    -0.000 C 
BRANCH  20  21
ATOM     21  C   UNL d   1      -0.300  -4.369  -6.081  0.00  0.00    -0.005 C 
ATOM     22  C   UNL d   1       1.098  -4.311  -6.675  0.00  0.00     0.005 C 
ENDBRANCH  20  21
ENDBRANCH  19  20
ENDBRANCH  18  19
ENDBRANCH   6  18
TORSDOF 6
