REMARK  9 active torsions:
REMARK  status: ('A' for Active; 'I' for Inactive)
REMARK    1  A    between atoms: C_4  and  C_1 
REMARK    2  A    between atoms: O_6  and  C_2 
REMARK    3  A    between atoms: C_3  and  C_8 
REMARK    4  A    between atoms: O_26  and  C_4 
REMARK    5  A    between atoms: N_9  and  C_5 
REMARK    6  A    between atoms: C_10  and  O_6 
REMARK       I    between atoms: C_12  and  N_9 
REMARK    7  A    between atoms: C_15  and  C_12 
REMARK    8  A    between atoms: C_16  and  C_17 
REMARK    9  A    between atoms: O_27  and  C_16 
ROOT
ATOM      1  C   UNL d   1       2.110   3.431   0.908  0.00  0.00     0.070 C 
ATOM      2  C   UNL d   1       2.446   5.734   0.181  0.00  0.00     0.050 C 
ATOM      3  C   UNL d   1       2.388   3.000  -0.396  0.00  0.00     0.102 C 
ATOM      4  C   UNL d   1       2.071   4.805   1.170  0.00  0.00     0.048 C 
ATOM      5  C   UNL d   1       2.888   5.265  -1.065  0.00  0.00     0.019 C 
ATOM      6  C   UNL d   1       2.861   3.904  -1.351  0.00  0.00     0.040 C 
ENDROOT
BRANCH   1   7
ATOM      7  N   UNL d   1       1.823   2.554   1.971  0.00  0.00    -0.321 N 
ATOM      8  C   UNL d   1       2.559   1.480   2.409  0.00  0.00     0.246 C 
ATOM      9  O   UNL d   1       2.167   0.828   3.375  0.00  0.00    -0.268 OA
ATOM     10  H   UNL d   1       1.178   2.868   2.687  0.00  0.00     0.169 HD
BRANCH   8  11
ATOM     11  C   UNL d   1       3.908   1.241   1.835  0.00  0.00     0.081 C 
ATOM     12  C   UNL d   1       4.744   0.389   2.448  0.00  0.00     0.086 C 
BRANCH  12  13
ATOM     13  C   UNL d   1       6.105   0.233   1.910  0.00  0.00     0.165 C 
ATOM     14  O   UNL d   1       6.483   0.692   0.846  0.00  0.00    -0.647 OA
BRANCH  13  15
ATOM     15  O   UNL d   1       6.904  -0.469   2.736  0.00  0.00    -0.773 OA
ATOM     16  H   UNL d   1       6.502  -0.742   3.582  0.00  0.00     0.167 HD
ENDBRANCH  13  15
ENDBRANCH  12  13
ENDBRANCH   8  11
ENDBRANCH   1   7
BRANCH   3  17
ATOM     17  O   UNL d   1       2.118   1.697  -0.762  0.00  0.00    -0.307 OA
BRANCH  17  18
ATOM     18  C   UNL d   1       1.372   1.454  -1.881  0.00  0.00     0.099 A 
ATOM     19  C   UNL d   1       1.468   0.266  -2.584  0.00  0.00     0.114 A 
ATOM     20  S   UNL d   1       0.489   0.311  -4.003  0.00  0.00    -0.093 SA
ATOM     21  C   UNL d   1      -0.106   1.866  -3.642  0.00  0.00     0.053 A 
ATOM     22  C   UNL d   1       0.405   2.344  -2.459  0.00  0.00     0.046 A 
BRANCH  19  23
ATOM     23  C   UNL d   1       2.243  -0.932  -2.339  0.00  0.00     0.302 C 
ATOM     24  O   UNL d   1       2.229  -1.956  -3.016  0.00  0.00    -0.259 OA
BRANCH  23  25
ATOM     25  O   UNL d   1       3.017  -0.785  -1.224  0.00  0.00    -0.322 OA
ATOM     26  C   UNL d   1       3.816  -1.924  -0.905  0.00  0.00     0.213 C 
ENDBRANCH  23  25
ENDBRANCH  19  23
ENDBRANCH  17  18
ENDBRANCH   3  17
BRANCH   2  27
ATOM     27  C   UNL d   1       2.391   7.220   0.433  0.00  0.00     0.417 C 
ATOM     28  F   UNL d   1       1.836   7.546   1.632  0.00  0.00    -0.166 F 
ATOM     29  F   UNL d   1       3.622   7.798   0.414  0.00  0.00    -0.166 F 
ATOM     30  F   UNL d   1       1.654   7.872  -0.509  0.00  0.00    -0.166 F 
ENDBRANCH   2  27
TORSDOF 9
