REMARK  1 active torsions:
REMARK  status: ('A' for Active; 'I' for Inactive)
REMARK    1  A    between atoms: C_7  and  C_3 
ROOT
ATOM      1  N   UNL d   1       1.989  -1.363  -0.154  0.00  0.00    -0.271 NA
ATOM      2  N   UNL d   1       2.090   1.035  -0.179  0.00  0.00    -0.271 NA
ATOM      3  C   UNL d   1       2.637  -0.177   0.421  0.00  0.00     0.171 C 
ATOM      4  C   UNL d   1       0.683   1.122  -0.083  0.00  0.00     0.022 A 
ATOM      5  C   UNL d   1       0.569  -1.292  -0.076  0.00  0.00     0.022 A 
ATOM      6  C   UNL d   1      -0.085  -0.051  -0.067  0.00  0.00     0.017 A 
ATOM      7  C   UNL d   1      -1.496   0.012  -0.048  0.00  0.00    -0.022 A 
ATOM      8  C   UNL d   1      -0.180  -2.470  -0.151  0.00  0.00     0.024 A 
ATOM      9  C   UNL d   1       0.042   2.363  -0.132  0.00  0.00     0.024 A 
ATOM     10  C   UNL d   1      -1.351   2.438  -0.082  0.00  0.00     0.003 A 
ATOM     11  C   UNL d   1      -1.574  -2.417  -0.126  0.00  0.00     0.003 A 
ATOM     12  C   UNL d   1      -2.229  -1.185  -0.062  0.00  0.00     0.012 A 
ATOM     13  C   UNL d   1      -2.117   1.271  -0.035  0.00  0.00     0.012 A 
ATOM     14  H   UNL d   1       2.210  -1.353  -1.148  0.00  0.00     0.129 HD
ATOM     15  H   UNL d   1       2.554   1.877   0.133  0.00  0.00     0.129 HD
ENDROOT
BRANCH   3  16
ATOM     16  C   UNL d   1       2.622  -0.186   1.958  0.00  0.00    -0.023 A 
ATOM     17  C   UNL d   1       2.618   1.001   2.717  0.00  0.00     0.049 A 
ATOM     18  C   UNL d   1       2.575   0.909   4.093  0.00  0.00     0.105 A 
ATOM     19  O   UNL d   1       2.526   1.960   4.956  0.00  0.00    -0.323 OA
ATOM     20  C   UNL d   1       2.566  -0.302   4.742  0.00  0.00     0.105 A 
ATOM     21  C   UNL d   1       2.417   1.267   6.217  0.00  0.00     0.352 A 
ATOM     22  O   UNL d   1       2.501  -0.168   6.094  0.00  0.00    -0.323 OA
ATOM     23  C   UNL d   1       2.616  -1.488   4.052  0.00  0.00     0.040 A 
ATOM     24  C   UNL d   1       2.653  -1.426   2.655  0.00  0.00     0.013 A 
ENDBRANCH   3  16
TORSDOF 1
