REMARK  4 active torsions:
REMARK  status: ('A' for Active; 'I' for Inactive)
REMARK    1  A    between atoms: C_5  and  N_1 
REMARK    2  A    between atoms: S_2  and  C_7 
REMARK    3  A    between atoms: N_10  and  S_2 
REMARK    4  A    between atoms: C_21  and  N_10 
ROOT
ATOM      1  C   UNL d   1       2.906  -1.570   0.061  0.00  0.00     0.067 A 
ATOM      2  C   UNL d   1       5.144  -3.250   0.260  0.00  0.00     0.081 A 
ATOM      3  C   UNL d   1       3.133  -2.576  -0.897  0.00  0.00     0.062 A 
ATOM      4  C   UNL d   1       4.252  -3.409  -0.802  0.00  0.00     0.051 A 
ATOM      5  C   UNL d   1       3.833  -1.402   1.103  0.00  0.00     0.033 A 
ATOM      6  C   UNL d   1       4.940  -2.250   1.216  0.00  0.00     0.027 A 
ATOM      7 CL   UNL d   1       2.128  -2.748  -2.297  0.00  0.00    -0.082 Cl
ENDROOT
BRANCH   1   8
ATOM      8  N   UNL d   1       1.773  -0.725   0.000  0.00  0.00    -0.250 N 
ATOM      9  C   UNL d   1       1.852   0.644  -0.024  0.00  0.00     0.232 C 
ATOM     10  C   UNL d   1       0.463   1.206  -0.153  0.00  0.00     0.123 C 
ATOM     11  O   UNL d   1       2.858   1.335  -0.007  0.00  0.00    -0.273 OA
ATOM     12  C   UNL d   1      -0.455   0.005   0.073  0.00  0.00     0.050 C 
ATOM     13  C   UNL d   1       0.483  -1.185   0.103  0.00  0.00     0.240 C 
ATOM     14  C   UNL d   1      -1.538  -0.158  -0.993  0.00  0.00     0.020 C 
ATOM     15  C   UNL d   1      -1.275   0.132   1.363  0.00  0.00     0.020 C 
ATOM     16  O   UNL d   1       0.122  -2.340   0.294  0.00  0.00    -0.272 OA
ATOM     17  C   UNL d   1      -2.682   0.743  -0.543  0.00  0.00     0.001 C 
ATOM     18  C   UNL d   1      -2.522   0.919   0.965  0.00  0.00     0.001 C 
ENDBRANCH   1   8
BRANCH   2  19
ATOM     19  S   UNL d   1       6.517  -4.365   0.448  0.00  0.00     0.259 S 
ATOM     20  O   UNL d   1       6.470  -4.855   1.808  0.00  0.00    -0.201 OA
ATOM     21  O   UNL d   1       6.547  -5.267  -0.685  0.00  0.00    -0.201 OA
BRANCH  19  22
ATOM     22  N   UNL d   1       7.863  -3.360   0.362  0.00  0.00    -0.311 N 
ATOM     23  H   UNL d   1       8.482  -3.558   1.152  0.00  0.00     0.172 HD
BRANCH  22  24
ATOM     24  C   UNL d   1       8.532  -3.103  -0.931  0.00  0.00     0.085 C 
ATOM     25  C   UNL d   1       7.599  -2.424  -1.926  0.00  0.00     0.032 C 
ATOM     26  C   UNL d   1       9.739  -2.201  -0.664  0.00  0.00     0.032 C 
ENDBRANCH  22  24
ENDBRANCH  19  22
ENDBRANCH   2  19
TORSDOF 4
