REMARK  5 active torsions:
REMARK  status: ('A' for Active; 'I' for Inactive)
REMARK    1  A    between atoms: C_5  and  C_1 
REMARK       I    between atoms: C_2  and  N_4 
REMARK    2  A    between atoms: C_6  and  C_2 
REMARK    3  A    between atoms: N_3  and  C_5 
REMARK    4  A    between atoms: N_4  and  C_15 
REMARK       I    between atoms: C_7  and  N_10 
REMARK    5  A    between atoms: N_10  and  C_13 
ROOT
ATOM      1  N   UNL d   1      -1.256   3.057   0.283  0.00  0.00     0.092 N 
ATOM      2  C   UNL d   1      -4.205   3.360   0.216  0.00  0.00     0.088 C 
ATOM      3  C   UNL d   1      -3.301   3.874  -0.902  0.00  0.00     0.055 C 
ATOM      4  C   UNL d   1      -3.429   3.448   1.531  0.00  0.00     0.055 C 
ATOM      5  C   UNL d   1      -2.006   3.065  -0.982  0.00  0.00     0.275 C 
ATOM      6  C   UNL d   1      -2.078   2.726   1.459  0.00  0.00     0.275 C 
ENDROOT
BRANCH   2   7
ATOM      7  N   UNL d   1      -4.649   1.990  -0.021  0.00  0.00    -0.352 N 
ATOM      8  C   UNL d   1      -5.745   1.624  -0.775  0.00  0.00     0.252 C 
ATOM      9  O   UNL d   1      -6.494   2.416  -1.337  0.00  0.00    -0.268 OA
ATOM     10  H   UNL d   1      -3.978   1.266   0.202  0.00  0.00     0.163 HD
BRANCH   8  11
ATOM     11  C   UNL d   1      -5.940   0.147  -0.915  0.00  0.00     0.034 A 
ATOM     12  C   UNL d   1      -5.415  -0.722   0.050  0.00  0.00     0.046 A 
ATOM     13  C   UNL d   1      -5.395  -2.101  -0.148  0.00  0.00     0.035 A 
ATOM     14  C   UNL d   1      -6.041  -2.623  -1.273  0.00  0.00     0.029 A 
ATOM     15  C   UNL d   1      -6.656  -1.770  -2.199  0.00  0.00     0.003 A 
ATOM     16  C   UNL d   1      -6.593  -0.383  -2.030  0.00  0.00     0.017 A 
BRANCH  13  17
ATOM     17  N   UNL d   1      -4.707  -2.984   0.713  0.00  0.00    -0.327 N 
ATOM     18  C   UNL d   1      -3.884  -2.625   1.773  0.00  0.00     0.218 C 
ATOM     19  O   UNL d   1      -3.661  -1.485   2.175  0.00  0.00    -0.274 OA
ATOM     20  C   UNL d   1      -3.191  -3.791   2.422  0.00  0.00     0.117 C 
ATOM     21  H   UNL d   1      -4.739  -3.965   0.463  0.00  0.00     0.169 HD
ENDBRANCH  13  17
ENDBRANCH   8  11
ENDBRANCH   2   7
BRANCH   1  22
ATOM     22  C   UNL d   1      -0.108   2.120   0.222  0.00  0.00     0.315 C 
BRANCH  22  23
ATOM     23  C   UNL d   1       0.999   2.509  -0.731  0.00  0.00     0.030 A 
ATOM     24  C   UNL d   1       1.752   3.684  -0.594  0.00  0.00     0.045 A 
ATOM     25 CL   UNL d   1       1.470   4.817   0.680  0.00  0.00    -0.084 Cl
ATOM     26  C   UNL d   1       2.801   3.969  -1.479  0.00  0.00     0.024 A 
ATOM     27  C   UNL d   1       3.130   3.081  -2.502  0.00  0.00     0.005 A 
ATOM     28  C   UNL d   1       2.403   1.904  -2.642  0.00  0.00     0.043 A 
ATOM     29  C   UNL d   1       1.354   1.631  -1.765  0.00  0.00     0.126 A 
ATOM     30  F   UNL d   1       0.689   0.475  -1.923  0.00  0.00    -0.205 F 
ENDBRANCH  22  23
ENDBRANCH   1  22
TORSDOF 5
