REMARK  6 active torsions:
REMARK  status: ('A' for Active; 'I' for Inactive)
REMARK    1  A    between atoms: C_7  and  S_1 
REMARK    2  A    between atoms: N_12  and  S_1 
REMARK    3  A    between atoms: C_2  and  C_4 
REMARK       I    between atoms: C_4  and  N_15 
REMARK    4  A    between atoms: C_21  and  N_12 
REMARK    5  A    between atoms: N_15  and  C_27 
REMARK    6  A    between atoms: C_27  and  C_21 
ROOT
ATOM      1  C   UNL d   1       6.338  -2.621  -2.075  0.00  0.00     0.249 C 
ATOM      2  O   UNL d   1       6.668  -1.647  -2.738  0.00  0.00    -0.268 OA
ATOM      3  N   UNL d   1       5.371  -2.587  -1.100  0.00  0.00    -0.356 N 
ATOM      4  H   UNL d   1       5.145  -3.428  -0.600  0.00  0.00     0.162 HD
ENDROOT
BRANCH   3   5
ATOM      5  C   UNL d   1       4.757  -1.359  -0.618  0.00  0.00     0.138 C 
BRANCH   5   6
ATOM      6  C   UNL d   1       3.229  -1.415  -0.728  0.00  0.00     0.124 C 
BRANCH   6   7
ATOM      7  N   UNL d   1       2.697  -2.546   0.073  0.00  0.00    -0.214 NA
ATOM      8  H   UNL d   1       3.161  -3.440  -0.055  0.00  0.00     0.140 HD
BRANCH   7   9
ATOM      9  S   UNL d   1       1.019  -2.774   0.087  0.00  0.00     0.241 S 
ATOM     10  O   UNL d   1       0.768  -3.889   0.976  0.00  0.00    -0.206 OA
ATOM     11  O   UNL d   1       0.382  -1.492   0.248  0.00  0.00    -0.206 OA
BRANCH   9  12
ATOM     12  C   UNL d   1       0.731  -3.341  -1.575  0.00  0.00     0.074 A 
ATOM     13  C   UNL d   1       0.818  -4.708  -1.860  0.00  0.00     0.026 A 
ATOM     14  C   UNL d   1       0.655  -5.147  -3.175  0.00  0.00     0.025 A 
ATOM     15  C   UNL d   1       0.401  -4.222  -4.189  0.00  0.00     0.034 A 
ATOM     16  C   UNL d   1       0.282  -2.862  -3.898  0.00  0.00     0.025 A 
ATOM     17 CL   UNL d   1       0.239  -4.763  -5.814  0.00  0.00    -0.084 Cl
ATOM     18  C   UNL d   1       0.434  -2.417  -2.583  0.00  0.00     0.026 A 
ENDBRANCH   9  12
ENDBRANCH   7   9
ENDBRANCH   6   7
ENDBRANCH   5   6
ENDBRANCH   3   5
BRANCH   1  19
ATOM     19  C   UNL d   1       6.944  -3.966  -2.326  0.00  0.00     0.034 A 
ATOM     20  C   UNL d   1       6.910  -4.947  -1.415  0.00  0.00     0.029 A 
ATOM     21  C   UNL d   1       7.476  -6.234  -1.770  0.00  0.00    -0.000 A 
ATOM     22  C   UNL d   1       7.378  -7.309  -0.879  0.00  0.00     0.038 A 
ATOM     23  C   UNL d   1       8.104  -6.406  -3.003  0.00  0.00     0.079 A 
ATOM     24  C   UNL d   1       7.911  -8.549  -1.226  0.00  0.00     0.035 A 
ATOM     25 CL   UNL d   1       7.782  -9.866  -0.128  0.00  0.00    -0.084 Cl
ATOM     26  C   UNL d   1       8.542  -8.725  -2.455  0.00  0.00     0.026 A 
ATOM     27  C   UNL d   1       8.641  -7.650  -3.342  0.00  0.00     0.039 A 
ATOM     28  O   UNL d   1       8.235  -5.412  -3.929  0.00  0.00    -0.346 OA
ATOM     29  C   UNL d   1       7.624  -4.133  -3.659  0.00  0.00     0.220 A 
ENDBRANCH   1  19
TORSDOF 6
