REMARK  6 active torsions:
REMARK  status: ('A' for Active; 'I' for Inactive)
REMARK    1  A    between atoms: C_6  and  C_1 
REMARK    2  A    between atoms: C_5  and  C_2 
REMARK    3  A    between atoms: O_9  and  C_5 
REMARK    4  A    between atoms: N_13  and  O_9 
REMARK    5  A    between atoms: C_20  and  N_13 
REMARK    6  A    between atoms: C_21  and  N_13 
ROOT
ATOM      1  C   UNL d   1      -1.423  -0.542   0.311  0.00  0.00     0.087 A 
ATOM      2  C   UNL d   1      -0.122  -1.130   0.411  0.00  0.00     0.101 A 
ATOM      3  N   UNL d   1      -1.331   0.746  -0.060  0.00  0.00    -0.259 N 
ATOM      4  HN  UNL d   1      -2.105   1.388  -0.229  1.00  0.00     0.195 HD
ATOM      5  O   UNL d   1       0.005   1.030  -0.168  0.00  0.00    -0.241 OA
ATOM      6  C   UNL d   1       0.730  -0.081   0.105  0.00  0.00     0.091 A 
ATOM      7  C   UNL d   1       2.196   0.098   0.037  0.00  0.00     0.080 C 
ENDROOT
BRANCH   1   8
ATOM      8  C   UNL d   1      -2.760  -1.098   0.518  0.00  0.00     0.037 A 
ATOM      9  C   UNL d   1      -3.589  -0.611   1.546  0.00  0.00     0.048 A 
ATOM     10 CL   UNL d   1      -3.025   0.502   2.751  0.00  0.00    -0.083 Cl
ATOM     11  C   UNL d   1      -4.923  -1.019   1.651  0.00  0.00     0.025 A 
ATOM     12  C   UNL d   1      -5.451  -1.935   0.742  0.00  0.00     0.003 A 
ATOM     13  C   UNL d   1      -4.637  -2.447  -0.263  0.00  0.00     0.025 A 
ATOM     14  C   UNL d   1      -3.305  -2.029  -0.386  0.00  0.00     0.048 A 
ATOM     15 CL   UNL d   1      -2.400  -2.679  -1.710  0.00  0.00    -0.083 Cl
ENDBRANCH   1   8
BRANCH   2  16
ATOM     16  C   UNL d   1       0.331  -2.461   0.771  0.00  0.00     0.315 C 
ATOM     17  O   UNL d   1       1.521  -2.761   0.780  0.00  0.00    -0.258 OA
BRANCH  16  18
ATOM     18  O   UNL d   1      -0.696  -3.318   1.125  0.00  0.00    -0.220 OA
BRANCH  18  19
ATOM     19  N   UNL d   1      -0.169  -4.484   1.848  0.00  0.00    -0.188 NA
BRANCH  19  20
ATOM     20  C   UNL d   1      -0.870  -4.522   3.136  0.00  0.00     0.117 C 
ATOM     21  C   UNL d   1      -0.643  -3.255   3.954  0.00  0.00     0.023 C 
ENDBRANCH  19  20
BRANCH  19  22
ATOM     22  C   UNL d   1      -0.457  -5.680   1.049  0.00  0.00     0.117 C 
ATOM     23  C   UNL d   1       0.311  -5.709  -0.267  0.00  0.00     0.023 C 
ENDBRANCH  19  22
ENDBRANCH  18  19
ENDBRANCH  16  18
ENDBRANCH   2  16
TORSDOF 6
