REMARK  5 active torsions:
REMARK  status: ('A' for Active; 'I' for Inactive)
REMARK    1  A    between atoms: C_6  and  C_1 
REMARK    2  A    between atoms: C_18  and  C_6 
REMARK    3  A    between atoms: C_7  and  S_16 
REMARK    4  A    between atoms: S_16  and  C_22 
REMARK    5  A    between atoms: C_22  and  C_18 
ROOT
ATOM      1  C   UNL d   1       3.953   0.105  -0.031  0.00  0.00     0.167 C 
ATOM      2  O   UNL d   1       4.490  -0.878   0.493  0.00  0.00    -0.292 OA
ENDROOT
BRANCH   1   3
ATOM      3  C   UNL d   1       2.639   0.017  -0.674  0.00  0.00     0.058 A 
ATOM      4  S   UNL d   1       1.682   1.421  -0.877  0.00  0.00    -0.085 SA
ATOM      5  C   UNL d   1       0.407   0.571  -1.641  0.00  0.00     0.016 A 
ATOM      6  C   UNL d   1      -0.792   1.118  -2.141  0.00  0.00     0.021 A 
ATOM      7  C   UNL d   1       0.686  -0.792  -1.724  0.00  0.00    -0.010 A 
ATOM      8  C   UNL d   1      -1.726   0.270  -2.741  0.00  0.00     0.025 A 
ATOM      9  C   UNL d   1      -1.472  -1.089  -2.834  0.00  0.00     0.035 A 
ATOM     10  C   UNL d   1      -0.286  -1.629  -2.334  0.00  0.00     0.037 A 
ATOM     11 CL   UNL d   1      -2.629  -2.125  -3.578  0.00  0.00    -0.084 Cl
ATOM     12  C   UNL d   1       1.980  -1.116  -1.148  0.00  0.00    -0.030 A 
ATOM     13  C   UNL d   1       2.502  -2.524  -1.121  0.00  0.00     0.050 C 
ENDBRANCH   1   3
BRANCH   1  14
ATOM     14  C   UNL d   1       4.676   1.449   0.008  0.00  0.00     0.095 C 
BRANCH  14  15
ATOM     15  C   UNL d   1       6.183   1.222   0.085  0.00  0.00     0.087 C 
BRANCH  15  16
ATOM     16  S   UNL d   1       7.076   2.800   0.286  0.00  0.00    -0.129 SA
BRANCH  16  17
ATOM     17  C   UNL d   1       8.774   2.253   0.069  0.00  0.00     0.007 A 
ATOM     18  C   UNL d   1       9.446   2.734  -1.071  0.00  0.00     0.027 A 
ATOM     19  C   UNL d   1      10.793   2.418  -1.326  0.00  0.00    -0.039 A 
ATOM     20  C   UNL d   1      11.456   2.925  -2.575  0.00  0.00     0.050 C 
ATOM     21  C   UNL d   1      11.474   1.617  -0.405  0.00  0.00     0.040 A 
ATOM     22  C   UNL d   1      10.821   1.137   0.732  0.00  0.00     0.032 A 
ATOM     23 CL   UNL d   1      13.132   1.188  -0.625  0.00  0.00    -0.084 Cl
ATOM     24  C   UNL d   1       9.472   1.448   0.989  0.00  0.00    -0.044 A 
ATOM     25  C   UNL d   1       8.851   0.880   2.236  0.00  0.00     0.049 C 
ENDBRANCH  16  17
ENDBRANCH  15  16
ENDBRANCH  14  15
ENDBRANCH   1  14
TORSDOF 5
