REMARK  1 active torsions:
REMARK  status: ('A' for Active; 'I' for Inactive)
REMARK    1  A    between atoms: C_3  and  C_1 
ROOT
ATOM      1  C   UNL d   1       2.136  -1.286  -0.004  0.00  0.00     0.013 C 
ATOM      2  C   UNL d   1       0.629  -1.186   0.269  0.00  0.00    -0.034 A 
ATOM      3  C   UNL d   1      -0.046   0.058   0.286  0.00  0.00    -0.011 A 
ATOM      4  C   UNL d   1       2.142   1.404   0.114  0.00  0.00    -0.018 C 
ATOM      5  C   UNL d   1       2.910   0.059   0.076  0.00  0.00     0.032 C 
ATOM      6  C   UNL d   1       0.621   1.297   0.158  0.00  0.00    -0.038 A 
ATOM      7  C   UNL d   1      -1.474   0.052   0.329  0.00  0.00    -0.025 A 
ATOM      8  C   UNL d   1       2.693  -2.147   1.192  0.00  0.00     0.025 C 
ATOM      9  C   UNL d   1      -0.127  -2.381   0.371  0.00  0.00     0.009 A 
ATOM     10  C   UNL d   1       2.599   2.161   1.390  0.00  0.00     0.020 C 
ATOM     11  C   UNL d   1       2.599   2.221  -1.121  0.00  0.00     0.020 C 
ATOM     12  C   UNL d   1      -0.148   2.481   0.072  0.00  0.00     0.009 A 
ATOM     13  C   UNL d   1      -1.513  -2.364   0.459  0.00  0.00     0.002 A 
ATOM     14  C   UNL d   1      -1.537   2.457   0.090  0.00  0.00     0.001 A 
ATOM     15  C   UNL d   1      -2.195   1.246   0.223  0.00  0.00     0.012 A 
ATOM     16  C   UNL d   1      -2.182  -1.151   0.422  0.00  0.00     0.012 A 
ENDROOT
BRANCH   1  17
ATOM     17  C   UNL d   1       2.488  -1.960  -1.391  0.00  0.00    -0.034 C 
ATOM     18  C   UNL d   1       1.649  -1.940  -2.570  0.00  0.00    -0.018 C 
ATOM     19  C   UNL d   1       2.005  -2.754  -3.678  0.00  0.00    -0.025 C 
ATOM     20  C   UNL d   1       0.475  -1.168  -2.760  0.00  0.00     0.013 C 
ATOM     21  C   UNL d   1       1.138  -2.898  -4.784  0.00  0.00     0.012 C 
ATOM     22  C   UNL d   1       3.226  -3.426  -3.703  0.00  0.00     0.012 C 
ATOM     23  C   UNL d   1      -0.072  -2.217  -4.849  0.00  0.00     0.001 C 
ATOM     24  C   UNL d   1      -0.388  -1.322  -3.848  0.00  0.00     0.001 C 
ATOM     25  C   UNL d   1       4.098  -3.345  -2.629  0.00  0.00     0.002 C 
ATOM     26  C   UNL d   1       3.726  -2.642  -1.488  0.00  0.00     0.009 C 
ENDBRANCH   1  17
TORSDOF 1
