REMARK  4 active torsions:
REMARK  status: ('A' for Active; 'I' for Inactive)
REMARK    1  A    between atoms: C_2  and  C_1 
REMARK    2  A    between atoms: C_15  and  N_7 
REMARK    3  A    between atoms: S_16  and  C_8 
REMARK    4  A    between atoms: C_14  and  C_12 
ROOT
ATOM      1  C   UNL d   1      -0.387   1.255  -0.048  0.00  0.00     0.062 A 
ATOM      2  N   UNL d   1       0.979  -0.561   0.072  0.00  0.00    -0.287 N 
ATOM      3  HN  UNL d   1       1.806  -1.153   0.152  1.00  0.00     0.188 HD
ATOM      4  N   UNL d   1      -0.315  -0.958  -0.031  0.00  0.00    -0.266 N 
ATOM      5  C   UNL d   1       0.934   0.776   0.046  0.00  0.00     0.100 A 
ATOM      6  C   UNL d   1      -1.163   0.120  -0.108  0.00  0.00     0.135 A 
ENDROOT
BRANCH   1   7
ATOM      7  C   UNL d   1      -0.881   2.625  -0.055  0.00  0.00     0.142 A 
ATOM      8  N   UNL d   1      -2.239   2.842  -0.112  0.00  0.00    -0.318 N 
ATOM      9  C   UNL d   1      -2.319   4.149   0.003  0.00  0.00     0.182 A 
ATOM     10  HN  UNL d   1      -2.992   2.161  -0.216  1.00  0.00     0.169 HD
ATOM     11  O   UNL d   1      -1.098   4.754   0.091  0.00  0.00    -0.217 OA
ATOM     12  N   UNL d   1      -0.146   3.736   0.052  0.00  0.00    -0.242 N 
ATOM     13  HN  UNL d   1       0.870   3.819   0.095  1.00  0.00     0.196 HD
BRANCH   9  14
ATOM     14  C   UNL d   1      -3.497   5.000   0.115  0.00  0.00     0.017 A 
ATOM     15  C   UNL d   1      -4.775   4.432  -0.019  0.00  0.00     0.017 A 
ATOM     16  C   UNL d   1      -5.926   5.207   0.154  0.00  0.00     0.025 A 
ATOM     17  C   UNL d   1      -5.807   6.560   0.463  0.00  0.00     0.034 A 
ATOM     18  C   UNL d   1      -4.550   7.146   0.581  0.00  0.00     0.025 A 
ATOM     19 CL   UNL d   1      -7.220   7.507   0.715  0.00  0.00    -0.084 Cl
ATOM     20  C   UNL d   1      -3.399   6.370   0.404  0.00  0.00     0.017 A 
ENDBRANCH   9  14
ENDBRANCH   1   7
BRANCH   5  21
ATOM     21  S   UNL d   1       2.399   1.734   0.119  0.00  0.00    -0.114 SA
ATOM     22  C   UNL d   1       3.667   0.491   0.418  0.00  0.00     0.097 C 
ENDBRANCH   5  21
BRANCH   4  23
ATOM     23  C   UNL d   1      -0.666  -2.338  -0.046  0.00  0.00     0.056 A 
ATOM     24  C   UNL d   1      -1.995  -2.746  -0.238  0.00  0.00     0.031 A 
ATOM     25  C   UNL d   1      -2.317  -4.107  -0.256  0.00  0.00     0.002 A 
ATOM     26  C   UNL d   1      -1.320  -5.066  -0.079  0.00  0.00     0.000 A 
ATOM     27  C   UNL d   1      -0.000  -4.667   0.118  0.00  0.00     0.002 A 
ATOM     28  C   UNL d   1       0.331  -3.309   0.131  0.00  0.00     0.031 A 
ENDBRANCH   4  23
TORSDOF 4
