REMARK  3 active torsions:
REMARK  status: ('A' for Active; 'I' for Inactive)
REMARK    1  A    between atoms: S_16  and  C_3 
REMARK    2  A    between atoms: C_14  and  C_17 
REMARK       I    between atoms: N_15  and  C_14 
REMARK    3  A    between atoms: C_17  and  S_16 
ROOT
ATOM      1  N   UNL d   1       1.261   0.393  -0.610  0.00  0.00    -0.120 N 
ATOM      2  C   UNL d   1       2.094  -0.708  -0.499  0.00  0.00     0.720 A 
ATOM      3  C   UNL d   1       2.069   1.476  -0.321  0.00  0.00     0.183 A 
ATOM      4  N   UNL d   1       3.273  -0.309  -0.059  0.00  0.00    -0.128 N 
ATOM      5  HN  UNL d   1       4.063  -0.916   0.162  1.00  0.00     0.205 HD
ATOM      6  N   UNL d   1       1.660  -1.957  -0.814  0.00  0.00    -0.130 N 
ATOM      7  HN  UNL d   1       2.309  -2.739  -0.726  1.00  0.00     0.205 HD
ATOM      8  N   UNL d   1       3.257   1.059   0.052  0.00  0.00    -0.265 N 
ATOM      9  HN  UNL d   1       4.030   1.647   0.367  1.00  0.00     0.189 HD
ATOM     10  N   UNL d   1       0.489  -2.183  -1.210  0.00  0.00    -0.284 N 
ATOM     11  HN  UNL d   1       0.210  -3.124  -1.489  1.00  0.00     0.187 HD
ATOM     12  C   UNL d   1      -0.091   0.211  -0.962  0.00  0.00     0.087 A 
ATOM     13  C   UNL d   1      -0.435  -1.118  -1.263  0.00  0.00     0.076 A 
ATOM     14  C   UNL d   1      -1.057   1.221  -0.988  0.00  0.00     0.033 A 
ATOM     15  C   UNL d   1      -1.757  -1.410  -1.626  0.00  0.00     0.033 A 
ATOM     16  C   UNL d   1      -2.374   0.903  -1.344  0.00  0.00     0.002 A 
ATOM     17  C   UNL d   1      -2.722  -0.405  -1.668  0.00  0.00     0.002 A 
ENDROOT
BRANCH   3  18
ATOM     18  S   UNL d   1       1.636   3.134  -0.522  0.00  0.00    -0.082 SA
BRANCH  18  19
ATOM     19  C   UNL d   1       3.131   4.066  -0.018  0.00  0.00     0.185 C 
BRANCH  19  20
ATOM     20  C   UNL d   1       2.868   5.575  -0.178  0.00  0.00     0.229 C 
ATOM     21  N   UNL d   1       3.853   6.472   0.213  0.00  0.00    -0.347 N 
ATOM     22  C   UNL d   1       5.148   6.167   0.827  0.00  0.00     0.152 C 
ATOM     23  C   UNL d   1       3.562   7.911   0.174  0.00  0.00     0.152 C 
ATOM     24  C   UNL d   1       5.249   6.838   2.208  0.00  0.00     0.187 C 
ATOM     25  O   UNL d   1       4.981   8.249   2.130  0.00  0.00    -0.388 OA
ATOM     26  C   UNL d   1       3.672   8.495   1.585  0.00  0.00     0.187 C 
ATOM     27  O   UNL d   1       1.805   6.002  -0.634  0.00  0.00    -0.273 OA
ENDBRANCH  19  20
ENDBRANCH  18  19
ENDBRANCH   3  18
TORSDOF 3
