REMARK  4 active torsions:
REMARK  status: ('A' for Active; 'I' for Inactive)
REMARK    1  A    between atoms: N_7  and  C_1 
REMARK    2  A    between atoms: N_9  and  C_1 
REMARK    3  A    between atoms: C_11  and  N_7 
REMARK    4  A    between atoms: C_14  and  N_9 
ROOT
ATOM      1  N   UNL d   1       0.465  -1.081  -0.348  0.00  0.00    -0.333 N 
ATOM      2  H   UNL d   1      -0.525  -1.020  -0.561  0.00  0.00     0.168 HD
ENDROOT
BRANCH   1   3
ATOM      3  C   UNL d   1       0.985   0.110   0.111  0.00  0.00     0.176 C 
ATOM      4  S   UNL d   1       2.451   0.796  -0.310  0.00  0.00    -0.041 SA
BRANCH   3   5
ATOM      5  N   UNL d   1       0.110   0.858   0.864  0.00  0.00    -0.333 N 
ATOM      6  H   UNL d   1       0.310   1.852   0.889  0.00  0.00     0.168 HD
BRANCH   5   7
ATOM      7  C   UNL d   1      -0.842   0.385   1.790  0.00  0.00     0.034 A 
ATOM      8  C   UNL d   1      -0.765  -0.895   2.356  0.00  0.00     0.032 A 
ATOM      9  C   UNL d   1      -1.693  -1.298   3.317  0.00  0.00     0.044 A 
ATOM     10  C   UNL d   1      -2.701  -0.426   3.699  0.00  0.00     0.116 A 
ATOM     11  C   UNL d   1      -2.788   0.849   3.154  0.00  0.00     0.044 A 
ATOM     12  F   UNL d   1      -3.598  -0.814   4.616  0.00  0.00    -0.206 F 
ATOM     13  C   UNL d   1      -1.844   1.264   2.211  0.00  0.00     0.032 A 
ENDBRANCH   5   7
ENDBRANCH   3   5
ENDBRANCH   1   3
BRANCH   1  14
ATOM     14  C   UNL d   1       1.137  -2.218  -0.827  0.00  0.00     0.036 A 
ATOM     15  C   UNL d   1       0.497  -2.981  -1.818  0.00  0.00     0.061 A 
ATOM     16  C   UNL d   1       1.163  -4.127  -2.271  0.00  0.00     0.061 A 
ATOM     17  N   UNL d   1       0.851  -5.037  -3.246  0.00  0.00    -0.300 N 
ATOM     18  C   UNL d   1       2.375  -4.554  -1.746  0.00  0.00     0.009 A 
ATOM     19  N   UNL d   1       1.753  -6.027  -3.382  0.00  0.00    -0.311 N 
ATOM     20  H   UNL d   1       0.044  -5.039  -3.859  0.00  0.00     0.187 HD
ATOM     21  C   UNL d   1       2.679  -5.730  -2.467  0.00  0.00     0.120 A 
ATOM     22  HN  UNL d   1       1.734  -6.816  -4.030  1.00  0.00     0.186 HD
ATOM     23  C   UNL d   1       2.976  -3.814  -0.716  0.00  0.00     0.017 A 
ATOM     24  C   UNL d   1       2.348  -2.640  -0.276  0.00  0.00     0.030 A 
ENDBRANCH   1  14
TORSDOF 4
