REMARK  5 active torsions:
REMARK  status: ('A' for Active; 'I' for Inactive)
REMARK    1  A    between atoms: C_2  and  C_1 
REMARK       I    between atoms: N_9  and  C_2 
REMARK    2  A    between atoms: C_14  and  C_3 
REMARK    3  A    between atoms: C_4  and  C_10 
REMARK    4  A    between atoms: N_13  and  N_9 
REMARK    5  A    between atoms: N_12  and  C_14 
ROOT
ATOM      1  C   UNL d   1       2.062   1.284   0.024  0.00  0.00     0.050 A 
ATOM      2  N   UNL d   1       2.047  -1.147  -0.024  0.00  0.00    -0.373 N 
ATOM      3  HN  UNL d   1       2.551  -2.033  -0.022  1.00  0.00     0.164 HD
ATOM      4  C   UNL d   1       0.666   1.296  -0.036  0.00  0.00     0.040 A 
ATOM      5  C   UNL d   1      -0.030   0.086  -0.089  0.00  0.00     0.034 A 
ATOM      6  C   UNL d   1       2.697   0.044   0.025  0.00  0.00     0.104 A 
ATOM      7  C   UNL d   1       0.697  -1.097  -0.075  0.00  0.00     0.108 A 
ENDROOT
BRANCH   1   8
ATOM      8  C   UNL d   1       2.912   2.500   0.127  0.00  0.00     0.267 C 
ATOM      9  O   UNL d   1       4.131   2.394   0.247  0.00  0.00    -0.266 OA
ATOM     10  N   UNL d   1       2.280   3.740   0.094  0.00  0.00    -0.290 N 
ATOM     11  H   UNL d   1       1.299   3.846  -0.142  0.00  0.00     0.183 HD
BRANCH  10  12
ATOM     12  N   UNL d   1       3.070   4.910   0.163  0.00  0.00    -0.247 NA
ATOM     13  H   UNL d   1       4.051   4.609   0.055  0.00  0.00     0.143 HD
ATOM     14  H   UNL d   1       3.031   5.260   1.124  0.00  0.00     0.143 HD
ENDBRANCH  10  12
ENDBRANCH   1   8
BRANCH   5  15
ATOM     15  C   UNL d   1      -1.457   0.065  -0.115  0.00  0.00    -0.064 C 
ATOM     16  C   UNL d   1      -2.656   0.029  -0.079  0.00  0.00    -0.071 C 
BRANCH  16  17
ATOM     17  C   UNL d   1      -4.122  -0.032   0.042  0.00  0.00     0.365 C 
BRANCH  17  18
ATOM     18  N   UNL d   1      -4.558  -1.139   0.907  0.00  0.00     0.090 N 
ATOM     19  C   UNL d   1      -4.069  -0.990   2.281  0.00  0.00     0.310 C 
ATOM     20  C   UNL d   1      -6.021  -1.215   0.914  0.00  0.00     0.310 C 
ENDBRANCH  17  18
ENDBRANCH  16  17
ENDBRANCH   5  15
TORSDOF 5
