REMARK  3 active torsions:
REMARK  status: ('A' for Active; 'I' for Inactive)
REMARK    1  A    between atoms: O_5  and  C_1 
REMARK    2  A    between atoms: C_9  and  O_5 
REMARK    3  A    between atoms: C_19  and  C_14 
ROOT
ATOM      1  N   UNL d   1      -6.646  -3.656   1.147  0.00  0.00    -0.197 NA
ATOM      2  C   UNL d   1      -5.859  -4.307   0.581  0.00  0.00     0.063 C 
ATOM      3  C   UNL d   1      -4.851  -5.146  -0.138  0.00  0.00     0.162 C 
ENDROOT
BRANCH   3   4
ATOM      4  C   UNL d   1      -3.492  -4.471  -0.196  0.00  0.00    -0.045 C 
ATOM      5  C   UNL d   1      -2.603  -4.587   0.881  0.00  0.00     0.011 C 
ATOM      6  C   UNL d   1      -1.462  -3.783   0.941  0.00  0.00     0.038 C 
ATOM      7  C   UNL d   1      -1.187  -2.861  -0.073  0.00  0.00     0.076 C 
ATOM      8  C   UNL d   1      -1.974  -2.860  -1.223  0.00  0.00     0.038 C 
ATOM      9  C   UNL d   1      -3.143  -3.634  -1.269  0.00  0.00     0.011 C 
BRANCH   7  10
ATOM     10  O   UNL d   1      -0.118  -2.039   0.176  0.00  0.00    -0.307 OA
BRANCH  10  11
ATOM     11  C   UNL d   1      -0.009  -0.771  -0.353  0.00  0.00     0.122 A 
ATOM     12  C   UNL d   1      -1.037   0.169  -0.511  0.00  0.00     0.085 A 
ATOM     13 CL   UNL d   1      -2.663  -0.035   0.030  0.00  0.00    -0.080 Cl
ATOM     14  C   UNL d   1      -0.718   1.409  -1.063  0.00  0.00     0.114 A 
ATOM     15  N   UNL d   1       0.535   1.805  -1.388  0.00  0.00    -0.372 N 
ATOM     16  C   UNL d   1       1.522   0.921  -1.132  0.00  0.00     0.114 A 
ATOM     17  HN  UNL d   1       0.722   2.718  -1.802  1.00  0.00     0.164 HD
ATOM     18  C   UNL d   1       1.304  -0.357  -0.632  0.00  0.00     0.085 A 
ATOM     19 CL   UNL d   1       2.672  -1.367  -0.328  0.00  0.00    -0.080 Cl
ENDBRANCH  10  11
ENDBRANCH   7  10
ENDBRANCH   3   4
TORSDOF 3
