REMARK  7 active torsions:
REMARK  status: ('A' for Active; 'I' for Inactive)
REMARK    1  A    between atoms: C_4  and  C_1 
REMARK    2  A    between atoms: C_10  and  C_2 
REMARK    3  A    between atoms: N_11  and  C_3 
REMARK    4  A    between atoms: N_14  and  C_5 
REMARK    5  A    between atoms: O_17  and  C_10 
REMARK    6  A    between atoms: C_16  and  N_11 
REMARK    7  A    between atoms: C_20  and  O_17 
ROOT
ATOM      1  C   UNL d   1      -0.571  -1.225  -0.085  0.00  0.00     0.070 A 
ATOM      2  C   UNL d   1      -0.265   1.089  -0.119  0.00  0.00     0.109 A 
ATOM      3  C   UNL d   1       0.812  -1.163  -0.017  0.00  0.00     0.091 A 
ATOM      4  C   UNL d   1      -1.194   0.064  -0.159  0.00  0.00     0.066 A 
ATOM      5  S   UNL d   1       1.330   0.474  -0.048  0.00  0.00    -0.063 SA
ENDROOT
BRANCH   1   6
ATOM      6  C   UNL d   1      -1.312  -2.525  -0.088  0.00  0.00     0.121 A 
ATOM      7  N   UNL d   1      -0.897  -3.645   0.471  0.00  0.00    -0.340 N 
ATOM      8  C   UNL d   1      -1.939  -4.531   0.322  0.00  0.00     0.060 A 
ATOM      9  HN  UNL d   1       0.003  -3.818   0.918  1.00  0.00     0.167 HD
ATOM     10  C   UNL d   1      -2.092  -5.836   0.812  0.00  0.00     0.032 A 
ATOM     11  C   UNL d   1      -2.955  -3.977  -0.449  0.00  0.00     0.060 A 
ATOM     12  C   UNL d   1      -3.246  -6.551   0.465  0.00  0.00     0.002 A 
ATOM     13  C   UNL d   1      -4.223  -5.983  -0.357  0.00  0.00     0.002 A 
ATOM     14  C   UNL d   1      -4.103  -4.672  -0.829  0.00  0.00     0.032 A 
ATOM     15  N   UNL d   1      -2.534  -2.698  -0.683  0.00  0.00    -0.340 N 
ATOM     16  H   UNL d   1      -3.014  -1.987  -1.216  0.00  0.00     0.167 HD
ENDBRANCH   1   6
BRANCH   3  17
ATOM     17  N   UNL d   1       1.673  -2.222  -0.077  0.00  0.00    -0.350 N 
ATOM     18  H   UNL d   1       1.248  -3.141  -0.223  0.00  0.00     0.166 HD
BRANCH  17  19
ATOM     19  C   UNL d   1       2.937  -2.350   0.537  0.00  0.00     0.032 A 
ATOM     20  C   UNL d   1       3.290  -1.686   1.717  0.00  0.00     0.029 A 
ATOM     21  C   UNL d   1       4.561  -1.845   2.277  0.00  0.00     0.002 A 
ATOM     22  C   UNL d   1       5.498  -2.671   1.661  0.00  0.00     0.000 A 
ATOM     23  C   UNL d   1       5.161  -3.346   0.491  0.00  0.00     0.002 A 
ATOM     24  C   UNL d   1       3.886  -3.191  -0.061  0.00  0.00     0.029 A 
ENDBRANCH  17  19
ENDBRANCH   3  17
BRANCH   4  25
ATOM     25  N   UNL d   1      -2.547   0.251  -0.186  0.00  0.00    -0.397 N 
ATOM     26  H   UNL d   1      -2.885   1.211  -0.070  0.00  0.00     0.156 HD
ATOM     27  H   UNL d   1      -3.137  -0.379   0.354  0.00  0.00     0.156 HD
ENDBRANCH   4  25
BRANCH   2  28
ATOM     28  C   UNL d   1      -0.436   2.534  -0.048  0.00  0.00     0.302 C 
ATOM     29  O   UNL d   1       0.457   3.364   0.051  0.00  0.00    -0.259 OA
BRANCH  28  30
ATOM     30  O   UNL d   1      -1.766   2.842   0.015  0.00  0.00    -0.317 OA
BRANCH  30  31
ATOM     31  C   UNL d   1      -2.066   4.101   0.634  0.00  0.00     0.174 C 
ATOM     32  C   UNL d   1      -2.153   3.861   2.130  0.00  0.00     0.034 C 
ENDBRANCH  30  31
ENDBRANCH  28  30
ENDBRANCH   2  28
TORSDOF 7
