REMARK  9 active torsions:
REMARK  status: ('A' for Active; 'I' for Inactive)
REMARK       I    between atoms: N_2  and  C_1 
REMARK       I    between atoms: N_9  and  C_1 
REMARK    1  A    between atoms: C_10  and  N_2 
REMARK    2  A    between atoms: C_3  and  C_20 
REMARK    3  A    between atoms: C_21  and  N_9 
REMARK    4  A    between atoms: O_11  and  C_12 
REMARK    5  A    between atoms: C_13  and  O_11 
REMARK    6  A    between atoms: C_19  and  C_13 
REMARK    7  A    between atoms: S_14  and  C_22 
REMARK    8  A    between atoms: C_20  and  S_14 
REMARK    9  A    between atoms: C_22  and  C_21 
ROOT
ATOM      1  C   UNL d   1       0.618   0.195   0.764  0.00  0.00     0.320 C 
ATOM      2  N   UNL d   1       0.308  -1.126   0.526  0.00  0.00    -0.309 N 
ATOM      3  O   UNL d   1       1.310   0.624   1.683  0.00  0.00    -0.247 OA
ATOM      4  N   UNL d   1       0.063   1.049  -0.159  0.00  0.00    -0.342 N 
ATOM      5  H   UNL d   1      -0.289  -1.313  -0.264  0.00  0.00     0.170 HD
ATOM      6  H   UNL d   1      -0.553   0.703  -0.880  0.00  0.00     0.164 HD
ENDROOT
BRANCH   2   7
ATOM      7  C   UNL d   1       0.795  -2.252   1.233  0.00  0.00     0.036 A 
ATOM      8  C   UNL d   1       1.667  -2.162   2.321  0.00  0.00     0.032 A 
ATOM      9  C   UNL d   1       2.233  -3.307   2.893  0.00  0.00     0.039 A 
ATOM     10  C   UNL d   1       1.925  -4.568   2.392  0.00  0.00     0.069 A 
ATOM     11  C   UNL d   1       0.971  -4.678   1.380  0.00  0.00     0.039 A 
ATOM     12  C   UNL d   1       0.415  -3.528   0.797  0.00  0.00     0.032 A 
BRANCH  10  13
ATOM     13  O   UNL d   1       2.470  -5.739   2.848  0.00  0.00    -0.347 OA
BRANCH  13  14
ATOM     14  C   UNL d   1       3.848  -5.643   3.231  0.00  0.00     0.214 C 
BRANCH  14  15
ATOM     15  C   UNL d   1       4.382  -7.011   3.589  0.00  0.00    -0.034 A 
ATOM     16  C   UNL d   1       5.492  -7.555   2.926  0.00  0.00     0.009 A 
ATOM     17  C   UNL d   1       6.018  -8.789   3.317  0.00  0.00     0.001 A 
ATOM     18  C   UNL d   1       5.442  -9.492   4.374  0.00  0.00     0.000 A 
ATOM     19  C   UNL d   1       4.334  -8.966   5.035  0.00  0.00     0.001 A 
ATOM     20  C   UNL d   1       3.806  -7.735   4.644  0.00  0.00     0.009 A 
ENDBRANCH  14  15
ENDBRANCH  13  14
ENDBRANCH  10  13
ENDBRANCH   2   7
BRANCH   4  21
ATOM     21  C   UNL d   1       0.157   2.488   0.046  0.00  0.00     0.134 C 
BRANCH  21  22
ATOM     22  C   UNL d   1      -0.658   3.316  -0.944  0.00  0.00     0.094 C 
BRANCH  22  23
ATOM     23  S   UNL d   1      -2.439   2.909  -0.791  0.00  0.00    -0.161 SA
BRANCH  23  24
ATOM     24  C   UNL d   1      -3.139   4.152  -1.919  0.00  0.00     0.139 C 
BRANCH  24  25
ATOM     25  C   UNL d   1      -2.724   3.915  -3.321  0.00  0.00     0.061 A 
ATOM     26  O   UNL d   1      -1.677   4.660  -3.782  0.00  0.00    -0.326 OA
ATOM     27  C   UNL d   1      -1.453   4.273  -5.064  0.00  0.00     0.142 A 
ATOM     28  C   UNL d   1      -2.347   3.296  -5.438  0.00  0.00     0.027 A 
ATOM     29  C   UNL d   1      -3.171   3.065  -4.311  0.00  0.00     0.035 A 
ENDBRANCH  24  25
ENDBRANCH  23  24
ENDBRANCH  22  23
ENDBRANCH  21  22
ENDBRANCH   4  21
TORSDOF 9
