REMARK  1 active torsions:
REMARK  status: ('A' for Active; 'I' for Inactive)
REMARK    1  A    between atoms: O_11  and  N_9 
ROOT
ATOM      1  C   UNL d   1      -2.222   1.087   0.359  0.00  0.00     0.105 A 
ATOM      2  N   UNL d   1      -3.467   1.548   0.216  0.00  0.00    -0.238 N 
ATOM      3  HN  UNL d   1      -3.758   2.436  -0.191  1.00  0.00     0.197 HD
ATOM      4  O   UNL d   1      -4.284   0.547   0.748  0.00  0.00    -0.156 OA
ATOM      5  C   UNL d   1      -2.272  -0.181   0.964  0.00  0.00     0.065 A 
ATOM      6  N   UNL d   1      -3.528  -0.537   1.211  0.00  0.00    -0.244 N 
ATOM      7  HN  UNL d   1      -3.864  -1.400   1.638  1.00  0.00     0.196 HD
ATOM      8  C   UNL d   1      -0.964   1.704  -0.036  0.00  0.00     0.062 C 
ATOM      9  N   UNL d   1      -0.767   2.928  -0.431  0.00  0.00    -0.271 N 
ATOM     10  HN  UNL d   1       0.143   3.282  -0.727  1.00  0.00     0.194 HD
ATOM     11  C   UNL d   1      -1.086  -1.016   1.267  0.00  0.00     0.062 C 
ATOM     12  C   UNL d   1       0.249   0.770   0.017  0.00  0.00     0.062 C 
ATOM     13  C   UNL d   1       0.191  -0.154   1.244  0.00  0.00     0.012 C 
ENDROOT
BRANCH   9  14
ATOM     14  O   UNL d   1      -1.925   3.708  -0.408  0.00  0.00    -0.290 OA
ATOM     15  H   UNL d   1      -1.611   4.575  -0.721  0.00  0.00     0.244 HD
ENDBRANCH   9  14
TORSDOF 1
