REMARK  3 active torsions:
REMARK  status: ('A' for Active; 'I' for Inactive)
REMARK       I    between atoms: N_3  and  C_1 
REMARK       I    between atoms: N_4  and  C_1 
REMARK    1  A    between atoms: C_2  and  N_3 
REMARK    2  A    between atoms: C_8  and  N_4 
REMARK    3  A    between atoms: C_9  and  C_8 
ROOT
ATOM      1  C   UNL d   1       1.013  -0.007   0.019  0.00  0.00     0.321 C 
ATOM      2  N   UNL d   1       0.353   0.971   0.738  0.00  0.00    -0.308 N 
ATOM      3  N   UNL d   1       0.121  -0.933  -0.479  0.00  0.00    -0.339 N 
ATOM      4  O   UNL d   1       2.223  -0.097  -0.138  0.00  0.00    -0.247 OA
ATOM      5  H   UNL d   1      -0.470   0.611   1.190  0.00  0.00     0.170 HD
ATOM      6  H   UNL d   1      -0.838  -0.636  -0.592  0.00  0.00     0.164 HD
ENDROOT
BRANCH   2   7
ATOM      7  C   UNL d   1       1.027   2.032   1.393  0.00  0.00     0.048 A 
ATOM      8  C   UNL d   1       1.924   2.876   0.697  0.00  0.00    -0.035 A 
ATOM      9  C   UNL d   1       2.602   3.891   1.398  0.00  0.00     0.009 A 
ATOM     10  C   UNL d   1       2.188   2.796  -0.784  0.00  0.00     0.050 C 
ATOM     11  C   UNL d   1       2.367   4.109   2.749  0.00  0.00     0.001 A 
ATOM     12  C   UNL d   1       1.443   3.317   3.420  0.00  0.00     0.009 A 
ATOM     13  C   UNL d   1       0.758   2.279   2.760  0.00  0.00    -0.035 A 
ATOM     14  C   UNL d   1      -0.166   1.454   3.618  0.00  0.00     0.050 C 
ENDBRANCH   2   7
BRANCH   3  15
ATOM     15  C   UNL d   1       0.564  -2.044  -1.292  0.00  0.00     0.162 C 
BRANCH  15  16
ATOM     16  C   UNL d   1       0.056  -1.939  -2.709  0.00  0.00    -0.040 A 
ATOM     17  C   UNL d   1       0.454  -0.874  -3.530  0.00  0.00     0.009 A 
ATOM     18  C   UNL d   1       0.003  -0.787  -4.849  0.00  0.00     0.001 A 
ATOM     19  C   UNL d   1      -0.844  -1.767  -5.362  0.00  0.00     0.000 A 
ATOM     20  C   UNL d   1      -1.244  -2.831  -4.559  0.00  0.00     0.001 A 
ATOM     21  C   UNL d   1      -0.797  -2.918  -3.238  0.00  0.00     0.009 A 
ENDBRANCH  15  16
ENDBRANCH   3  15
TORSDOF 3
