REMARK  5 active torsions:
REMARK  status: ('A' for Active; 'I' for Inactive)
REMARK       I    between atoms: N_2  and  C_1 
REMARK    1  A    between atoms: C_3  and  C_1 
REMARK    2  A    between atoms: N_4  and  N_2 
REMARK    3  A    between atoms: C_8  and  N_4 
REMARK    4  A    between atoms: C_17  and  C_12 
REMARK    5  A    between atoms: C_19  and  C_17 
ROOT
ATOM      1  C   UNL d   1       0.966   0.038   0.266  0.00  0.00     0.266 C 
ATOM      2  N   UNL d   1       0.937   1.410   0.065  0.00  0.00    -0.283 N 
ATOM      3  O   UNL d   1       1.494  -0.492   1.243  0.00  0.00    -0.266 OA
ATOM      4  H   UNL d   1       0.907   1.760  -0.888  0.00  0.00     0.184 HD
ENDROOT
BRANCH   1   5
ATOM      5  C   UNL d   1       0.340  -0.786  -0.801  0.00  0.00     0.033 A 
ATOM      6  C   UNL d   1       0.820  -2.080  -1.027  0.00  0.00     0.017 A 
ATOM      7  C   UNL d   1       0.234  -2.885  -2.008  0.00  0.00     0.008 A 
ATOM      8  C   UNL d   1      -0.843  -2.409  -2.770  0.00  0.00    -0.058 A 
ATOM      9  C   UNL d   1      -1.330  -1.119  -2.523  0.00  0.00     0.008 A 
ATOM     10  C   UNL d   1      -0.742  -0.307  -1.550  0.00  0.00     0.017 A 
BRANCH   8  11
ATOM     11  C   UNL d   1      -1.476  -3.285  -3.825  0.00  0.00     0.038 C 
BRANCH  11  12
ATOM     12  C   UNL d   1      -1.432  -2.696  -5.239  0.00  0.00     0.000 C 
ATOM     13  C   UNL d   1      -0.015  -2.488  -5.756  0.00  0.00     0.005 C 
ENDBRANCH  11  12
ENDBRANCH   8  11
ENDBRANCH   1   5
BRANCH   2  14
ATOM     14  N   UNL d   1       1.731   2.173   0.934  0.00  0.00    -0.203 NA
ATOM     15  H   UNL d   1       2.008   1.631   1.763  0.00  0.00     0.153 HD
BRANCH  14  16
ATOM     16  C   UNL d   1       1.225   3.447   1.289  0.00  0.00     0.028 A 
ATOM     17  C   UNL d   1       0.156   4.079   0.635  0.00  0.00     0.032 A 
ATOM     18  C   UNL d   1      -0.229   5.391   0.961  0.00  0.00    -0.060 A 
ATOM     19  C   UNL d   1      -1.387   6.052   0.275  0.00  0.00     0.048 C 
ATOM     20  C   UNL d   1       0.490   6.092   1.935  0.00  0.00     0.007 A 
ATOM     21  C   UNL d   1       1.566   5.489   2.580  0.00  0.00     0.002 A 
ATOM     22  C   UNL d   1       1.928   4.180   2.257  0.00  0.00     0.025 A 
ENDBRANCH  14  16
ENDBRANCH   2  14
TORSDOF 5
