REMARK  3 active torsions:
REMARK  status: ('A' for Active; 'I' for Inactive)
REMARK    1  A    between atoms: C_5  and  C_1 
REMARK    2  A    between atoms: C_10  and  C_2 
REMARK    3  A    between atoms: O_15  and  N_11 
ROOT
ATOM      1  C   UNL d   1      -1.306  -0.861   0.122  0.00  0.00     0.082 A 
ATOM      2  C   UNL d   1       0.042  -1.325  -0.048  0.00  0.00     0.042 A 
ATOM      3  N   UNL d   1      -1.295   0.463   0.377  0.00  0.00    -0.259 N 
ATOM      4  HN  UNL d   1      -2.106   1.048   0.574  1.00  0.00     0.195 HD
ATOM      5  O   UNL d   1       0.007   0.874   0.322  0.00  0.00    -0.241 OA
ATOM      6  C   UNL d   1       0.818  -0.190   0.081  0.00  0.00     0.086 A 
ATOM      7  C   UNL d   1       2.259   0.121  -0.001  0.00  0.00     0.080 C 
ENDROOT
BRANCH   1   8
ATOM      8  C   UNL d   1      -2.579  -1.594   0.101  0.00  0.00     0.037 A 
ATOM      9  C   UNL d   1      -2.759  -2.803   0.813  0.00  0.00     0.048 A 
ATOM     10 CL   UNL d   1      -1.590  -3.445   1.918  0.00  0.00    -0.083 Cl
ATOM     11  C   UNL d   1      -3.956  -3.531   0.723  0.00  0.00     0.025 A 
ATOM     12  C   UNL d   1      -5.030  -3.041  -0.010  0.00  0.00     0.003 A 
ATOM     13  C   UNL d   1      -4.905  -1.821  -0.661  0.00  0.00     0.025 A 
ATOM     14  C   UNL d   1      -3.692  -1.112  -0.625  0.00  0.00     0.048 A 
ATOM     15 CL   UNL d   1      -3.675   0.355  -1.554  0.00  0.00    -0.083 Cl
ENDBRANCH   1   8
BRANCH   2  16
ATOM     16  C   UNL d   1       0.519  -2.667  -0.281  0.00  0.00     0.130 C 
ATOM     17  N   UNL d   1       1.676  -3.015   0.181  0.00  0.00    -0.280 N 
ATOM     18  HN  UNL d   1       2.339  -2.394   0.644  1.00  0.00     0.193 HD
BRANCH  17  19
ATOM     19  O   UNL d   1       1.873  -4.379  -0.055  0.00  0.00    -0.290 OA
ATOM     20  H   UNL d   1       2.649  -4.575   0.506  0.00  0.00     0.244 HD
ENDBRANCH  17  19
ENDBRANCH   2  16
TORSDOF 3
