REMARK  6 active torsions:
REMARK  status: ('A' for Active; 'I' for Inactive)
REMARK    1  A    between atoms: C_14  and  C_3 
REMARK    2  A    between atoms: O_15  and  C_6 
REMARK    3  A    between atoms: C_12  and  C_7 
REMARK    4  A    between atoms: C_11  and  C_13 
REMARK    5  A    between atoms: O_24  and  C_14 
REMARK    6  A    between atoms: C_16  and  O_15 
ROOT
ATOM      1  C   UNL d   1      -0.295  -0.756   0.033  0.00  0.00     0.069 A 
ATOM      2  C   UNL d   1      -0.225   0.682   0.063  0.00  0.00     0.033 A 
ATOM      3  C   UNL d   1      -1.588  -1.235   0.002  0.00  0.00     0.107 A 
ATOM      4  N   UNL d   1       0.825  -1.526   0.038  0.00  0.00    -0.350 N 
ATOM      5  HN  UNL d   1       0.801  -2.546   0.041  1.00  0.00     0.166 HD
ATOM      6  C   UNL d   1       0.951   1.436   0.112  0.00  0.00     0.091 A 
ATOM      7  C   UNL d   1       1.996  -0.800   0.041  0.00  0.00     0.119 A 
ATOM      8  S   UNL d   1      -2.709   0.083  -0.010  0.00  0.00    -0.093 SA
ATOM      9  C   UNL d   1       2.089   0.621   0.063  0.00  0.00     0.072 A 
ATOM     10  C   UNL d   1      -1.470   1.262   0.039  0.00  0.00     0.067 A 
ENDROOT
BRANCH   6  11
ATOM     11  O   UNL d   1       0.945   2.806   0.126  0.00  0.00    -0.309 OA
BRANCH  11  12
ATOM     12  C   UNL d   1       1.872   3.479   0.890  0.00  0.00     0.091 A 
ATOM     13  C   UNL d   1       2.335   4.721   0.428  0.00  0.00     0.081 A 
ATOM     14  C   UNL d   1       3.279   5.423   1.205  0.00  0.00     0.019 A 
ATOM     15  C   UNL d   1       3.731   4.914   2.422  0.00  0.00     0.001 A 
ATOM     16  C   UNL d   1       3.227   3.708   2.895  0.00  0.00     0.003 A 
ATOM     17  C   UNL d   1       2.291   3.001   2.142  0.00  0.00     0.038 A 
BRANCH  13  18
ATOM     18  C   UNL d   1       1.856   5.365  -0.850  0.00  0.00     0.420 C 
ATOM     19  F   UNL d   1       0.973   4.638  -1.585  0.00  0.00    -0.166 F 
ATOM     20  F   UNL d   1       1.239   6.560  -0.614  0.00  0.00    -0.166 F 
ATOM     21  F   UNL d   1       2.888   5.651  -1.695  0.00  0.00    -0.166 F 
ENDBRANCH  13  18
ENDBRANCH  11  12
ENDBRANCH   6  11
BRANCH   7  22
ATOM     22  C   UNL d   1       3.317  -1.572   0.042  0.00  0.00     0.432 C 
ATOM     23  F   UNL d   1       3.185  -2.922  -0.083  0.00  0.00    -0.165 F 
ATOM     24  F   UNL d   1       4.145  -1.184  -0.971  0.00  0.00    -0.165 F 
ATOM     25  F   UNL d   1       4.028  -1.371   1.190  0.00  0.00    -0.165 F 
ENDBRANCH   7  22
BRANCH   3  26
ATOM     26  C   UNL d   1      -2.128  -2.580  -0.022  0.00  0.00     0.302 C 
ATOM     27  O   UNL d   1      -3.321  -2.870  -0.065  0.00  0.00    -0.259 OA
BRANCH  26  28
ATOM     28  O   UNL d   1      -1.137  -3.515   0.017  0.00  0.00    -0.322 OA
ATOM     29  C   UNL d   1      -1.604  -4.865   0.000  0.00  0.00     0.213 C 
ENDBRANCH  26  28
ENDBRANCH   3  26
TORSDOF 6
