REMARK  10 active torsions:
REMARK  status: ('A' for Active; 'I' for Inactive)
REMARK    1  A    between atoms: C_8  and  C_2 
REMARK    2  A    between atoms: S_10  and  C_5 
REMARK    3  A    between atoms: C_9  and  C_11 
REMARK    4  A    between atoms: C_11  and  S_10 
REMARK    5  A    between atoms: C_12  and  C_19 
REMARK    6  A    between atoms: C_25  and  C_13 
REMARK    7  A    between atoms: C_29  and  C_25 
REMARK    8  A    between atoms: C_32  and  C_29 
REMARK    9  A    between atoms: C_30  and  C_31 
REMARK   10  A    between atoms: C_31  and  C_32 
ROOT
ATOM      1  N   UNL d   1       0.667   0.095  -0.581  0.00  0.00    -0.315 N 
ATOM      2  C   UNL d   1      -0.030   1.171  -0.052  0.00  0.00     0.135 A 
ATOM      3  N   UNL d   1      -1.125   0.692   0.517  0.00  0.00    -0.283 N 
ATOM      4  HN  UNL d   1      -1.802   1.238   1.051  1.00  0.00     0.188 HD
ATOM      5  C   UNL d   1      -0.141  -1.008  -0.409  0.00  0.00     0.162 A 
ATOM      6  N   UNL d   1      -1.204  -0.662   0.275  0.00  0.00    -0.278 N 
ATOM      7  HN  UNL d   1      -1.956  -1.283   0.574  1.00  0.00     0.189 HD
ATOM      8  C   UNL d   1       2.000   0.102  -1.129  0.00  0.00     0.160 C 
ENDROOT
BRANCH   2   9
ATOM      9  C   UNL d   1       0.358   2.590  -0.058  0.00  0.00     0.026 A 
ATOM     10  C   UNL d   1       1.072   3.193  -1.105  0.00  0.00     0.038 A 
ATOM     11  C   UNL d   1       1.481   4.525  -1.011  0.00  0.00     0.034 A 
ATOM     12  C   UNL d   1       1.099   5.248   0.104  0.00  0.00     0.108 A 
ATOM     13  N   UNL d   1       0.356   4.733   1.112  0.00  0.00    -0.373 N 
ATOM     14  C   UNL d   1       0.004   3.423   1.004  0.00  0.00     0.102 A 
ATOM     15  HN  UNL d   1       0.074   5.299   1.912  1.00  0.00     0.164 HD
BRANCH  11  16
ATOM     16  C   UNL d   1       2.300   5.116  -2.027  0.00  0.00    -0.066 C 
ATOM     17  C   UNL d   1       3.009   5.612  -2.864  0.00  0.00    -0.101 C 
BRANCH  17  18
ATOM     18  C   UNL d   1       3.855   6.217  -3.889  0.00  0.00     0.094 C 
BRANCH  18  19
ATOM     19  C   UNL d   1       3.511   5.660  -5.258  0.00  0.00     0.012 C 
BRANCH  19  20
ATOM     20  C   UNL d   1       4.359   6.320  -6.350  0.00  0.00     0.001 C 
BRANCH  20  21
ATOM     21  C   UNL d   1       4.005   5.770  -7.730  0.00  0.00    -0.000 C 
BRANCH  21  22
ATOM     22  C   UNL d   1       4.852   6.428  -8.817  0.00  0.00    -0.005 C 
ATOM     23  C   UNL d   1       4.503   5.883 -10.191  0.00  0.00     0.005 C 
ENDBRANCH  21  22
ENDBRANCH  20  21
ENDBRANCH  19  20
ENDBRANCH  18  19
ENDBRANCH  17  18
ENDBRANCH  11  16
ENDBRANCH   2   9
BRANCH   5  24
ATOM     24  S   UNL d   1       0.231  -2.608  -0.990  0.00  0.00    -0.088 SA
BRANCH  24  25
ATOM     25  C   UNL d   1      -1.425  -3.393  -1.082  0.00  0.00     0.124 C 
BRANCH  25  26
ATOM     26  C   UNL d   1      -1.405  -4.800  -1.678  0.00  0.00    -0.005 A 
ATOM     27  C   UNL d   1      -1.387  -5.963  -0.878  0.00  0.00     0.042 A 
ATOM     28 CL   UNL d   1      -1.325  -5.893   0.849  0.00  0.00    -0.084 Cl
ATOM     29  C   UNL d   1      -1.426  -7.252  -1.446  0.00  0.00     0.024 A 
ATOM     30  C   UNL d   1      -1.469  -7.416  -2.827  0.00  0.00     0.003 A 
ATOM     31  C   UNL d   1      -1.474  -6.289  -3.638  0.00  0.00     0.024 A 
ATOM     32  C   UNL d   1      -1.440  -5.001  -3.075  0.00  0.00     0.042 A 
ATOM     33 CL   UNL d   1      -1.458  -3.678  -4.192  0.00  0.00    -0.084 Cl
ENDBRANCH  25  26
ENDBRANCH  24  25
ENDBRANCH   5  24
TORSDOF 10
