REMARK  4 active torsions:
REMARK  status: ('A' for Active; 'I' for Inactive)
REMARK    1  A    between atoms: C_10  and  C_1 
REMARK    2  A    between atoms: C_4  and  C_5 
REMARK    3  A    between atoms: O_17  and  C_10 
REMARK    4  A    between atoms: C_18  and  O_17 
ROOT
ATOM      1  C   UNL d   1      -2.115   0.983  -0.038  0.00  0.00     0.083 A 
ATOM      2  S   UNL d   1      -1.815  -0.700  -0.066  0.00  0.00    -0.082 SA
ATOM      3  C   UNL d   1      -0.932   1.698  -0.057  0.00  0.00     0.056 A 
ATOM      4  C   UNL d   1       2.224  -1.006  -0.014  0.00  0.00     0.064 A 
ATOM      5  C   UNL d   1      -0.113  -0.485  -0.048  0.00  0.00     0.033 A 
ATOM      6  C   UNL d   1       0.219   0.867  -0.048  0.00  0.00     0.050 A 
ATOM      7  N   UNL d   1       1.502   1.314  -0.030  0.00  0.00    -0.364 N 
ATOM      8  HN  UNL d   1       1.731   2.308  -0.030  1.00  0.00     0.165 HD
ATOM      9  C   UNL d   1       0.900  -1.456  -0.030  0.00  0.00     0.038 A 
ATOM     10  C   UNL d   1       2.454   0.361  -0.013  0.00  0.00     0.104 A 
ENDROOT
BRANCH   1  11
ATOM     11  C   UNL d   1      -3.444   1.554   0.050  0.00  0.00     0.300 C 
ATOM     12  O   UNL d   1      -3.673   2.758   0.104  0.00  0.00    -0.259 OA
BRANCH  11  13
ATOM     13  O   UNL d   1      -4.398   0.588   0.169  0.00  0.00    -0.317 OA
BRANCH  13  14
ATOM     14  C   UNL d   1      -5.659   1.034   0.688  0.00  0.00     0.174 C 
ATOM     15  C   UNL d   1      -5.600   0.945   2.202  0.00  0.00     0.034 C 
ENDBRANCH  13  14
ENDBRANCH  11  13
ENDBRANCH   1  11
BRANCH   4  16
ATOM     16  C   UNL d   1       3.393  -1.942  -0.003  0.00  0.00     0.418 C 
ATOM     17  F   UNL d   1       3.037  -3.256   0.005  0.00  0.00    -0.166 F 
ATOM     18  F   UNL d   1       4.197  -1.779  -1.088  0.00  0.00    -0.166 F 
ATOM     19  F   UNL d   1       4.191  -1.764   1.084  0.00  0.00    -0.166 F 
ENDBRANCH   4  16
TORSDOF 4
