REMARK  4 active torsions:
REMARK  status: ('A' for Active; 'I' for Inactive)
REMARK       I    between atoms: N_7  and  C_1 
REMARK    1  A    between atoms: O_12  and  C_1 
REMARK    2  A    between atoms: N_2  and  N_7 
REMARK    3  A    between atoms: C_4  and  C_5 
REMARK    4  A    between atoms: C_13  and  O_12 
ROOT
ATOM      1  N   UNL d   1       0.882   1.945   1.508  0.00  0.00    -0.305 N 
ATOM      2  HN  UNL d   1       0.286   2.763   1.634  1.00  0.00     0.186 HD
ATOM      3  C   UNL d   1       2.132   1.961   1.857  0.00  0.00     0.144 C 
ENDROOT
BRANCH   1   4
ATOM      4  N   UNL d   1       0.391   0.781   0.963  0.00  0.00    -0.246 N 
ATOM      5  C   UNL d   1       1.080  -0.065   0.122  0.00  0.00     0.379 C 
ATOM      6  O   UNL d   1       2.261   0.013  -0.185  0.00  0.00    -0.237 OA
ATOM      7  H   UNL d   1      -0.619   0.713   0.918  0.00  0.00     0.192 HD
BRANCH   5   8
ATOM      8  O   UNL d   1       0.230  -1.022  -0.338  0.00  0.00    -0.303 OA
BRANCH   8   9
ATOM      9  C   UNL d   1       0.816  -1.991  -1.221  0.00  0.00     0.176 C 
ATOM     10  C   UNL d   1       1.528  -3.071  -0.427  0.00  0.00     0.034 C 
ENDBRANCH   8   9
ENDBRANCH   5   8
ENDBRANCH   1   4
BRANCH   3  11
ATOM     11  C   UNL d   1       2.742   3.158   2.362  0.00  0.00     0.091 A 
ATOM     12  O   UNL d   1       4.057   3.096   2.731  0.00  0.00    -0.321 OA
ATOM     13  C   UNL d   1       4.414   4.337   3.151  0.00  0.00     0.142 A 
ATOM     14  C   UNL d   1       3.348   5.199   3.065  0.00  0.00     0.027 A 
ATOM     15  C   UNL d   1       2.266   4.439   2.559  0.00  0.00     0.040 A 
ENDBRANCH   3  11
TORSDOF 4
