REMARK  9 active torsions:
REMARK  status: ('A' for Active; 'I' for Inactive)
REMARK    1  A    between atoms: C_12  and  C_1 
REMARK       I    between atoms: C_3  and  N_9 
REMARK    2  A    between atoms: C_11  and  C_3 
REMARK    3  A    between atoms: S_8  and  C_11 
REMARK    4  A    between atoms: C_14  and  S_8 
REMARK    5  A    between atoms: N_9  and  C_15 
REMARK    6  A    between atoms: S_10  and  C_12 
REMARK    7  A    between atoms: C_16  and  S_10 
REMARK    8  A    between atoms: C_13  and  C_14 
REMARK    9  A    between atoms: C_15  and  C_16 
ROOT
ATOM      1  C   UNL d   1       2.356   8.564   0.056  0.00  0.00     0.226 C 
ATOM      2  O   UNL d   1       3.535   8.230   0.142  0.00  0.00    -0.273 OA
ATOM      3  N   UNL d   1       1.323   7.658   0.023  0.00  0.00    -0.360 N 
ATOM      4  H   UNL d   1       0.394   7.993  -0.219  0.00  0.00     0.162 HD
ENDROOT
BRANCH   1   5
ATOM      5  C   UNL d   1       1.935  10.021  -0.006  0.00  0.00     0.176 C 
BRANCH   5   6
ATOM      6  S   UNL d   1       0.861  10.466   1.396  0.00  0.00    -0.155 SA
BRANCH   6   7
ATOM      7  C   UNL d   1       1.989  10.036   2.764  0.00  0.00     0.112 C 
BRANCH   7   8
ATOM      8  C   UNL d   1       1.332  10.258   4.103  0.00  0.00    -0.049 A 
ATOM      9  C   UNL d   1       0.580   9.237   4.702  0.00  0.00     0.008 A 
ATOM     10  C   UNL d   1      -0.033   9.438   5.939  0.00  0.00     0.001 A 
ATOM     11  C   UNL d   1       0.094  10.665   6.588  0.00  0.00     0.000 A 
ATOM     12  C   UNL d   1       0.830  11.692   5.998  0.00  0.00     0.001 A 
ATOM     13  C   UNL d   1       1.444  11.491   4.760  0.00  0.00     0.008 A 
ENDBRANCH   7   8
ENDBRANCH   6   7
ENDBRANCH   5   6
ENDBRANCH   1   5
BRANCH   3  14
ATOM     14  C   UNL d   1       1.571   6.228   0.002  0.00  0.00     0.132 C 
BRANCH  14  15
ATOM     15  C   UNL d   1       0.290   5.398  -0.099  0.00  0.00     0.094 C 
BRANCH  15  16
ATOM     16  S   UNL d   1      -0.583   5.810  -1.645  0.00  0.00    -0.161 SA
BRANCH  16  17
ATOM     17  C   UNL d   1      -1.954   4.612  -1.549  0.00  0.00     0.139 C 
BRANCH  17  18
ATOM     18  C   UNL d   1      -2.801   4.739  -2.763  0.00  0.00     0.061 A 
ATOM     19  O   UNL d   1      -4.097   5.122  -2.571  0.00  0.00    -0.326 OA
ATOM     20  C   UNL d   1      -4.664   5.227  -3.801  0.00  0.00     0.142 A 
ATOM     21  C   UNL d   1      -3.756   4.904  -4.781  0.00  0.00     0.027 A 
ATOM     22  C   UNL d   1      -2.555   4.573  -4.112  0.00  0.00     0.035 A 
ENDBRANCH  17  18
ENDBRANCH  16  17
ENDBRANCH  15  16
ENDBRANCH  14  15
ENDBRANCH   3  14
TORSDOF 9
