REMARK  8 active torsions:
REMARK  status: ('A' for Active; 'I' for Inactive)
REMARK    1  A    between atoms: C_2  and  C_1 
REMARK    2  A    between atoms: O_16  and  C_2 
REMARK    3  A    between atoms: C_3  and  O_15 
REMARK       I    between atoms: N_6  and  C_3 
REMARK    4  A    between atoms: C_4  and  C_12 
REMARK    5  A    between atoms: C_23  and  C_5 
REMARK    6  A    between atoms: C_14  and  N_6 
REMARK    7  A    between atoms: O_15  and  C_23 
REMARK    8  A    between atoms: C_25  and  O_16 
ROOT
ATOM      1  C   UNL d   1      -1.385   0.051   0.283  0.00  0.00    -0.063 C 
ATOM      2  C   UNL d   1      -2.586   0.025   0.337  0.00  0.00    -0.074 C 
ENDROOT
BRANCH   2   3
ATOM      3  C   UNL d   1      -4.053   0.047   0.334  0.00  0.00     0.274 C 
BRANCH   3   4
ATOM      4  O   UNL d   1      -4.568  -0.852   1.324  0.00  0.00    -0.292 OA
BRANCH   4   5
ATOM      5  C   UNL d   1      -5.707  -0.436   1.927  0.00  0.00     0.366 C 
ATOM      6  N   UNL d   1      -6.358  -1.360   2.700  0.00  0.00    -0.303 N 
ATOM      7  H   UNL d   1      -7.239  -0.985   3.028  0.00  0.00     0.171 HD
ATOM      8  O   UNL d   1      -6.207   0.675   1.774  0.00  0.00    -0.238 OA
BRANCH   6   9
ATOM      9  C   UNL d   1      -6.068  -2.688   3.049  0.00  0.00     0.036 A 
ATOM     10  C   UNL d   1      -4.854  -3.332   2.805  0.00  0.00     0.031 A 
ATOM     11  C   UNL d   1      -4.662  -4.659   3.216  0.00  0.00     0.026 A 
ATOM     12  C   UNL d   1      -5.683  -5.345   3.867  0.00  0.00     0.034 A 
ATOM     13  C   UNL d   1      -6.900  -4.719   4.111  0.00  0.00     0.026 A 
ATOM     14 CL   UNL d   1      -5.438  -6.969   4.380  0.00  0.00    -0.084 Cl
ATOM     15  C   UNL d   1      -7.087  -3.394   3.708  0.00  0.00     0.031 A 
ENDBRANCH   6   9
ENDBRANCH   4   5
ENDBRANCH   3   4
ENDBRANCH   2   3
BRANCH   1  16
ATOM     16  C   UNL d   1       0.037   0.072   0.168  0.00  0.00     0.034 A 
ATOM     17  C   UNL d   1       0.747   1.274   0.140  0.00  0.00     0.041 A 
ATOM     18  C   UNL d   1       2.141   1.238   0.017  0.00  0.00     0.056 A 
ATOM     19  C   UNL d   1       2.762  -0.001  -0.090  0.00  0.00     0.105 A 
ATOM     20  N   UNL d   1       2.098  -1.183  -0.070  0.00  0.00    -0.373 N 
ATOM     21  C   UNL d   1       0.752  -1.115   0.064  0.00  0.00     0.108 A 
ATOM     22  HN  UNL d   1       2.586  -2.075  -0.152  1.00  0.00     0.164 HD
BRANCH  18  23
ATOM     23  C   UNL d   1       3.002   2.439   0.073  0.00  0.00     0.294 C 
ATOM     24  O   UNL d   1       4.219   2.395   0.001  0.00  0.00    -0.259 OA
BRANCH  23  25
ATOM     25  O   UNL d   1       2.251   3.538   0.323  0.00  0.00    -0.318 OA
BRANCH  25  26
ATOM     26  C   UNL d   1       2.973   4.681   0.804  0.00  0.00     0.174 C 
ATOM     27  C   UNL d   1       3.019   4.603   2.321  0.00  0.00     0.034 C 
ENDBRANCH  25  26
ENDBRANCH  23  25
ENDBRANCH  18  23
ENDBRANCH   1  16
TORSDOF 8
