REMARK  8 active torsions:
REMARK  status: ('A' for Active; 'I' for Inactive)
REMARK    1  A    between atoms: C_14  and  C_3 
REMARK    2  A    between atoms: N_15  and  C_6 
REMARK    3  A    between atoms: C_7  and  C_10 
REMARK    4  A    between atoms: C_10  and  N_9 
REMARK    5  A    between atoms: N_11  and  C_22 
REMARK    6  A    between atoms: C_27  and  N_15 
REMARK    7  A    between atoms: C_22  and  C_23 
REMARK    8  A    between atoms: C_23  and  C_27 
ROOT
ATOM      1  C   UNL d   1       3.862  -5.091  -0.197  0.00  0.00     0.039 C 
ENDROOT
BRANCH   1   2
ATOM      2  C   UNL d   1       2.556  -5.604   0.435  0.00  0.00     0.118 C 
BRANCH   2   3
ATOM      3  N   UNL d   1       1.732  -6.518  -0.334  0.00  0.00    -0.409 N 
ATOM      4  C   UNL d   1       1.085  -6.048  -1.548  0.00  0.00     0.147 C 
ATOM      5  C   UNL d   1       1.625  -6.733  -2.822  0.00  0.00     0.292 C 
ATOM      6  N   UNL d   1       1.518  -8.202  -2.792  0.00  0.00     0.096 N 
ATOM      7  C   UNL d   1       2.271  -8.680  -1.613  0.00  0.00     0.292 C 
ATOM      8  C   UNL d   1       1.994  -7.954  -0.265  0.00  0.00     0.147 C 
BRANCH   6   9
ATOM      9  C   UNL d   1       0.121  -8.681  -2.789  0.00  0.00     0.316 C 
BRANCH   9  10
ATOM     10  C   UNL d   1      -0.697  -8.163  -3.955  0.00  0.00     0.030 A 
ATOM     11  C   UNL d   1      -1.696  -7.205  -3.723  0.00  0.00     0.126 A 
ATOM     12  F   UNL d   1      -1.979  -6.819  -2.471  0.00  0.00    -0.205 F 
ATOM     13  C   UNL d   1      -2.407  -6.607  -4.761  0.00  0.00     0.043 A 
ATOM     14  C   UNL d   1      -2.145  -6.975  -6.075  0.00  0.00     0.005 A 
ATOM     15  C   UNL d   1      -1.181  -7.949  -6.335  0.00  0.00     0.024 A 
ATOM     16  C   UNL d   1      -0.463  -8.540  -5.285  0.00  0.00     0.045 A 
ATOM     17 CL   UNL d   1       0.709  -9.739  -5.707  0.00  0.00    -0.084 Cl
ENDBRANCH   9  10
ENDBRANCH   6   9
ENDBRANCH   2   3
ENDBRANCH   1   2
BRANCH   1  18
ATOM     18  C   UNL d   1       3.633  -4.123  -1.353  0.00  0.00     0.123 C 
BRANCH  18  19
ATOM     19  N   UNL d   1       4.872  -3.552  -1.862  0.00  0.00    -0.369 N 
ATOM     20  H   UNL d   1       5.729  -3.993  -1.547  0.00  0.00     0.161 HD
BRANCH  19  21
ATOM     21  C   UNL d   1       4.852  -3.091  -3.137  0.00  0.00     0.162 A 
ATOM     22  N   UNL d   1       3.775  -2.857  -3.860  0.00  0.00    -0.321 N 
ATOM     23  C   UNL d   1       4.147  -2.449  -5.146  0.00  0.00     0.123 A 
ATOM     24  HN  UNL d   1       2.815  -2.959  -3.532  1.00  0.00     0.169 HD
ATOM     25  N   UNL d   1       5.453  -2.349  -5.419  0.00  0.00    -0.309 N 
ATOM     26  S   UNL d   1       6.283  -2.782  -4.044  0.00  0.00     0.024 SA
ATOM     27  HN  UNL d   1       5.864  -2.061  -6.307  1.00  0.00     0.176 HD
BRANCH  23  28
ATOM     28  C   UNL d   1       3.119  -2.145  -6.150  0.00  0.00     0.009 A 
ATOM     29  C   UNL d   1       1.763  -2.397  -5.895  0.00  0.00     0.015 A 
ATOM     30  C   UNL d   1       0.785  -2.095  -6.851  0.00  0.00     0.001 A 
ATOM     31  C   UNL d   1       1.152  -1.536  -8.073  0.00  0.00     0.000 A 
ATOM     32  C   UNL d   1       2.495  -1.287  -8.347  0.00  0.00     0.001 A 
ATOM     33  C   UNL d   1       3.470  -1.592  -7.392  0.00  0.00     0.015 A 
ENDBRANCH  23  28
ENDBRANCH  19  21
ENDBRANCH  18  19
ENDBRANCH   1  18
TORSDOF 8
