REMARK  4 active torsions:
REMARK  status: ('A' for Active; 'I' for Inactive)
REMARK    1  A    between atoms: C_12  and  C_1 
REMARK    2  A    between atoms: C_16  and  C_7 
REMARK    3  A    between atoms: C_8  and  C_10 
REMARK    4  A    between atoms: C_9  and  C_11 
ROOT
ATOM      1  C   UNL d   1      -0.225  -1.030  -0.069  0.00  0.00     0.174 A 
ATOM      2  O   UNL d   1       0.613  -0.653   0.948  0.00  0.00    -0.273 OA
ATOM      3  N   UNL d   1      -0.401  -0.076  -0.961  0.00  0.00    -0.277 N 
ATOM      4  HN  UNL d   1      -0.982  -0.121  -1.798  1.00  0.00     0.189 HD
ATOM      5  N   UNL d   1       0.356   0.998  -0.538  0.00  0.00    -0.277 N 
ATOM      6  HN  UNL d   1       0.444   1.902  -1.002  1.00  0.00     0.189 HD
ATOM      7  C   UNL d   1       0.942   0.628   0.583  0.00  0.00     0.174 A 
ENDROOT
BRANCH   1   8
ATOM      8  C   UNL d   1      -0.764  -2.385  -0.028  0.00  0.00     0.018 A 
ATOM      9  C   UNL d   1      -0.504  -3.252   1.045  0.00  0.00     0.032 A 
ATOM     10  C   UNL d   1      -1.031  -4.554   1.078  0.00  0.00     0.049 A 
ATOM     11  C   UNL d   1      -1.820  -4.996   0.005  0.00  0.00     0.032 A 
ATOM     12  C   UNL d   1      -2.100  -4.151  -1.080  0.00  0.00     0.049 A 
ATOM     13  C   UNL d   1      -1.568  -2.849  -1.082  0.00  0.00     0.032 A 
BRANCH  10  14
ATOM     14  C   UNL d   1      -0.750  -5.447   2.265  0.00  0.00     0.417 C 
ATOM     15  F   UNL d   1      -1.340  -6.670   2.177  0.00  0.00    -0.166 F 
ATOM     16  F   UNL d   1       0.579  -5.681   2.436  0.00  0.00    -0.166 F 
ATOM     17  F   UNL d   1      -1.190  -4.902   3.432  0.00  0.00    -0.166 F 
ENDBRANCH  10  14
BRANCH  12  18
ATOM     18  C   UNL d   1      -2.968  -4.615  -2.227  0.00  0.00     0.417 C 
ATOM     19  F   UNL d   1      -3.384  -5.906  -2.102  0.00  0.00    -0.166 F 
ATOM     20  F   UNL d   1      -4.098  -3.868  -2.354  0.00  0.00    -0.166 F 
ATOM     21  F   UNL d   1      -2.329  -4.543  -3.426  0.00  0.00    -0.166 F 
ENDBRANCH  12  18
ENDBRANCH   1   8
BRANCH   7  22
ATOM     22  C   UNL d   1       1.892   1.345   1.425  0.00  0.00     0.017 A 
ATOM     23  C   UNL d   1       2.397   0.795   2.614  0.00  0.00     0.017 A 
ATOM     24  C   UNL d   1       3.344   1.488   3.377  0.00  0.00     0.025 A 
ATOM     25  C   UNL d   1       3.789   2.740   2.960  0.00  0.00     0.034 A 
ATOM     26  C   UNL d   1       3.287   3.312   1.794  0.00  0.00     0.025 A 
ATOM     27 CL   UNL d   1       4.972   3.579   3.884  0.00  0.00    -0.084 Cl
ATOM     28  C   UNL d   1       2.341   2.617   1.032  0.00  0.00     0.017 A 
ENDBRANCH   7  22
TORSDOF 4
