REMARK  3 active torsions:
REMARK  status: ('A' for Active; 'I' for Inactive)
REMARK       I    between atoms: N_2  and  C_1 
REMARK    1  A    between atoms: C_5  and  C_1 
REMARK    2  A    between atoms: N_3  and  N_2 
REMARK    3  A    between atoms: C_6  and  N_3 
ROOT
ATOM      1  C   UNL d   1       1.175  -0.470  -0.515  0.00  0.00     0.266 C 
ATOM      2  N   UNL d   1       0.172  -1.382  -0.219  0.00  0.00    -0.283 N 
ATOM      3  O   UNL d   1       2.343  -0.631  -0.172  0.00  0.00    -0.266 OA
ATOM      4  H   UNL d   1      -0.790  -1.072  -0.133  0.00  0.00     0.184 HD
ENDROOT
BRANCH   2   5
ATOM      5  N   UNL d   1       0.524  -2.448   0.630  0.00  0.00    -0.203 NA
ATOM      6  H   UNL d   1       1.540  -2.454   0.792  0.00  0.00     0.153 HD
BRANCH   5   7
ATOM      7  C   UNL d   1       0.072  -3.721   0.194  0.00  0.00     0.028 A 
ATOM      8  C   UNL d   1      -1.102  -3.904  -0.554  0.00  0.00     0.032 A 
ATOM      9  C   UNL d   1      -1.576  -5.186  -0.876  0.00  0.00    -0.060 A 
ATOM     10  C   UNL d   1      -2.836  -5.365  -1.669  0.00  0.00     0.048 C 
ATOM     11  C   UNL d   1      -0.881  -6.307  -0.410  0.00  0.00     0.007 A 
ATOM     12  C   UNL d   1       0.267  -6.146   0.362  0.00  0.00     0.002 A 
ATOM     13  C   UNL d   1       0.730  -4.864   0.670  0.00  0.00     0.025 A 
ENDBRANCH   5   7
ENDBRANCH   2   5
BRANCH   1  14
ATOM     14  C   UNL d   1       0.757   0.751  -1.266  0.00  0.00     0.033 A 
ATOM     15  C   UNL d   1      -0.439   0.807  -1.995  0.00  0.00     0.017 A 
ATOM     16  C   UNL d   1      -0.774   1.962  -2.707  0.00  0.00     0.001 A 
ATOM     17  C   UNL d   1       0.084   3.061  -2.703  0.00  0.00     0.000 A 
ATOM     18  C   UNL d   1       1.279   3.010  -1.988  0.00  0.00     0.001 A 
ATOM     19  C   UNL d   1       1.617   1.858  -1.272  0.00  0.00     0.017 A 
ENDBRANCH   1  14
TORSDOF 3
