REMARK  2 active torsions:
REMARK  status: ('A' for Active; 'I' for Inactive)
REMARK    1  A    between atoms: C_6  and  C_4 
REMARK    2  A    between atoms: C_7  and  C_5 
ROOT
ATOM      1  C   UNL d   1      -1.282  -0.043   0.127  0.00  0.00    -0.006 C 
ATOM      2  C   UNL d   1       1.275   0.049   0.184  0.00  0.00    -0.006 C 
ATOM      3  C   UNL d   1       0.028  -0.764  -0.005  0.00  0.00     0.184 C 
ATOM      4  C   UNL d   1      -2.367  -0.817   0.334  0.00  0.00     0.030 C 
ATOM      5  C   UNL d   1       2.431  -0.640   0.282  0.00  0.00     0.030 C 
ATOM      6  O   UNL d   1       0.073  -1.966  -0.257  0.00  0.00    -0.287 OA
ATOM      7  C   UNL d   1       1.159   1.545   0.261  0.00  0.00     0.043 C 
ATOM      8  C   UNL d   1      -1.315   1.457   0.029  0.00  0.00     0.043 C 
ATOM      9  C   UNL d   1      -0.032   2.047  -0.537  0.00  0.00     0.009 C 
ENDROOT
BRANCH   4  10
ATOM     10  C   UNL d   1      -3.664  -0.260   0.497  0.00  0.00     0.005 A 
ATOM     11  S   UNL d   1      -4.227   0.189   2.058  0.00  0.00    -0.102 SA
ATOM     12  C   UNL d   1      -5.711   0.765   1.436  0.00  0.00     0.050 A 
ATOM     13  C   UNL d   1      -5.801   0.592   0.074  0.00  0.00     0.008 A 
ATOM     14  C   UNL d   1      -4.629  -0.016  -0.464  0.00  0.00     0.019 A 
ENDBRANCH   4  10
BRANCH   5  15
ATOM     15  C   UNL d   1       3.668  -0.001   0.564  0.00  0.00     0.005 A 
ATOM     16  S   UNL d   1       4.204   0.132   2.194  0.00  0.00    -0.102 SA
ATOM     17  C   UNL d   1       5.643   0.929   1.732  0.00  0.00     0.050 A 
ATOM     18  C   UNL d   1       5.727   1.093   0.368  0.00  0.00     0.008 A 
ATOM     19  C   UNL d   1       4.589   0.556  -0.304  0.00  0.00     0.019 A 
ENDBRANCH   5  15
TORSDOF 2
