REMARK  2 active torsions:
REMARK  status: ('A' for Active; 'I' for Inactive)
REMARK    1  A    between atoms: C_2  and  C_1 
REMARK    2  A    between atoms: O_7  and  C_2 
ROOT
ATOM      1  C   UNL d   1       1.352   1.576  -0.114  0.00  0.00     0.050 A 
ATOM      2  C   UNL d   1       1.209   0.145  -0.122  0.00  0.00     0.007 A 
ATOM      3  C   UNL d   1       0.022  -0.661  -0.241  0.00  0.00     0.018 A 
ATOM      4  C   UNL d   1       2.433  -0.581  -0.007  0.00  0.00    -0.024 A 
ATOM      5  I   UNL d   1      -1.911   0.068  -0.706  0.00  0.00    -0.044 I 
ATOM      6  C   UNL d   1       2.609   2.211  -0.086  0.00  0.00     0.019 A 
ATOM      7  C   UNL d   1       3.768   1.460  -0.024  0.00  0.00     0.002 A 
ATOM      8  C   UNL d   1       1.272  -2.720   0.013  0.00  0.00     0.002 A 
ATOM      9  C   UNL d   1       0.064  -2.064  -0.152  0.00  0.00     0.019 A 
ATOM     10  C   UNL d   1       2.446  -1.981   0.064  0.00  0.00     0.012 A 
ATOM     11  C   UNL d   1       3.675   0.077   0.032  0.00  0.00     0.012 A 
ENDROOT
BRANCH   1  12
ATOM     12  C   UNL d   1       0.232   2.537  -0.041  0.00  0.00     0.177 C 
ATOM     13  O   UNL d   1       0.058   3.424  -0.856  0.00  0.00    -0.646 OA
BRANCH  12  14
ATOM     14  O   UNL d   1      -0.443   2.437   1.125  0.00  0.00    -0.773 OA
ATOM     15  H   UNL d   1      -0.204   1.658   1.663  0.00  0.00     0.167 HD
ENDBRANCH  12  14
ENDBRANCH   1  12
TORSDOF 2
