REMARK  3 active torsions:
REMARK  status: ('A' for Active; 'I' for Inactive)
REMARK    1  A    between atoms: C_3  and  C_1 
REMARK       I    between atoms: N_4  and  C_1 
REMARK       I    between atoms: C_2  and  N_5 
REMARK    2  A    between atoms: C_6  and  C_2 
REMARK    3  A    between atoms: N_5  and  N_4 
ROOT
ATOM      1  C   UNL d   1       0.904  -0.495  -0.296  0.00  0.00     0.271 C 
ATOM      2  N   UNL d   1       0.284  -0.821   0.893  0.00  0.00    -0.263 N 
ATOM      3  O   UNL d   1       0.291  -0.243  -1.329  0.00  0.00    -0.266 OA
ATOM      4  H   UNL d   1       0.766  -1.276   1.667  0.00  0.00     0.190 HD
ENDROOT
BRANCH   2   5
ATOM      5  N   UNL d   1      -1.113  -0.864   0.935  0.00  0.00    -0.263 N 
ATOM      6  C   UNL d   1      -1.706  -1.660   1.893  0.00  0.00     0.270 C 
ATOM      7  O   UNL d   1      -1.062  -2.370   2.661  0.00  0.00    -0.266 OA
ATOM      8  H   UNL d   1      -1.610  -0.440   0.153  0.00  0.00     0.190 HD
BRANCH   6   9
ATOM      9  C   UNL d   1      -3.187  -1.609   1.981  0.00  0.00     0.035 A 
ATOM     10  C   UNL d   1      -3.884  -0.415   1.750  0.00  0.00     0.041 A 
ATOM     11  C   UNL d   1      -5.265  -0.381   1.945  0.00  0.00     0.035 A 
ATOM     12 CL   UNL d   1      -6.120   1.094   1.705  0.00  0.00    -0.084 Cl
ATOM     13  C   UNL d   1      -5.957  -1.520   2.357  0.00  0.00     0.024 A 
ATOM     14  C   UNL d   1      -5.264  -2.709   2.581  0.00  0.00     0.003 A 
ATOM     15  C   UNL d   1      -3.879  -2.752   2.401  0.00  0.00     0.017 A 
ENDBRANCH   6   9
ENDBRANCH   2   5
BRANCH   1  16
ATOM     16  C   UNL d   1       2.382  -0.461  -0.263  0.00  0.00     0.049 A 
ATOM     17  C   UNL d   1       3.096  -0.763  -1.415  0.00  0.00     0.104 A 
ATOM     18  N   UNL d   1       4.450  -0.735  -1.491  0.00  0.00    -0.374 N 
ATOM     19  C   UNL d   1       5.117  -0.366  -0.375  0.00  0.00     0.087 A 
ATOM     20  HN  UNL d   1       4.942  -0.982  -2.350  1.00  0.00     0.164 HD
ATOM     21  C   UNL d   1       4.493  -0.026   0.815  0.00  0.00     0.018 A 
ATOM     22  C   UNL d   1       3.101  -0.076   0.872  0.00  0.00     0.020 A 
ENDBRANCH   1  16
TORSDOF 3
