REMARK  1 active torsions:
REMARK  status: ('A' for Active; 'I' for Inactive)
REMARK    1  A    between atoms: C_7  and  C_8 
ROOT
ATOM      1  C   UNL d   1      -1.198  -0.742   0.049  0.00  0.00     0.047 A 
ATOM      2  C   UNL d   1      -1.814   0.637   0.100  0.00  0.00     0.257 A 
ATOM      3  N   UNL d   1      -0.734   1.507   0.063  0.00  0.00    -0.322 N 
ATOM      4  C   UNL d   1       0.259  -0.562   0.011  0.00  0.00     0.006 A 
ATOM      5  C   UNL d   1      -1.873  -1.901   0.027  0.00  0.00     0.049 C 
ATOM      6  C   UNL d   1       0.475   0.821   0.021  0.00  0.00     0.046 A 
ATOM      7  O   UNL d   1      -2.980   0.962   0.191  0.00  0.00    -0.267 OA
ATOM      8  C   UNL d   1       1.333  -1.433  -0.025  0.00  0.00     0.015 A 
ATOM      9  C   UNL d   1       1.735   1.381   0.005  0.00  0.00     0.030 A 
ATOM     10  C   UNL d   1       2.624  -0.886  -0.040  0.00  0.00     0.001 A 
ATOM     11  C   UNL d   1       2.822   0.508  -0.023  0.00  0.00     0.002 A 
ATOM     12  H   UNL d   1      -0.848   2.507   0.085  0.00  0.00     0.169 HD
ENDROOT
BRANCH   5  13
ATOM     13  C   UNL d   1      -3.284  -2.007   0.023  0.00  0.00     0.050 A 
ATOM     14  N   UNL d   1      -3.974  -2.079  -1.154  0.00  0.00    -0.345 N 
ATOM     15  C   UNL d   1      -5.243  -1.990  -0.811  0.00  0.00     0.077 A 
ATOM     16  HN  UNL d   1      -3.589  -2.180  -2.093  1.00  0.00     0.167 HD
ATOM     17  C   UNL d   1      -6.405  -1.885  -1.723  0.00  0.00     0.089 C 
ATOM     18  N   UNL d   1      -5.380  -1.954   0.556  0.00  0.00    -0.354 N 
ATOM     19  C   UNL d   1      -4.127  -1.977   1.105  0.00  0.00     0.119 A 
ATOM     20  H   UNL d   1      -6.251  -1.861   1.058  0.00  0.00     0.166 HD
ENDBRANCH   5  13
TORSDOF 1
