REMARK  4 active torsions:
REMARK  status: ('A' for Active; 'I' for Inactive)
REMARK    1  A    between atoms: C_7  and  C_1 
REMARK    2  A    between atoms: O_18  and  C_1 
REMARK    3  A    between atoms: N_3  and  C_16 
REMARK    4  A    between atoms: C_17  and  C_10 
ROOT
ATOM      1  N   UNL d   1      -1.822   4.670  -1.259  0.00  0.00    -0.365 N 
ATOM      2  HN  UNL d   1      -2.554   4.936  -0.600  1.00  0.00     0.165 HD
ATOM      3  C   UNL d   1      -1.602   5.396  -2.308  0.00  0.00     0.100 C 
ENDROOT
BRANCH   1   4
ATOM      4  C   UNL d   1      -1.055   3.518  -1.027  0.00  0.00     0.031 A 
ATOM      5  C   UNL d   1      -0.747   3.219   0.305  0.00  0.00     0.030 A 
ATOM      6  C   UNL d   1       0.018   2.097   0.643  0.00  0.00     0.020 A 
ATOM      7  C   UNL d   1       0.468   1.240  -0.364  0.00  0.00     0.037 A 
ATOM      8  C   UNL d   1       0.163   1.522  -1.700  0.00  0.00     0.020 A 
ATOM      9  C   UNL d   1      -0.606   2.646  -2.026  0.00  0.00     0.030 A 
BRANCH   7  10
ATOM     10  C   UNL d   1       1.305   0.050  -0.068  0.00  0.00     0.176 C 
ATOM     11  O   UNL d   1       2.160  -0.363  -0.830  0.00  0.00    -0.646 OA
BRANCH  10  12
ATOM     12  O   UNL d   1       1.001  -0.552   1.102  0.00  0.00    -0.773 OA
ATOM     13  H   UNL d   1       0.183  -0.238   1.528  0.00  0.00     0.167 HD
ENDBRANCH  10  12
ENDBRANCH   7  10
ENDBRANCH   1   4
BRANCH   3  14
ATOM     14  C   UNL d   1      -2.335   6.658  -2.544  0.00  0.00    -0.018 A 
ATOM     15  C   UNL d   1      -2.127   7.334  -3.751  0.00  0.00     0.052 A 
ATOM     16  C   UNL d   1      -2.801   8.523  -3.935  0.00  0.00     0.105 A 
ATOM     17  O   UNL d   1      -2.729   9.311  -5.041  0.00  0.00    -0.323 OA
ATOM     18  C   UNL d   1      -3.641   9.041  -2.976  0.00  0.00     0.105 A 
ATOM     19  C   UNL d   1      -3.658  10.359  -4.689  0.00  0.00     0.352 A 
ATOM     20  O   UNL d   1      -4.199  10.220  -3.359  0.00  0.00    -0.323 OA
ATOM     21  C   UNL d   1      -3.859   8.399  -1.776  0.00  0.00     0.040 A 
ATOM     22  C   UNL d   1      -3.198   7.184  -1.561  0.00  0.00     0.016 A 
ENDBRANCH   3  14
TORSDOF 4
