REMARK  3 active torsions:
REMARK  status: ('A' for Active; 'I' for Inactive)
REMARK    1  A    between atoms: C_5  and  C_1 
REMARK    2  A    between atoms: C_9  and  C_6 
REMARK       I    between atoms: C_8  and  N_10 
REMARK       I    between atoms: N_16  and  C_8 
REMARK    3  A    between atoms: N_10  and  C_15 
ROOT
ATOM      1  C   UNL d   1       0.228  -1.047   0.188  0.00  0.00     0.071 A 
ATOM      2  N   UNL d   1       0.081  -0.877  -1.138  0.00  0.00    -0.260 N 
ATOM      3  HN  UNL d   1       0.324  -1.546  -1.869  1.00  0.00     0.195 HD
ATOM      4  C   UNL d   1      -0.198   0.120   0.872  0.00  0.00     0.072 A 
ATOM      5  C   UNL d   1      -0.674   0.958  -0.105  0.00  0.00     0.111 A 
ATOM      6  O   UNL d   1      -0.464   0.386  -1.317  0.00  0.00    -0.237 OA
ENDROOT
BRANCH   5   7
ATOM      7  C   UNL d   1      -1.396   2.218  -0.054  0.00  0.00     0.002 A 
ATOM      8  C   UNL d   1      -2.232   2.443   1.048  0.00  0.00     0.044 A 
ATOM      9  C   UNL d   1      -2.900   3.650   1.239  0.00  0.00     0.037 A 
ATOM     10  C   UNL d   1      -2.796   4.633   0.254  0.00  0.00     0.029 A 
ATOM     11  C   UNL d   1      -1.987   4.417  -0.871  0.00  0.00     0.003 A 
ATOM     12  C   UNL d   1      -1.283   3.217  -1.023  0.00  0.00     0.014 A 
BRANCH   9  13
ATOM     13  N   UNL d   1      -3.675   3.899   2.396  0.00  0.00    -0.309 N 
ATOM     14  C   UNL d   1      -3.582   3.185   3.574  0.00  0.00     0.320 C 
ATOM     15  O   UNL d   1      -2.753   2.319   3.834  0.00  0.00    -0.247 OA
ATOM     16  N   UNL d   1      -4.543   3.559   4.483  0.00  0.00    -0.347 N 
ATOM     17  C   UNL d   1      -4.666   2.886   5.758  0.00  0.00     0.151 C 
ATOM     18  H   UNL d   1      -5.308   4.139   4.175  0.00  0.00     0.163 HD
ATOM     19  H   UNL d   1      -4.163   4.780   2.441  0.00  0.00     0.170 HD
ENDBRANCH   9  13
ENDBRANCH   5   7
BRANCH   1  20
ATOM     20  C   UNL d   1       0.723  -2.296   0.778  0.00  0.00     0.036 A 
ATOM     21  C   UNL d   1       1.889  -2.925   0.297  0.00  0.00     0.048 A 
ATOM     22 CL   UNL d   1       2.870  -2.272  -0.975  0.00  0.00    -0.083 Cl
ATOM     23  C   UNL d   1       2.353  -4.121   0.869  0.00  0.00     0.025 A 
ATOM     24  C   UNL d   1       1.683  -4.701   1.941  0.00  0.00     0.003 A 
ATOM     25  C   UNL d   1       0.538  -4.093   2.439  0.00  0.00     0.025 A 
ATOM     26  C   UNL d   1       0.052  -2.912   1.859  0.00  0.00     0.048 A 
ATOM     27 CL   UNL d   1      -1.429  -2.311   2.537  0.00  0.00    -0.083 Cl
ENDBRANCH   1  20
TORSDOF 3
