REMARK  4 active torsions:
REMARK  status: ('A' for Active; 'I' for Inactive)
REMARK    1  A    between atoms: N_11  and  C_3 
REMARK    2  A    between atoms: C_13  and  C_10 
REMARK       I    between atoms: C_12  and  N_11 
REMARK       I    between atoms: N_14  and  C_12 
REMARK    3  A    between atoms: N_15  and  N_14 
REMARK    4  A    between atoms: C_21  and  N_15 
ROOT
ATOM      1  C   UNL d   1       0.517   0.306   0.479  0.00  0.00     0.174 A 
ATOM      2  N   UNL d   1      -0.036  -0.908   0.199  0.00  0.00    -0.234 N 
ATOM      3  C   UNL d   1      -1.934   0.316   0.369  0.00  0.00     0.106 A 
ATOM      4  N   UNL d   1       1.813   0.273   0.475  0.00  0.00    -0.319 N 
ATOM      5  HN  UNL d   1       2.478   1.025   0.656  1.00  0.00     0.169 HD
ATOM      6  S   UNL d   1      -0.684   1.521   0.712  0.00  0.00    -0.032 SA
ATOM      7  N   UNL d   1       0.946  -1.808  -0.003  0.00  0.00    -0.276 N 
ATOM      8  HN  UNL d   1       0.870  -2.801  -0.222  1.00  0.00     0.189 HD
ATOM      9  C   UNL d   1      -1.425  -0.920   0.152  0.00  0.00     0.067 A 
ATOM     10  C   UNL d   1       2.057  -1.055   0.160  0.00  0.00     0.132 A 
ATOM     11  C   UNL d   1      -2.156  -2.186  -0.137  0.00  0.00     0.073 C 
ENDROOT
BRANCH   3  12
ATOM     12  N   UNL d   1      -3.271   0.612   0.271  0.00  0.00    -0.300 N 
ATOM     13  C   UNL d   1      -3.995   1.766   0.335  0.00  0.00     0.335 C 
ATOM     14  N   UNL d   1      -3.362   2.922   0.707  0.00  0.00    -0.268 N 
ATOM     15  O   UNL d   1      -5.190   1.730   0.024  0.00  0.00    -0.246 OA
ATOM     16  H   UNL d   1      -2.656   2.826   1.432  0.00  0.00     0.185 HD
ATOM     17  H   UNL d   1      -3.881  -0.151  -0.001  0.00  0.00     0.171 HD
BRANCH  14  18
ATOM     18  N   UNL d   1      -4.191   4.052   0.896  0.00  0.00    -0.202 NA
ATOM     19  H   UNL d   1      -5.096   3.939   0.422  0.00  0.00     0.153 HD
BRANCH  18  20
ATOM     20  C   UNL d   1      -3.609   5.309   0.594  0.00  0.00     0.027 A 
ATOM     21  C   UNL d   1      -2.261   5.487   0.260  0.00  0.00     0.025 A 
ATOM     22  C   UNL d   1      -1.731   6.767   0.055  0.00  0.00     0.002 A 
ATOM     23  C   UNL d   1      -2.538   7.891   0.203  0.00  0.00     0.000 A 
ATOM     24  C   UNL d   1      -3.877   7.738   0.551  0.00  0.00     0.002 A 
ATOM     25  C   UNL d   1      -4.406   6.457   0.744  0.00  0.00     0.025 A 
ENDBRANCH  18  20
ENDBRANCH  14  18
ENDBRANCH   3  12
BRANCH  10  26
ATOM     26  C   UNL d   1       3.419  -1.565   0.013  0.00  0.00     0.009 A 
ATOM     27  C   UNL d   1       4.516  -0.735   0.301  0.00  0.00     0.017 A 
ATOM     28  C   UNL d   1       5.825  -1.205   0.162  0.00  0.00     0.025 A 
ATOM     29  C   UNL d   1       6.048  -2.510  -0.269  0.00  0.00     0.034 A 
ATOM     30  C   UNL d   1       4.975  -3.348  -0.561  0.00  0.00     0.025 A 
ATOM     31 CL   UNL d   1       7.660  -3.088  -0.444  0.00  0.00    -0.084 Cl
ATOM     32  C   UNL d   1       3.664  -2.877  -0.420  0.00  0.00     0.017 A 
ENDBRANCH  10  26
TORSDOF 4
