REMARK  2 active torsions:
REMARK  status: ('A' for Active; 'I' for Inactive)
REMARK    1  A    between atoms: C_2  and  S_1 
REMARK    2  A    between atoms: N_7  and  S_1 
ROOT
ATOM      1  C   UNL d   1       0.540   1.368  -0.913  0.00  0.00     0.107 A 
ATOM      2  C   UNL d   1       1.066   2.655  -0.503  0.00  0.00    -0.001 A 
ATOM      3  C   UNL d   1      -0.329   1.283  -2.019  0.00  0.00     0.030 A 
ATOM      4  C   UNL d   1       0.715   3.801  -1.269  0.00  0.00    -0.024 A 
ATOM      5  C   UNL d   1      -0.650   2.444  -2.735  0.00  0.00     0.020 A 
ATOM      6  C   UNL d   1      -0.131   3.680  -2.369  0.00  0.00     0.013 A 
ATOM      7  I   UNL d   1      -1.301  -0.418  -2.799  0.00  0.00    -0.043 I 
ATOM      8  C   UNL d   1       1.914   2.914   0.613  0.00  0.00     0.014 A 
ATOM      9  C   UNL d   1       1.205   5.078  -0.945  0.00  0.00     0.012 A 
ATOM     10  C   UNL d   1       2.395   4.189   0.930  0.00  0.00     0.001 A 
ATOM     11  C   UNL d   1       2.045   5.273   0.145  0.00  0.00     0.001 A 
ENDROOT
BRANCH   1  12
ATOM     12  S   UNL d   1       1.018  -0.070   0.041  0.00  0.00     0.260 S 
ATOM     13  O   UNL d   1       0.541  -1.307  -0.531  0.00  0.00    -0.200 OA
ATOM     14  O   UNL d   1       0.772   0.219   1.435  0.00  0.00    -0.200 OA
BRANCH  12  15
ATOM     15  N   UNL d   1       2.702  -0.110  -0.142  0.00  0.00    -0.320 N 
ATOM     16  C   UNL d   1       3.239  -0.794  -1.319  0.00  0.00     0.159 C 
ATOM     17  H   UNL d   1       3.160  -0.294   0.750  0.00  0.00     0.171 HD
ENDBRANCH  12  15
ENDBRANCH   1  12
TORSDOF 2
