REMARK  3 active torsions:
REMARK  status: ('A' for Active; 'I' for Inactive)
REMARK    1  A    between atoms: C_2  and  S_1 
REMARK    2  A    between atoms: O_3  and  S_1 
REMARK    3  A    between atoms: C_4  and  O_3 
ROOT
ATOM      1  S   UNL d   1       1.059   0.105   0.025  0.00  0.00     0.303 S 
ATOM      2  O   UNL d   1       0.271  -1.111   0.116  0.00  0.00    -0.193 OA
ATOM      3  O   UNL d   1       2.491   0.086   0.281  0.00  0.00    -0.193 OA
ENDROOT
BRANCH   1   4
ATOM      4  C   UNL d   1       0.413   1.215   1.272  0.00  0.00     0.093 A 
ATOM      5  C   UNL d   1       0.001   0.595   2.470  0.00  0.00     0.035 A 
ATOM      6  C   UNL d   1      -0.401   1.346   3.583  0.00  0.00    -0.039 A 
ATOM      7  C   UNL d   1      -0.743   0.642   4.866  0.00  0.00     0.050 C 
ATOM      8  C   UNL d   1      -0.447   2.737   3.457  0.00  0.00     0.040 A 
ATOM      9  C   UNL d   1      -0.049   3.357   2.264  0.00  0.00     0.032 A 
ATOM     10 CL   UNL d   1      -0.960   3.745   4.762  0.00  0.00    -0.084 Cl
ATOM     11  C   UNL d   1       0.426   2.613   1.165  0.00  0.00    -0.036 A 
ATOM     12  C   UNL d   1       0.914   3.380  -0.029  0.00  0.00     0.050 C 
ENDBRANCH   1   4
BRANCH   1  13
ATOM     13  O   UNL d   1       0.786   0.767  -1.448  0.00  0.00    -0.228 OA
BRANCH  13  14
ATOM     14  C   UNL d   1       1.089   0.027  -2.574  0.00  0.00     0.107 A 
ATOM     15  C   UNL d   1       0.221   0.053  -3.671  0.00  0.00     0.046 A 
ATOM     16  C   UNL d   1       0.459  -0.772  -4.783  0.00  0.00     0.028 A 
ATOM     17 BR   UNL d   1      -1.303   1.181  -3.699  0.00  0.00    -0.048 Br
ATOM     18  C   UNL d   1       1.573  -1.621  -4.812  0.00  0.00    -0.061 A 
ATOM     19  C   UNL d   1       2.475  -1.586  -3.748  0.00  0.00     0.009 A 
ATOM     20  C   UNL d   1       1.770  -2.595  -5.938  0.00  0.00     0.048 C 
ATOM     21  C   UNL d   1       2.246  -0.757  -2.651  0.00  0.00     0.040 A 
ENDBRANCH  13  14
ENDBRANCH   1  13
TORSDOF 3
