REMARK  5 active torsions:
REMARK  status: ('A' for Active; 'I' for Inactive)
REMARK    1  A    between atoms: C_9  and  C_3 
REMARK    2  A    between atoms: C_11  and  C_4 
REMARK    3  A    between atoms: O_12  and  C_8 
REMARK    4  A    between atoms: C_22  and  O_12 
REMARK    5  A    between atoms: O_23  and  C_13 
ROOT
ATOM      1  N   UNL d   1       0.577   0.243  -0.836  0.00  0.00    -0.319 N 
ATOM      2  HN  UNL d   1       1.198   0.440  -1.621  1.00  0.00     0.169 HD
ATOM      3  C   UNL d   1       0.097   1.112   0.116  0.00  0.00     0.138 A 
ATOM      4  C   UNL d   1       0.040  -0.902  -0.485  0.00  0.00     0.182 A 
ATOM      5  N   UNL d   1      -0.704   0.539   1.028  0.00  0.00    -0.242 N 
ATOM      6  HN  UNL d   1      -1.170   0.975   1.823  1.00  0.00     0.196 HD
ATOM      7  O   UNL d   1      -0.746  -0.802   0.626  0.00  0.00    -0.217 OA
ENDROOT
BRANCH   3   8
ATOM      8  C   UNL d   1       0.475   2.520   0.092  0.00  0.00     0.013 A 
ATOM      9  C   UNL d   1       1.247   2.987  -0.984  0.00  0.00     0.055 A 
ATOM     10  C   UNL d   1       1.701   4.309  -1.052  0.00  0.00     0.103 A 
ATOM     11  C   UNL d   1       1.310   5.206  -0.048  0.00  0.00     0.101 A 
ATOM     12  C   UNL d   1       0.541   4.744   1.031  0.00  0.00     0.040 A 
ATOM     13  C   UNL d   1       0.126   3.410   1.107  0.00  0.00     0.018 A 
BRANCH  10  14
ATOM     14  O   UNL d   1       2.511   4.740  -2.070  0.00  0.00    -0.343 OA
BRANCH  14  15
ATOM     15  C   UNL d   1       3.420   3.793  -2.643  0.00  0.00     0.129 C 
ATOM     16  C   UNL d   1       4.479   3.311  -1.651  0.00  0.00     0.032 C 
ATOM     17  C   UNL d   1       5.754   3.085  -2.454  0.00  0.00     0.002 C 
ATOM     18  C   UNL d   1       5.524   3.697  -3.830  0.00  0.00     0.002 C 
ATOM     19  C   UNL d   1       4.232   4.491  -3.729  0.00  0.00     0.032 C 
ENDBRANCH  14  15
ENDBRANCH  10  14
BRANCH  11  20
ATOM     20  O   UNL d   1       1.649   6.531   0.058  0.00  0.00    -0.353 OA
ATOM     21  C   UNL d   1       1.800   7.245  -1.163  0.00  0.00     0.210 C 
ENDBRANCH  11  20
ENDBRANCH   3   8
BRANCH   4  22
ATOM     22  C   UNL d   1       0.201  -2.210  -1.107  0.00  0.00     0.017 A 
ATOM     23  C   UNL d   1       1.100  -2.348  -2.181  0.00  0.00     0.017 A 
ATOM     24  C   UNL d   1       1.295  -3.587  -2.799  0.00  0.00     0.025 A 
ATOM     25  C   UNL d   1       0.586  -4.698  -2.355  0.00  0.00     0.034 A 
ATOM     26  C   UNL d   1      -0.316  -4.578  -1.297  0.00  0.00     0.025 A 
ATOM     27 CL   UNL d   1       0.829  -6.224  -3.106  0.00  0.00    -0.084 Cl
ATOM     28  C   UNL d   1      -0.511  -3.341  -0.677  0.00  0.00     0.017 A 
ENDBRANCH   4  22
TORSDOF 5
