REMARK  8 active torsions:
REMARK  status: ('A' for Active; 'I' for Inactive)
REMARK    1  A    between atoms: C_7  and  C_1 
REMARK    2  A    between atoms: C_6  and  N_2 
REMARK    3  A    between atoms: O_20  and  C_5 
REMARK    4  A    between atoms: C_8  and  C_10 
REMARK    5  A    between atoms: O_21  and  C_8 
REMARK    6  A    between atoms: N_12  and  C_9 
REMARK    7  A    between atoms: C_23  and  N_12 
REMARK    8  A    between atoms: C_24  and  O_21 
ROOT
ATOM      1  C   UNL d   1       0.315   5.613   0.423  0.00  0.00     0.054 C 
ATOM      2  C   UNL d   1      -0.681   6.216   1.240  0.00  0.00     0.035 C 
ATOM      3  C   UNL d   1       1.305   7.843   0.036  0.00  0.00     0.041 C 
ATOM      4  C   UNL d   1       1.284   6.454  -0.179  0.00  0.00     0.049 C 
ATOM      5  C   UNL d   1       0.410   8.394   0.944  0.00  0.00     0.019 C 
ATOM      6  C   UNL d   1      -0.535   7.583   1.565  0.00  0.00     0.027 C 
ENDROOT
BRANCH   1   7
ATOM      7  N   UNL d   1       0.398   4.258   0.022  0.00  0.00    -0.364 N 
ATOM      8  C   UNL d   1       0.023   3.273   0.783  0.00  0.00     0.102 C 
ATOM      9  HN  UNL d   1       0.768   4.046  -0.905  1.00  0.00     0.165 HD
BRANCH   8  10
ATOM     10  C   UNL d   1       0.187   1.863   0.346  0.00  0.00     0.016 A 
ATOM     11  C   UNL d   1      -0.365   0.810   1.087  0.00  0.00     0.099 A 
ATOM     12  C   UNL d   1      -0.185  -0.516   0.665  0.00  0.00     0.069 A 
ATOM     13 CL   UNL d   1      -0.872  -1.818   1.569  0.00  0.00    -0.081 Cl
ATOM     14  C   UNL d   1       0.549  -0.806  -0.481  0.00  0.00     0.050 A 
ATOM     15  C   UNL d   1       1.104   0.243  -1.212  0.00  0.00     0.036 A 
ATOM     16  C   UNL d   1       0.926   1.569  -0.810  0.00  0.00     0.039 A 
ATOM     17 CL   UNL d   1       2.028  -0.106  -2.621  0.00  0.00    -0.084 Cl
BRANCH  11  18
ATOM     18  O   UNL d   1      -1.086   1.079   2.223  0.00  0.00    -0.358 OA
ATOM     19  H   UNL d   1      -1.412   0.229   2.574  0.00  0.00     0.217 HD
ENDBRANCH  11  18
ENDBRANCH   8  10
ENDBRANCH   1   7
BRANCH   2  20
ATOM     20  N   UNL d   1      -1.791   5.473   1.754  0.00  0.00    -0.287 NA
ATOM     21  H   UNL d   1      -1.491   5.077   2.647  0.00  0.00     0.128 HD
BRANCH  20  22
ATOM     22  C   UNL d   1      -3.052   6.234   1.934  0.00  0.00     0.060 C 
ATOM     23  C   UNL d   1      -4.113   5.398   2.651  0.00  0.00     0.020 C 
ATOM     24  C   UNL d   1      -4.938   4.505   1.743  0.00  0.00     0.002 C 
ATOM     25  C   UNL d   1      -5.587   5.274   0.606  0.00  0.00     0.000 C 
ATOM     26  C   UNL d   1      -4.642   6.176  -0.168  0.00  0.00     0.002 C 
ATOM     27  C   UNL d   1      -3.537   6.870   0.617  0.00  0.00     0.020 C 
ENDBRANCH  20  22
ENDBRANCH   2  20
BRANCH   3  28
ATOM     28  C   UNL d   1       2.293   8.699  -0.687  0.00  0.00     0.293 C 
ATOM     29  O   UNL d   1       3.241   8.255  -1.321  0.00  0.00    -0.259 OA
BRANCH  28  30
ATOM     30  O   UNL d   1       1.991  10.010  -0.516  0.00  0.00    -0.318 OA
BRANCH  30  31
ATOM     31  C   UNL d   1       2.950  10.973  -0.986  0.00  0.00     0.174 C 
ATOM     32  C   UNL d   1       2.399  11.740  -2.173  0.00  0.00     0.034 C 
ENDBRANCH  30  31
ENDBRANCH  28  30
ENDBRANCH   3  28
TORSDOF 8
