REMARK  0 active torsions:
REMARK  status: ('A' for Active; 'I' for Inactive)
ROOT
ATOM      1  N   UNL d   1       1.480  -0.686  -0.003  0.00  0.00    -0.145 N 
ATOM      2  C   UNL d   1       1.524   0.689  -0.002  0.00  0.00     0.685 A 
ATOM      3  C   UNL d   1       0.337  -1.449  -0.002  0.00  0.00     0.274 A 
ATOM      4  N   UNL d   1       0.348   1.401   0.001  0.00  0.00    -0.186 N 
ATOM      5  C   UNL d   1      -0.934  -0.680   0.000  0.00  0.00     0.060 A 
ATOM      6  C   UNL d   1      -0.894   0.731   0.001  0.00  0.00     0.067 A 
ATOM      7  N   UNL d   1       2.724   1.187  -0.004  0.00  0.00    -0.224 N 
ATOM      8  HN  UNL d   1       2.974   2.176  -0.003  1.00  0.00     0.177 HD
ATOM      9  O   UNL d   1       0.337  -2.677  -0.005  0.00  0.00    -0.266 OA
ATOM     10  C   UNL d   1       2.805  -1.214  -0.009  0.00  0.00     0.171 A 
ATOM     11  C   UNL d   1       3.659   0.037  -0.008  0.00  0.00     0.159 A 
ATOM     12  C   UNL d   1       0.368   2.858  -0.001  0.00  0.00     0.175 C 
ATOM     13  C   UNL d   1      -2.150  -1.381   0.001  0.00  0.00     0.019 A 
ATOM     14  C   UNL d   1      -2.129   1.404   0.001  0.00  0.00     0.031 A 
ATOM     15  C   UNL d   1      -3.354  -0.684   0.001  0.00  0.00     0.001 A 
ATOM     16  C   UNL d   1      -3.343   0.707   0.001  0.00  0.00     0.002 A 
ENDROOT
TORSDOF 0
