REMARK  1 active torsions:
REMARK  status: ('A' for Active; 'I' for Inactive)
REMARK    1  A    between atoms: C_11  and  C_4 
ROOT
ATOM      1  N   UNL d   1       1.038  -3.977  -2.541  0.00  0.00    -0.197 NA
ATOM      2  C   UNL d   1       1.046  -3.557  -1.458  0.00  0.00     0.063 C 
ATOM      3  C   UNL d   1       1.066  -3.061  -0.074  0.00  0.00     0.163 C 
ENDROOT
BRANCH   3   4
ATOM      4  C   UNL d   1       1.170  -1.563  -0.040  0.00  0.00    -0.027 A 
ATOM      5  C   UNL d   1       2.369  -0.877  -0.011  0.00  0.00     0.059 A 
ATOM      6  S   UNL d   1       2.170   0.811   0.022  0.00  0.00    -0.101 SA
ATOM      7  C   UNL d   1       0.456   0.683   0.006  0.00  0.00     0.015 A 
ATOM      8  C   UNL d   1       0.040  -0.651  -0.025  0.00  0.00    -0.011 A 
ATOM      9  C   UNL d   1      -0.467   1.747   0.021  0.00  0.00     0.020 A 
ATOM     10  C   UNL d   1      -1.358  -0.903  -0.038  0.00  0.00     0.020 A 
ATOM     11  C   UNL d   1      -2.289   0.148  -0.015  0.00  0.00    -0.061 A 
ATOM     12  C   UNL d   1      -1.834   1.463   0.012  0.00  0.00     0.008 A 
ATOM     13  C   UNL d   1      -3.759  -0.159  -0.018  0.00  0.00     0.048 C 
ENDBRANCH   3   4
TORSDOF 1
