REMARK  4 active torsions:
REMARK  status: ('A' for Active; 'I' for Inactive)
REMARK    1  A    between atoms: C_6  and  C_1 
REMARK    2  A    between atoms: C_3  and  C_2 
REMARK       I    between atoms: N_8  and  C_3 
REMARK    3  A    between atoms: C_11  and  N_8 
REMARK    4  A    between atoms: N_10  and  C_12 
ROOT
ATOM      1  C   UNL d   1       0.456  -2.367   0.262  0.00  0.00     0.261 C 
ATOM      2  N   UNL d   1      -0.345  -3.468   0.442  0.00  0.00    -0.321 N 
ATOM      3  O   UNL d   1       0.242  -1.438  -0.511  0.00  0.00    -0.267 OA
ATOM      4  H   UNL d   1      -0.408  -3.787   1.398  0.00  0.00     0.169 HD
ENDROOT
BRANCH   1   5
ATOM      5  C   UNL d   1       1.571  -2.348   1.176  0.00  0.00     0.093 A 
ATOM      6  C   UNL d   1       2.783  -3.114   1.168  0.00  0.00     0.088 A 
ATOM      7  N   UNL d   1       3.565  -2.714   2.186  0.00  0.00    -0.259 N 
ATOM      8  O   UNL d   1       2.860  -1.772   2.895  0.00  0.00    -0.241 OA
ATOM      9  HN  UNL d   1       4.506  -3.048   2.394  1.00  0.00     0.195 HD
ATOM     10  C   UNL d   1       1.661  -1.559   2.301  0.00  0.00     0.090 A 
ATOM     11  C   UNL d   1       0.765  -0.602   2.977  0.00  0.00     0.080 C 
BRANCH   6  12
ATOM     12  C   UNL d   1       3.226  -4.171   0.245  0.00  0.00     0.054 A 
ATOM     13  C   UNL d   1       3.985  -5.287   0.655  0.00  0.00     0.049 A 
ATOM     14 CL   UNL d   1       4.428  -5.604   2.301  0.00  0.00    -0.083 Cl
ATOM     15  C   UNL d   1       4.399  -6.260  -0.273  0.00  0.00     0.025 A 
ATOM     16  C   UNL d   1       4.041  -6.162  -1.614  0.00  0.00     0.005 A 
ATOM     17  C   UNL d   1       3.281  -5.081  -2.034  0.00  0.00     0.043 A 
ATOM     18  C   UNL d   1       2.900  -4.099  -1.118  0.00  0.00     0.130 A 
ATOM     19  F   UNL d   1       2.217  -3.057  -1.610  0.00  0.00    -0.205 F 
ENDBRANCH   6  12
ENDBRANCH   1   5
BRANCH   2  20
ATOM     20  C   UNL d   1      -1.480  -3.753  -0.342  0.00  0.00     0.061 A 
ATOM     21  C   UNL d   1      -2.660  -4.157   0.334  0.00  0.00     0.057 A 
ATOM     22  C   UNL d   1      -3.788  -4.443  -0.448  0.00  0.00     0.031 A 
ATOM     23  C   UNL d   1      -3.753  -4.320  -1.842  0.00  0.00     0.002 A 
ATOM     24  C   UNL d   1      -2.588  -3.906  -2.483  0.00  0.00     0.002 A 
ATOM     25  C   UNL d   1      -1.449  -3.625  -1.733  0.00  0.00     0.032 A 
BRANCH  21  26
ATOM     26  N   UNL d   1      -2.698  -4.091   1.732  0.00  0.00    -0.375 N 
ATOM     27  C   UNL d   1      -3.947  -3.582   2.345  0.00  0.00     0.149 C 
ATOM     28  C   UNL d   1      -3.635  -3.145   3.785  0.00  0.00     0.187 C 
ATOM     29  O   UNL d   1      -3.059  -4.218   4.552  0.00  0.00    -0.388 OA
ATOM     30  C   UNL d   1      -1.863  -4.715   3.923  0.00  0.00     0.187 C 
ATOM     31  C   UNL d   1      -2.152  -5.227   2.496  0.00  0.00     0.149 C 
ENDBRANCH  21  26
ENDBRANCH   2  20
TORSDOF 4
