REMARK  8 active torsions:
REMARK  status: ('A' for Active; 'I' for Inactive)
REMARK    1  A    between atoms: S_2  and  C_1 
REMARK    2  A    between atoms: N_8  and  S_2 
REMARK    3  A    between atoms: N_9  and  N_8 
REMARK       I    between atoms: C_10  and  N_9 
REMARK    4  A    between atoms: C_13  and  C_10 
REMARK    5  A    between atoms: C_17  and  C_13 
REMARK    6  A    between atoms: S_15  and  C_17 
REMARK    7  A    between atoms: C_16  and  S_15 
REMARK    8  A    between atoms: O_25  and  C_18 
ROOT
ATOM      1  N   UNL d   1       3.682  -0.035   2.583  0.00  0.00    -0.260 N 
ATOM      2  C   UNL d   1       3.957  -0.468   3.857  0.00  0.00     0.237 C 
ATOM      3  O   UNL d   1       3.498   0.092   4.855  0.00  0.00    -0.272 OA
ATOM      4  H   UNL d   1       4.027  -0.504   1.742  0.00  0.00     0.190 HD
ENDROOT
BRANCH   1   5
ATOM      5  N   UNL d   1       2.788   1.096   2.410  0.00  0.00    -0.219 N 
ATOM      6  H   UNL d   1       2.358   1.468   3.264  0.00  0.00     0.200 HD
BRANCH   5   7
ATOM      7  S   UNL d   1       1.807   1.173   1.034  0.00  0.00     0.293 S 
ATOM      8  O   UNL d   1       1.166   2.470   1.002  0.00  0.00    -0.197 OA
ATOM      9  O   UNL d   1       1.039  -0.058   0.971  0.00  0.00    -0.197 OA
BRANCH   7  10
ATOM     10  C   UNL d   1       2.784   1.120  -0.408  0.00  0.00     0.167 A 
ATOM     11  N   UNL d   1       4.167   1.023  -0.406  0.00  0.00    -0.334 N 
ATOM     12  C   UNL d   1       4.524   1.005  -1.676  0.00  0.00     0.079 A 
ATOM     13  HN  UNL d   1       4.780   0.976   0.408  1.00  0.00     0.168 HD
ATOM     14  C   UNL d   1       5.917   0.961  -2.192  0.00  0.00     0.089 C 
ATOM     15  N   UNL d   1       3.416   1.041  -2.494  0.00  0.00    -0.348 N 
ATOM     16  C   UNL d   1       2.306   1.122  -1.703  0.00  0.00     0.135 A 
ATOM     17  C   UNL d   1       3.415   0.999  -3.937  0.00  0.00     0.156 C 
ENDBRANCH   7  10
ENDBRANCH   5   7
ENDBRANCH   1   5
BRANCH   2  18
ATOM     18  C   UNL d   1       4.916  -1.640   3.979  0.00  0.00     0.115 C 
BRANCH  18  19
ATOM     19  C   UNL d   1       4.718  -2.786   2.990  0.00  0.00     0.089 C 
BRANCH  19  20
ATOM     20  S   UNL d   1       5.298  -2.345   1.311  0.00  0.00    -0.130 SA
BRANCH  20  21
ATOM     21  C   UNL d   1       5.045  -3.877   0.441  0.00  0.00     0.000 A 
ATOM     22  C   UNL d   1       3.809  -4.529   0.404  0.00  0.00     0.021 A 
ATOM     23  C   UNL d   1       3.649  -5.713  -0.331  0.00  0.00     0.038 A 
ATOM     24  C   UNL d   1       4.725  -6.250  -1.039  0.00  0.00     0.068 A 
ATOM     25  C   UNL d   1       5.954  -5.590  -1.011  0.00  0.00     0.038 A 
ATOM     26  C   UNL d   1       6.113  -4.410  -0.282  0.00  0.00     0.021 A 
BRANCH  24  27
ATOM     27  O   UNL d   1       4.712  -7.391  -1.791  0.00  0.00    -0.356 OA
ATOM     28  C   UNL d   1       3.477  -8.090  -1.887  0.00  0.00     0.210 C 
ENDBRANCH  24  27
ENDBRANCH  20  21
ENDBRANCH  19  20
ENDBRANCH  18  19
ENDBRANCH   2  18
TORSDOF 8
