REMARK  6 active torsions:
REMARK  status: ('A' for Active; 'I' for Inactive)
REMARK    1  A    between atoms: C_7  and  C_1 
REMARK    2  A    between atoms: C_8  and  C_2 
REMARK    3  A    between atoms: O_18  and  C_7 
REMARK    4  A    between atoms: O_17  and  C_8 
REMARK    5  A    between atoms: C_24  and  O_17 
REMARK    6  A    between atoms: C_23  and  O_18 
ROOT
ATOM      1  C   UNL d   1       0.240   1.639   0.840  0.00  0.00     0.076 C 
ATOM      2  C   UNL d   1       2.354   0.102   1.220  0.00  0.00     0.076 C 
ATOM      3  C   UNL d   1       2.710   1.228   0.191  0.00  0.00     0.074 C 
ATOM      4  C   UNL d   1      -0.133   0.167   0.452  0.00  0.00     0.074 C 
ATOM      5  C   UNL d   1       1.439   2.115  -0.045  0.00  0.00     0.055 C 
ATOM      6  C   UNL d   1       1.120  -0.726   0.709  0.00  0.00     0.055 C 
ATOM      7  C   UNL d   1       0.731   1.685   2.320  0.00  0.00     0.024 C 
ATOM      8  C   UNL d   1       1.892   0.733   2.556  0.00  0.00     0.024 C 
ATOM      9  S   UNL d   1      -0.591  -0.002  -1.343  0.00  0.00    -0.146 SA
ATOM     10  S   UNL d   1       4.054   2.371   0.756  0.00  0.00    -0.146 SA
ATOM     11  S   UNL d   1       3.304   0.589  -1.432  0.00  0.00    -0.146 SA
ATOM     12  S   UNL d   1      -1.515  -0.579   1.448  0.00  0.00    -0.146 SA
ATOM     13  C   UNL d   1       5.462   1.585  -0.079  0.00  0.00     0.086 C 
ATOM     14  C   UNL d   1       5.047   0.436  -0.980  0.00  0.00     0.086 C 
ATOM     15  C   UNL d   1      -2.764  -0.643   0.136  0.00  0.00     0.086 C 
ATOM     16  C   UNL d   1      -2.076  -1.014  -1.157  0.00  0.00     0.086 C 
ENDROOT
BRANCH   1  17
ATOM     17  C   UNL d   1      -0.924   2.632   0.742  0.00  0.00     0.270 C 
ATOM     18  O   UNL d   1      -2.066   2.388   0.392  0.00  0.00    -0.264 OA
BRANCH  17  19
ATOM     19  O   UNL d   1      -0.528   3.845   1.234  0.00  0.00    -0.321 OA
BRANCH  19  20
ATOM     20  C   UNL d   1      -1.534   4.621   1.897  0.00  0.00     0.174 C 
ATOM     21  C   UNL d   1      -1.026   4.862   3.308  0.00  0.00     0.034 C 
ENDBRANCH  19  20
ENDBRANCH  17  19
ENDBRANCH   1  17
BRANCH   2  22
ATOM     22  C   UNL d   1       3.519  -0.816   1.589  0.00  0.00     0.270 C 
ATOM     23  O   UNL d   1       4.476  -0.497   2.285  0.00  0.00    -0.264 OA
BRANCH  22  24
ATOM     24  O   UNL d   1       3.322  -2.074   1.115  0.00  0.00    -0.321 OA
BRANCH  24  25
ATOM     25  C   UNL d   1       3.987  -3.138   1.805  0.00  0.00     0.174 C 
ATOM     26  C   UNL d   1       2.916  -4.163   2.123  0.00  0.00     0.034 C 
ENDBRANCH  24  25
ENDBRANCH  22  24
ENDBRANCH   2  22
TORSDOF 6
