REMARK  5 active torsions:
REMARK  status: ('A' for Active; 'I' for Inactive)
REMARK    1  A    between atoms: C_9  and  C_3 
REMARK    2  A    between atoms: C_12  and  C_4 
REMARK    3  A    between atoms: C_7  and  C_13 
REMARK    4  A    between atoms: C_10  and  C_18 
REMARK    5  A    between atoms: C_23  and  C_11 
ROOT
ATOM      1  N   UNL d   1       0.895  -0.014   0.863  0.00  0.00    -0.318 N 
ATOM      2  HN  UNL d   1       1.499  -0.033   1.685  1.00  0.00     0.169 HD
ATOM      3  C   UNL d   1       0.616  -0.989   0.026  0.00  0.00     0.183 A 
ATOM      4  C   UNL d   1       0.166   1.041   0.352  0.00  0.00     0.138 A 
ATOM      5  N   UNL d   1      -0.549   0.728  -0.740  0.00  0.00    -0.242 N 
ATOM      6  HN  UNL d   1      -1.166   1.333  -1.283  1.00  0.00     0.196 HD
ATOM      7  O   UNL d   1      -0.252  -0.611  -0.958  0.00  0.00    -0.217 OA
ENDROOT
BRANCH   3   8
ATOM      8  C   UNL d   1       1.094  -2.359  -0.015  0.00  0.00     0.034 A 
ATOM      9  C   UNL d   1       1.968  -2.853   0.963  0.00  0.00     0.039 A 
ATOM     10  C   UNL d   1       2.420  -4.171   0.884  0.00  0.00     0.034 A 
ATOM     11  C   UNL d   1       1.977  -4.955  -0.173  0.00  0.00     0.108 A 
ATOM     12  N   UNL d   1       1.134  -4.517  -1.136  0.00  0.00    -0.373 N 
ATOM     13  C   UNL d   1       0.717  -3.233  -1.034  0.00  0.00     0.103 A 
ATOM     14  HN  UNL d   1       0.830  -5.122  -1.899  1.00  0.00     0.164 HD
BRANCH  10  15
ATOM     15  C   UNL d   1       3.321  -4.717   1.847  0.00  0.00    -0.060 C 
ATOM     16  C   UNL d   1       4.083  -5.248   2.611  0.00  0.00    -0.061 C 
BRANCH  16  17
ATOM     17  C   UNL d   1       4.984  -5.947   3.474  0.00  0.00     0.018 A 
ATOM     18  C   UNL d   1       5.972  -6.771   2.926  0.00  0.00     0.020 A 
ATOM     19  C   UNL d   1       6.834  -7.483   3.762  0.00  0.00     0.001 A 
ATOM     20  C   UNL d   1       6.710  -7.371   5.147  0.00  0.00     0.000 A 
ATOM     21  C   UNL d   1       5.729  -6.545   5.696  0.00  0.00     0.001 A 
ATOM     22  C   UNL d   1       4.865  -5.833   4.860  0.00  0.00     0.020 A 
ENDBRANCH  16  17
ENDBRANCH  10  15
ENDBRANCH   3   8
BRANCH   4  23
ATOM     23  C   UNL d   1       0.216   2.379   0.930  0.00  0.00     0.011 A 
ATOM     24  C   UNL d   1       1.022   2.636   2.050  0.00  0.00     0.031 A 
ATOM     25  C   UNL d   1       1.127   3.931   2.585  0.00  0.00     0.048 A 
ATOM     26  C   UNL d   1       0.396   4.972   1.993  0.00  0.00     0.016 A 
ATOM     27  C   UNL d   1      -0.419   4.726   0.889  0.00  0.00     0.002 A 
ATOM     28  C   UNL d   1      -0.508   3.437   0.361  0.00  0.00     0.015 A 
BRANCH  25  29
ATOM     29  C   UNL d   1       2.026   4.215   3.763  0.00  0.00     0.417 C 
ATOM     30  F   UNL d   1       2.687   3.116   4.224  0.00  0.00    -0.166 F 
ATOM     31  F   UNL d   1       2.989   5.132   3.470  0.00  0.00    -0.166 F 
ATOM     32  F   UNL d   1       1.345   4.716   4.831  0.00  0.00    -0.166 F 
ENDBRANCH  25  29
ENDBRANCH   4  23
TORSDOF 5
