REMARK  2 active torsions:
REMARK  status: ('A' for Active; 'I' for Inactive)
REMARK    1  A    between atoms: C_7  and  C_1 
REMARK    2  A    between atoms: C_9  and  C_7 
ROOT
ATOM      1  C   UNL d   1       2.108   0.699  -0.436  0.00  0.00     0.004 C 
ATOM      2  C   UNL d   1       0.798   1.366  -0.196  0.00  0.00     0.190 C 
ATOM      3  C   UNL d   1      -0.446   0.564  -0.156  0.00  0.00     0.032 A 
ATOM      4  C   UNL d   1       2.261  -0.632  -0.419  0.00  0.00     0.061 C 
ATOM      5  S   UNL d   1       1.046  -1.812  -0.148  0.00  0.00    -0.101 SA
ATOM      6  C   UNL d   1      -0.431  -0.831  -0.146  0.00  0.00     0.019 A 
ATOM      7  O   UNL d   1       0.740   2.583  -0.042  0.00  0.00    -0.287 OA
ATOM      8  C   UNL d   1      -1.673   1.252  -0.129  0.00  0.00     0.017 A 
ATOM      9  C   UNL d   1      -1.654  -1.523  -0.114  0.00  0.00     0.020 A 
ATOM     10  C   UNL d   1      -2.879   0.554  -0.104  0.00  0.00     0.001 A 
ATOM     11  C   UNL d   1      -2.870  -0.836  -0.098  0.00  0.00     0.001 A 
ENDROOT
BRANCH   1  12
ATOM     12  C   UNL d   1       3.296   1.615  -0.611  0.00  0.00     0.081 C 
BRANCH  12  13
ATOM     13  C   UNL d   1       3.555   2.026  -2.045  0.00  0.00    -0.054 A 
ATOM     14  C   UNL d   1       2.954   3.176  -2.577  0.00  0.00     0.009 A 
ATOM     15  C   UNL d   1       3.239   3.589  -3.881  0.00  0.00     0.024 A 
ATOM     16  C   UNL d   1       4.119   2.847  -4.665  0.00  0.00     0.034 A 
ATOM     17  C   UNL d   1       4.703   1.687  -4.163  0.00  0.00     0.024 A 
ATOM     18 CL   UNL d   1       4.500   3.374  -6.259  0.00  0.00    -0.084 Cl
ATOM     19  C   UNL d   1       4.418   1.274  -2.858  0.00  0.00     0.009 A 
ENDBRANCH  12  13
ENDBRANCH   1  12
TORSDOF 2
