REMARK  5 active torsions:
REMARK  status: ('A' for Active; 'I' for Inactive)
REMARK    1  A    between atoms: O_14  and  C_1 
REMARK    2  A    between atoms: C_13  and  C_2 
REMARK    3  A    between atoms: C_6  and  C_15 
REMARK    4  A    between atoms: O_16  and  C_6 
REMARK    5  A    between atoms: C_15  and  C_13 
ROOT
ATOM      1  C   UNL d   1       0.783   0.735   1.123  0.00  0.00     0.059 C 
ATOM      2  C   UNL d   1      -1.500   0.320   0.091  0.00  0.00    -0.036 C 
ATOM      3  C   UNL d   1       0.575   0.463  -1.372  0.00  0.00    -0.011 C 
ATOM      4  C   UNL d   1       0.264  -1.522   0.145  0.00  0.00    -0.011 C 
ATOM      5  C   UNL d   1      -0.720   1.041   1.218  0.00  0.00     0.047 C 
ATOM      6  C   UNL d   1       1.009  -0.778   1.264  0.00  0.00     0.042 C 
ATOM      7  C   UNL d   1       1.305   1.207  -0.244  0.00  0.00     0.042 C 
ATOM      8  C   UNL d   1      -0.930   0.767  -1.279  0.00  0.00     0.014 C 
ATOM      9  C   UNL d   1      -1.242  -1.206   0.239  0.00  0.00     0.014 C 
ATOM     10  C   UNL d   1       0.798  -1.049  -1.217  0.00  0.00     0.009 C 
ENDROOT
BRANCH   2  11
ATOM     11  C   UNL d   1      -3.019   0.601   0.190  0.00  0.00     0.020 C 
BRANCH  11  12
ATOM     12  C   UNL d   1      -3.410   2.081   0.082  0.00  0.00     0.110 C 
BRANCH  12  13
ATOM     13  C   UNL d   1      -4.899   2.296   0.187  0.00  0.00     0.139 C 
ATOM     14  O   UNL d   1      -5.733   1.418   0.343  0.00  0.00    -0.650 OA
BRANCH  13  15
ATOM     15  O   UNL d   1      -5.232   3.604   0.090  0.00  0.00    -0.776 OA
ATOM     16  H   UNL d   1      -4.465   4.197  -0.030  0.00  0.00     0.167 HD
ENDBRANCH  13  15
ENDBRANCH  12  13
ENDBRANCH  11  12
ENDBRANCH   2  11
BRANCH   1  17
ATOM     17  O   UNL d   1       1.476   1.432   2.148  0.00  0.00    -0.390 OA
ATOM     18  H   UNL d   1       1.135   1.121   3.005  0.00  0.00     0.210 HD
ENDBRANCH   1  17
TORSDOF 5
