REMARK  3 active torsions:
REMARK  status: ('A' for Active; 'I' for Inactive)
REMARK    1  A    between atoms: O_2  and  C_1 
REMARK    2  A    between atoms: C_5  and  C_1 
REMARK    3  A    between atoms: C_3  and  O_2 
ROOT
ATOM      1  C   UNL d   1       2.303  -0.119  -0.381  0.00  0.00     0.293 C 
ATOM      2  O   UNL d   1       1.097  -0.144  -0.176  0.00  0.00    -0.259 OA
ENDROOT
BRANCH   1   3
ATOM      3  O   UNL d   1       3.128  -1.205  -0.282  0.00  0.00    -0.310 OA
BRANCH   3   4
ATOM      4  C   UNL d   1       2.378  -2.408  -0.012  0.00  0.00     0.164 C 
ATOM      5  C   UNL d   1       1.899  -2.487   1.462  0.00  0.00     0.305 C 
ATOM      6  N   UNL d   1       1.979  -3.872   1.998  0.00  0.00     0.090 N 
ATOM      7  C   UNL d   1       3.407  -4.226   2.132  0.00  0.00     0.273 C 
ATOM      8  C   UNL d   1       1.352  -4.797   1.024  0.00  0.00     0.273 C 
ATOM      9  C   UNL d   1       4.169  -4.003   0.814  0.00  0.00     0.037 C 
ATOM     10  C   UNL d   1       3.171  -3.699  -0.320  0.00  0.00     0.020 C 
ATOM     11  C   UNL d   1       2.132  -4.841  -0.306  0.00  0.00     0.037 C 
ENDBRANCH   3   4
ENDBRANCH   1   3
BRANCH   1  12
ATOM     12  C   UNL d   1       2.959   1.140  -0.816  0.00  0.00     0.039 A 
ATOM     13  C   UNL d   1       2.107   2.192  -1.195  0.00  0.00     0.018 A 
ATOM     14  C   UNL d   1       2.622   3.426  -1.588  0.00  0.00     0.007 A 
ATOM     15  C   UNL d   1       4.002   3.633  -1.613  0.00  0.00    -0.062 A 
ATOM     16  C   UNL d   1       4.856   2.586  -1.232  0.00  0.00     0.007 A 
ATOM     17  C   UNL d   1       4.531   4.984  -2.001  0.00  0.00     0.048 C 
ATOM     18  C   UNL d   1       4.340   1.339  -0.841  0.00  0.00     0.018 A 
ENDBRANCH   1  12
TORSDOF 3
