REMARK  5 active torsions:
REMARK  status: ('A' for Active; 'I' for Inactive)
REMARK       I    between atoms: N_2  and  C_1 
REMARK    1  A    between atoms: C_8  and  C_1 
REMARK    2  A    between atoms: C_9  and  N_2 
REMARK    3  A    between atoms: C_10  and  C_3 
REMARK    4  A    between atoms: S_4  and  C_8 
REMARK    5  A    between atoms: C_11  and  S_4 
ROOT
ATOM      1  C   UNL d   1      -0.915   0.337   1.352  0.00  0.00     0.231 C 
ATOM      2  N   UNL d   1      -0.127   1.046   0.463  0.00  0.00    -0.327 N 
ATOM      3  O   UNL d   1      -1.501   0.822   2.325  0.00  0.00    -0.272 OA
ATOM      4  H   UNL d   1       0.231   0.530  -0.334  0.00  0.00     0.169 HD
ENDROOT
BRANCH   2   5
ATOM      5  C   UNL d   1       0.358   2.365   0.628  0.00  0.00     0.034 C 
ATOM      6  C   UNL d   1       0.176   3.115   1.787  0.00  0.00     0.030 C 
ATOM      7  C   UNL d   1       0.850   4.327   1.967  0.00  0.00     0.010 C 
ATOM      8  C   UNL d   1       1.739   4.819   0.999  0.00  0.00    -0.054 C 
ATOM      9  C   UNL d   1       1.773   4.150  -0.230  0.00  0.00     0.010 C 
ATOM     10  C   UNL d   1       1.119   2.921  -0.403  0.00  0.00     0.030 C 
BRANCH   8  11
ATOM     11  C   UNL d   1       2.679   5.970   1.369  0.00  0.00     0.018 C 
ATOM     12  C   UNL d   1       3.743   6.365   0.323  0.00  0.00     0.009 C 
ATOM     13  C   UNL d   1       4.830   5.304   0.108  0.00  0.00     0.001 C 
ATOM     14  C   UNL d   1       5.424   4.742   1.398  0.00  0.00     0.000 C 
ATOM     15  C   UNL d   1       4.402   4.481   2.499  0.00  0.00     0.001 C 
ATOM     16  C   UNL d   1       3.445   5.659   2.679  0.00  0.00     0.009 C 
ENDBRANCH   8  11
ENDBRANCH   2   5
BRANCH   1  17
ATOM     17  C   UNL d   1      -1.136  -1.136   1.026  0.00  0.00     0.182 C 
BRANCH  17  18
ATOM     18  S   UNL d   1       0.365  -1.968   0.413  0.00  0.00    -0.121 SA
BRANCH  18  19
ATOM     19  C   UNL d   1      -0.126  -3.694   0.378  0.00  0.00     0.001 A 
ATOM     20  C   UNL d   1       0.480  -4.516  -0.579  0.00  0.00     0.019 A 
ATOM     21  C   UNL d   1       0.207  -5.888  -0.634  0.00  0.00     0.008 A 
ATOM     22  C   UNL d   1      -0.675  -6.473   0.281  0.00  0.00    -0.062 A 
ATOM     23  C   UNL d   1      -1.296  -5.656   1.227  0.00  0.00     0.008 A 
ATOM     24  C   UNL d   1      -0.947  -7.947   0.228  0.00  0.00     0.048 C 
ATOM     25  C   UNL d   1      -1.016  -4.282   1.282  0.00  0.00     0.019 A 
ENDBRANCH  18  19
ENDBRANCH  17  18
ENDBRANCH   1  17
TORSDOF 5
