REMARK  7 active torsions:
REMARK  status: ('A' for Active; 'I' for Inactive)
REMARK    1  A    between atoms: C_11  and  C_1 
REMARK    2  A    between atoms: C_3  and  C_10 
REMARK    3  A    between atoms: C_6  and  C_4 
REMARK    4  A    between atoms: C_7  and  O_22 
REMARK    5  A    between atoms: C_12  and  C_7 
REMARK    6  A    between atoms: C_23  and  C_8 
REMARK    7  A    between atoms: O_22  and  C_23 
ROOT
ATOM      1  C   UNL d   1       4.448   5.579  -0.164  0.00  0.00     0.294 C 
ATOM      2  O   UNL d   1       4.796   5.702   1.001  0.00  0.00    -0.259 OA
ENDROOT
BRANCH   1   3
ATOM      3  O   UNL d   1       4.192   4.403  -0.788  0.00  0.00    -0.305 OA
BRANCH   3   4
ATOM      4  C   UNL d   1       4.333   3.217   0.020  0.00  0.00     0.273 C 
BRANCH   4   5
ATOM      5  C   UNL d   1       3.075   2.462   0.035  0.00  0.00    -0.074 C 
ATOM      6  C   UNL d   1       2.103   1.750   0.044  0.00  0.00    -0.057 C 
BRANCH   6   7
ATOM      7  C   UNL d   1       1.026   0.818   0.032  0.00  0.00     0.059 A 
ATOM      8  S   UNL d   1       1.274  -0.869   0.030  0.00  0.00    -0.078 SA
ATOM      9  C   UNL d   1      -0.412  -1.205   0.007  0.00  0.00     0.051 A 
ATOM     10  C   UNL d   1      -1.142  -0.029  -0.003  0.00  0.00     0.025 A 
ATOM     11  C   UNL d   1      -0.312   1.134   0.013  0.00  0.00     0.029 A 
BRANCH   9  12
ATOM     12  C   UNL d   1      -0.839  -2.602   0.003  0.00  0.00     0.162 C 
ATOM     13  O   UNL d   1      -0.056  -3.555   0.004  0.00  0.00    -0.292 OA
ATOM     14  C   UNL d   1      -2.319  -2.908  -0.001  0.00  0.00     0.097 C 
ENDBRANCH   9  12
ENDBRANCH   6   7
ENDBRANCH   4   5
ENDBRANCH   3   4
ENDBRANCH   1   3
BRANCH   1  15
ATOM     15  C   UNL d   1       4.265   6.764  -1.061  0.00  0.00     0.039 A 
ATOM     16  C   UNL d   1       4.531   8.035  -0.524  0.00  0.00     0.018 A 
ATOM     17  C   UNL d   1       4.381   9.195  -1.296  0.00  0.00     0.017 A 
ATOM     18  C   UNL d   1       3.979   9.109  -2.636  0.00  0.00     0.048 A 
ATOM     19  C   UNL d   1       3.707   7.838  -3.172  0.00  0.00     0.017 A 
ATOM     20  C   UNL d   1       3.838   6.676  -2.392  0.00  0.00     0.018 A 
BRANCH  18  21
ATOM     21  C   UNL d   1       3.839  10.365  -3.469  0.00  0.00     0.417 C 
ATOM     22  F   UNL d   1       3.440  10.125  -4.750  0.00  0.00    -0.166 F 
ATOM     23  F   UNL d   1       2.928  11.235  -2.953  0.00  0.00    -0.166 F 
ATOM     24  F   UNL d   1       5.005  11.062  -3.568  0.00  0.00    -0.166 F 
ENDBRANCH  18  21
ENDBRANCH   1  15
TORSDOF 7
