REMARK  7 active torsions:
REMARK  status: ('A' for Active; 'I' for Inactive)
REMARK       I    between atoms: N_2  and  C_1 
REMARK    1  A    between atoms: C_4  and  C_1 
REMARK    2  A    between atoms: C_3  and  N_2 
REMARK    3  A    between atoms: O_17  and  C_5 
REMARK    4  A    between atoms: O_19  and  C_6 
REMARK    5  A    between atoms: O_18  and  C_7 
REMARK    6  A    between atoms: O_20  and  C_10 
REMARK    7  A    between atoms: O_21  and  C_14 
ROOT
ATOM      1  C   UNL d   1       1.042  -0.031  -0.160  0.00  0.00     0.256 C 
ATOM      2  N   UNL d   1       2.423   0.106  -0.253  0.00  0.00    -0.320 N 
ATOM      3  O   UNL d   1       0.443  -0.905   0.454  0.00  0.00    -0.267 OA
ATOM      4  H   UNL d   1       2.727   1.071  -0.216  0.00  0.00     0.169 HD
ENDROOT
BRANCH   1   5
ATOM      5  C   UNL d   1       0.278   1.061  -0.817  0.00  0.00     0.037 A 
ATOM      6  C   UNL d   1       0.660   1.504  -2.084  0.00  0.00     0.057 A 
ATOM      7  C   UNL d   1      -0.053   2.522  -2.734  0.00  0.00     0.105 A 
ATOM      8  C   UNL d   1      -1.170   3.113  -2.093  0.00  0.00     0.135 A 
ATOM      9  C   UNL d   1      -1.565   2.628  -0.822  0.00  0.00     0.105 A 
ATOM     10  C   UNL d   1      -0.834   1.613  -0.190  0.00  0.00     0.057 A 
BRANCH   7  11
ATOM     11  O   UNL d   1       0.292   2.958  -3.987  0.00  0.00    -0.353 OA
ATOM     12  C   UNL d   1       1.414   2.367  -4.631  0.00  0.00     0.210 C 
ENDBRANCH   7  11
BRANCH   8  13
ATOM     13  O   UNL d   1      -1.919   4.153  -2.580  0.00  0.00    -0.351 OA
ATOM     14  C   UNL d   1      -1.574   4.792  -3.799  0.00  0.00     0.210 C 
ENDBRANCH   8  13
BRANCH   9  15
ATOM     15  O   UNL d   1      -2.605   3.087  -0.047  0.00  0.00    -0.353 OA
ATOM     16  C   UNL d   1      -3.758   3.576  -0.724  0.00  0.00     0.210 C 
ENDBRANCH   9  15
ENDBRANCH   1   5
BRANCH   2  17
ATOM     17  C   UNL d   1       3.252  -0.832   0.399  0.00  0.00     0.071 A 
ATOM     18  C   UNL d   1       3.906  -0.422   1.565  0.00  0.00     0.071 A 
ATOM     19  C   UNL d   1       4.701  -1.310   2.309  0.00  0.00     0.092 A 
ATOM     20  C   UNL d   1       4.860  -2.616   1.827  0.00  0.00     0.070 A 
ATOM     21  C   UNL d   1       4.238  -3.009   0.625  0.00  0.00     0.065 A 
ATOM     22 CL   UNL d   1       5.818  -3.844   2.581  0.00  0.00    -0.081 Cl
ATOM     23  C   UNL d   1       3.429  -2.128  -0.094  0.00  0.00     0.096 A 
BRANCH  19  24
ATOM     24  O   UNL d   1       5.193  -0.697   3.425  0.00  0.00    -0.354 OA
ATOM     25  C   UNL d   1       5.937  -1.422   4.385  0.00  0.00     0.210 C 
ENDBRANCH  19  24
BRANCH  23  26
ATOM     26  O   UNL d   1       2.872  -2.406  -1.316  0.00  0.00    -0.354 OA
ATOM     27  C   UNL d   1       2.730  -3.779  -1.662  0.00  0.00     0.210 C 
ENDBRANCH  23  26
ENDBRANCH   2  17
TORSDOF 7
