REMARK  4 active torsions:
REMARK  status: ('A' for Active; 'I' for Inactive)
REMARK    1  A    between atoms: N_3  and  C_2 
REMARK       I    between atoms: C_10  and  N_3 
REMARK    2  A    between atoms: C_9  and  C_7 
REMARK    3  A    between atoms: O_20  and  C_8 
REMARK    4  A    between atoms: C_15  and  C_10 
ROOT
ATOM      1  C   UNL d   1       0.050  -0.723  -0.125  0.00  0.00     0.051 A 
ATOM      2  C   UNL d   1       1.454  -1.044  -0.164  0.00  0.00     0.056 A 
ATOM      3  N   UNL d   1      -1.597   1.044   0.135  0.00  0.00    -0.351 N 
ATOM      4  HN  UNL d   1      -1.799   2.032   0.288  1.00  0.00     0.166 HD
ATOM      5  C   UNL d   1      -0.324   0.621   0.077  0.00  0.00     0.048 A 
ATOM      6  C   UNL d   1      -2.615   0.157  -0.011  0.00  0.00     0.119 A 
ATOM      7  C   UNL d   1      -1.042  -1.629  -0.240  0.00  0.00     0.085 A 
ATOM      8  C   UNL d   1      -2.369  -1.196  -0.193  0.00  0.00     0.072 A 
ATOM      9  C   UNL d   1       2.429  -0.030  -0.067  0.00  0.00    -0.034 A 
ATOM     10  C   UNL d   1       0.652   1.587   0.221  0.00  0.00     0.031 A 
ATOM     11  C   UNL d   1       2.008   1.282   0.151  0.00  0.00     0.011 A 
ATOM     12  C   UNL d   1       3.908  -0.270  -0.211  0.00  0.00     0.050 C 
ENDROOT
BRANCH   2  13
ATOM     13  N   UNL d   1       1.839  -2.396  -0.352  0.00  0.00    -0.322 N 
ATOM     14  C   UNL d   1       2.719  -3.056   0.494  0.00  0.00     0.256 C 
ATOM     15  O   UNL d   1       3.264  -2.573   1.481  0.00  0.00    -0.267 OA
ATOM     16  H   UNL d   1       1.126  -2.986  -0.777  0.00  0.00     0.169 HD
BRANCH  14  17
ATOM     17  C   UNL d   1       2.921  -4.501   0.202  0.00  0.00     0.032 A 
ATOM     18  C   UNL d   1       2.893  -4.992  -1.109  0.00  0.00     0.017 A 
ATOM     19  C   UNL d   1       3.099  -6.353  -1.344  0.00  0.00     0.001 A 
ATOM     20  C   UNL d   1       3.332  -7.222  -0.278  0.00  0.00     0.000 A 
ATOM     21  C   UNL d   1       3.370  -6.735   1.028  0.00  0.00     0.001 A 
ATOM     22  C   UNL d   1       3.171  -5.375   1.268  0.00  0.00     0.017 A 
ENDBRANCH  14  17
ENDBRANCH   2  13
BRANCH   7  23
ATOM     23  O   UNL d   1      -0.818  -2.958  -0.532  0.00  0.00    -0.355 OA
ATOM     24  C   UNL d   1      -0.830  -3.765   0.651  0.00  0.00     0.210 C 
ENDBRANCH   7  23
BRANCH   6  25
ATOM     25  C   UNL d   1      -4.048   0.675   0.015  0.00  0.00     0.432 C 
ATOM     26  F   UNL d   1      -4.154   2.035   0.020  0.00  0.00    -0.165 F 
ATOM     27  F   UNL d   1      -4.771   0.256  -1.065  0.00  0.00    -0.165 F 
ATOM     28  F   UNL d   1      -4.742   0.244   1.108  0.00  0.00    -0.165 F 
ENDBRANCH   6  25
TORSDOF 4
