REMARK  6 active torsions:
REMARK  status: ('A' for Active; 'I' for Inactive)
REMARK    1  A    between atoms: C_11  and  C_1 
REMARK    2  A    between atoms: C_10  and  C_3 
REMARK    3  A    between atoms: O_18  and  C_9 
REMARK    4  A    between atoms: N_17  and  N_12 
REMARK    5  A    between atoms: C_22  and  N_17 
REMARK    6  A    between atoms: C_20  and  O_18 
ROOT
ATOM      1  C   UNL d   1      -1.700  -2.985   0.077  0.00  0.00     0.052 A 
ATOM      2  S   UNL d   1      -2.043  -4.669   0.148  0.00  0.00    -0.068 SA
ATOM      3  C   UNL d   1      -3.734  -4.356   0.107  0.00  0.00     0.085 A 
ATOM      4  N   UNL d   1      -4.039  -3.076   0.040  0.00  0.00    -0.352 N 
ATOM      5  HN  UNL d   1      -4.991  -2.714  -0.014  1.00  0.00     0.166 HD
ATOM      6  C   UNL d   1      -2.899  -2.284   0.050  0.00  0.00     0.025 A 
ATOM      7  C   UNL d   1      -3.117  -0.811   0.071  0.00  0.00     0.070 C 
ENDROOT
BRANCH   3   8
ATOM      8  C   UNL d   1      -4.747  -5.431   0.139  0.00  0.00     0.005 A 
ATOM      9  C   UNL d   1      -6.104  -5.089   0.035  0.00  0.00     0.070 A 
ATOM     10  C   UNL d   1      -7.058  -6.095   0.042  0.00  0.00     0.150 A 
ATOM     11  N   UNL d   1      -6.764  -7.401   0.192  0.00  0.00    -0.327 N 
ATOM     12  C   UNL d   1      -5.461  -7.707   0.291  0.00  0.00     0.106 A 
ATOM     13  HN  UNL d   1      -7.490  -8.116   0.227  1.00  0.00     0.169 HD
ATOM     14  C   UNL d   1      -4.428  -6.787   0.265  0.00  0.00     0.056 A 
ATOM     15 CL   UNL d   1      -5.136  -9.385   0.432  0.00  0.00    -0.064 Cl
BRANCH  10  16
ATOM     16  O   UNL d   1      -8.385  -5.701  -0.085  0.00  0.00    -0.294 OA
BRANCH  16  17
ATOM     17  C   UNL d   1      -9.262  -6.571  -0.697  0.00  0.00     0.077 A 
ATOM     18  C   UNL d   1     -10.567  -6.602  -0.196  0.00  0.00     0.039 A 
ATOM     19  C   UNL d   1     -11.524  -7.432  -0.787  0.00  0.00     0.026 A 
ATOM     20  C   UNL d   1     -11.175  -8.220  -1.883  0.00  0.00     0.034 A 
ATOM     21  C   UNL d   1      -9.884  -8.173  -2.404  0.00  0.00     0.026 A 
ATOM     22 CL   UNL d   1     -12.348  -9.250  -2.606  0.00  0.00    -0.084 Cl
ATOM     23  C   UNL d   1      -8.931  -7.335  -1.821  0.00  0.00     0.039 A 
ENDBRANCH  16  17
ENDBRANCH  10  16
ENDBRANCH   3   8
BRANCH   1  24
ATOM     24  C   UNL d   1      -0.318  -2.525   0.068  0.00  0.00     0.041 C 
ATOM     25  N   UNL d   1       0.586  -3.195   0.732  0.00  0.00    -0.303 N 
ATOM     26  HN  UNL d   1       0.348  -4.065   1.208  1.00  0.00     0.186 HD
ATOM     27  C   UNL d   1       0.010  -1.265  -0.711  0.00  0.00     0.071 C 
BRANCH  25  28
ATOM     28  N   UNL d   1       1.852  -2.701   0.771  0.00  0.00    -0.301 N 
ATOM     29  H   UNL d   1       2.171  -1.973   0.141  0.00  0.00     0.187 HD
BRANCH  28  30
ATOM     30  C   UNL d   1       2.899  -3.438   1.357  0.00  0.00     0.048 A 
ATOM     31  C   UNL d   1       2.715  -4.691   1.949  0.00  0.00     0.031 A 
ATOM     32  C   UNL d   1       3.781  -5.356   2.570  0.00  0.00     0.002 A 
ATOM     33  C   UNL d   1       5.038  -4.759   2.631  0.00  0.00     0.000 A 
ATOM     34  C   UNL d   1       5.232  -3.500   2.073  0.00  0.00     0.002 A 
ATOM     35  C   UNL d   1       4.169  -2.845   1.446  0.00  0.00     0.031 A 
ENDBRANCH  28  30
ENDBRANCH  25  28
ENDBRANCH   1  24
TORSDOF 6
