REMARK  2 active torsions:
REMARK  status: ('A' for Active; 'I' for Inactive)
REMARK    1  A    between atoms: N_9  and  N_2 
REMARK    2  A    between atoms: C_13  and  N_9 
ROOT
ATOM      1  C   UNL d   1      -1.271  -0.053  -0.007  0.00  0.00     0.140 C 
ATOM      2  N   UNL d   1      -2.525   0.036   0.350  0.00  0.00    -0.294 N 
ATOM      3  HN  UNL d   1      -2.993   0.940   0.415  1.00  0.00     0.187 HD
ATOM      4  C   UNL d   1      -0.528   1.257  -0.250  0.00  0.00     0.181 C 
ATOM      5  C   UNL d   1      -0.538  -1.388  -0.148  0.00  0.00     0.181 C 
ATOM      6  C   UNL d   1       1.630  -0.070   0.060  0.00  0.00    -0.034 C 
ATOM      7  C   UNL d   1       0.935  -1.340  -0.444  0.00  0.00     0.095 C 
ATOM      8  C   UNL d   1       0.949   1.161  -0.553  0.00  0.00     0.095 C 
ATOM      9  O   UNL d   1      -1.143  -2.455  -0.098  0.00  0.00    -0.291 OA
ATOM     10  O   UNL d   1      -1.121   2.327  -0.258  0.00  0.00    -0.291 OA
ATOM     11  C   UNL d   1       3.100  -0.117  -0.407  0.00  0.00     0.015 C 
ATOM     12  C   UNL d   1       1.624  -0.001   1.600  0.00  0.00     0.015 C 
ENDROOT
BRANCH   2  13
ATOM     13  N   UNL d   1      -3.181  -1.117   0.631  0.00  0.00    -0.300 N 
ATOM     14  H   UNL d   1      -2.764  -2.032   0.422  0.00  0.00     0.187 HD
BRANCH  13  15
ATOM     15  C   UNL d   1      -4.551  -1.126   0.933  0.00  0.00     0.049 A 
ATOM     16  C   UNL d   1      -5.331   0.034   0.968  0.00  0.00     0.050 A 
ATOM     17  C   UNL d   1      -6.677  -0.035   1.337  0.00  0.00     0.013 A 
ATOM     18 BR   UNL d   1      -7.730   1.536   1.352  0.00  0.00    -0.051 Br
ATOM     19  C   UNL d   1      -7.257  -1.251   1.698  0.00  0.00     0.019 A 
ATOM     20  C   UNL d   1      -6.485  -2.409   1.686  0.00  0.00     0.004 A 
ATOM     21  C   UNL d   1      -5.144  -2.343   1.307  0.00  0.00     0.031 A 
ENDBRANCH  13  15
ENDBRANCH   2  13
TORSDOF 2
