REMARK  8 active torsions:
REMARK  status: ('A' for Active; 'I' for Inactive)
REMARK    1  A    between atoms: C_2  and  C_1 
REMARK    2  A    between atoms: O_12  and  C_1 
REMARK       I    between atoms: C_3  and  N_4 
REMARK    3  A    between atoms: C_14  and  C_3 
REMARK    4  A    between atoms: N_4  and  C_7 
REMARK    5  A    between atoms: C_5  and  C_15 
REMARK    6  A    between atoms: O_13  and  C_5 
REMARK    7  A    between atoms: S_11  and  C_14 
REMARK    8  A    between atoms: C_15  and  S_11 
ROOT
ATOM      1  C   UNL d   1       1.355   1.000  -5.070  0.00  0.00     0.231 C 
ATOM      2  N   UNL d   1       0.267   1.628  -4.491  0.00  0.00    -0.327 N 
ATOM      3  O   UNL d   1       2.191   0.307  -4.486  0.00  0.00    -0.272 OA
ATOM      4  H   UNL d   1      -0.288   2.235  -5.086  0.00  0.00     0.169 HD
ENDROOT
BRANCH   2   5
ATOM      5  C   UNL d   1      -0.103   1.591  -3.128  0.00  0.00     0.035 A 
ATOM      6  C   UNL d   1       0.568   0.827  -2.171  0.00  0.00     0.047 A 
ATOM      7  C   UNL d   1       0.187   0.877  -0.824  0.00  0.00     0.039 A 
ATOM      8  C   UNL d   1      -0.915   1.643  -0.438  0.00  0.00     0.018 A 
ATOM      9  C   UNL d   1      -1.608   2.387  -1.390  0.00  0.00     0.003 A 
ATOM     10  C   UNL d   1      -1.197   2.369  -2.727  0.00  0.00     0.029 A 
BRANCH   7  11
ATOM     11  C   UNL d   1       0.908   0.097   0.209  0.00  0.00     0.176 C 
ATOM     12  O   UNL d   1       0.355  -0.353   1.199  0.00  0.00    -0.646 OA
BRANCH  11  13
ATOM     13  O   UNL d   1       2.232  -0.025  -0.013  0.00  0.00    -0.773 OA
ATOM     14  H   UNL d   1       2.588   0.500  -0.753  0.00  0.00     0.167 HD
ENDBRANCH  11  13
ENDBRANCH   7  11
ENDBRANCH   2   5
BRANCH   1  15
ATOM     15  C   UNL d   1       1.540   1.303  -6.547  0.00  0.00     0.177 C 
BRANCH  15  16
ATOM     16  S   UNL d   1       2.679   2.710  -6.764  0.00  0.00    -0.149 SA
BRANCH  16  17
ATOM     17  C   UNL d   1       4.151   2.143  -5.838  0.00  0.00     0.184 C 
BRANCH  17  18
ATOM     18  C   UNL d   1       4.754   0.875  -6.401  0.00  0.00     0.149 C 
ATOM     19  O   UNL d   1       5.551   0.855  -7.329  0.00  0.00    -0.649 OA
BRANCH  18  20
ATOM     20  O   UNL d   1       4.332  -0.262  -5.802  0.00  0.00    -0.776 OA
ATOM     21  H   UNL d   1       3.653  -0.138  -5.095  0.00  0.00     0.167 HD
ENDBRANCH  18  20
ENDBRANCH  17  18
ENDBRANCH  16  17
ENDBRANCH  15  16
ENDBRANCH   1  15
TORSDOF 8
