REMARK  6 active torsions:
REMARK  status: ('A' for Active; 'I' for Inactive)
REMARK       I    between atoms: C_3  and  N_4 
REMARK    1  A    between atoms: C_15  and  C_3 
REMARK    2  A    between atoms: N_4  and  C_9 
REMARK    3  A    between atoms: C_5  and  C_16 
REMARK    4  A    between atoms: O_10  and  C_5 
REMARK    5  A    between atoms: C_17  and  C_15 
REMARK    6  A    between atoms: C_16  and  C_17 
ROOT
ATOM      1  N   UNL d   1      -3.044  -0.220  -0.500  0.00  0.00    -0.191 NA
ATOM      2  C   UNL d   1      -1.889  -0.145  -0.398  0.00  0.00     0.099 C 
ATOM      3  C   UNL d   1      -0.466  -0.044  -0.274  0.00  0.00     0.044 A 
ATOM      4  C   UNL d   1       2.329   0.183  -0.014  0.00  0.00     0.034 A 
ATOM      5  C   UNL d   1       0.292  -1.134   0.163  0.00  0.00     0.025 A 
ATOM      6  C   UNL d   1       0.175   1.153  -0.591  0.00  0.00     0.025 A 
ATOM      7  C   UNL d   1       1.684  -1.024   0.283  0.00  0.00     0.031 A 
ATOM      8  C   UNL d   1       1.562   1.262  -0.463  0.00  0.00     0.031 A 
ENDROOT
BRANCH   4   9
ATOM      9  N   UNL d   1       3.730   0.248   0.156  0.00  0.00    -0.327 N 
ATOM     10  C   UNL d   1       4.492   1.403   0.159  0.00  0.00     0.222 C 
ATOM     11  O   UNL d   1       4.069   2.548   0.031  0.00  0.00    -0.273 OA
ATOM     12  H   UNL d   1       4.196  -0.620   0.395  0.00  0.00     0.169 HD
BRANCH  10  13
ATOM     13  C   UNL d   1       5.974   1.148   0.369  0.00  0.00     0.103 C 
BRANCH  13  14
ATOM     14  C   UNL d   1       6.638   2.305   1.129  0.00  0.00     0.019 C 
BRANCH  14  15
ATOM     15  C   UNL d   1       6.095   2.491   2.551  0.00  0.00     0.110 C 
BRANCH  15  16
ATOM     16  C   UNL d   1       6.363   1.290   3.426  0.00  0.00     0.139 C 
ATOM     17  O   UNL d   1       7.309   0.529   3.290  0.00  0.00    -0.650 OA
BRANCH  16  18
ATOM     18  O   UNL d   1       5.439   1.123   4.397  0.00  0.00    -0.776 OA
ATOM     19  H   UNL d   1       4.739   1.805   4.407  0.00  0.00     0.167 HD
ENDBRANCH  16  18
ENDBRANCH  15  16
ENDBRANCH  14  15
ENDBRANCH  13  14
ENDBRANCH  10  13
ENDBRANCH   4   9
TORSDOF 6
