REMARK  5 active torsions:
REMARK  status: ('A' for Active; 'I' for Inactive)
REMARK    1  A    between atoms: C_7  and  C_1 
REMARK    2  A    between atoms: C_10  and  N_2 
REMARK    3  A    between atoms: C_12  and  C_6 
REMARK       I    between atoms: N_8  and  C_7 
REMARK    4  A    between atoms: C_14  and  N_8 
REMARK    5  A    between atoms: C_20  and  C_10 
ROOT
ATOM      1  C   UNL d   1      -0.967  -1.555   0.029  0.00  0.00     0.121 A 
ATOM      2  N   UNL d   1       0.309  -1.053  -0.003  0.00  0.00    -0.282 N 
ATOM      3  N   UNL d   1       0.351   0.296   0.015  0.00  0.00    -0.301 N 
ATOM      4  HN  UNL d   1       1.180   0.890   0.047  1.00  0.00     0.187 HD
ATOM      5  C   UNL d   1      -1.791  -0.439  -0.047  0.00  0.00     0.064 A 
ATOM      6  C   UNL d   1      -0.926   0.689  -0.020  0.00  0.00     0.036 A 
ENDROOT
BRANCH   1   7
ATOM      7  C   UNL d   1      -1.317  -2.952   0.179  0.00  0.00     0.274 C 
ATOM      8  N   UNL d   1      -2.240  -3.396  -0.749  0.00  0.00    -0.322 N 
ATOM      9  H   UNL d   1      -2.336  -2.832  -1.584  0.00  0.00     0.169 HD
ATOM     10  O   UNL d   1      -0.783  -3.668   1.018  0.00  0.00    -0.266 OA
BRANCH   8  11
ATOM     11  C   UNL d   1      -2.856  -4.668  -0.761  0.00  0.00     0.037 A 
ATOM     12  C   UNL d   1      -3.235  -5.198  -1.999  0.00  0.00     0.069 A 
ATOM     13  C   UNL d   1      -3.911  -6.419  -2.070  0.00  0.00     0.104 A 
ATOM     14  O   UNL d   1      -4.209  -6.880  -3.326  0.00  0.00    -0.346 OA
ATOM     15  C   UNL d   1      -4.246  -7.107  -0.904  0.00  0.00     0.102 A 
ATOM     16  C   UNL d   1      -5.265  -7.843  -3.285  0.00  0.00     0.202 C 
ATOM     17  C   UNL d   1      -5.036  -8.877  -2.194  0.00  0.00     0.202 C 
ATOM     18  O   UNL d   1      -4.956  -8.279  -0.896  0.00  0.00    -0.346 OA
ATOM     19  C   UNL d   1      -3.876  -6.583   0.334  0.00  0.00     0.042 A 
ATOM     20  C   UNL d   1      -3.163  -5.375   0.405  0.00  0.00     0.032 A 
ENDBRANCH   8  11
ENDBRANCH   1   7
BRANCH   2  21
ATOM     21  C   UNL d   1       1.572  -1.776  -0.095  0.00  0.00     0.188 C 
BRANCH  21  22
ATOM     22  C   UNL d   1       2.098  -1.795  -1.516  0.00  0.00    -0.038 A 
ATOM     23  C   UNL d   1       2.625  -0.630  -2.101  0.00  0.00     0.009 A 
ATOM     24  C   UNL d   1       3.111  -0.643  -3.408  0.00  0.00     0.001 A 
ATOM     25  C   UNL d   1       3.083  -1.822  -4.148  0.00  0.00     0.000 A 
ATOM     26  C   UNL d   1       2.564  -2.986  -3.582  0.00  0.00     0.001 A 
ATOM     27  C   UNL d   1       2.071  -2.974  -2.273  0.00  0.00     0.009 A 
ENDBRANCH  21  22
ENDBRANCH   2  21
BRANCH   6  28
ATOM     28  C   UNL d   1      -1.233   2.178  -0.011  0.00  0.00    -0.007 C 
ATOM     29  C   UNL d   1      -2.737   2.468   0.155  0.00  0.00     0.021 C 
ATOM     30  C   UNL d   1      -0.490   2.867   1.157  0.00  0.00     0.021 C 
ATOM     31  C   UNL d   1      -0.761   2.816  -1.335  0.00  0.00     0.021 C 
ENDBRANCH   6  28
TORSDOF 5
