REMARK  6 active torsions:
REMARK  status: ('A' for Active; 'I' for Inactive)
REMARK    1  A    between atoms: N_2  and  C_1 
REMARK    2  A    between atoms: N_3  and  C_1 
REMARK    3  A    between atoms: C_9  and  N_3 
REMARK    4  A    between atoms: C_4  and  C_8 
REMARK    5  A    between atoms: O_14  and  C_4 
REMARK    6  A    between atoms: C_19  and  O_14 
ROOT
ATOM      1  N   UNL d   1       0.120  -0.701  -1.117  0.00  0.00    -0.358 N 
ATOM      2  C   UNL d   1      -0.882   0.118  -1.798  0.00  0.00     0.126 C 
ATOM      3  C   UNL d   1       0.622  -1.812  -1.916  0.00  0.00     0.126 C 
ATOM      4  C   UNL d   1      -1.757  -2.031  -2.857  0.00  0.00     0.088 C 
ATOM      5  C   UNL d   1      -2.110  -0.704  -2.168  0.00  0.00     0.034 C 
ATOM      6  C   UNL d   1      -0.537  -2.750  -2.260  0.00  0.00     0.034 C 
ENDROOT
BRANCH   1   7
ATOM      7  C   UNL d   1       0.809  -0.165  -0.037  0.00  0.00     0.174 C 
ATOM      8  S   UNL d   1       2.468   0.041   0.027  0.00  0.00    -0.041 SA
BRANCH   7   9
ATOM      9  N   UNL d   1       0.041   0.309   1.003  0.00  0.00    -0.333 N 
ATOM     10  H   UNL d   1       0.481   1.008   1.590  0.00  0.00     0.168 HD
BRANCH   9  11
ATOM     11  C   UNL d   1      -1.221  -0.175   1.412  0.00  0.00     0.034 A 
ATOM     12  C   UNL d   1      -1.634  -1.485   1.141  0.00  0.00     0.036 A 
ATOM     13  C   UNL d   1      -2.934  -1.912   1.431  0.00  0.00    -0.060 A 
ATOM     14  C   UNL d   1      -3.396  -3.278   1.019  0.00  0.00     0.048 C 
ATOM     15  C   UNL d   1      -3.812  -1.016   2.045  0.00  0.00     0.007 A 
ATOM     16  C   UNL d   1      -3.380   0.266   2.394  0.00  0.00     0.003 A 
ATOM     17  C   UNL d   1      -2.081   0.681   2.095  0.00  0.00     0.029 A 
ENDBRANCH   9  11
ENDBRANCH   7   9
ENDBRANCH   1   7
BRANCH   4  18
ATOM     18  C   UNL d   1      -1.574  -1.756  -4.328  0.00  0.00     0.263 C 
ATOM     19  O   UNL d   1      -0.507  -1.501  -4.871  0.00  0.00    -0.265 OA
BRANCH  18  20
ATOM     20  O   UNL d   1      -2.797  -1.707  -4.929  0.00  0.00    -0.322 OA
BRANCH  20  21
ATOM     21  C   UNL d   1      -2.831  -1.053  -6.205  0.00  0.00     0.174 C 
ATOM     22  C   UNL d   1      -2.996   0.437  -5.968  0.00  0.00     0.034 C 
ENDBRANCH  20  21
ENDBRANCH  18  20
ENDBRANCH   4  18
TORSDOF 6
