REMARK  3 active torsions:
REMARK  status: ('A' for Active; 'I' for Inactive)
REMARK    1  A    between atoms: N_4  and  C_1 
REMARK    2  A    between atoms: S_10  and  C_3 
REMARK    3  A    between atoms: C_14  and  S_10 
ROOT
ATOM      1  C   UNL d   1      -1.153  -1.091  -0.027  0.00  0.00     0.132 A 
ATOM      2  C   UNL d   1       0.830   0.278  -0.059  0.00  0.00     0.086 A 
ATOM      3  C   UNL d   1      -0.009   1.398  -0.078  0.00  0.00     0.096 A 
ATOM      4  C   UNL d   1       0.256  -1.012  -0.034  0.00  0.00    -0.003 A 
ATOM      5  N   UNL d   1      -1.364   1.296  -0.064  0.00  0.00    -0.351 N 
ATOM      6  HN  UNL d   1      -1.945   2.134  -0.073  1.00  0.00     0.166 HD
ATOM      7  C   UNL d   1      -1.935   0.064  -0.038  0.00  0.00     0.040 A 
ATOM      8  C   UNL d   1       2.257   0.457  -0.062  0.00  0.00     0.103 C 
ATOM      9  N   UNL d   1       3.410   0.576  -0.065  0.00  0.00    -0.191 NA
ATOM     10  C   UNL d   1       1.105  -2.261  -0.022  0.00  0.00     0.052 C 
ATOM     11  C   UNL d   1      -3.437   0.050   0.003  0.00  0.00     0.071 C 
ENDROOT
BRANCH   3  12
ATOM     12  S   UNL d   1       0.608   3.078  -0.054  0.00  0.00    -0.071 SA
BRANCH  12  13
ATOM     13  C   UNL d   1       0.800   3.392  -1.799  0.00  0.00     0.007 A 
ATOM     14  C   UNL d   1      -0.317   3.484  -2.634  0.00  0.00     0.019 A 
ATOM     15  C   UNL d   1      -0.162   3.774  -3.993  0.00  0.00     0.008 A 
ATOM     16  C   UNL d   1       1.112   3.982  -4.535  0.00  0.00    -0.062 A 
ATOM     17  C   UNL d   1       2.229   3.895  -3.696  0.00  0.00     0.008 A 
ATOM     18  C   UNL d   1       1.257   4.308  -5.992  0.00  0.00     0.048 C 
ATOM     19  C   UNL d   1       2.074   3.605  -2.337  0.00  0.00     0.019 A 
ENDBRANCH  12  13
ENDBRANCH   3  12
BRANCH   1  20
ATOM     20  N   UNL d   1      -1.817  -2.381  -0.003  0.00  0.00    -0.113 N 
ATOM     21  O   UNL d   1      -1.641  -3.087   0.997  0.00  0.00    -0.532 OA
ATOM     22  O   UNL d   1      -2.506  -2.679  -0.986  0.00  0.00    -0.532 OA
ENDBRANCH   1  20
TORSDOF 3
