REMARK  5 active torsions:
REMARK  status: ('A' for Active; 'I' for Inactive)
REMARK    1  A    between atoms: S_14  and  C_3 
REMARK    2  A    between atoms: C_4  and  C_5 
REMARK    3  A    between atoms: C_9  and  C_21 
REMARK       I    between atoms: N_12  and  C_9 
REMARK    4  A    between atoms: C_13  and  N_12 
REMARK    5  A    between atoms: C_21  and  S_14 
ROOT
ATOM      1  S   UNL d   1      -0.043   2.872   1.216  0.00  0.00    -0.085 SA
ENDROOT
BRANCH   1   2
ATOM      2  C   UNL d   1      -0.587   3.590   2.740  0.00  0.00     0.145 A 
ATOM      3  N   UNL d   1       0.073   4.677   3.144  0.00  0.00    -0.336 N 
ATOM      4  C   UNL d   1      -0.427   5.326   4.213  0.00  0.00     0.052 A 
ATOM      5  HN  UNL d   1       0.915   4.999   2.667  1.00  0.00     0.168 HD
ATOM      6  C   UNL d   1      -1.551   4.893   4.886  0.00  0.00     0.048 A 
ATOM      7  C   UNL d   1      -2.141   3.752   4.396  0.00  0.00     0.092 A 
ATOM      8  N   UNL d   1      -1.689   3.089   3.317  0.00  0.00    -0.347 N 
ATOM      9  HN  UNL d   1      -2.157   2.256   2.959  1.00  0.00     0.167 HD
BRANCH   4  10
ATOM     10  C   UNL d   1       0.260   6.572   4.567  0.00  0.00     0.031 A 
ATOM     11  S   UNL d   1       1.963   6.710   4.365  0.00  0.00    -0.100 SA
ATOM     12  C   UNL d   1       1.975   8.324   4.922  0.00  0.00     0.050 A 
ATOM     13  C   UNL d   1       0.716   8.761   5.263  0.00  0.00     0.008 A 
ATOM     14  C   UNL d   1      -0.271   7.751   5.065  0.00  0.00     0.021 A 
ENDBRANCH   4  10
ENDBRANCH   1   2
BRANCH   1  15
ATOM     15  C   UNL d   1      -1.323   3.600   0.156  0.00  0.00     0.185 C 
BRANCH  15  16
ATOM     16  C   UNL d   1      -1.361   5.125   0.183  0.00  0.00     0.231 C 
ATOM     17  N   UNL d   1      -0.125   5.749   0.219  0.00  0.00    -0.326 N 
ATOM     18  H   UNL d   1       0.685   5.137   0.231  0.00  0.00     0.169 HD
ATOM     19  O   UNL d   1      -2.443   5.704   0.089  0.00  0.00    -0.272 OA
BRANCH  17  20
ATOM     20  C   UNL d   1       0.130   7.127   0.393  0.00  0.00     0.036 A 
ATOM     21  C   UNL d   1      -0.868   8.072   0.653  0.00  0.00     0.056 A 
ATOM     22  C   UNL d   1      -0.535   9.413   0.862  0.00  0.00     0.074 A 
ATOM     23 CL   UNL d   1      -1.780  10.550   1.216  0.00  0.00    -0.081 Cl
ATOM     24  C   UNL d   1       0.794   9.819   0.795  0.00  0.00     0.138 A 
ATOM     25  C   UNL d   1       1.798   8.896   0.530  0.00  0.00     0.046 A 
ATOM     26  F   UNL d   1       1.131  11.103   0.989  0.00  0.00    -0.204 F 
ATOM     27  C   UNL d   1       1.467   7.550   0.338  0.00  0.00     0.032 A 
ENDBRANCH  17  20
ENDBRANCH  15  16
ENDBRANCH   1  15
TORSDOF 5
