REMARK  3 active torsions:
REMARK  status: ('A' for Active; 'I' for Inactive)
REMARK    1  A    between atoms: C_2  and  C_1 
REMARK       I    between atoms: N_3  and  C_2 
REMARK    2  A    between atoms: C_4  and  N_3 
REMARK    3  A    between atoms: O_18  and  C_14 
ROOT
ATOM      1  C   UNL d   1       0.299  -2.505  -0.161  0.00  0.00     0.257 C 
ATOM      2  N   UNL d   1       1.059  -3.643   0.026  0.00  0.00    -0.323 N 
ATOM      3  O   UNL d   1      -0.907  -2.496  -0.392  0.00  0.00    -0.267 OA
ATOM      4  H   UNL d   1       2.005  -3.517   0.366  0.00  0.00     0.169 HD
ENDROOT
BRANCH   1   5
ATOM      5  C   UNL d   1       1.013  -1.186  -0.133  0.00  0.00     0.052 A 
ATOM      6  C   UNL d   1       2.195  -0.884   0.560  0.00  0.00     0.026 A 
ATOM      7  C   UNL d   1       2.755   0.398   0.456  0.00  0.00     0.023 A 
ATOM      8 BR   UNL d   1       3.110  -2.086   1.713  0.00  0.00    -0.050 Br
ATOM      9  C   UNL d   1       2.144   1.379  -0.326  0.00  0.00     0.038 A 
ATOM     10  C   UNL d   1       0.972   1.097  -1.021  0.00  0.00     0.069 A 
ATOM     11  C   UNL d   1       0.406  -0.173  -0.910  0.00  0.00     0.055 A 
BRANCH  10  12
ATOM     12  O   UNL d   1       0.470   2.134  -1.756  0.00  0.00    -0.356 OA
ATOM     13  C   UNL d   1      -0.481   1.794  -2.761  0.00  0.00     0.210 C 
ENDBRANCH  10  12
ENDBRANCH   1   5
BRANCH   2  14
ATOM     14  C   UNL d   1       0.649  -4.981  -0.172  0.00  0.00     0.037 A 
ATOM     15  C   UNL d   1      -0.540  -5.337  -0.808  0.00  0.00     0.053 A 
ATOM     16  C   UNL d   1      -0.846  -6.682  -1.019  0.00  0.00     0.036 A 
ATOM     17 CL   UNL d   1      -2.300  -7.110  -1.837  0.00  0.00    -0.084 Cl
ATOM     18  C   UNL d   1       0.019  -7.685  -0.591  0.00  0.00     0.030 A 
ATOM     19  C   UNL d   1       1.215  -7.348   0.055  0.00  0.00    -0.058 A 
ATOM     20  C   UNL d   1       1.522  -5.994   0.257  0.00  0.00     0.036 A 
ATOM     21  C   UNL d   1       2.131  -8.435   0.535  0.00  0.00     0.048 C 
ENDBRANCH   2  14
TORSDOF 3
