REMARK  4 active torsions:
REMARK  status: ('A' for Active; 'I' for Inactive)
REMARK    1  A    between atoms: C_12  and  C_1 
REMARK    2  A    between atoms: O_15  and  C_3 
REMARK    3  A    between atoms: C_4  and  N_11 
REMARK    4  A    between atoms: N_11  and  N_6 
ROOT
ATOM      1  C   UNL d   1      -0.009   2.387   0.028  0.00  0.00     0.017 A 
ATOM      2  C   UNL d   1       1.102   0.241  -0.006  0.00  0.00     0.046 A 
ATOM      3  C   UNL d   1       1.172   1.640   0.017  0.00  0.00     0.094 A 
ATOM      4  C   UNL d   1      -0.133  -0.410  -0.019  0.00  0.00     0.041 A 
ATOM      5  C   UNL d   1      -1.251   1.735   0.014  0.00  0.00     0.034 A 
ATOM      6  C   UNL d   1      -1.303   0.344  -0.009  0.00  0.00     0.013 A 
ATOM      7 BR   UNL d   1       2.683  -0.807  -0.021  0.00  0.00    -0.048 Br
ATOM      8 BR   UNL d   1      -2.981  -0.526  -0.025  0.00  0.00    -0.051 Br
ENDROOT
BRANCH   1   9
ATOM      9  C   UNL d   1       0.026   3.864   0.058  0.00  0.00     0.121 C 
ATOM     10  N   UNL d   1      -1.081   4.536   0.068  0.00  0.00    -0.309 N 
ATOM     11  HN  UNL d   1      -1.987   4.069   0.053  1.00  0.00     0.186 HD
BRANCH  10  12
ATOM     12  N   UNL d   1      -0.981   5.893   0.101  0.00  0.00    -0.277 N 
ATOM     13  H   UNL d   1      -0.060   6.304   0.121  0.00  0.00     0.189 HD
BRANCH  12  14
ATOM     14  C   UNL d   1      -2.107   6.679   0.113  0.00  0.00     0.186 C 
ATOM     15  S   UNL d   1      -3.691   6.126   0.084  0.00  0.00    -0.040 SA
ATOM     16  N   UNL d   1      -1.933   8.029   0.153  0.00  0.00    -0.370 N 
ATOM     17  C   UNL d   1      -0.730   8.830   0.187  0.00  0.00     0.148 C 
ATOM     18  H   UNL d   1      -2.813   8.534   0.161  0.00  0.00     0.161 HD
ENDBRANCH  12  14
ENDBRANCH  10  12
ENDBRANCH   1   9
BRANCH   3  19
ATOM     19  O   UNL d   1       2.381   2.284   0.030  0.00  0.00    -0.358 OA
ATOM     20  H   UNL d   1       3.080   1.604   0.018  0.00  0.00     0.217 HD
ENDBRANCH   3  19
TORSDOF 4
