REMARK  5 active torsions:
REMARK  status: ('A' for Active; 'I' for Inactive)
REMARK    1  A    between atoms: C_9  and  N_1 
REMARK    2  A    between atoms: N_4  and  C_11 
REMARK    3  A    between atoms: C_12  and  N_6 
REMARK    4  A    between atoms: C_23  and  C_9 
REMARK    5  A    between atoms: O_21  and  C_15 
ROOT
ATOM      1  N   UNL d   1      -1.171   1.267  -0.195  0.00  0.00    -0.380 N 
ATOM      2  C   UNL d   1       0.061   0.628  -0.090  0.00  0.00     0.036 A 
ATOM      3  C   UNL d   1       0.128  -0.778  -0.002  0.00  0.00    -0.029 A 
ATOM      4  C   UNL d   1       1.274   1.327  -0.095  0.00  0.00     0.032 A 
ATOM      5  C   UNL d   1       1.374  -1.434   0.055  0.00  0.00     0.040 A 
ATOM      6  C   UNL d   1       2.576  -0.725   0.028  0.00  0.00     0.048 A 
ATOM      7  C   UNL d   1       2.511   0.667  -0.048  0.00  0.00     0.033 A 
ATOM      8  C   UNL d   1      -2.341   0.534   0.277  0.00  0.00     0.123 C 
ATOM      9  C   UNL d   1      -1.122  -1.621   0.049  0.00  0.00     0.042 C 
ATOM     10  C   UNL d   1      -2.370  -0.848  -0.354  0.00  0.00     0.024 C 
ENDROOT
BRANCH   6  11
ATOM     11  N   UNL d   1       3.781  -1.460   0.009  0.00  0.00    -0.300 N 
ATOM     12  N   UNL d   1       4.733  -0.844   0.530  0.00  0.00    -0.300 N 
ATOM     13  HN  UNL d   1       4.640   0.064   0.984  1.00  0.00     0.187 HD
ATOM     14  HN  UNL d   1       3.864  -2.395  -0.388  1.00  0.00     0.187 HD
BRANCH  12  15
ATOM     15  C   UNL d   1       5.954  -1.544   0.421  0.00  0.00     0.048 A 
ATOM     16  C   UNL d   1       6.256  -2.429  -0.625  0.00  0.00     0.034 A 
ATOM     17  C   UNL d   1       7.506  -3.059  -0.708  0.00  0.00     0.039 A 
ATOM     18  C   UNL d   1       8.479  -2.809   0.256  0.00  0.00     0.068 A 
ATOM     19  C   UNL d   1       8.194  -1.924   1.297  0.00  0.00     0.039 A 
ATOM     20  C   UNL d   1       6.944  -1.298   1.377  0.00  0.00     0.034 A 
BRANCH  18  21
ATOM     21  O   UNL d   1       9.733  -3.355   0.294  0.00  0.00    -0.356 OA
ATOM     22  C   UNL d   1      10.075  -4.251  -0.756  0.00  0.00     0.210 C 
ENDBRANCH  18  21
ENDBRANCH  12  15
ENDBRANCH   6  11
BRANCH   1  23
ATOM     23  C   UNL d   1      -1.326   2.655  -0.639  0.00  0.00     0.126 C 
BRANCH  23  24
ATOM     24  C   UNL d   1      -0.918   2.852  -2.117  0.00  0.00    -0.005 C 
ATOM     25  C   UNL d   1      -1.749   2.001  -3.079  0.00  0.00     0.011 C 
ATOM     26  C   UNL d   1      -1.042   4.326  -2.509  0.00  0.00     0.011 C 
ENDBRANCH  23  24
ENDBRANCH   1  23
TORSDOF 5
