REMARK  6 active torsions:
REMARK  status: ('A' for Active; 'I' for Inactive)
REMARK    1  A    between atoms: N_2  and  C_1 
REMARK    2  A    between atoms: N_7  and  C_1 
REMARK    3  A    between atoms: C_9  and  N_2 
REMARK    4  A    between atoms: N_3  and  N_7 
REMARK    5  A    between atoms: C_5  and  C_10 
REMARK    6  A    between atoms: O_11  and  C_8 
ROOT
ATOM      1  N   UNL d   1       3.184  -0.688   1.086  0.00  0.00    -0.309 N 
ATOM      2  HN  UNL d   1       2.684  -1.185   1.824  1.00  0.00     0.186 HD
ATOM      3  C   UNL d   1       4.480  -0.658   0.992  0.00  0.00     0.121 C 
ENDROOT
BRANCH   1   4
ATOM      4  N   UNL d   1       2.558   0.016   0.092  0.00  0.00    -0.277 N 
ATOM      5  H   UNL d   1       3.101   0.566  -0.569  0.00  0.00     0.189 HD
BRANCH   4   6
ATOM      6  C   UNL d   1       1.187   0.064  -0.062  0.00  0.00     0.187 C 
ATOM      7  S   UNL d   1       0.579   1.014  -1.287  0.00  0.00    -0.040 SA
BRANCH   6   8
ATOM      8  N   UNL d   1       0.510  -0.715   0.832  0.00  0.00    -0.358 N 
ATOM      9  H   UNL d   1       1.160  -1.211   1.431  0.00  0.00     0.162 HD
BRANCH   8  10
ATOM     10  C   UNL d   1      -0.916  -1.096   0.933  0.00  0.00     0.021 C 
ATOM     11  C   UNL d   1      -1.379  -1.836  -0.332  0.00  0.00     0.037 C 
ATOM     12  C   UNL d   1      -1.053  -2.066   2.125  0.00  0.00     0.037 C 
ATOM     13  C   UNL d   1      -1.822   0.114   1.212  0.00  0.00     0.037 C 
ENDBRANCH   8  10
ENDBRANCH   6   8
ENDBRANCH   4   6
ENDBRANCH   1   4
BRANCH   3  14
ATOM     14  C   UNL d   1       5.369  -1.288   1.990  0.00  0.00     0.014 A 
ATOM     15  C   UNL d   1       4.885  -1.921   3.138  0.00  0.00     0.077 A 
ATOM     16  C   UNL d   1       5.771  -2.463   4.067  0.00  0.00     0.037 A 
ATOM     17  C   UNL d   1       7.148  -2.373   3.853  0.00  0.00     0.003 A 
ATOM     18  C   UNL d   1       7.637  -1.748   2.705  0.00  0.00     0.001 A 
ATOM     19  C   UNL d   1       6.751  -1.206   1.773  0.00  0.00     0.015 A 
BRANCH  15  20
ATOM     20  O   UNL d   1       3.552  -2.037   3.419  0.00  0.00    -0.360 OA
ATOM     21  H   UNL d   1       3.067  -1.581   2.699  0.00  0.00     0.217 HD
ENDBRANCH  15  20
ENDBRANCH   3  14
TORSDOF 6
