REMARK  2 active torsions:
REMARK  status: ('A' for Active; 'I' for Inactive)
REMARK    1  A    between atoms: C_2  and  N_1 
REMARK    2  A    between atoms: N_19  and  C_12 
ROOT
ATOM      1  N   UNL d   1       2.340  -0.034   0.065  0.00  0.00    -0.072 N 
ATOM      2  C   UNL d   1       1.682   1.199   0.083  0.00  0.00     0.280 C 
ATOM      3  C   UNL d   1       1.699  -1.264  -0.102  0.00  0.00     0.280 C 
ATOM      4  C   UNL d   1       0.202   1.175  -0.014  0.00  0.00     0.045 A 
ATOM      5  C   UNL d   1      -0.495  -0.032   0.015  0.00  0.00     0.008 A 
ATOM      6  C   UNL d   1       0.215  -1.244  -0.005  0.00  0.00     0.045 A 
ATOM      7  C   UNL d   1      -1.925  -0.026   0.081  0.00  0.00     0.003 A 
ATOM      8  C   UNL d   1      -2.643   1.223   0.032  0.00  0.00     0.040 A 
ATOM      9  C   UNL d   1      -0.485   2.386  -0.073  0.00  0.00     0.020 A 
ATOM     10  C   UNL d   1      -1.877   2.400  -0.073  0.00  0.00     0.031 A 
ATOM     11  O   UNL d   1       2.222  -2.351  -0.328  0.00  0.00    -0.266 OA
ATOM     12  O   UNL d   1       2.236   2.296   0.185  0.00  0.00    -0.266 OA
ATOM     13  C   UNL d   1      -0.457  -2.470   0.072  0.00  0.00     0.018 A 
ATOM     14  C   UNL d   1      -2.542  -1.292   0.242  0.00  0.00     0.014 A 
ATOM     15  C   UNL d   1      -1.832  -2.493   0.214  0.00  0.00     0.002 A 
ENDROOT
BRANCH   1  16
ATOM     16  C   UNL d   1       3.735  -0.038   0.201  0.00  0.00     0.695 A 
ATOM     17  N   UNL d   1       4.553  -1.076   0.152  0.00  0.00    -0.189 N 
ATOM     18  C   UNL d   1       5.818  -0.593   0.374  0.00  0.00     0.076 A 
ATOM     19  HN  UNL d   1       4.294  -2.048  -0.018  1.00  0.00     0.184 HD
ATOM     20  C   UNL d   1       7.045  -1.269   0.410  0.00  0.00     0.032 A 
ATOM     21  C   UNL d   1       5.791   0.777   0.593  0.00  0.00     0.076 A 
ATOM     22  C   UNL d   1       8.208  -0.534   0.676  0.00  0.00     0.002 A 
ATOM     23  C   UNL d   1       8.147   0.842   0.908  0.00  0.00     0.002 A 
ATOM     24  C   UNL d   1       6.930   1.534   0.872  0.00  0.00     0.032 A 
ATOM     25  N   UNL d   1       4.468   1.102   0.460  0.00  0.00    -0.189 N 
ATOM     26  H   UNL d   1       4.062   2.025   0.542  0.00  0.00     0.184 HD
ENDBRANCH   1  16
BRANCH   8  27
ATOM     27  N   UNL d   1      -4.036   1.322   0.117  0.00  0.00    -0.389 N 
ATOM     28  C   UNL d   1      -4.678   2.538   0.617  0.00  0.00     0.149 C 
ATOM     29  C   UNL d   1      -4.914   0.452  -0.663  0.00  0.00     0.149 C 
ENDBRANCH   8  27
TORSDOF 2
