REMARK  4 active torsions:
REMARK  status: ('A' for Active; 'I' for Inactive)
REMARK    1  A    between atoms: C_12  and  N_4 
REMARK       I    between atoms: C_7  and  N_9 
REMARK       I    between atoms: N_10  and  C_7 
REMARK    2  A    between atoms: C_8  and  C_12 
REMARK       I    between atoms: N_11  and  C_8 
REMARK    3  A    between atoms: N_9  and  N_11 
REMARK    4  A    between atoms: C_18  and  N_10 
ROOT
ATOM      1  C   UNL d   1       2.854  -1.348  -0.109  0.00  0.00     0.254 C 
ATOM      2  N   UNL d   1       2.408  -2.601  -0.459  0.00  0.00    -0.265 N 
ATOM      3  O   UNL d   1       2.080  -0.433   0.185  0.00  0.00    -0.270 OA
ATOM      4  H   UNL d   1       3.004  -3.427  -0.535  0.00  0.00     0.190 HD
ENDROOT
BRANCH   2   5
ATOM      5  N   UNL d   1       1.027  -2.814  -0.629  0.00  0.00    -0.249 N 
ATOM      6  C   UNL d   1       0.599  -4.129  -0.637  0.00  0.00     0.339 C 
ATOM      7  N   UNL d   1      -0.738  -4.235  -0.974  0.00  0.00    -0.308 N 
ATOM      8  O   UNL d   1       1.385  -5.057  -0.465  0.00  0.00    -0.245 OA
ATOM      9  H   UNL d   1      -1.092  -3.448  -1.501  0.00  0.00     0.170 HD
ATOM     10  H   UNL d   1       0.423  -2.099  -0.228  0.00  0.00     0.192 HD
BRANCH   7  11
ATOM     11  C   UNL d   1      -1.380  -5.474  -1.180  0.00  0.00     0.036 A 
ATOM     12  C   UNL d   1      -1.076  -6.606  -0.419  0.00  0.00     0.031 A 
ATOM     13  C   UNL d   1      -1.659  -7.839  -0.722  0.00  0.00     0.026 A 
ATOM     14  C   UNL d   1      -2.546  -7.939  -1.791  0.00  0.00     0.034 A 
ATOM     15  C   UNL d   1      -2.891  -6.808  -2.527  0.00  0.00     0.026 A 
ATOM     16 CL   UNL d   1      -3.203  -9.471  -2.216  0.00  0.00    -0.084 Cl
ATOM     17  C   UNL d   1      -2.327  -5.568  -2.206  0.00  0.00     0.031 A 
ENDBRANCH   7  11
ENDBRANCH   2   5
BRANCH   1  18
ATOM     18  C   UNL d   1       4.370  -1.167  -0.162  0.00  0.00     0.232 C 
BRANCH  18  19
ATOM     19  N   UNL d   1       5.082  -1.473   1.105  0.00  0.00    -0.354 N 
ATOM     20  C   UNL d   1       4.544  -1.207   2.363  0.00  0.00     0.119 A 
ATOM     21  C   UNL d   1       5.200  -1.363   3.525  0.00  0.00     0.101 A 
ATOM     22  C   UNL d   1       6.621  -1.831   3.494  0.00  0.00     0.217 A 
ATOM     23 CL   UNL d   1       4.467  -1.023   5.038  0.00  0.00    -0.079 Cl
ATOM     24  C   UNL d   1       7.223  -1.981   2.135  0.00  0.00     0.101 A 
ATOM     25  O   UNL d   1       7.256  -2.065   4.518  0.00  0.00    -0.285 OA
ATOM     26 CL   UNL d   1       8.891  -2.358   1.994  0.00  0.00    -0.079 Cl
ATOM     27  C   UNL d   1       6.441  -1.798   1.061  0.00  0.00     0.119 A 
ENDBRANCH  18  19
ENDBRANCH   1  18
TORSDOF 4
