REMARK  2 active torsions:
REMARK  status: ('A' for Active; 'I' for Inactive)
REMARK       I    between atoms: N_2  and  C_1 
REMARK       I    between atoms: N_5  and  C_1 
REMARK    1  A    between atoms: C_3  and  N_4 
REMARK    2  A    between atoms: C_15  and  N_5 
ROOT
ATOM      1  C   UNL d   1       1.008   0.059   0.108  0.00  0.00     0.323 C 
ATOM      2  N   UNL d   1       0.381  -1.006   0.747  0.00  0.00    -0.331 N 
ATOM      3  N   UNL d   1      -0.334  -3.494   1.990  0.00  0.00    -0.375 N 
ATOM      4  N   UNL d   1       0.633   0.274  -1.195  0.00  0.00    -0.309 N 
ATOM      5  O   UNL d   1       1.871   0.711   0.694  0.00  0.00    -0.247 OA
ATOM      6  C   UNL d   1       0.793  -1.306   2.131  0.00  0.00     0.147 C 
ATOM      7  C   UNL d   1      -0.832  -1.726   0.324  0.00  0.00     0.147 C 
ATOM      8  C   UNL d   1       0.924  -2.824   2.363  0.00  0.00     0.143 C 
ATOM      9  C   UNL d   1      -0.753  -3.242   0.601  0.00  0.00     0.143 C 
ATOM     10  H   UNL d   1      -0.080  -0.314  -1.580  0.00  0.00     0.170 HD
ENDROOT
BRANCH   4  11
ATOM     11  C   UNL d   1       1.219   1.172  -2.120  0.00  0.00     0.036 A 
ATOM     12  C   UNL d   1       2.258   2.052  -1.811  0.00  0.00     0.031 A 
ATOM     13  C   UNL d   1       2.829   2.860  -2.802  0.00  0.00     0.026 A 
ATOM     14  C   UNL d   1       2.357   2.794  -4.107  0.00  0.00     0.034 A 
ATOM     15  C   UNL d   1       1.305   1.941  -4.430  0.00  0.00     0.026 A 
ATOM     16 CL   UNL d   1       3.080   3.763  -5.331  0.00  0.00    -0.084 Cl
ATOM     17  C   UNL d   1       0.737   1.136  -3.437  0.00  0.00     0.031 A 
ENDBRANCH   4  11
BRANCH   3  18
ATOM     18  C   UNL d   1      -1.012  -4.375   2.830  0.00  0.00     0.077 A 
ATOM     19  C   UNL d   1      -1.515  -5.625   2.386  0.00  0.00     0.077 A 
ATOM     20 CL   UNL d   1      -1.181  -6.304   0.825  0.00  0.00    -0.080 Cl
ATOM     21  C   UNL d   1      -2.266  -6.429   3.247  0.00  0.00     0.113 A 
ATOM     22  N   UNL d   1      -2.535  -6.130   4.533  0.00  0.00    -0.372 N 
ATOM     23  C   UNL d   1      -2.026  -4.963   4.973  0.00  0.00     0.113 A 
ATOM     24  HN  UNL d   1      -3.086  -6.745   5.132  1.00  0.00     0.164 HD
ATOM     25  C   UNL d   1      -1.291  -4.071   4.188  0.00  0.00     0.077 A 
ATOM     26 CL   UNL d   1      -0.873  -2.577   4.960  0.00  0.00    -0.080 Cl
ENDBRANCH   3  18
TORSDOF 2
