REMARK  7 active torsions:
REMARK  status: ('A' for Active; 'I' for Inactive)
REMARK    1  A    between atoms: C_2  and  N_1 
REMARK       I    between atoms: C_3  and  N_1 
REMARK    2  A    between atoms: N_6  and  C_2 
REMARK    3  A    between atoms: O_7  and  C_3 
REMARK    4  A    between atoms: C_9  and  N_6 
REMARK    5  A    between atoms: C_11  and  O_7 
REMARK    6  A    between atoms: O_8  and  C_10 
REMARK    7  A    between atoms: C_10  and  C_9 
ROOT
ATOM      1  C   UNL d   1       0.289  -0.654   1.451  0.00  0.00     0.176 C 
ATOM      2  S   UNL d   1       0.974  -1.409   2.781  0.00  0.00    -0.041 SA
ENDROOT
BRANCH   1   3
ATOM      3  N   UNL d   1       0.982  -0.085   0.381  0.00  0.00    -0.279 N 
ATOM      4  C   UNL d   1       2.269   0.422   0.284  0.00  0.00     0.366 C 
ATOM      5  O   UNL d   1       2.689   0.871  -0.774  0.00  0.00    -0.238 OA
ATOM      6  H   UNL d   1       0.461   0.077  -0.464  0.00  0.00     0.173 HD
BRANCH   4   7
ATOM      7  O   UNL d   1       2.919   0.469   1.468  0.00  0.00    -0.304 OA
BRANCH   7   8
ATOM      8  C   UNL d   1       4.160   1.176   1.551  0.00  0.00     0.176 C 
ATOM      9  C   UNL d   1       3.993   2.278   2.580  0.00  0.00     0.034 C 
ENDBRANCH   7   8
ENDBRANCH   4   7
ENDBRANCH   1   3
BRANCH   1  10
ATOM     10  N   UNL d   1      -1.074  -0.430   1.319  0.00  0.00    -0.365 N 
ATOM     11  H   UNL d   1      -1.474  -0.419   0.387  0.00  0.00     0.161 HD
BRANCH  10  12
ATOM     12  C   UNL d   1      -2.050  -0.567   2.397  0.00  0.00     0.148 C 
BRANCH  12  13
ATOM     13  C   UNL d   1      -3.320   0.224   2.095  0.00  0.00     0.183 C 
BRANCH  13  14
ATOM     14  O   UNL d   1      -3.981  -0.341   0.966  0.00  0.00    -0.399 OA
ATOM     15  H   UNL d   1      -4.850   0.093   0.905  0.00  0.00     0.209 HD
ENDBRANCH  13  14
ENDBRANCH  12  13
ENDBRANCH  10  12
ENDBRANCH   1  10
TORSDOF 7
