REMARK  2 active torsions:
REMARK  status: ('A' for Active; 'I' for Inactive)
REMARK    1  A    between atoms: C_6  and  N_1 
REMARK    2  A    between atoms: S_15  and  C_2 
ROOT
ATOM      1  N   UNL d   1       0.968  -0.696   0.044  0.00  0.00    -0.241 N 
ATOM      2  C   UNL d   1      -0.338  -0.857  -0.303  0.00  0.00     0.170 A 
ATOM      3  C   UNL d   1       1.117   0.663   0.247  0.00  0.00     0.347 A 
ATOM      4  N   UNL d   1      -1.033   0.248  -0.346  0.00  0.00    -0.275 N 
ATOM      5  HN  UNL d   1      -2.018   0.361  -0.585  1.00  0.00     0.189 HD
ATOM      6  N   UNL d   1      -0.138   1.214   0.003  0.00  0.00    -0.249 N 
ATOM      7  O   UNL d   1       2.113   1.311   0.521  0.00  0.00    -0.245 OA
ATOM      8  H   UNL d   1      -0.357   2.202  -0.004  0.00  0.00     0.192 HD
ENDROOT
BRANCH   1   9
ATOM      9  C   UNL d   1       2.050  -1.601   0.059  0.00  0.00     0.049 A 
ATOM     10  C   UNL d   1       2.246  -2.520  -0.978  0.00  0.00     0.069 A 
ATOM     11  C   UNL d   1       3.383  -3.331  -0.996  0.00  0.00     0.104 A 
ATOM     12  O   UNL d   1       3.530  -4.156  -2.081  0.00  0.00    -0.346 OA
ATOM     13  C   UNL d   1       4.324  -3.245   0.034  0.00  0.00     0.102 A 
ATOM     14  C   UNL d   1       4.572  -5.119  -1.882  0.00  0.00     0.202 C 
ATOM     15  C   UNL d   1       5.796  -4.479  -1.247  0.00  0.00     0.202 C 
ATOM     16  O   UNL d   1       5.481  -3.981   0.058  0.00  0.00    -0.346 OA
ATOM     17  C   UNL d   1       4.117  -2.369   1.093  0.00  0.00     0.042 A 
ATOM     18  C   UNL d   1       3.000  -1.531   1.091  0.00  0.00     0.033 A 
ENDBRANCH   1   9
BRANCH   2  19
ATOM     19  S   UNL d   1      -1.043  -2.420  -0.560  0.00  0.00    -0.096 SA
ATOM     20  C   UNL d   1      -2.800  -2.002  -0.551  0.00  0.00     0.099 C 
ENDBRANCH   2  19
TORSDOF 2
