REMARK  1 active torsions:
REMARK  status: ('A' for Active; 'I' for Inactive)
REMARK    1  A    between atoms: C_10  and  O_14 
ROOT
ATOM      1  C   UNL d   1      -0.656  -0.448  -1.628  0.00  0.00     0.172 C 
ATOM      2  C   UNL d   1       0.313   0.739  -1.636  0.00  0.00     0.060 C 
ATOM      3  C   UNL d   1      -0.690  -0.792  -0.141  0.00  0.00     0.060 A 
ATOM      4  C   UNL d   1      -0.657   0.597   0.547  0.00  0.00     0.005 A 
ATOM      5  C   UNL d   1       1.734   0.443  -1.023  0.00  0.00     0.029 C 
ATOM      6  C   UNL d   1       0.729   0.297   1.140  0.00  0.00     0.002 A 
ATOM      7  C   UNL d   1       0.729  -1.103   0.475  0.00  0.00     0.029 A 
ATOM      8  C   UNL d   1      -0.337   1.643  -0.548  0.00  0.00     0.001 C 
ATOM      9  C   UNL d   1       1.661   1.226   0.313  0.00  0.00    -0.002 C 
ATOM     10  C   UNL d   1       1.935  -0.971  -0.460  0.00  0.00     0.128 C 
ATOM     11  C   UNL d   1       0.811   2.445   0.025  0.00  0.00     0.011 C 
ATOM     12  O   UNL d   1      -1.946  -0.028  -2.109  0.00  0.00    -0.352 OA
ATOM     13  O   UNL d   1      -0.213  -1.556  -2.414  0.00  0.00    -0.352 OA
ATOM     14  C   UNL d   1      -1.307  -1.863  -3.280  0.00  0.00     0.197 C 
ATOM     15  C   UNL d   1      -1.973  -0.529  -3.448  0.00  0.00     0.197 C 
ENDROOT
BRANCH  10  16
ATOM     16  O   UNL d   1       2.033  -2.006  -1.409  0.00  0.00    -0.395 OA
ATOM     17  H   UNL d   1       1.216  -2.019  -1.952  0.00  0.00     0.210 HD
ENDBRANCH  10  16
TORSDOF 1
