REMARK  5 active torsions:
REMARK  status: ('A' for Active; 'I' for Inactive)
REMARK    1  A    between atoms: C_2  and  C_1 
REMARK       I    between atoms: N_3  and  C_1 
REMARK    2  A    between atoms: C_9  and  N_3 
REMARK    3  A    between atoms: N_4  and  C_10 
REMARK    4  A    between atoms: O_14  and  C_6 
REMARK    5  A    between atoms: C_11  and  C_8 
ROOT
ATOM      1  C   UNL d   1      -1.221  -1.007  -0.742  0.00  0.00     0.035 A 
ATOM      2  C   UNL d   1      -4.050  -1.027  -0.872  0.00  0.00     0.032 A 
ATOM      3  C   UNL d   1      -1.925   0.129  -1.137  0.00  0.00     0.032 A 
ATOM      4  C   UNL d   1      -1.939  -2.180  -0.488  0.00  0.00     0.032 A 
ATOM      5  C   UNL d   1      -3.322   0.117  -1.212  0.00  0.00     0.031 A 
ATOM      6  C   UNL d   1      -3.341  -2.185  -0.554  0.00  0.00     0.031 A 
ENDROOT
BRANCH   1   7
ATOM      7  N   UNL d   1       0.179  -1.033  -0.547  0.00  0.00    -0.323 N 
ATOM      8  C   UNL d   1       1.037   0.055  -0.595  0.00  0.00     0.259 C 
ATOM      9  O   UNL d   1       0.734   1.212  -0.876  0.00  0.00    -0.267 OA
ATOM     10  H   UNL d   1       0.549  -1.909  -0.202  0.00  0.00     0.169 HD
BRANCH   8  11
ATOM     11  C   UNL d   1       2.450  -0.186  -0.179  0.00  0.00     0.065 A 
ATOM     12  C   UNL d   1       3.184   0.873   0.387  0.00  0.00     0.081 A 
ATOM     13  C   UNL d   1       4.486   0.675   0.839  0.00  0.00     0.037 A 
ATOM     14  C   UNL d   1       5.083  -0.578   0.708  0.00  0.00     0.003 A 
ATOM     15  C   UNL d   1       4.381  -1.626   0.113  0.00  0.00     0.001 A 
ATOM     16  C   UNL d   1       3.068  -1.434  -0.334  0.00  0.00     0.020 A 
BRANCH  12  17
ATOM     17  O   UNL d   1       2.683   2.140   0.534  0.00  0.00    -0.360 OA
ATOM     18  H   UNL d   1       1.843   2.186   0.024  0.00  0.00     0.217 HD
ENDBRANCH  12  17
ENDBRANCH   8  11
ENDBRANCH   1   7
BRANCH   2  19
ATOM     19  N   UNL d   1      -5.458  -1.067  -0.844  0.00  0.00    -0.365 N 
ATOM     20  C   UNL d   1      -6.085  -0.041  -0.363  0.00  0.00     0.099 C 
ATOM     21  HN  UNL d   1      -5.967  -1.879  -1.192  1.00  0.00     0.165 HD
BRANCH  20  22
ATOM     22  C   UNL d   1      -7.555   0.006  -0.228  0.00  0.00    -0.021 A 
ATOM     23  C   UNL d   1      -8.339  -1.125  -0.470  0.00  0.00     0.014 A 
ATOM     24  C   UNL d   1      -9.721  -1.065  -0.274  0.00  0.00     0.024 A 
ATOM     25  C   UNL d   1     -10.311   0.126   0.153  0.00  0.00     0.034 A 
ATOM     26  C   UNL d   1      -9.532   1.260   0.383  0.00  0.00     0.024 A 
ATOM     27 CL   UNL d   1     -12.010   0.194   0.410  0.00  0.00    -0.084 Cl
ATOM     28  C   UNL d   1      -8.149   1.201   0.195  0.00  0.00     0.014 A 
ENDBRANCH  20  22
ENDBRANCH   2  19
TORSDOF 5
