REMARK  5 active torsions:
REMARK  status: ('A' for Active; 'I' for Inactive)
REMARK    1  A    between atoms: N_2  and  S_1 
REMARK    2  A    between atoms: C_4  and  S_1 
REMARK    3  A    between atoms: C_3  and  N_2 
REMARK    4  A    between atoms: N_5  and  C_6 
REMARK    5  A    between atoms: N_8  and  C_9 
REMARK       I    between atoms: C_13  and  N_8 
ROOT
ATOM      1  S   UNL d   1      -0.312   0.344   0.013  0.00  0.00     0.263 S 
ATOM      2  O   UNL d   1       0.316   1.564   0.457  0.00  0.00    -0.200 OA
ATOM      3  O   UNL d   1      -0.218  -0.886   0.780  0.00  0.00    -0.200 OA
ENDROOT
BRANCH   1   4
ATOM      4  N   UNL d   1       0.118  -0.056  -1.573  0.00  0.00    -0.278 N 
ATOM      5  H   UNL d   1      -0.581  -0.627  -2.039  0.00  0.00     0.179 HD
BRANCH   4   6
ATOM      6  C   UNL d   1       0.686   0.968  -2.401  0.00  0.00     0.069 A 
ATOM      7  C   UNL d   1       2.063   1.319  -2.319  0.00  0.00     0.058 A 
ATOM      8  C   UNL d   1       2.472   2.346  -3.198  0.00  0.00     0.031 A 
ATOM      9  C   UNL d   1       1.592   3.001  -4.071  0.00  0.00     0.002 A 
ATOM     10  C   UNL d   1       0.253   2.648  -4.102  0.00  0.00     0.002 A 
ATOM     11  C   UNL d   1      -0.200   1.630  -3.272  0.00  0.00     0.032 A 
BRANCH   7  12
ATOM     12  N   UNL d   1       2.970   0.745  -1.431  0.00  0.00    -0.375 N 
ATOM     13  C   UNL d   1       2.933  -0.676  -1.028  0.00  0.00     0.149 C 
ATOM     14  C   UNL d   1       3.318  -0.775   0.457  0.00  0.00     0.187 C 
ATOM     15  O   UNL d   1       4.659  -0.292   0.654  0.00  0.00    -0.388 OA
ATOM     16  C   UNL d   1       4.736   1.091   0.276  0.00  0.00     0.187 C 
ATOM     17  C   UNL d   1       4.304   1.335  -1.184  0.00  0.00     0.149 C 
ENDBRANCH   7  12
ENDBRANCH   4   6
ENDBRANCH   1   4
BRANCH   1  18
ATOM     18  C   UNL d   1      -2.051   0.661  -0.182  0.00  0.00     0.081 A 
ATOM     19  C   UNL d   1      -2.983  -0.370  -0.033  0.00  0.00     0.051 A 
ATOM     20  C   UNL d   1      -4.346  -0.081  -0.162  0.00  0.00     0.062 A 
ATOM     21 CL   UNL d   1      -5.474  -1.380   0.037  0.00  0.00    -0.082 Cl
ATOM     22  C   UNL d   1      -4.787   1.228  -0.427  0.00  0.00     0.056 A 
ATOM     23  C   UNL d   1      -3.827   2.241  -0.565  0.00  0.00     0.033 A 
ATOM     24  C   UNL d   1      -2.468   1.964  -0.437  0.00  0.00     0.027 A 
BRANCH  22  25
ATOM     25  N   UNL d   1      -6.176   1.485  -0.560  0.00  0.00    -0.326 N 
ATOM     26  C   UNL d   1      -6.782   2.725  -0.607  0.00  0.00     0.218 C 
ATOM     27  O   UNL d   1      -6.227   3.811  -0.460  0.00  0.00    -0.274 OA
ATOM     28  C   UNL d   1      -8.259   2.673  -0.887  0.00  0.00     0.117 C 
ATOM     29  H   UNL d   1      -6.774   0.663  -0.530  0.00  0.00     0.169 HD
ENDBRANCH  22  25
ENDBRANCH   1  18
TORSDOF 5
