REMARK  5 active torsions:
REMARK  status: ('A' for Active; 'I' for Inactive)
REMARK    1  A    between atoms: C_3  and  O_7 
REMARK    2  A    between atoms: O_8  and  C_4 
REMARK    3  A    between atoms: O_7  and  C_19 
REMARK    4  A    between atoms: C_20  and  O_8 
REMARK    5  A    between atoms: C_19  and  C_20 
ROOT
ATOM      1  C   UNL d   1       2.199   5.022   0.179  0.00  0.00     0.202 C 
ENDROOT
BRANCH   1   2
ATOM      2  O   UNL d   1       3.417   5.767   0.283  0.00  0.00    -0.348 OA
BRANCH   2   3
ATOM      3  C   UNL d   1       4.048   5.862   1.501  0.00  0.00     0.080 A 
ATOM      4  C   UNL d   1       5.299   6.537   1.507  0.00  0.00     0.007 A 
ATOM      5  C   UNL d   1       6.004   6.665   2.730  0.00  0.00    -0.023 A 
ATOM      6  C   UNL d   1       5.891   7.089   0.348  0.00  0.00     0.015 A 
ATOM      7  C   UNL d   1       7.245   7.321   2.763  0.00  0.00     0.012 A 
ATOM      8  C   UNL d   1       5.458   6.134   3.906  0.00  0.00     0.012 A 
ATOM      9  C   UNL d   1       7.803   7.856   1.604  0.00  0.00     0.001 A 
ATOM     10  C   UNL d   1       7.126   7.741   0.396  0.00  0.00     0.001 A 
ATOM     11  C   UNL d   1       4.232   5.479   3.887  0.00  0.00     0.004 A 
ATOM     12  C   UNL d   1       3.530   5.344   2.693  0.00  0.00     0.037 A 
ENDBRANCH   2   3
ENDBRANCH   1   2
BRANCH   1  13
ATOM     13  C   UNL d   1       2.453   3.514   0.092  0.00  0.00     0.202 C 
BRANCH  13  14
ATOM     14  O   UNL d   1       3.127   3.227  -1.135  0.00  0.00    -0.348 OA
BRANCH  14  15
ATOM     15  C   UNL d   1       3.458   1.916  -1.389  0.00  0.00     0.080 A 
ATOM     16  C   UNL d   1       4.154   1.673  -2.601  0.00  0.00     0.007 A 
ATOM     17  C   UNL d   1       4.495   0.341  -2.944  0.00  0.00    -0.023 A 
ATOM     18  C   UNL d   1       4.529   2.703  -3.492  0.00  0.00     0.015 A 
ATOM     19  C   UNL d   1       4.155  -0.707  -2.078  0.00  0.00     0.012 A 
ATOM     20  C   UNL d   1       5.174   0.081  -4.146  0.00  0.00     0.012 A 
ATOM     21  C   UNL d   1       3.489  -0.454  -0.882  0.00  0.00     0.004 A 
ATOM     22  C   UNL d   1       3.140   0.850  -0.539  0.00  0.00     0.037 A 
ATOM     23  C   UNL d   1       5.529   1.117  -5.009  0.00  0.00     0.001 A 
ATOM     24  C   UNL d   1       5.210   2.429  -4.680  0.00  0.00     0.001 A 
ENDBRANCH  14  15
ENDBRANCH  13  14
ENDBRANCH   1  13
TORSDOF 5
