REMARK  4 active torsions:
REMARK  status: ('A' for Active; 'I' for Inactive)
REMARK    1  A    between atoms: C_2  and  C_1 
REMARK       I    between atoms: N_3  and  C_2 
REMARK    2  A    between atoms: C_6  and  N_3 
REMARK    3  A    between atoms: O_10  and  C_9 
REMARK    4  A    between atoms: C_13  and  O_10 
ROOT
ATOM      1  C   UNL d   1       2.317   3.072   0.085  0.00  0.00     0.069 A 
ATOM      2  C   UNL d   1       2.702   2.258  -0.995  0.00  0.00     0.102 A 
ATOM      3  C   UNL d   1       3.291   3.766   0.814  0.00  0.00     0.032 A 
ATOM      4  C   UNL d   1       4.065   2.077  -1.257  0.00  0.00     0.039 A 
ATOM      5  C   UNL d   1       4.639   3.586   0.538  0.00  0.00     0.002 A 
ATOM      6  C   UNL d   1       5.032   2.725  -0.485  0.00  0.00     0.003 A 
ENDROOT
BRANCH   1   7
ATOM      7  N   UNL d   1       0.975   3.238   0.479  0.00  0.00    -0.320 N 
ATOM      8  C   UNL d   1       0.369   2.331   1.345  0.00  0.00     0.264 C 
ATOM      9  O   UNL d   1       0.915   1.278   1.672  0.00  0.00    -0.267 OA
ATOM     10  H   UNL d   1       0.670   4.190   0.634  0.00  0.00     0.169 HD
BRANCH   8  11
ATOM     11  C   UNL d   1      -0.918   2.762   1.887  0.00  0.00     0.094 A 
ATOM     12  C   UNL d   1      -1.652   2.211   2.918  0.00  0.00     0.057 A 
ATOM     13  C   UNL d   1      -2.873   2.908   3.162  0.00  0.00     0.032 A 
ATOM     14 CL   UNL d   1      -1.228   0.851   3.871  0.00  0.00    -0.083 Cl
ATOM     15  C   UNL d   1      -3.046   3.973   2.310  0.00  0.00     0.052 A 
ATOM     16  S   UNL d   1      -1.734   4.137   1.230  0.00  0.00    -0.095 SA
ENDBRANCH   8  11
ENDBRANCH   1   7
BRANCH   2  17
ATOM     17  O   UNL d   1       1.874   1.558  -1.846  0.00  0.00    -0.309 OA
BRANCH  17  18
ATOM     18  C   UNL d   1       0.673   2.078  -2.269  0.00  0.00     0.076 A 
ATOM     19  C   UNL d   1       0.393   3.437  -2.440  0.00  0.00     0.037 A 
ATOM     20  C   UNL d   1      -0.900   3.842  -2.776  0.00  0.00     0.003 A 
ATOM     21  C   UNL d   1      -1.894   2.892  -3.013  0.00  0.00     0.000 A 
ATOM     22  C   UNL d   1      -1.588   1.534  -2.943  0.00  0.00     0.003 A 
ATOM     23  C   UNL d   1      -0.308   1.129  -2.576  0.00  0.00     0.037 A 
ENDBRANCH  17  18
ENDBRANCH   2  17
TORSDOF 4
