REMARK  4 active torsions:
REMARK  status: ('A' for Active; 'I' for Inactive)
REMARK    1  A    between atoms: C_3  and  C_1 
REMARK    2  A    between atoms: C_16  and  N_2 
REMARK    3  A    between atoms: C_11  and  C_4 
REMARK    4  A    between atoms: C_17  and  C_12 
ROOT
ATOM      1  C   UNL d   1      -0.313  -2.764  -0.032  0.00  0.00     0.058 A 
ATOM      2  C   UNL d   1       0.019  -3.556   1.061  0.00  0.00     0.133 A 
ATOM      3  N   UNL d   1      -0.194  -4.916   1.050  0.00  0.00    -0.336 N 
ATOM      4  HN  UNL d   1       0.041  -5.483   1.865  1.00  0.00     0.167 HD
ATOM      5  C   UNL d   1      -0.719  -5.489  -0.053  0.00  0.00     0.132 A 
ATOM      6  N   UNL d   1      -1.040  -4.790  -1.149  0.00  0.00    -0.349 N 
ATOM      7  HN  UNL d   1      -1.444  -5.243  -1.970  1.00  0.00     0.166 HD
ATOM      8  C   UNL d   1      -0.809  -3.468  -1.123  0.00  0.00     0.107 A 
ENDROOT
BRANCH   1   9
ATOM      9  C   UNL d   1      -0.124  -1.323  -0.142  0.00  0.00     0.152 A 
ATOM     10  N   UNL d   1      -0.973  -0.397  -0.762  0.00  0.00    -0.224 N 
ATOM     11  N   UNL d   1      -0.281   0.752  -0.934  0.00  0.00     0.001 NA
ATOM     12  N   UNL d   1       0.874   0.585  -0.316  0.00  0.00    -0.007 NA
ATOM     13  N   UNL d   1       0.997  -0.689   0.157  0.00  0.00    -0.269 N 
ATOM     14  HN  UNL d   1       1.802  -1.079   0.648  1.00  0.00     0.185 HD
BRANCH  10  15
ATOM     15  C   UNL d   1      -2.310  -0.518  -1.225  0.00  0.00     0.056 A 
ATOM     16  C   UNL d   1      -3.203  -1.435  -0.654  0.00  0.00     0.033 A 
ATOM     17  C   UNL d   1      -4.493  -1.575  -1.177  0.00  0.00     0.026 A 
ATOM     18  C   UNL d   1      -4.897  -0.794  -2.258  0.00  0.00     0.034 A 
ATOM     19  C   UNL d   1      -4.027   0.140  -2.814  0.00  0.00     0.026 A 
ATOM     20 CL   UNL d   1      -6.482  -0.979  -2.901  0.00  0.00    -0.084 Cl
ATOM     21  C   UNL d   1      -2.738   0.291  -2.291  0.00  0.00     0.033 A 
ENDBRANCH  10  15
ENDBRANCH   1   9
BRANCH   2  22
ATOM     22  C   UNL d   1       0.644  -3.024   2.344  0.00  0.00     0.433 C 
ATOM     23  F   UNL d   1       0.684  -1.673   2.474  0.00  0.00    -0.165 F 
ATOM     24  F   UNL d   1      -0.041  -3.449   3.450  0.00  0.00    -0.165 F 
ATOM     25  F   UNL d   1       1.924  -3.459   2.519  0.00  0.00    -0.165 F 
ENDBRANCH   2  22
BRANCH   5  26
ATOM     26  C   UNL d   1      -0.928  -6.960  -0.066  0.00  0.00     0.076 A 
ATOM     27  N   UNL d   1      -1.496  -7.496  -1.182  0.00  0.00    -0.363 N 
ATOM     28  C   UNL d   1      -1.666  -8.834  -1.231  0.00  0.00     0.088 A 
ATOM     29  HN  UNL d   1      -1.785  -6.903  -1.959  1.00  0.00     0.165 HD
ATOM     30  C   UNL d   1      -1.300  -9.691  -0.211  0.00  0.00     0.017 A 
ATOM     31  C   UNL d   1      -0.732  -9.145   0.931  0.00  0.00     0.004 A 
ATOM     32  C   UNL d   1      -0.544  -7.766   1.009  0.00  0.00     0.033 A 
ENDBRANCH   5  26
TORSDOF 4
