REMARK  8 active torsions:
REMARK  status: ('A' for Active; 'I' for Inactive)
REMARK    1  A    between atoms: N_2  and  C_1 
REMARK       I    between atoms: C_3  and  N_6 
REMARK    2  A    between atoms: C_5  and  C_3 
REMARK    3  A    between atoms: S_8  and  C_4 
REMARK    4  A    between atoms: N_6  and  C_14 
REMARK    5  A    between atoms: O_21  and  C_7 
REMARK    6  A    between atoms: C_15  and  S_8 
REMARK    7  A    between atoms: O_22  and  C_9 
REMARK    8  A    between atoms: O_23  and  C_10 
ROOT
ATOM      1  C   UNL d   1       4.285   2.158   0.812  0.00  0.00     0.052 C 
ATOM      2  C   UNL d   1       4.550   1.625  -0.466  0.00  0.00     0.032 C 
ATOM      3  C   UNL d   1       4.824   3.415   1.144  0.00  0.00     0.031 C 
ATOM      4  C   UNL d   1       5.487   2.275  -1.294  0.00  0.00     0.021 C 
ATOM      5  C   UNL d   1       5.713   4.070   0.291  0.00  0.00     0.002 C 
ATOM      6  C   UNL d   1       6.083   3.476  -0.908  0.00  0.00     0.002 C 
ENDROOT
BRANCH   1   7
ATOM      7  N   UNL d   1       3.470   1.573   1.812  0.00  0.00    -0.322 N 
ATOM      8  C   UNL d   1       3.368   0.223   2.105  0.00  0.00     0.256 C 
ATOM      9  O   UNL d   1       3.969  -0.699   1.587  0.00  0.00    -0.267 OA
ATOM     10  H   UNL d   1       3.122   2.216   2.510  0.00  0.00     0.169 HD
BRANCH   8  11
ATOM     11  C   UNL d   1       2.432  -0.102   3.219  0.00  0.00     0.037 A 
ATOM     12  C   UNL d   1       1.629  -1.240   3.114  0.00  0.00     0.057 A 
ATOM     13  C   UNL d   1       0.657  -1.516   4.085  0.00  0.00     0.105 A 
ATOM     14  C   UNL d   1       0.464  -0.612   5.161  0.00  0.00     0.135 A 
ATOM     15  C   UNL d   1       1.347   0.480   5.306  0.00  0.00     0.105 A 
ATOM     16  C   UNL d   1       2.339   0.706   4.347  0.00  0.00     0.057 A 
BRANCH  13  17
ATOM     17  O   UNL d   1      -0.123  -2.645   4.054  0.00  0.00    -0.353 OA
ATOM     18  C   UNL d   1       0.102  -3.600   3.025  0.00  0.00     0.210 C 
ENDBRANCH  13  17
BRANCH  14  19
ATOM     19  O   UNL d   1      -0.500  -0.758   6.128  0.00  0.00    -0.351 OA
ATOM     20  C   UNL d   1      -1.722  -1.395   5.767  0.00  0.00     0.210 C 
ENDBRANCH  14  19
BRANCH  15  21
ATOM     21  O   UNL d   1       1.401   1.430   6.293  0.00  0.00    -0.353 OA
ATOM     22  C   UNL d   1       0.321   1.546   7.203  0.00  0.00     0.210 C 
ENDBRANCH  15  21
ENDBRANCH   8  11
ENDBRANCH   1   7
BRANCH   2  23
ATOM     23  S   UNL d   1       3.426   0.519  -1.328  0.00  0.00    -0.086 SA
BRANCH  23  24
ATOM     24  C   UNL d   1       4.095  -1.127  -1.189  0.00  0.00     0.038 A 
ATOM     25  C   UNL d   1       3.259  -2.259  -1.223  0.00  0.00     0.121 A 
ATOM     26  C   UNL d   1       3.733  -3.560  -1.013  0.00  0.00     0.061 A 
ATOM     27  C   UNL d   1       5.086  -3.741  -0.773  0.00  0.00     0.036 A 
ATOM     28  C   UNL d   1       5.954  -2.651  -0.763  0.00  0.00     0.025 A 
ATOM     29 CL   UNL d   1       5.695  -5.323  -0.479  0.00  0.00    -0.084 Cl
ATOM     30  C   UNL d   1       5.463  -1.356  -0.981  0.00  0.00     0.023 A 
BRANCH  25  31
ATOM     31  N   UNL d   1       1.834  -2.126  -1.462  0.00  0.00    -0.114 N 
ATOM     32  O   UNL d   1       1.477  -1.736  -2.580  0.00  0.00    -0.532 OA
ATOM     33  O   UNL d   1       1.078  -2.496  -0.549  0.00  0.00    -0.532 OA
ENDBRANCH  25  31
ENDBRANCH  23  24
ENDBRANCH   2  23
TORSDOF 8
