REMARK  2 active torsions:
REMARK  status: ('A' for Active; 'I' for Inactive)
REMARK    1  A    between atoms: C_10  and  C_5 
REMARK    2  A    between atoms: C_13  and  C_9 
ROOT
ATOM      1  C   UNL d   1       3.091   2.219  -0.348  0.00  0.00     0.074 C 
ATOM      2  C   UNL d   1       1.810   2.964  -0.115  0.00  0.00     0.263 C 
ATOM      3  S   UNL d   1       4.421   2.927  -1.190  0.00  0.00    -0.083 SA
ATOM      4  N   UNL d   1       1.714   4.288  -0.428  0.00  0.00    -0.321 N 
ATOM      5  C   UNL d   1       3.142   0.964   0.143  0.00  0.00     0.036 C 
ATOM      6  C   UNL d   1       2.685   5.103  -1.011  0.00  0.00     0.052 A 
ATOM      7  C   UNL d   1       3.930   4.610  -1.397  0.00  0.00     0.032 A 
ATOM      8  O   UNL d   1       0.823   2.419   0.384  0.00  0.00    -0.267 OA
ATOM      9  C   UNL d   1       2.369   6.452  -1.215  0.00  0.00     0.031 A 
ATOM     10  C   UNL d   1       4.851   5.483  -1.995  0.00  0.00     0.021 A 
ATOM     11  C   UNL d   1       3.292   7.312  -1.810  0.00  0.00     0.002 A 
ATOM     12  C   UNL d   1       4.536   6.827  -2.202  0.00  0.00     0.002 A 
ATOM     13  H   UNL d   1       0.816   4.690  -0.192  0.00  0.00     0.169 HD
ENDROOT
BRANCH   5  14
ATOM     14  C   UNL d   1       4.300   0.062   0.102  0.00  0.00    -0.035 A 
ATOM     15  C   UNL d   1       5.202   0.055   1.169  0.00  0.00     0.012 A 
ATOM     16  C   UNL d   1       6.294  -0.816   1.163  0.00  0.00     0.008 A 
ATOM     17  C   UNL d   1       6.507  -1.696   0.093  0.00  0.00    -0.055 A 
ATOM     18  C   UNL d   1       5.609  -1.664  -0.986  0.00  0.00     0.008 A 
ATOM     19  C   UNL d   1       4.515  -0.791  -0.982  0.00  0.00     0.012 A 
BRANCH  17  20
ATOM     20  C   UNL d   1       7.672  -2.672   0.093  0.00  0.00     0.010 C 
ATOM     21  C   UNL d   1       9.020  -1.948   0.151  0.00  0.00     0.015 C 
ATOM     22  C   UNL d   1       7.563  -3.682   1.241  0.00  0.00     0.015 C 
ENDBRANCH  17  20
ENDBRANCH   5  14
TORSDOF 2
