REMARK  7 active torsions:
REMARK  status: ('A' for Active; 'I' for Inactive)
REMARK    1  A    between atoms: C_2  and  C_1 
REMARK    2  A    between atoms: N_17  and  C_1 
REMARK    3  A    between atoms: O_8  and  N_3 
REMARK    4  A    between atoms: C_5  and  O_8 
REMARK    5  A    between atoms: C_10  and  C_5 
REMARK    6  A    between atoms: O_14  and  C_9 
REMARK    7  A    between atoms: C_18  and  O_14 
ROOT
ATOM      1  C   UNL d   1       0.944   0.108  -0.026  0.00  0.00     0.110 C 
ATOM      2  N   UNL d   1       0.382   0.151   1.144  0.00  0.00    -0.246 N 
ATOM      3  HN  UNL d   1       0.898   0.119   2.023  1.00  0.00     0.196 HD
ENDROOT
BRANCH   1   4
ATOM      4  C   UNL d   1       2.433   0.049  -0.070  0.00  0.00     0.019 A 
ATOM      5  C   UNL d   1       3.143  -0.515   0.984  0.00  0.00     0.105 A 
ATOM      6  N   UNL d   1       4.495  -0.595   1.024  0.00  0.00    -0.346 N 
ATOM      7  C   UNL d   1       5.173  -0.042  -0.009  0.00  0.00     0.147 A 
ATOM      8  HN  UNL d   1       4.980  -1.051   1.796  1.00  0.00     0.167 HD
ATOM      9  C   UNL d   1       4.553   0.524  -1.115  0.00  0.00     0.057 A 
ATOM     10  C   UNL d   1       3.158   0.570  -1.144  0.00  0.00     0.020 A 
BRANCH   7  11
ATOM     11  O   UNL d   1       6.562  -0.045  -0.006  0.00  0.00    -0.294 OA
BRANCH  11  12
ATOM     12  C   UNL d   1       7.210  -0.003   1.210  0.00  0.00     0.077 A 
ATOM     13  C   UNL d   1       8.425  -0.688   1.294  0.00  0.00     0.039 A 
ATOM     14  C   UNL d   1       9.157  -0.674   2.485  0.00  0.00     0.026 A 
ATOM     15  C   UNL d   1       8.675   0.032   3.586  0.00  0.00     0.034 A 
ATOM     16  C   UNL d   1       7.481   0.743   3.500  0.00  0.00     0.026 A 
ATOM     17 CL   UNL d   1       9.564   0.035   5.059  0.00  0.00    -0.084 Cl
ATOM     18  C   UNL d   1       6.758   0.741   2.305  0.00  0.00     0.039 A 
ENDBRANCH  11  12
ENDBRANCH   7  11
ENDBRANCH   1   4
BRANCH   1  19
ATOM     19  N   UNL d   1       0.248   0.104  -1.213  0.00  0.00    -0.286 NA
ATOM     20  H   UNL d   1       0.666  -0.440  -1.961  0.00  0.00     0.125 HD
ATOM     21  H   UNL d   1      -0.731  -0.122  -1.081  0.00  0.00     0.125 HD
ENDBRANCH   1  19
BRANCH   2  22
ATOM     22  O   UNL d   1      -1.025   0.249   1.062  0.00  0.00    -0.193 OA
BRANCH  22  23
ATOM     23  C   UNL d   1      -1.542   0.356   2.326  0.00  0.00     0.315 C 
ATOM     24  O   UNL d   1      -0.929   0.317   3.384  0.00  0.00    -0.257 OA
BRANCH  23  25
ATOM     25  C   UNL d   1      -3.022   0.537   2.282  0.00  0.00     0.041 A 
ATOM     26  C   UNL d   1      -3.696   0.681   3.507  0.00  0.00     0.019 A 
ATOM     27  C   UNL d   1      -5.082   0.858   3.543  0.00  0.00     0.025 A 
ATOM     28  C   UNL d   1      -5.804   0.890   2.354  0.00  0.00     0.034 A 
ATOM     29  C   UNL d   1      -5.150   0.749   1.129  0.00  0.00     0.025 A 
ATOM     30 CL   UNL d   1      -7.510   1.108   2.395  0.00  0.00    -0.084 Cl
ATOM     31  C   UNL d   1      -3.761   0.573   1.090  0.00  0.00     0.019 A 
ENDBRANCH  23  25
ENDBRANCH  22  23
ENDBRANCH   2  22
TORSDOF 7
