REMARK  1 active torsions:
REMARK  status: ('A' for Active; 'I' for Inactive)
REMARK    1  A    between atoms: C_6  and  C_1 
ROOT
ATOM      1  C   UNL d   1       2.496   0.703   0.184  0.00  0.00     0.169 C 
ATOM      2  C   UNL d   1       1.462  -1.395   0.136  0.00  0.00     0.302 C 
ATOM      3  N   UNL d   1       1.409   1.393   0.119  0.00  0.00    -0.335 N 
ATOM      4  HN  UNL d   1       1.429   2.412   0.075  1.00  0.00     0.168 HD
ATOM      5  O   UNL d   1       2.576  -0.643   0.238  0.00  0.00    -0.256 OA
ATOM      6  C   UNL d   1       0.153  -0.705   0.163  0.00  0.00     0.072 A 
ATOM      7  C   UNL d   1       0.204   0.690   0.111  0.00  0.00     0.051 A 
ATOM      8  O   UNL d   1       1.558  -2.608   0.008  0.00  0.00    -0.259 OA
ATOM      9  C   UNL d   1      -1.092  -1.372   0.200  0.00  0.00    -0.043 A 
ATOM     10  C   UNL d   1      -0.981   1.426   0.034  0.00  0.00     0.030 A 
ATOM     11  C   UNL d   1      -2.213   0.782  -0.004  0.00  0.00     0.003 A 
ATOM     12  C   UNL d   1      -2.267  -0.607   0.082  0.00  0.00     0.008 A 
ATOM     13  C   UNL d   1      -1.273  -2.860   0.339  0.00  0.00     0.049 C 
ENDROOT
BRANCH   1  14
ATOM     14  C   UNL d   1       3.803   1.334   0.170  0.00  0.00     0.058 A 
ATOM     15  S   UNL d   1       5.245   0.412   0.162  0.00  0.00    -0.085 SA
ATOM     16  C   UNL d   1       6.247   1.800   0.037  0.00  0.00     0.016 A 
ATOM     17  C   UNL d   1       7.651   1.825  -0.070  0.00  0.00     0.019 A 
ATOM     18  C   UNL d   1       5.493   2.974   0.051  0.00  0.00    -0.018 A 
ATOM     19  C   UNL d   1       8.299   3.058  -0.162  0.00  0.00     0.001 A 
ATOM     20  C   UNL d   1       7.572   4.240  -0.137  0.00  0.00     0.001 A 
ATOM     21  C   UNL d   1       6.178   4.209  -0.031  0.00  0.00     0.013 A 
ATOM     22  C   UNL d   1       4.087   2.686   0.132  0.00  0.00     0.036 A 
ENDBRANCH   1  14
TORSDOF 1
