REMARK  1 active torsions:
REMARK  status: ('A' for Active; 'I' for Inactive)
REMARK    1  A    between atoms: C_2  and  C_1 
REMARK       I    between atoms: N_5  and  C_2 
ROOT
ATOM      1  C   UNL d   1       5.618  -2.016  -1.100  0.00  0.00     0.267 C 
ATOM      2  N   UNL d   1       4.997  -2.879  -0.174  0.00  0.00    -0.313 N 
ATOM      3  C   UNL d   1       5.300  -4.285  -0.254  0.00  0.00     0.043 A 
ATOM      4  C   UNL d   1       4.344  -5.259   0.079  0.00  0.00    -0.031 A 
ATOM      5  C   UNL d   1       6.590  -4.712  -0.606  0.00  0.00     0.031 A 
ATOM      6  O   UNL d   1       5.900  -2.379  -2.240  0.00  0.00    -0.266 OA
ATOM      7  C   UNL d   1       4.669  -6.624  -0.007  0.00  0.00     0.016 A 
ATOM      8  C   UNL d   1       3.680  -2.490   0.325  0.00  0.00     0.133 C 
ATOM      9  C   UNL d   1       6.917  -6.072  -0.656  0.00  0.00     0.009 A 
ATOM     10  C   UNL d   1       5.957  -7.039  -0.361  0.00  0.00    -0.061 A 
ATOM     11  C   UNL d   1       2.950  -4.861   0.472  0.00  0.00     0.042 C 
ATOM     12  C   UNL d   1       3.000  -3.531   1.204  0.00  0.00     0.025 C 
ATOM     13  C   UNL d   1       6.283  -8.502  -0.420  0.00  0.00     0.048 C 
ENDROOT
BRANCH   1  14
ATOM     14  C   UNL d   1       6.014  -0.695  -0.647  0.00  0.00     0.096 A 
ATOM     15  S   UNL d   1       7.663  -0.502  -0.231  0.00  0.00    -0.082 SA
ATOM     16  C   UNL d   1       7.556   1.213  -0.249  0.00  0.00     0.017 A 
ATOM     17  C   UNL d   1       8.624   2.122  -0.097  0.00  0.00     0.020 A 
ATOM     18  C   UNL d   1       6.242   1.642  -0.452  0.00  0.00     0.004 A 
ATOM     19  C   UNL d   1       8.362   3.491  -0.147  0.00  0.00     0.001 A 
ATOM     20  C   UNL d   1       7.066   3.950  -0.319  0.00  0.00     0.001 A 
ATOM     21  C   UNL d   1       6.008   3.045  -0.464  0.00  0.00     0.014 A 
ATOM     22  C   UNL d   1       5.357   0.519  -0.674  0.00  0.00     0.068 A 
ATOM     23 CL   UNL d   1       3.696   0.734  -1.061  0.00  0.00    -0.082 Cl
ENDBRANCH   1  14
TORSDOF 1
