REMARK  5 active torsions:
REMARK  status: ('A' for Active; 'I' for Inactive)
REMARK    1  A    between atoms: C_6  and  C_4 
REMARK    2  A    between atoms: C_19  and  C_9 
REMARK    3  A    between atoms: O_16  and  C_10 
REMARK    4  A    between atoms: C_24  and  O_16 
REMARK    5  A    between atoms: C_22  and  C_24 
ROOT
ATOM      1  N   UNL d   1      -1.592  -1.026   0.354  0.00  0.00    -0.338 N 
ATOM      2  HN  UNL d   1      -1.943  -1.949   0.610  1.00  0.00     0.167 HD
ATOM      3  C   UNL d   1      -0.333  -0.668   0.182  0.00  0.00     0.146 C 
ATOM      4  C   UNL d   1      -2.329   0.108   0.117  0.00  0.00     0.067 C 
ATOM      5  N   UNL d   1      -0.231   0.709   0.006  0.00  0.00    -0.314 N 
ATOM      6  C   UNL d   1      -1.509   1.189  -0.107  0.00  0.00     0.129 C 
ATOM      7  C   UNL d   1       0.888  -1.420   0.124  0.00  0.00     0.113 C 
ATOM      8  C   UNL d   1       0.978   1.393  -0.052  0.00  0.00     0.098 C 
ATOM      9  C   UNL d   1       2.127   0.696   0.016  0.00  0.00     0.020 C 
ATOM     10  C   UNL d   1       2.062  -0.759   0.071  0.00  0.00     0.042 C 
ENDROOT
BRANCH   4  11
ATOM     11  C   UNL d   1      -3.814   0.104   0.078  0.00  0.00     0.033 A 
ATOM     12  S   UNL d   1      -4.754   1.269  -0.725  0.00  0.00    -0.087 SA
ATOM     13  C   UNL d   1      -6.230   0.473  -0.336  0.00  0.00     0.016 A 
ATOM     14  C   UNL d   1      -5.981  -0.632   0.464  0.00  0.00     0.021 A 
ATOM     15  C   UNL d   1      -4.588  -0.867   0.668  0.00  0.00     0.023 A 
BRANCH  13  16
ATOM     16  C   UNL d   1      -7.520   0.976  -0.848  0.00  0.00    -0.019 A 
ATOM     17  C   UNL d   1      -8.601   0.095  -1.020  0.00  0.00     0.013 A 
ATOM     18  C   UNL d   1      -9.832   0.549  -1.504  0.00  0.00     0.001 A 
ATOM     19  C   UNL d   1     -10.001   1.892  -1.829  0.00  0.00     0.000 A 
ATOM     20  C   UNL d   1      -8.941   2.780  -1.670  0.00  0.00     0.001 A 
ATOM     21  C   UNL d   1      -7.714   2.325  -1.183  0.00  0.00     0.013 A 
ENDBRANCH  13  16
ENDBRANCH   4  11
BRANCH   7  22
ATOM     22  O   UNL d   1       0.864  -2.804   0.062  0.00  0.00    -0.343 OA
BRANCH  22  23
ATOM     23  C   UNL d   1      -0.306  -3.378  -0.534  0.00  0.00     0.214 C 
BRANCH  23  24
ATOM     24  C   UNL d   1       0.022  -4.752  -1.072  0.00  0.00    -0.032 A 
ATOM     25  C   UNL d   1       0.445  -5.770  -0.205  0.00  0.00     0.035 A 
ATOM     26  C   UNL d   1       0.721  -7.051  -0.693  0.00  0.00     0.056 A 
ATOM     27 CL   UNL d   1       1.229  -8.251   0.442  0.00  0.00    -0.083 Cl
ATOM     28  C   UNL d   1       0.575  -7.324  -2.058  0.00  0.00     0.055 A 
ATOM     29  C   UNL d   1       0.151  -6.316  -2.927  0.00  0.00     0.026 A 
ATOM     30 CL   UNL d   1       0.897  -8.882  -2.732  0.00  0.00    -0.083 Cl
ATOM     31  C   UNL d   1      -0.125  -5.037  -2.437  0.00  0.00     0.011 A 
ENDBRANCH  23  24
ENDBRANCH  22  23
ENDBRANCH   7  22
TORSDOF 5
