REMARK  4 active torsions:
REMARK  status: ('A' for Active; 'I' for Inactive)
REMARK    1  A    between atoms: C_3  and  C_1 
REMARK    2  A    between atoms: C_4  and  C_1 
REMARK    3  A    between atoms: C_5  and  C_1 
REMARK    4  A    between atoms: O_6  and  C_1 
ROOT
ATOM      1  C   UNL d   1       0.974   0.062  -0.195  0.00  0.00     0.116 C 
ENDROOT
BRANCH   1   2
ATOM      2  C   UNL d   1       0.666   1.415   0.476  0.00  0.00    -0.019 A 
ATOM      3  C   UNL d   1      -0.601   2.017   0.359  0.00  0.00     0.010 A 
ATOM      4  C   UNL d   1      -0.873   3.255   0.949  0.00  0.00     0.001 A 
ATOM      5  C   UNL d   1       0.123   3.930   1.648  0.00  0.00     0.000 A 
ATOM      6  C   UNL d   1       1.390   3.368   1.760  0.00  0.00     0.001 A 
ATOM      7  C   UNL d   1       1.658   2.124   1.183  0.00  0.00     0.010 A 
ENDBRANCH   1   2
BRANCH   1   8
ATOM      8  C   UNL d   1       0.611   0.048  -1.706  0.00  0.00    -0.019 A 
ATOM      9  C   UNL d   1       0.806   1.210  -2.488  0.00  0.00     0.010 A 
ATOM     10  C   UNL d   1       0.613   1.210  -3.872  0.00  0.00     0.001 A 
ATOM     11  C   UNL d   1       0.246   0.039  -4.519  0.00  0.00     0.000 A 
ATOM     12  C   UNL d   1       0.061  -1.126  -3.782  0.00  0.00     0.001 A 
ATOM     13  C   UNL d   1       0.242  -1.122  -2.393  0.00  0.00     0.010 A 
ENDBRANCH   1   8
BRANCH   1  14
ATOM     14  C   UNL d   1       0.453  -1.173   0.650  0.00  0.00     0.033 C 
ATOM     15  C   UNL d   1      -1.072  -1.294   0.849  0.00  0.00     0.038 C 
ATOM     16  C   UNL d   1      -1.618  -0.681   2.142  0.00  0.00     0.270 C 
ATOM     17  N   UNL d   1      -0.857  -1.083   3.321  0.00  0.00     0.083 N 
ATOM     18  C   UNL d   1       0.546  -0.700   3.187  0.00  0.00     0.270 C 
ATOM     19  H   UNL d   1      -1.246  -0.613   4.139  0.00  0.00     0.315 HD
ATOM     20  C   UNL d   1       1.182  -1.407   2.000  0.00  0.00     0.038 C 
ENDBRANCH   1  14
BRANCH   1  21
ATOM     21  O   UNL d   1       2.419  -0.084  -0.205  0.00  0.00    -0.380 OA
ATOM     22  H   UNL d   1       2.725  -0.011  -1.124  0.00  0.00     0.211 HD
ENDBRANCH   1  21
TORSDOF 4
