REMARK  2 active torsions:
REMARK  status: ('A' for Active; 'I' for Inactive)
REMARK    1  A    between atoms: C_3  and  C_4 
REMARK    2  A    between atoms: C_14  and  C_6 
ROOT
ATOM      1  C   UNL d   1      -3.278  -1.993  -0.002  0.00  0.00     0.011 A 
ATOM      2  C   UNL d   1      -4.172  -2.498   0.994  0.00  0.00     0.070 A 
ATOM      3  N   UNL d   1      -5.446  -2.334   0.589  0.00  0.00    -0.299 N 
ATOM      4  HN  UNL d   1      -6.296  -2.629   1.070  1.00  0.00     0.187 HD
ATOM      5  N   UNL d   1      -5.352  -1.697  -0.586  0.00  0.00    -0.311 N 
ATOM      6  C   UNL d   1      -4.075  -1.523  -1.018  0.00  0.00     0.120 A 
ATOM      7  H   UNL d   1      -6.210  -1.404  -1.040  0.00  0.00     0.186 HD
ENDROOT
BRANCH   1   8
ATOM      8  C   UNL d   1      -1.859  -1.877   0.007  0.00  0.00     0.033 C 
ATOM      9  C   UNL d   1      -1.181  -0.831   0.498  0.00  0.00     0.045 A 
ATOM     10  C   UNL d   1      -1.798   0.406   1.110  0.00  0.00     0.257 A 
ATOM     11  C   UNL d   1       0.277  -0.653   0.547  0.00  0.00     0.006 A 
ATOM     12  N   UNL d   1      -0.720   1.186   1.495  0.00  0.00    -0.322 N 
ATOM     13  O   UNL d   1      -2.970   0.696   1.236  0.00  0.00    -0.267 OA
ATOM     14  C   UNL d   1       0.489   0.584   1.168  0.00  0.00     0.046 A 
ATOM     15  H   UNL d   1      -0.838   2.083   1.938  0.00  0.00     0.169 HD
ATOM     16  C   UNL d   1       1.746   1.103   1.395  0.00  0.00     0.030 A 
ATOM     17  C   UNL d   1       2.837   0.343   0.973  0.00  0.00     0.002 A 
ATOM     18  C   UNL d   1       2.644  -0.901   0.343  0.00  0.00     0.001 A 
ATOM     19  C   UNL d   1       1.355  -1.410   0.126  0.00  0.00     0.015 A 
ENDBRANCH   1   8
BRANCH   2  20
ATOM     20  C   UNL d   1      -3.881  -3.106   2.299  0.00  0.00    -0.007 A 
ATOM     21  C   UNL d   1      -4.785  -2.949   3.362  0.00  0.00     0.014 A 
ATOM     22  C   UNL d   1      -4.542  -3.540   4.605  0.00  0.00     0.001 A 
ATOM     23  C   UNL d   1      -3.390  -4.297   4.801  0.00  0.00     0.000 A 
ATOM     24  C   UNL d   1      -2.481  -4.460   3.758  0.00  0.00     0.001 A 
ATOM     25  C   UNL d   1      -2.726  -3.870   2.514  0.00  0.00     0.014 A 
ENDBRANCH   2  20
TORSDOF 2
