REMARK  3 active torsions:
REMARK  status: ('A' for Active; 'I' for Inactive)
REMARK    1  A    between atoms: C_2  and  C_1 
REMARK       I    between atoms: N_3  and  C_1 
REMARK    2  A    between atoms: C_6  and  N_3 
REMARK    3  A    between atoms: N_7  and  C_4 
ROOT
ATOM      1  C   UNL d   1       0.298  -0.762  -1.086  0.00  0.00     0.058 A 
ATOM      2  C   UNL d   1       1.079  -1.862  -1.524  0.00  0.00     0.043 A 
ATOM      3  C   UNL d   1      -1.083  -0.717  -1.370  0.00  0.00     0.019 A 
ATOM      4  C   UNL d   1       0.414  -2.897  -2.206  0.00  0.00     0.030 A 
ATOM      5  C   UNL d   1      -1.710  -1.765  -2.038  0.00  0.00     0.001 A 
ATOM      6  C   UNL d   1      -0.963  -2.860  -2.446  0.00  0.00     0.002 A 
ENDROOT
BRANCH   1   7
ATOM      7  C   UNL d   1       0.898   0.370  -0.301  0.00  0.00     0.254 C 
ATOM      8  N   UNL d   1       0.056   0.959   0.633  0.00  0.00    -0.349 N 
ATOM      9  H   UNL d   1      -0.804   0.469   0.845  0.00  0.00     0.163 HD
ATOM     10  O   UNL d   1       2.067   0.700  -0.463  0.00  0.00    -0.268 OA
BRANCH   8  11
ATOM     11  C   UNL d   1       0.393   2.094   1.506  0.00  0.00     0.022 C 
ATOM     12  C   UNL d   1       0.665   3.365   0.683  0.00  0.00     0.037 C 
ATOM     13  C   UNL d   1      -0.822   2.367   2.415  0.00  0.00     0.037 C 
ATOM     14  C   UNL d   1       1.599   1.774   2.401  0.00  0.00     0.037 C 
ENDBRANCH   8  11
ENDBRANCH   1   7
BRANCH   2  15
ATOM     15  N   UNL d   1       2.472  -1.881  -1.385  0.00  0.00    -0.393 N 
ATOM     16  C   UNL d   1       3.212  -3.124  -1.335  0.00  0.00     0.146 C 
ATOM     17  H   UNL d   1       2.827  -1.132  -0.785  0.00  0.00     0.159 HD
ENDBRANCH   2  15
TORSDOF 3
