REMARK  5 active torsions:
REMARK  status: ('A' for Active; 'I' for Inactive)
REMARK    1  A    between atoms: C_5  and  C_1 
REMARK    2  A    between atoms: N_8  and  C_2 
REMARK       I    between atoms: C_9  and  N_8 
REMARK    3  A    between atoms: O_15  and  C_9 
REMARK    4  A    between atoms: N_10  and  O_15 
REMARK    5  A    between atoms: C_16  and  C_12 
ROOT
ATOM      1  C   UNL d   1       2.279  -4.268   0.977  0.00  0.00     0.098 C 
ATOM      2  C   UNL d   1       1.792  -3.151   0.199  0.00  0.00     0.098 C 
ATOM      3  N   UNL d   1       3.479  -4.660   0.499  0.00  0.00    -0.258 N 
ATOM      4  HN  UNL d   1       4.101  -5.355   0.913  1.00  0.00     0.195 HD
ATOM      5  C   UNL d   1       2.638  -3.131  -0.887  0.00  0.00     0.101 C 
ATOM      6  O   UNL d   1       3.703  -3.943  -0.647  0.00  0.00    -0.240 OA
ATOM      7  C   UNL d   1       2.544  -2.633  -2.269  0.00  0.00     0.081 C 
ENDROOT
BRANCH   2   8
ATOM      8  N   UNL d   1       0.558  -2.508   0.254  0.00  0.00    -0.297 N 
ATOM      9  C   UNL d   1       0.354  -1.201   0.672  0.00  0.00     0.387 C 
ATOM     10  O   UNL d   1      -0.786  -0.837   0.960  0.00  0.00    -0.236 OA
ATOM     11  H   UNL d   1      -0.226  -3.075   0.551  0.00  0.00     0.171 HD
BRANCH   9  12
ATOM     12  O   UNL d   1       1.475  -0.410   0.758  0.00  0.00    -0.181 OA
BRANCH  12  13
ATOM     13  N   UNL d   1       1.414   0.406   1.926  0.00  0.00    -0.264 N 
ATOM     14  C   UNL d   1       2.195   1.447   1.849  0.00  0.00     0.014 C 
ATOM     15  C   UNL d   1       2.896   1.869   0.566  0.00  0.00     0.066 C 
ATOM     16  HN  UNL d   1       0.824   0.199   2.732  1.00  0.00     0.194 HD
BRANCH  14  17
ATOM     17  C   UNL d   1       2.555   2.239   3.152  0.00  0.00    -0.011 C 
ATOM     18  C   UNL d   1       3.763   1.519   3.780  0.00  0.00     0.021 C 
ATOM     19  C   UNL d   1       2.947   3.697   2.847  0.00  0.00     0.021 C 
ATOM     20  C   UNL d   1       1.428   2.272   4.198  0.00  0.00     0.021 C 
ENDBRANCH  14  17
ENDBRANCH  12  13
ENDBRANCH   9  12
ENDBRANCH   2   8
BRANCH   1  21
ATOM     21  C   UNL d   1       1.649  -5.026   2.055  0.00  0.00     0.038 A 
ATOM     22  C   UNL d   1       0.368  -5.595   1.884  0.00  0.00     0.048 A 
ATOM     23 CL   UNL d   1      -0.544  -5.462   0.414  0.00  0.00    -0.083 Cl
ATOM     24  C   UNL d   1      -0.222  -6.368   2.891  0.00  0.00     0.025 A 
ATOM     25  C   UNL d   1       0.458  -6.625   4.074  0.00  0.00     0.003 A 
ATOM     26  C   UNL d   1       1.737  -6.107   4.252  0.00  0.00     0.025 A 
ATOM     27  C   UNL d   1       2.329  -5.309   3.259  0.00  0.00     0.048 A 
ATOM     28 CL   UNL d   1       3.913  -4.705   3.622  0.00  0.00    -0.083 Cl
ENDBRANCH   1  21
TORSDOF 5
