REMARK  8 active torsions:
REMARK  status: ('A' for Active; 'I' for Inactive)
REMARK    1  A    between atoms: C_7  and  C_1 
REMARK    2  A    between atoms: C_3  and  C_2 
REMARK    3  A    between atoms: N_21  and  C_2 
REMARK    4  A    between atoms: N_4  and  O_10 
REMARK    5  A    between atoms: C_6  and  C_11 
REMARK    6  A    between atoms: O_10  and  C_6 
REMARK    7  A    between atoms: O_17  and  C_13 
REMARK    8  A    between atoms: C_22  and  O_17 
ROOT
ATOM      1  C   UNL d   1      -0.498  -7.022  -2.924  0.00  0.00     0.110 C 
ATOM      2  N   UNL d   1      -0.270  -6.005  -2.150  0.00  0.00    -0.246 N 
ATOM      3  HN  UNL d   1       0.262  -6.069  -1.282  1.00  0.00     0.196 HD
ENDROOT
BRANCH   1   4
ATOM      4  C   UNL d   1       0.076  -8.339  -2.511  0.00  0.00     0.019 A 
ATOM      5  C   UNL d   1       0.343  -8.592  -1.171  0.00  0.00     0.105 A 
ATOM      6  N   UNL d   1       0.875  -9.751  -0.711  0.00  0.00    -0.346 N 
ATOM      7  C   UNL d   1       1.201 -10.685  -1.633  0.00  0.00     0.147 A 
ATOM      8  HN  UNL d   1       1.022  -9.911   0.286  1.00  0.00     0.167 HD
ATOM      9  C   UNL d   1       0.952 -10.538  -2.991  0.00  0.00     0.057 A 
ATOM     10  C   UNL d   1       0.382  -9.341  -3.436  0.00  0.00     0.020 A 
BRANCH   7  11
ATOM     11  O   UNL d   1       1.821 -11.860  -1.224  0.00  0.00    -0.294 OA
BRANCH  11  12
ATOM     12  C   UNL d   1       2.681 -11.774  -0.149  0.00  0.00     0.077 A 
ATOM     13  C   UNL d   1       2.688 -12.840   0.753  0.00  0.00     0.039 A 
ATOM     14  C   UNL d   1       3.534 -12.807   1.867  0.00  0.00     0.026 A 
ATOM     15  C   UNL d   1       4.378 -11.715   2.065  0.00  0.00     0.034 A 
ATOM     16  C   UNL d   1       4.405 -10.668   1.147  0.00  0.00     0.026 A 
ATOM     17 CL   UNL d   1       5.396 -11.656   3.452  0.00  0.00    -0.084 Cl
ATOM     18  C   UNL d   1       3.570 -10.707   0.030  0.00  0.00     0.039 A 
ENDBRANCH  11  12
ENDBRANCH   7  11
ENDBRANCH   1   4
BRANCH   1  19
ATOM     19  N   UNL d   1      -1.243  -6.958  -4.078  0.00  0.00    -0.286 NA
ATOM     20  H   UNL d   1      -1.806  -6.117  -4.128  0.00  0.00     0.125 HD
ATOM     21  H   UNL d   1      -1.782  -7.789  -4.300  0.00  0.00     0.125 HD
ENDBRANCH   1  19
BRANCH   2  22
ATOM     22  O   UNL d   1      -0.834  -4.801  -2.632  0.00  0.00    -0.193 OA
BRANCH  22  23
ATOM     23  C   UNL d   1      -0.515  -3.785  -1.768  0.00  0.00     0.315 C 
ATOM     24  O   UNL d   1       0.118  -3.880  -0.721  0.00  0.00    -0.257 OA
BRANCH  23  25
ATOM     25  C   UNL d   1      -1.050  -2.472  -2.235  0.00  0.00     0.042 A 
ATOM     26  C   UNL d   1      -1.757  -2.304  -3.436  0.00  0.00     0.034 A 
ATOM     27  C   UNL d   1      -2.234  -1.032  -3.813  0.00  0.00     0.048 A 
ATOM     28  C   UNL d   1      -1.998   0.068  -2.973  0.00  0.00     0.016 A 
ATOM     29  C   UNL d   1      -1.295  -0.091  -1.783  0.00  0.00     0.002 A 
ATOM     30  C   UNL d   1      -0.824  -1.353  -1.418  0.00  0.00     0.018 A 
BRANCH  27  31
ATOM     31  C   UNL d   1      -2.998  -0.826  -5.101  0.00  0.00     0.417 C 
ATOM     32  F   UNL d   1      -3.147  -1.968  -5.829  0.00  0.00    -0.166 F 
ATOM     33  F   UNL d   1      -2.394   0.070  -5.928  0.00  0.00    -0.166 F 
ATOM     34  F   UNL d   1      -4.257  -0.352  -4.890  0.00  0.00    -0.166 F 
ENDBRANCH  27  31
ENDBRANCH  23  25
ENDBRANCH  22  23
ENDBRANCH   2  22
TORSDOF 8
