REMARK  5 active torsions:
REMARK  status: ('A' for Active; 'I' for Inactive)
REMARK    1  A    between atoms: C_12  and  C_2 
REMARK    2  A    between atoms: S_14  and  C_5 
REMARK    3  A    between atoms: C_8  and  C_9 
REMARK    4  A    between atoms: C_20  and  S_14 
REMARK    5  A    between atoms: C_21  and  C_20 
ROOT
ATOM      1  S   UNL d   1      -1.250  -0.311   0.684  0.00  0.00    -0.043 SA
ATOM      2  C   UNL d   1      -0.406   1.131   0.253  0.00  0.00     0.118 A 
ATOM      3  N   UNL d   1       0.749   0.896  -0.346  0.00  0.00    -0.291 N 
ATOM      4  HN  UNL d   1       1.372   1.631  -0.682  1.00  0.00     0.187 HD
ATOM      5  C   UNL d   1       0.059  -1.198   0.032  0.00  0.00     0.129 A 
ATOM      6  N   UNL d   1       1.021  -0.455  -0.469  0.00  0.00    -0.287 N 
ATOM      7  HN  UNL d   1       1.867  -0.830  -0.898  1.00  0.00     0.188 HD
ENDROOT
BRANCH   2   8
ATOM      8  C   UNL d   1      -0.952   2.467   0.551  0.00  0.00     0.067 A 
ATOM      9  N   UNL d   1      -2.116   2.519   1.249  0.00  0.00    -0.363 N 
ATOM     10  C   UNL d   1      -2.619   3.740   1.554  0.00  0.00     0.104 A 
ATOM     11  HN  UNL d   1      -2.597   1.666   1.534  1.00  0.00     0.165 HD
ATOM     12  C   UNL d   1      -2.020   4.938   1.198  0.00  0.00     0.063 A 
ATOM     13  C   UNL d   1      -0.827   4.867   0.475  0.00  0.00     0.020 A 
ATOM     14  C   UNL d   1      -0.285   3.622   0.148  0.00  0.00     0.033 A 
BRANCH  12  15
ATOM     15  C   UNL d   1      -2.634   6.249   1.585  0.00  0.00     0.418 C 
ATOM     16  F   UNL d   1      -3.796   6.123   2.283  0.00  0.00    -0.166 F 
ATOM     17  F   UNL d   1      -1.809   6.998   2.367  0.00  0.00    -0.166 F 
ATOM     18  F   UNL d   1      -2.930   7.024   0.505  0.00  0.00    -0.166 F 
ENDBRANCH  12  15
ENDBRANCH   2   8
BRANCH   5  19
ATOM     19  S   UNL d   1       0.099  -2.946   0.023  0.00  0.00    -0.099 SA
BRANCH  19  20
ATOM     20  C   UNL d   1       1.889  -3.244  -0.037  0.00  0.00     0.120 C 
BRANCH  20  21
ATOM     21  C   UNL d   1       2.209  -4.721  -0.040  0.00  0.00    -0.049 A 
ATOM     22  C   UNL d   1       2.349  -5.418  -1.247  0.00  0.00     0.008 A 
ATOM     23  C   UNL d   1       2.645  -6.785  -1.251  0.00  0.00     0.007 A 
ATOM     24  C   UNL d   1       2.800  -7.483  -0.048  0.00  0.00    -0.062 A 
ATOM     25  C   UNL d   1       2.648  -6.794   1.160  0.00  0.00     0.007 A 
ATOM     26  C   UNL d   1       3.121  -8.948  -0.069  0.00  0.00     0.048 C 
ATOM     27  C   UNL d   1       2.353  -5.426   1.165  0.00  0.00     0.008 A 
ENDBRANCH  20  21
ENDBRANCH  19  20
ENDBRANCH   5  19
TORSDOF 5
