REMARK  5 active torsions:
REMARK  status: ('A' for Active; 'I' for Inactive)
REMARK       I    between atoms: N_2  and  C_1 
REMARK    1  A    between atoms: C_3  and  C_1 
REMARK    2  A    between atoms: N_6  and  N_2 
REMARK    3  A    between atoms: C_4  and  C_5 
REMARK    4  A    between atoms: C_12  and  N_6 
REMARK    5  A    between atoms: C_21  and  C_17 
ROOT
ATOM      1  C   UNL d   1       1.013   0.060   0.364  0.00  0.00     0.270 C 
ATOM      2  N   UNL d   1       0.921   1.029   1.352  0.00  0.00    -0.265 N 
ATOM      3  O   UNL d   1       1.193  -1.117   0.668  0.00  0.00    -0.266 OA
ATOM      4  H   UNL d   1       1.119   0.720   2.301  0.00  0.00     0.190 HD
ENDROOT
BRANCH   2   5
ATOM      5  N   UNL d   1       1.148   2.372   1.071  0.00  0.00    -0.298 N 
ATOM      6  H   UNL d   1       2.113   2.629   0.869  0.00  0.00     0.187 HD
BRANCH   5   7
ATOM      7  C   UNL d   1       0.410   3.315   1.810  0.00  0.00     0.048 A 
ATOM      8  C   UNL d   1       0.691   4.672   1.627  0.00  0.00     0.031 A 
ATOM      9  C   UNL d   1      -0.071   5.663   2.258  0.00  0.00     0.010 A 
ATOM     10  C   UNL d   1      -1.160   5.338   3.085  0.00  0.00    -0.051 A 
ATOM     11  C   UNL d   1      -1.455   3.975   3.237  0.00  0.00     0.010 A 
ATOM     12  C   UNL d   1      -0.697   2.986   2.595  0.00  0.00     0.031 A 
BRANCH  10  13
ATOM     13  C   UNL d   1      -1.978   6.448   3.764  0.00  0.00    -0.024 C 
ATOM     14  C   UNL d   1      -3.162   5.920   4.606  0.00  0.00     0.019 C 
ATOM     15  C   UNL d   1      -1.063   7.254   4.711  0.00  0.00     0.019 C 
ATOM     16  C   UNL d   1      -2.566   7.396   2.697  0.00  0.00     0.019 C 
ENDBRANCH  10  13
ENDBRANCH   5   7
ENDBRANCH   2   5
BRANCH   1  17
ATOM     17  C   UNL d   1       0.921   0.454  -1.076  0.00  0.00     0.033 A 
ATOM     18  C   UNL d   1       1.615  -0.310  -2.019  0.00  0.00     0.017 A 
ATOM     19  C   UNL d   1       1.580   0.037  -3.374  0.00  0.00     0.008 A 
ATOM     20  C   UNL d   1       0.848   1.154  -3.800  0.00  0.00    -0.059 A 
ATOM     21  C   UNL d   1       0.144   1.908  -2.856  0.00  0.00     0.008 A 
ATOM     22  C   UNL d   1       0.159   1.545  -1.507  0.00  0.00     0.017 A 
BRANCH  20  23
ATOM     23  C   UNL d   1       0.802   1.545  -5.255  0.00  0.00     0.034 C 
ATOM     24  C   UNL d   1       1.934   2.485  -5.638  0.00  0.00     0.010 C 
ENDBRANCH  20  23
ENDBRANCH   1  17
TORSDOF 5
