REMARK  3 active torsions:
REMARK  status: ('A' for Active; 'I' for Inactive)
REMARK    1  A    between atoms: C_2  and  C_1 
REMARK       I    between atoms: N_10  and  C_2 
REMARK    2  A    between atoms: N_8  and  C_6 
REMARK    3  A    between atoms: C_13  and  N_10 
ROOT
ATOM      1  C   UNL d   1      -3.263   4.454   0.305  0.00  0.00     0.052 A 
ATOM      2  C   UNL d   1      -2.619   3.514   1.137  0.00  0.00     0.062 A 
ATOM      3  C   UNL d   1      -1.232   3.292   1.066  0.00  0.00     0.055 A 
ATOM      4  C   UNL d   1      -2.419   5.139  -0.596  0.00  0.00     0.033 A 
ATOM      5  C   UNL d   1      -0.434   3.950   0.133  0.00  0.00     0.036 A 
ATOM      6 CL   UNL d   1      -3.458   2.455   2.232  0.00  0.00    -0.082 Cl
ATOM      7  C   UNL d   1      -1.039   4.896  -0.689  0.00  0.00     0.032 A 
ENDROOT
BRANCH   5   8
ATOM      8  N   UNL d   1       0.943   3.688  -0.051  0.00  0.00    -0.323 N 
ATOM      9  C   UNL d   1       1.657   2.644   0.516  0.00  0.00     0.258 C 
ATOM     10  O   UNL d   1       1.191   1.830   1.307  0.00  0.00    -0.267 OA
ATOM     11  H   UNL d   1       1.414   4.243  -0.751  0.00  0.00     0.169 HD
BRANCH   9  12
ATOM     12  C   UNL d   1       3.046   2.530   0.070  0.00  0.00     0.064 A 
ATOM     13  C   UNL d   1       3.872   1.452   0.359  0.00  0.00     0.065 A 
ATOM     14  O   UNL d   1       5.100   1.626  -0.204  0.00  0.00    -0.319 OA
ATOM     15  C   UNL d   1       3.714   0.182   1.108  0.00  0.00     0.077 C 
ATOM     16  C   UNL d   1       5.087   2.817  -0.851  0.00  0.00     0.050 A 
ATOM     17  C   UNL d   1       3.858   3.420  -0.701  0.00  0.00     0.051 A 
ATOM     18  C   UNL d   1       6.337   3.188  -1.539  0.00  0.00     0.076 C 
ENDBRANCH   9  12
ENDBRANCH   5   8
BRANCH   1  19
ATOM     19  N   UNL d   1      -4.607   4.783   0.332  0.00  0.00    -0.375 N 
ATOM     20  C   UNL d   1      -5.462   4.671   1.525  0.00  0.00     0.149 C 
ATOM     21  C   UNL d   1      -6.396   5.893   1.601  0.00  0.00     0.187 C 
ATOM     22  O   UNL d   1      -7.148   6.086   0.392  0.00  0.00    -0.388 OA
ATOM     23  C   UNL d   1      -6.261   6.238  -0.729  0.00  0.00     0.187 C 
ATOM     24  C   UNL d   1      -5.378   4.994  -0.905  0.00  0.00     0.149 C 
ENDBRANCH   1  19
TORSDOF 3
