REMARK  1 active torsions:
REMARK  status: ('A' for Active; 'I' for Inactive)
REMARK    1  A    between atoms: C_7  and  N_1 
ROOT
ATOM      1  N   UNL d   1      -0.649  -1.203  -0.115  0.00  0.00    -0.273 N 
ATOM      2  C   UNL d   1      -1.411  -0.025  -0.161  0.00  0.00     0.334 A 
ATOM      3  N   UNL d   1      -0.687   1.142  -0.117  0.00  0.00    -0.274 N 
ATOM      4  C   UNL d   1       1.433  -0.011  -0.057  0.00  0.00     0.095 A 
ATOM      5  C   UNL d   1       0.737  -1.154  -0.078  0.00  0.00     0.127 A 
ATOM      6  C   UNL d   1       0.672   1.264  -0.055  0.00  0.00     0.268 A 
ATOM      7  O   UNL d   1      -2.637   0.040  -0.208  0.00  0.00    -0.246 OA
ATOM      8  O   UNL d   1       1.210   2.367  -0.007  0.00  0.00    -0.267 OA
ATOM      9 BR   UNL d   1       3.293   0.036  -0.048  0.00  0.00    -0.044 Br
ATOM     10  H   UNL d   1      -1.225   1.996  -0.114  0.00  0.00     0.173 HD
ENDROOT
BRANCH   1  11
ATOM     11  C   UNL d   1      -1.332  -2.461  -0.172  0.00  0.00     0.049 A 
ATOM     12  C   UNL d   1      -1.151  -3.465   0.802  0.00  0.00    -0.035 A 
ATOM     13  C   UNL d   1      -0.351  -3.283   2.064  0.00  0.00     0.050 C 
ATOM     14  C   UNL d   1      -1.814  -4.696   0.638  0.00  0.00     0.009 A 
ATOM     15  C   UNL d   1      -2.648  -4.927  -0.455  0.00  0.00     0.001 A 
ATOM     16  C   UNL d   1      -2.840  -3.929  -1.402  0.00  0.00     0.002 A 
ATOM     17  C   UNL d   1      -2.190  -2.703  -1.259  0.00  0.00     0.031 A 
ENDBRANCH   1  11
TORSDOF 1
