REMARK  7 active torsions:
REMARK  status: ('A' for Active; 'I' for Inactive)
REMARK    1  A    between atoms: S_13  and  C_2 
REMARK    2  A    between atoms: C_8  and  C_3 
REMARK    3  A    between atoms: C_9  and  N_11 
REMARK       I    between atoms: N_11  and  C_15 
REMARK    4  A    between atoms: C_22  and  S_13 
REMARK    5  A    between atoms: C_15  and  C_22 
REMARK    6  A    between atoms: C_29  and  C_18 
REMARK    7  A    between atoms: C_28  and  C_19 
ROOT
ATOM      1  C   UNL d   1       1.537   0.327  -1.921  0.00  0.00     0.090 A 
ATOM      2  C   UNL d   1       1.891  -0.959  -1.498  0.00  0.00     0.092 A 
ATOM      3  C   UNL d   1       0.187   0.606  -2.280  0.00  0.00     0.013 A 
ATOM      4  N   UNL d   1       0.972  -1.927  -1.307  0.00  0.00    -0.352 N 
ATOM      5  HN  UNL d   1       1.247  -2.835  -0.932  1.00  0.00     0.166 HD
ATOM      6  C   UNL d   1      -0.753  -0.457  -2.180  0.00  0.00    -0.022 A 
ATOM      7  C   UNL d   1      -0.323  -1.674  -1.621  0.00  0.00     0.017 A 
ATOM      8  C   UNL d   1       2.560   1.331  -1.995  0.00  0.00     0.103 C 
ATOM      9  N   UNL d   1       3.391   2.128  -2.077  0.00  0.00    -0.191 NA
ATOM     10  C   UNL d   1      -2.183  -0.341  -2.671  0.00  0.00     0.041 C 
ATOM     11  C   UNL d   1      -1.257  -2.846  -1.418  0.00  0.00     0.057 C 
ATOM     12  C   UNL d   1      -2.862  -1.686  -2.919  0.00  0.00     0.005 C 
ATOM     13  C   UNL d   1      -2.729  -2.547  -1.676  0.00  0.00     0.006 C 
ENDROOT
BRANCH   2  14
ATOM     14  S   UNL d   1       3.625  -1.439  -1.259  0.00  0.00    -0.101 SA
BRANCH  14  15
ATOM     15  C   UNL d   1       3.456  -3.199  -0.839  0.00  0.00     0.184 C 
BRANCH  15  16
ATOM     16  C   UNL d   1       4.760  -3.988  -0.733  0.00  0.00     0.231 C 
ATOM     17  N   UNL d   1       5.928  -3.384  -1.192  0.00  0.00    -0.326 N 
ATOM     18  H   UNL d   1       5.929  -2.385  -1.034  0.00  0.00     0.169 HD
ATOM     19  O   UNL d   1       4.724  -5.135  -0.277  0.00  0.00    -0.272 OA
BRANCH  17  20
ATOM     20  C   UNL d   1       7.168  -4.049  -0.980  0.00  0.00     0.047 A 
ATOM     21  C   UNL d   1       7.655  -4.934  -1.972  0.00  0.00    -0.031 A 
ATOM     22  C   UNL d   1       8.835  -5.660  -1.726  0.00  0.00     0.009 A 
ATOM     23  C   UNL d   1       9.536  -5.495  -0.536  0.00  0.00     0.001 A 
ATOM     24  C   UNL d   1       9.090  -4.572   0.408  0.00  0.00     0.009 A 
ATOM     25  C   UNL d   1       7.922  -3.815   0.192  0.00  0.00    -0.031 A 
BRANCH  21  26
ATOM     26  C   UNL d   1       7.017  -5.065  -3.338  0.00  0.00     0.036 C 
ATOM     27  C   UNL d   1       6.077  -6.250  -3.475  0.00  0.00     0.010 C 
ENDBRANCH  21  26
BRANCH  25  28
ATOM     28  C   UNL d   1       7.551  -2.793   1.241  0.00  0.00     0.036 C 
ATOM     29  C   UNL d   1       6.802  -3.371   2.432  0.00  0.00     0.010 C 
ENDBRANCH  25  28
ENDBRANCH  17  20
ENDBRANCH  15  16
ENDBRANCH  14  15
ENDBRANCH   2  14
BRANCH   3  30
ATOM     30  C   UNL d   1      -0.187   1.954  -2.818  0.00  0.00     0.017 C 
ATOM     31  S   UNL d   1      -1.608   2.780  -2.288  0.00  0.00    -0.101 SA
ATOM     32  C   UNL d   1      -1.380   4.071  -3.381  0.00  0.00     0.050 C 
ATOM     33  C   UNL d   1      -0.166   3.984  -4.016  0.00  0.00     0.008 C 
ATOM     34  C   UNL d   1       0.501   2.760  -3.716  0.00  0.00     0.020 C 
ENDBRANCH   3  30
TORSDOF 7
