REMARK  5 active torsions:
REMARK  status: ('A' for Active; 'I' for Inactive)
REMARK       I    between atoms: N_2  and  C_1 
REMARK    1  A    between atoms: C_4  and  C_1 
REMARK    2  A    between atoms: C_16  and  N_3 
REMARK    3  A    between atoms: C_19  and  C_16 
REMARK    4  A    between atoms: O_17  and  C_19 
REMARK    5  A    between atoms: C_18  and  O_17 
ROOT
ATOM      1  C   UNL d   1       0.807  -0.020  -0.138  0.00  0.00     0.253 C 
ATOM      2  N   UNL d   1       0.242   1.256  -0.074  0.00  0.00    -0.345 N 
ATOM      3  N   UNL d   1      -0.619   4.082   0.125  0.00  0.00     0.093 N 
ATOM      4  O   UNL d   1       1.723  -0.315  -0.902  0.00  0.00    -0.267 OA
ATOM      5  C   UNL d   1       0.568   2.206  -1.142  0.00  0.00     0.156 C 
ATOM      6  C   UNL d   1      -0.840   1.659   0.833  0.00  0.00     0.156 C 
ATOM      7  C   UNL d   1       0.561   3.679  -0.677  0.00  0.00     0.292 C 
ATOM      8  C   UNL d   1      -0.744   3.135   1.249  0.00  0.00     0.292 C 
ENDROOT
BRANCH   1   9
ATOM      9  C   UNL d   1       0.310  -1.089   0.765  0.00  0.00     0.032 A 
ATOM     10  C   UNL d   1      -1.050  -1.408   0.843  0.00  0.00     0.018 A 
ATOM     11  C   UNL d   1      -1.490  -2.383   1.743  0.00  0.00     0.025 A 
ATOM     12  C   UNL d   1      -0.562  -3.076   2.521  0.00  0.00     0.034 A 
ATOM     13  C   UNL d   1       0.802  -2.810   2.397  0.00  0.00     0.025 A 
ATOM     14 CL   UNL d   1      -1.106  -4.265   3.637  0.00  0.00    -0.084 Cl
ATOM     15  C   UNL d   1       1.240  -1.819   1.516  0.00  0.00     0.018 A 
ENDBRANCH   1   9
BRANCH   3  16
ATOM     16  C   UNL d   1      -1.828   4.176  -0.719  0.00  0.00     0.299 C 
BRANCH  16  17
ATOM     17  C   UNL d   1      -3.090   4.628   0.032  0.00  0.00     0.206 C 
BRANCH  17  18
ATOM     18  O   UNL d   1      -4.165   4.764  -0.904  0.00  0.00    -0.349 OA
BRANCH  18  19
ATOM     19  C   UNL d   1      -5.385   5.110  -0.384  0.00  0.00     0.068 A 
ATOM     20  C   UNL d   1      -5.660   5.361   0.962  0.00  0.00     0.037 A 
ATOM     21  C   UNL d   1      -6.954   5.708   1.364  0.00  0.00     0.003 A 
ATOM     22  C   UNL d   1      -7.976   5.809   0.424  0.00  0.00     0.000 A 
ATOM     23  C   UNL d   1      -7.708   5.561  -0.921  0.00  0.00     0.003 A 
ATOM     24  C   UNL d   1      -6.416   5.212  -1.321  0.00  0.00     0.037 A 
ENDBRANCH  18  19
ENDBRANCH  17  18
ENDBRANCH  16  17
ENDBRANCH   3  16
TORSDOF 5
