REMARK  4 active torsions:
REMARK  status: ('A' for Active; 'I' for Inactive)
REMARK    1  A    between atoms: C_16  and  N_1 
REMARK    2  A    between atoms: N_19  and  C_7 
REMARK    3  A    between atoms: N_12  and  N_19 
REMARK    4  A    between atoms: C_14  and  C_17 
ROOT
ATOM      1  N   UNL d   1      -1.515  -1.081  -0.063  0.00  0.00    -0.239 N 
ATOM      2  C   UNL d   1      -0.196  -0.629  -0.011  0.00  0.00     0.143 A 
ATOM      3  N   UNL d   1      -2.388  -0.028  -0.163  0.00  0.00    -0.302 N 
ATOM      4  HN  UNL d   1      -3.405  -0.065  -0.232  1.00  0.00     0.186 HD
ATOM      5  C   UNL d   1      -0.245   0.755  -0.073  0.00  0.00     0.072 A 
ATOM      6  C   UNL d   1      -1.612   1.056  -0.149  0.00  0.00     0.127 A 
ATOM      7  C   UNL d   1       0.970   1.463  -0.017  0.00  0.00     0.136 A 
ATOM      8  N   UNL d   1       0.933  -1.364   0.080  0.00  0.00    -0.336 N 
ATOM      9  HN  UNL d   1       0.945  -2.383   0.108  1.00  0.00     0.168 HD
ATOM     10  N   UNL d   1       2.112   0.732   0.099  0.00  0.00    -0.337 N 
ATOM     11  HN  UNL d   1       3.018   1.197   0.161  1.00  0.00     0.168 HD
ATOM     12  C   UNL d   1       2.033  -0.605   0.130  0.00  0.00     0.183 A 
ENDROOT
BRANCH   7  13
ATOM     13  N   UNL d   1       1.038   2.864  -0.107  0.00  0.00    -0.285 N 
ATOM     14  H   UNL d   1       0.153   3.339  -0.263  0.00  0.00     0.188 HD
BRANCH  13  15
ATOM     15  N   UNL d   1       2.053   3.486   0.559  0.00  0.00    -0.308 N 
ATOM     16  C   UNL d   1       2.031   4.782   0.541  0.00  0.00     0.144 C 
ATOM     17  HN  UNL d   1       2.783   2.964   1.043  1.00  0.00     0.186 HD
BRANCH  16  18
ATOM     18  C   UNL d   1       3.027   5.548   1.234  0.00  0.00     0.091 A 
ATOM     19  O   UNL d   1       2.951   6.912   1.164  0.00  0.00    -0.321 OA
ATOM     20  C   UNL d   1       3.981   7.408   1.898  0.00  0.00     0.142 A 
ATOM     21  C   UNL d   1       4.720   6.385   2.444  0.00  0.00     0.027 A 
ATOM     22  C   UNL d   1       4.107   5.184   2.014  0.00  0.00     0.040 A 
ENDBRANCH  16  18
ENDBRANCH  13  15
ENDBRANCH   7  13
BRANCH   1  23
ATOM     23  C   UNL d   1      -2.019  -2.418  -0.023  0.00  0.00     0.058 A 
ATOM     24  C   UNL d   1      -1.171  -3.525   0.126  0.00  0.00     0.031 A 
ATOM     25  C   UNL d   1      -1.696  -4.821   0.160  0.00  0.00     0.002 A 
ATOM     26  C   UNL d   1      -3.068  -5.027   0.045  0.00  0.00     0.000 A 
ATOM     27  C   UNL d   1      -3.921  -3.935  -0.099  0.00  0.00     0.002 A 
ATOM     28  C   UNL d   1      -3.403  -2.638  -0.132  0.00  0.00     0.031 A 
ENDBRANCH   1  23
TORSDOF 4
