REMARK  8 active torsions:
REMARK  status: ('A' for Active; 'I' for Inactive)
REMARK    1  A    between atoms: C_3  and  C_1 
REMARK    2  A    between atoms: O_14  and  C_1 
REMARK       I    between atoms: C_2  and  N_4 
REMARK    3  A    between atoms: C_10  and  C_2 
REMARK    4  A    between atoms: N_4  and  C_8 
REMARK    5  A    between atoms: C_5  and  C_10 
REMARK    6  A    between atoms: C_12  and  C_5 
REMARK    7  A    between atoms: C_6  and  C_12 
REMARK    8  A    between atoms: O_15  and  C_6 
ROOT
ATOM      1  C   UNL d   1       1.052   2.671   4.463  0.00  0.00     0.222 C 
ATOM      2  N   UNL d   1       0.456   3.679   5.193  0.00  0.00    -0.327 N 
ATOM      3  O   UNL d   1       0.917   1.475   4.702  0.00  0.00    -0.273 OA
ATOM      4  H   UNL d   1       0.685   4.630   4.929  0.00  0.00     0.169 HD
ENDROOT
BRANCH   1   5
ATOM      5  C   UNL d   1       1.923   3.161   3.280  0.00  0.00     0.113 C 
BRANCH   5   6
ATOM      6  C   UNL d   1       1.845   2.189   2.057  0.00  0.00    -0.023 C 
ATOM      7  C   UNL d   1       2.541   0.853   2.449  0.00  0.00     0.010 C 
ATOM      8  C   UNL d   1       3.087   0.204   1.182  0.00  0.00     0.001 C 
ATOM      9  C   UNL d   1       2.868   1.219   0.077  0.00  0.00     0.001 C 
ATOM     10  C   UNL d   1       2.698   2.555   0.814  0.00  0.00     0.010 C 
BRANCH   6  11
ATOM     11  C   UNL d   1       0.352   2.045   1.615  0.00  0.00     0.119 C 
BRANCH  11  12
ATOM     12  C   UNL d   1      -0.283   3.374   1.208  0.00  0.00     0.140 C 
ATOM     13  O   UNL d   1       0.298   4.439   1.068  0.00  0.00    -0.650 OA
BRANCH  12  14
ATOM     14  O   UNL d   1      -1.615   3.278   1.004  0.00  0.00    -0.776 OA
ATOM     15  H   UNL d   1      -1.974   2.381   1.157  0.00  0.00     0.167 HD
ENDBRANCH  12  14
ENDBRANCH  11  12
ENDBRANCH   6  11
ENDBRANCH   5   6
ENDBRANCH   1   5
BRANCH   2  16
ATOM     16  C   UNL d   1      -0.460   3.532   6.270  0.00  0.00     0.035 A 
ATOM     17  C   UNL d   1      -0.944   2.307   6.760  0.00  0.00     0.047 A 
ATOM     18  C   UNL d   1      -1.863   2.276   7.827  0.00  0.00     0.039 A 
ATOM     19  C   UNL d   1      -2.292   3.467   8.408  0.00  0.00     0.018 A 
ATOM     20  C   UNL d   1      -1.825   4.687   7.928  0.00  0.00     0.003 A 
ATOM     21  C   UNL d   1      -0.917   4.715   6.865  0.00  0.00     0.029 A 
BRANCH  18  22
ATOM     22  C   UNL d   1      -2.416   1.010   8.388  0.00  0.00     0.176 C 
ATOM     23  O   UNL d   1      -3.110   0.921   9.380  0.00  0.00    -0.646 OA
BRANCH  22  24
ATOM     24  O   UNL d   1      -2.106  -0.074   7.657  0.00  0.00    -0.773 OA
ATOM     25  H   UNL d   1      -2.547  -0.809   8.131  0.00  0.00     0.167 HD
ENDBRANCH  22  24
ENDBRANCH  18  22
ENDBRANCH   2  16
TORSDOF 8
