REMARK  7 active torsions:
REMARK  status: ('A' for Active; 'I' for Inactive)
REMARK    1  A    between atoms: C_6  and  N_1 
REMARK    2  A    between atoms: C_7  and  C_6 
REMARK    3  A    between atoms: C_10  and  C_7 
REMARK    4  A    between atoms: C_13  and  C_7 
REMARK    5  A    between atoms: C_14  and  C_7 
REMARK    6  A    between atoms: C_11  and  C_14 
REMARK    7  A    between atoms: C_12  and  C_13 
ROOT
ATOM      1  N   UNL d   1       4.764  -2.437   4.301  0.00  0.00    -0.197 NA
ATOM      2  C   UNL d   1       4.362  -1.664   3.535  0.00  0.00     0.059 C 
ATOM      3  C   UNL d   1       3.869  -0.676   2.564  0.00  0.00     0.126 C 
ENDROOT
BRANCH   3   4
ATOM      4  C   UNL d   1       4.334  -1.029   1.141  0.00  0.00     0.042 C 
BRANCH   4   5
ATOM      5  C   UNL d   1       3.863  -0.056   0.012  0.00  0.00     0.060 C 
BRANCH   5   6
ATOM      6  C   UNL d   1       2.343  -0.056   0.012  0.00  0.00    -0.062 C 
BRANCH   6   7
ATOM      7  N   UNL d   1       1.082  -0.056   0.012  0.00  0.00    -0.369 N 
ATOM      8  HN2 UNL d   1       2.102  -0.056   0.012  1.00  0.00     0.165 HD
ATOM      9  HN1 UNL d   1       0.062  -0.056   0.012  1.00  0.00     0.165 HD
ENDBRANCH   6   7
ENDBRANCH   5   6
BRANCH   5  10
ATOM     10  C   UNL d   1       4.413  -0.579  -1.340  0.00  0.00    -0.037 A 
ATOM     11  C   UNL d   1       3.565  -1.049  -2.365  0.00  0.00     0.009 A 
ATOM     12  C   UNL d   1       4.077  -1.513  -3.580  0.00  0.00     0.001 A 
ATOM     13  C   UNL d   1       5.449  -1.523  -3.800  0.00  0.00     0.000 A 
ATOM     14  C   UNL d   1       6.309  -1.072  -2.804  0.00  0.00     0.001 A 
ATOM     15  C   UNL d   1       5.799  -0.606  -1.588  0.00  0.00     0.009 A 
ENDBRANCH   5  10
BRANCH   5  16
ATOM     16  C   UNL d   1       4.341   1.400   0.282  0.00  0.00     0.042 C 
BRANCH  16  17
ATOM     17  C   UNL d   1       3.885   2.419  -0.773  0.00  0.00     0.126 C 
ATOM     18  C   UNL d   1       4.393   3.758  -0.443  0.00  0.00     0.059 C 
ATOM     19  N   UNL d   1       4.801   4.806  -0.158  0.00  0.00    -0.197 NA
ENDBRANCH  16  17
ENDBRANCH   5  16
ENDBRANCH   4   5
ENDBRANCH   3   4
TORSDOF 7
