REMARK  5 active torsions:
REMARK  status: ('A' for Active; 'I' for Inactive)
REMARK    1  A    between atoms: C_15  and  C_1 
REMARK    2  A    between atoms: C_2  and  N_8 
REMARK    3  A    between atoms: C_3  and  C_4 
REMARK    4  A    between atoms: C_18  and  C_5 
REMARK    5  A    between atoms: N_14  and  C_15 
ROOT
ATOM      1  N   UNL d   1       3.522  -1.943  -0.323  0.00  0.00    -0.363 N 
ATOM      2  N   UNL d   1       3.327   1.018  -0.265  0.00  0.00     0.096 N 
ATOM      3  C   UNL d   1       2.783  -1.234  -1.377  0.00  0.00     0.154 C 
ATOM      4  C   UNL d   1       3.701  -1.226   0.941  0.00  0.00     0.154 C 
ATOM      5  C   UNL d   1       4.117   0.251   0.720  0.00  0.00     0.292 C 
ATOM      6  C   UNL d   1       3.262   0.229  -1.516  0.00  0.00     0.292 C 
ENDROOT
BRANCH   2   7
ATOM      7  C   UNL d   1       2.022   1.406   0.277  0.00  0.00     0.315 C 
BRANCH   7   8
ATOM      8  C   UNL d   1       1.275   2.298  -0.668  0.00  0.00     0.016 A 
ATOM      9  C   UNL d   1       1.677   3.520  -1.309  0.00  0.00     0.067 A 
ATOM     10  N   UNL d   1       0.716   3.952  -2.147  0.00  0.00    -0.300 N 
ATOM     11  N   UNL d   1      -0.283   3.078  -2.005  0.00  0.00    -0.311 N 
ATOM     12  HN  UNL d   1       0.744   4.769  -2.758  1.00  0.00     0.187 HD
ATOM     13  C   UNL d   1      -0.015   2.086  -1.117  0.00  0.00     0.118 A 
ATOM     14  H   UNL d   1      -1.126   3.222  -2.550  0.00  0.00     0.186 HD
BRANCH   9  15
ATOM     15  C   UNL d   1       2.918   4.292  -1.173  0.00  0.00    -0.007 A 
ATOM     16  C   UNL d   1       3.488   4.915  -2.296  0.00  0.00     0.017 A 
ATOM     17  C   UNL d   1       4.650   5.685  -2.175  0.00  0.00     0.043 A 
ATOM     18  C   UNL d   1       5.234   5.839  -0.925  0.00  0.00     0.116 A 
ATOM     19  C   UNL d   1       4.683   5.243   0.200  0.00  0.00     0.043 A 
ATOM     20  F   UNL d   1       6.341   6.585  -0.800  0.00  0.00    -0.206 F 
ATOM     21  C   UNL d   1       3.522   4.473   0.078  0.00  0.00     0.017 A 
ENDBRANCH   9  15
ENDBRANCH   7   8
ENDBRANCH   2   7
BRANCH   1  22
ATOM     22  C   UNL d   1       3.811  -3.283  -0.498  0.00  0.00     0.125 A 
ATOM     23  N   UNL d   1       4.115  -3.654  -1.773  0.00  0.00    -0.350 N 
ATOM     24  C   UNL d   1       4.537  -4.917  -2.035  0.00  0.00     0.106 A 
ATOM     25  HN  UNL d   1       4.025  -2.980  -2.533  1.00  0.00     0.166 HD
ATOM     26  C   UNL d   1       4.677  -5.897  -1.076  0.00  0.00     0.065 A 
ATOM     27  C   UNL d   1       4.318  -5.553   0.224  0.00  0.00     0.045 A 
ATOM     28  C   UNL d   1       3.871  -4.256   0.518  0.00  0.00     0.078 A 
ATOM     29 CL   UNL d   1       3.327  -4.023   2.148  0.00  0.00    -0.080 Cl
BRANCH  26  30
ATOM     30  C   UNL d   1       5.185  -7.254  -1.445  0.00  0.00     0.418 C 
ATOM     31  F   UNL d   1       5.289  -8.098  -0.381  0.00  0.00    -0.166 F 
ATOM     32  F   UNL d   1       4.384  -7.887  -2.345  0.00  0.00    -0.166 F 
ATOM     33  F   UNL d   1       6.423  -7.212  -2.009  0.00  0.00    -0.166 F 
ENDBRANCH  26  30
ENDBRANCH   1  22
TORSDOF 5
