REMARK  6 active torsions:
REMARK  status: ('A' for Active; 'I' for Inactive)
REMARK    1  A    between atoms: C_10  and  C_1 
REMARK    2  A    between atoms: C_6  and  C_3 
REMARK    3  A    between atoms: C_4  and  O_15 
REMARK       I    between atoms: N_9  and  C_4 
REMARK    4  A    between atoms: C_22  and  C_7 
REMARK    5  A    between atoms: C_14  and  N_9 
REMARK    6  A    between atoms: O_15  and  C_22 
ROOT
ATOM      1  C   UNL d   1       2.037   1.779   0.304  0.00  0.00    -0.057 C 
ATOM      2  C   UNL d   1       3.019   2.466   0.333  0.00  0.00    -0.074 C 
ENDROOT
BRANCH   2   3
ATOM      3  C   UNL d   1       4.304   3.173   0.315  0.00  0.00     0.274 C 
BRANCH   3   4
ATOM      4  O   UNL d   1       4.178   4.445   0.956  0.00  0.00    -0.292 OA
BRANCH   4   5
ATOM      5  C   UNL d   1       5.225   4.813   1.728  0.00  0.00     0.366 C 
ATOM      6  N   UNL d   1       5.213   6.110   2.167  0.00  0.00    -0.303 N 
ATOM      7  H   UNL d   1       6.077   6.335   2.644  0.00  0.00     0.171 HD
ATOM      8  O   UNL d   1       6.182   4.092   1.997  0.00  0.00    -0.238 OA
BRANCH   6   9
ATOM      9  C   UNL d   1       4.263   7.138   2.051  0.00  0.00     0.036 A 
ATOM     10  C   UNL d   1       2.961   6.970   1.576  0.00  0.00     0.031 A 
ATOM     11  C   UNL d   1       2.068   8.049   1.551  0.00  0.00     0.026 A 
ATOM     12  C   UNL d   1       2.477   9.303   1.996  0.00  0.00     0.034 A 
ATOM     13  C   UNL d   1       3.776   9.493   2.452  0.00  0.00     0.026 A 
ATOM     14 CL   UNL d   1       1.367  10.616   1.997  0.00  0.00    -0.084 Cl
ATOM     15  C   UNL d   1       4.663   8.412   2.482  0.00  0.00     0.031 A 
ENDBRANCH   6   9
ENDBRANCH   4   5
ENDBRANCH   3   4
ENDBRANCH   2   3
BRANCH   1  16
ATOM     16  C   UNL d   1       0.964   0.843   0.223  0.00  0.00     0.059 A 
ATOM     17  S   UNL d   1       1.235  -0.841   0.247  0.00  0.00    -0.079 SA
ATOM     18  C   UNL d   1      -0.437  -1.201   0.088  0.00  0.00     0.033 A 
ATOM     19  C   UNL d   1      -1.174  -0.032  -0.006  0.00  0.00     0.023 A 
ATOM     20  C   UNL d   1      -0.370   1.146   0.093  0.00  0.00     0.029 A 
BRANCH  18  21
ATOM     21  C   UNL d   1      -0.910  -2.592   0.041  0.00  0.00     0.049 A 
ATOM     22  N   UNL d   1      -2.079  -2.764  -0.625  0.00  0.00    -0.365 N 
ATOM     23  C   UNL d   1      -2.571  -4.022  -0.702  0.00  0.00     0.088 A 
ATOM     24  HN  UNL d   1      -2.569  -1.977  -1.050  1.00  0.00     0.165 HD
ATOM     25  C   UNL d   1      -1.961  -5.126  -0.132  0.00  0.00     0.017 A 
ATOM     26  C   UNL d   1      -0.772  -4.934   0.558  0.00  0.00     0.004 A 
ATOM     27  C   UNL d   1      -0.236  -3.651   0.646  0.00  0.00     0.031 A 
ENDBRANCH  18  21
ENDBRANCH   1  16
TORSDOF 6
