REMARK  10 active torsions:
REMARK  status: ('A' for Active; 'I' for Inactive)
REMARK    1  A    between atoms: N_2  and  C_1 
REMARK    2  A    between atoms: S_11  and  C_1 
REMARK       I    between atoms: C_5  and  N_2 
REMARK    3  A    between atoms: C_6  and  N_3 
REMARK    4  A    between atoms: C_9  and  C_5 
REMARK    5  A    between atoms: C_22  and  C_17 
REMARK    6  A    between atoms: C_24  and  C_22 
REMARK    7  A    between atoms: C_27  and  C_24 
REMARK    8  A    between atoms: C_25  and  C_26 
REMARK    9  A    between atoms: C_26  and  C_28 
REMARK   10  A    between atoms: C_28  and  C_27 
ROOT
ATOM      1  N   UNL d   1       3.578  -1.367   0.693  0.00  0.00    -0.303 N 
ATOM      2  C   UNL d   1       3.334  -1.139  -0.659  0.00  0.00     0.257 C 
ATOM      3  O   UNL d   1       3.328  -0.048  -1.221  0.00  0.00    -0.267 OA
ATOM      4  H   UNL d   1       3.389  -2.301   1.024  0.00  0.00     0.171 HD
ENDROOT
BRANCH   1   5
ATOM      5  C   UNL d   1       3.953  -0.545   1.734  0.00  0.00     0.148 C 
ATOM      6  N   UNL d   1       4.121   0.719   1.621  0.00  0.00    -0.323 N 
ATOM      7  HN  UNL d   1       3.977   1.137   0.701  1.00  0.00     0.169 HD
BRANCH   6   8
ATOM      8  C   UNL d   1       4.490   1.571   2.677  0.00  0.00     0.107 A 
ATOM      9  N   UNL d   1       5.273   1.084   3.665  0.00  0.00    -0.346 N 
ATOM     10  C   UNL d   1       5.708   1.926   4.628  0.00  0.00     0.007 A 
ATOM     11  HN  UNL d   1       5.532   0.097   3.683  1.00  0.00     0.167 HD
ATOM     12  C   UNL d   1       6.435   1.321   5.791  0.00  0.00     0.068 C 
ATOM     13  C   UNL d   1       5.481   3.295   4.582  0.00  0.00     0.025 A 
ATOM     14  C   UNL d   1       4.684   3.796   3.564  0.00  0.00     0.006 A 
ATOM     15  C   UNL d   1       4.156   2.919   2.615  0.00  0.00     0.048 A 
ENDBRANCH   6   8
BRANCH   5  16
ATOM     16  S   UNL d   1       4.050  -1.564   3.164  0.00  0.00    -0.098 SA
ATOM     17  C   UNL d   1       5.840  -1.868   3.220  0.00  0.00     0.099 C 
ENDBRANCH   5  16
ENDBRANCH   1   5
BRANCH   2  18
ATOM     18  C   UNL d   1       2.902  -2.358  -1.442  0.00  0.00     0.032 C 
ATOM     19  C   UNL d   1       1.980  -2.256  -2.487  0.00  0.00     0.017 C 
ATOM     20  C   UNL d   1       1.326  -3.405  -2.954  0.00  0.00     0.008 C 
ATOM     21  C   UNL d   1       1.601  -4.657  -2.387  0.00  0.00    -0.058 C 
ATOM     22  C   UNL d   1       2.680  -4.771  -1.502  0.00  0.00     0.008 C 
ATOM     23  C   UNL d   1       3.328  -3.630  -1.034  0.00  0.00     0.017 C 
BRANCH  21  24
ATOM     24  C   UNL d   1       0.689  -5.842  -2.614  0.00  0.00     0.038 C 
BRANCH  24  25
ATOM     25  C   UNL d   1      -0.023  -6.299  -1.323  0.00  0.00     0.005 C 
BRANCH  25  26
ATOM     26  C   UNL d   1      -0.919  -5.232  -0.674  0.00  0.00     0.000 C 
BRANCH  26  27
ATOM     27  C   UNL d   1      -1.584  -5.779   0.596  0.00  0.00     0.000 C 
BRANCH  27  28
ATOM     28  C   UNL d   1      -2.476  -4.738   1.276  0.00  0.00    -0.000 C 
BRANCH  28  29
ATOM     29  C   UNL d   1      -3.127  -5.306   2.539  0.00  0.00    -0.005 C 
ATOM     30  C   UNL d   1      -4.017  -4.278   3.221  0.00  0.00     0.005 C 
ENDBRANCH  28  29
ENDBRANCH  27  28
ENDBRANCH  26  27
ENDBRANCH  25  26
ENDBRANCH  24  25
ENDBRANCH  21  24
ENDBRANCH   2  18
TORSDOF 10
