REMARK  6 active torsions:
REMARK  status: ('A' for Active; 'I' for Inactive)
REMARK    1  A    between atoms: C_2  and  C_1 
REMARK       I    between atoms: N_6  and  C_2 
REMARK    2  A    between atoms: C_3  and  C_16 
REMARK    3  A    between atoms: C_22  and  C_4 
REMARK       I    between atoms: C_5  and  N_7 
REMARK    4  A    between atoms: C_10  and  C_5 
REMARK    5  A    between atoms: N_7  and  N_6 
REMARK    6  A    between atoms: C_12  and  C_13 
ROOT
ATOM      1  C   UNL d   1       5.190   2.132   0.112  0.00  0.00     0.271 C 
ATOM      2  N   UNL d   1       6.473   2.010   0.618  0.00  0.00    -0.263 N 
ATOM      3  O   UNL d   1       4.675   1.225  -0.543  0.00  0.00    -0.266 OA
ATOM      4  H   UNL d   1       6.979   2.693   1.175  0.00  0.00     0.190 HD
ENDROOT
BRANCH   1   5
ATOM      5  C   UNL d   1       4.421   3.377   0.382  0.00  0.00     0.050 A 
ATOM      6  C   UNL d   1       3.113   3.493  -0.117  0.00  0.00     0.040 A 
ATOM      7  C   UNL d   1       2.371   4.647   0.134  0.00  0.00     0.034 A 
ATOM      8  C   UNL d   1       2.961   5.646   0.898  0.00  0.00     0.108 A 
ATOM      9  N   UNL d   1       4.218   5.576   1.394  0.00  0.00    -0.373 N 
ATOM     10  C   UNL d   1       4.919   4.447   1.120  0.00  0.00     0.104 A 
ATOM     11  HN  UNL d   1       4.618   6.334   1.946  1.00  0.00     0.164 HD
BRANCH   7  12
ATOM     12  C   UNL d   1       1.044   4.837  -0.368  0.00  0.00    -0.060 C 
ATOM     13  C   UNL d   1      -0.055   5.114  -0.748  0.00  0.00    -0.061 C 
BRANCH  13  14
ATOM     14  C   UNL d   1      -1.359   5.557  -1.138  0.00  0.00     0.018 A 
ATOM     15  C   UNL d   1      -1.553   6.891  -1.518  0.00  0.00     0.020 A 
ATOM     16  C   UNL d   1      -2.828   7.345  -1.859  0.00  0.00     0.001 A 
ATOM     17  C   UNL d   1      -3.911   6.467  -1.829  0.00  0.00     0.000 A 
ATOM     18  C   UNL d   1      -3.719   5.135  -1.459  0.00  0.00     0.001 A 
ATOM     19  C   UNL d   1      -2.444   4.679  -1.116  0.00  0.00     0.020 A 
ENDBRANCH  13  14
ENDBRANCH   7  12
ENDBRANCH   1   5
BRANCH   2  20
ATOM     20  N   UNL d   1       7.156   0.805   0.370  0.00  0.00    -0.263 N 
ATOM     21  C   UNL d   1       8.537   0.803   0.424  0.00  0.00     0.270 C 
ATOM     22  O   UNL d   1       9.182   1.821   0.674  0.00  0.00    -0.266 OA
ATOM     23  H   UNL d   1       6.623   0.096  -0.130  0.00  0.00     0.190 HD
BRANCH  21  24
ATOM     24  C   UNL d   1       9.229  -0.506   0.202  0.00  0.00     0.033 A 
ATOM     25  C   UNL d   1       8.566  -1.738   0.216  0.00  0.00     0.017 A 
ATOM     26  C   UNL d   1       9.288  -2.938   0.103  0.00  0.00     0.009 A 
ATOM     27  C   UNL d   1      10.691  -2.951  -0.017  0.00  0.00    -0.051 A 
ATOM     28  C   UNL d   1      11.336  -1.703  -0.049  0.00  0.00     0.009 A 
ATOM     29  C   UNL d   1      10.620  -0.503   0.061  0.00  0.00     0.017 A 
BRANCH  27  30
ATOM     30  C   UNL d   1      11.467  -4.283  -0.070  0.00  0.00    -0.024 C 
ATOM     31  C   UNL d   1      12.997  -4.094  -0.184  0.00  0.00     0.019 C 
ATOM     32  C   UNL d   1      11.202  -5.095   1.218  0.00  0.00     0.019 C 
ATOM     33  C   UNL d   1      11.020  -5.125  -1.284  0.00  0.00     0.019 C 
ENDBRANCH  27  30
ENDBRANCH  21  24
ENDBRANCH   2  20
TORSDOF 6
