REMARK  5 active torsions:
REMARK  status: ('A' for Active; 'I' for Inactive)
REMARK    1  A    between atoms: S_13  and  C_3 
REMARK    2  A    between atoms: C_4  and  C_5 
REMARK    3  A    between atoms: C_6  and  C_11 
REMARK    4  A    between atoms: C_11  and  C_17 
REMARK    5  A    between atoms: C_17  and  S_13 
ROOT
ATOM      1  N   UNL d   1      -1.283   0.888  -0.022  0.00  0.00    -0.336 N 
ATOM      2  HN  UNL d   1      -2.025   1.575  -0.160  1.00  0.00     0.168 HD
ATOM      3  C   UNL d   1      -0.060   1.250   0.390  0.00  0.00     0.144 A 
ATOM      4  C   UNL d   1      -1.489  -0.426  -0.247  0.00  0.00     0.052 A 
ATOM      5  N   UNL d   1       0.956   0.399   0.597  0.00  0.00    -0.347 N 
ATOM      6  HN  UNL d   1       1.870   0.723   0.914  1.00  0.00     0.167 HD
ATOM      7  C   UNL d   1      -0.505  -1.374  -0.059  0.00  0.00     0.048 A 
ATOM      8  C   UNL d   1       0.711  -0.900   0.366  0.00  0.00     0.092 A 
ENDROOT
BRANCH   3   9
ATOM      9  S   UNL d   1       0.275   2.966   0.681  0.00  0.00    -0.086 SA
BRANCH   9  10
ATOM     10  C   UNL d   1      -1.307   3.693   0.154  0.00  0.00     0.166 C 
BRANCH  10  11
ATOM     11  C   UNL d   1      -1.277   5.212   0.202  0.00  0.00     0.169 C 
ATOM     12  O   UNL d   1      -0.335   5.870   0.639  0.00  0.00    -0.291 OA
BRANCH  11  13
ATOM     13  C   UNL d   1      -2.469   5.958  -0.320  0.00  0.00     0.011 A 
ATOM     14  C   UNL d   1      -3.628   5.316  -0.781  0.00  0.00     0.023 A 
ATOM     15  C   UNL d   1      -4.712   6.059  -1.292  0.00  0.00    -0.039 A 
ATOM     16  C   UNL d   1      -5.928   5.338  -1.804  0.00  0.00     0.050 C 
ATOM     17  C   UNL d   1      -4.621   7.459  -1.323  0.00  0.00     0.040 A 
ATOM     18  C   UNL d   1      -3.477   8.105  -0.851  0.00  0.00     0.025 A 
ATOM     19 CL   UNL d   1      -5.902   8.438  -1.944  0.00  0.00    -0.084 Cl
ATOM     20  C   UNL d   1      -2.407   7.359  -0.354  0.00  0.00     0.017 A 
ENDBRANCH  11  13
ENDBRANCH  10  11
ENDBRANCH   9  10
ENDBRANCH   3   9
BRANCH   4  21
ATOM     21  C   UNL d   1      -2.840  -0.795  -0.700  0.00  0.00     0.031 A 
ATOM     22  S   UNL d   1      -3.810   0.339  -1.560  0.00  0.00    -0.100 SA
ATOM     23  C   UNL d   1      -5.090  -0.776  -1.741  0.00  0.00     0.050 A 
ATOM     24  C   UNL d   1      -4.807  -1.987  -1.156  0.00  0.00     0.008 A 
ATOM     25  C   UNL d   1      -3.513  -1.998  -0.556  0.00  0.00     0.021 A 
ENDBRANCH   4  21
TORSDOF 5
