REMARK  8 active torsions:
REMARK  status: ('A' for Active; 'I' for Inactive)
REMARK    1  A    between atoms: C_9  and  N_1 
REMARK    2  A    between atoms: S_10  and  C_5 
REMARK    3  A    between atoms: C_17  and  S_10 
REMARK    4  A    between atoms: C_14  and  C_17 
REMARK    5  A    between atoms: C_15  and  C_14 
REMARK    6  A    between atoms: O_26  and  C_27 
REMARK    7  A    between atoms: C_30  and  O_26 
REMARK    8  A    between atoms: C_33  and  C_30 
ROOT
ATOM      1  N   UNL d   1      -8.426   7.519  -0.189  0.00  0.00    -0.191 NA
ATOM      2  C   UNL d   1      -7.852   6.514  -0.122  0.00  0.00     0.099 C 
ATOM      3  C   UNL d   1      -5.707   2.825   0.118  0.00  0.00     0.011 A 
ATOM      4  C   UNL d   1      -5.031   4.028  -0.115  0.00  0.00     0.017 A 
ATOM      5  C   UNL d   1      -7.108   2.865   0.266  0.00  0.00     0.017 A 
ATOM      6  C   UNL d   1      -7.134   5.271  -0.040  0.00  0.00     0.044 A 
ATOM      7  C   UNL d   1      -7.816   4.074   0.187  0.00  0.00     0.023 A 
ATOM      8  C   UNL d   1      -5.740   5.242  -0.191  0.00  0.00     0.023 A 
ENDROOT
BRANCH   3   9
ATOM      9  C   UNL d   1      -5.016   1.489   0.218  0.00  0.00     0.169 C 
ATOM     10  O   UNL d   1      -5.727   0.511   0.453  0.00  0.00    -0.291 OA
BRANCH   9  11
ATOM     11  C   UNL d   1      -3.497   1.401   0.031  0.00  0.00     0.166 C 
BRANCH  11  12
ATOM     12  S   UNL d   1      -2.920  -0.337   0.164  0.00  0.00    -0.084 SA
BRANCH  12  13
ATOM     13  C   UNL d   1      -1.192  -0.214  -0.010  0.00  0.00     0.168 A 
ATOM     14  N   UNL d   1      -0.289  -1.283   0.008  0.00  0.00    -0.273 N 
ATOM     15  C   UNL d   1       0.957  -0.648   0.024  0.00  0.00     0.163 A 
ATOM     16  N   UNL d   1       0.794   0.661   0.052  0.00  0.00    -0.281 N 
ATOM     17  C   UNL d   1       2.255  -1.261  -0.054  0.00  0.00     0.120 A 
ATOM     18  N   UNL d   1      -0.547   0.931   0.010  0.00  0.00    -0.278 N 
ATOM     19  HN  UNL d   1       1.541   1.354   0.098  1.00  0.00     0.188 HD
ATOM     20  HN  UNL d   1      -0.971   1.858  -0.005  1.00  0.00     0.189 HD
ATOM     21  O   UNL d   1       2.518  -2.405  -0.772  0.00  0.00    -0.319 OA
ATOM     22  C   UNL d   1       3.438  -0.855   0.550  0.00  0.00     0.043 A 
ATOM     23  C   UNL d   1       3.819  -2.736  -0.581  0.00  0.00     0.142 A 
ATOM     24  C   UNL d   1       4.432  -1.814   0.231  0.00  0.00     0.027 A 
BRANCH  14  25
ATOM     25  C   UNL d   1      -0.541  -2.695   0.042  0.00  0.00     0.043 A 
ATOM     26  C   UNL d   1       0.319  -3.553   0.747  0.00  0.00     0.033 A 
ATOM     27  C   UNL d   1       0.134  -4.942   0.731  0.00  0.00     0.039 A 
ATOM     28  C   UNL d   1      -0.934  -5.499   0.034  0.00  0.00     0.069 A 
ATOM     29  C   UNL d   1      -1.821  -4.649  -0.628  0.00  0.00     0.039 A 
ATOM     30  C   UNL d   1      -1.622  -3.259  -0.641  0.00  0.00     0.033 A 
BRANCH  28  31
ATOM     31  O   UNL d   1      -1.233  -6.833  -0.028  0.00  0.00    -0.347 OA
BRANCH  31  32
ATOM     32  C   UNL d   1      -0.127  -7.733   0.100  0.00  0.00     0.214 C 
BRANCH  32  33
ATOM     33  C   UNL d   1      -0.592  -9.174   0.047  0.00  0.00    -0.034 A 
ATOM     34  C   UNL d   1       0.226 -10.155  -0.535  0.00  0.00     0.009 A 
ATOM     35  C   UNL d   1      -0.145 -11.502  -0.505  0.00  0.00     0.001 A 
ATOM     36  C   UNL d   1      -1.333 -11.885   0.113  0.00  0.00     0.000 A 
ATOM     37  C   UNL d   1      -2.154 -10.922   0.697  0.00  0.00     0.001 A 
ATOM     38  C   UNL d   1      -1.784  -9.575   0.668  0.00  0.00     0.009 A 
ENDBRANCH  32  33
ENDBRANCH  31  32
ENDBRANCH  28  31
ENDBRANCH  14  25
ENDBRANCH  12  13
ENDBRANCH  11  12
ENDBRANCH   9  11
ENDBRANCH   3   9
TORSDOF 8
