REMARK  2 active torsions:
REMARK  status: ('A' for Active; 'I' for Inactive)
REMARK    1  A    between atoms: C_6  and  C_1 
REMARK    2  A    between atoms: O_12  and  C_1 
ROOT
ATOM      1  C   UNL d   1      -1.272  -1.403  -0.059  0.00  0.00     0.178 A 
ATOM      2  C   UNL d   1      -2.334  -0.240  -0.004  0.00  0.00     0.262 A 
ATOM      3  C   UNL d   1       0.013  -0.627   0.151  0.00  0.00     0.014 A 
ATOM      4  N   UNL d   1      -1.644   0.948   0.180  0.00  0.00    -0.324 N 
ATOM      5  C   UNL d   1      -0.275   0.739   0.224  0.00  0.00     0.044 A 
ATOM      6  C   UNL d   1       1.324  -1.072   0.178  0.00  0.00     0.032 A 
ATOM      7  O   UNL d   1      -3.553  -0.335  -0.072  0.00  0.00    -0.269 OA
ATOM      8  C   UNL d   1       0.708   1.704   0.263  0.00  0.00     0.031 A 
ATOM      9  C   UNL d   1       2.334  -0.107   0.219  0.00  0.00     0.011 A 
ATOM     10  C   UNL d   1       2.035   1.268   0.247  0.00  0.00     0.021 A 
ATOM     11 BR   UNL d   1       4.144  -0.660   0.196  0.00  0.00    -0.051 Br
ATOM     12  H   UNL d   1      -2.100   1.848   0.182  0.00  0.00     0.169 HD
ENDROOT
BRANCH   1  13
ATOM     13  C   UNL d   1      -1.337  -2.170  -1.406  0.00  0.00     0.104 C 
ATOM     14  C   UNL d   1      -1.218  -1.247  -2.628  0.00  0.00     0.134 C 
ATOM     15  O   UNL d   1      -0.657  -0.151  -2.584  0.00  0.00    -0.297 OA
ATOM     16  C   UNL d   1      -1.614  -1.791  -3.979  0.00  0.00     0.079 C 
ATOM     17  C   UNL d   1      -2.917  -2.558  -3.909  0.00  0.00     0.007 C 
ATOM     18  C   UNL d   1      -2.822  -3.663  -2.870  0.00  0.00     0.001 C 
ATOM     19  C   UNL d   1      -2.595  -3.062  -1.487  0.00  0.00     0.016 C 
ENDBRANCH   1  13
BRANCH   1  20
ATOM     20  O   UNL d   1      -1.414  -2.317   1.024  0.00  0.00    -0.374 OA
ATOM     21  H   UNL d   1      -1.274  -1.815   1.846  0.00  0.00     0.211 HD
ENDBRANCH   1  20
TORSDOF 2
