REMARK  7 active torsions:
REMARK  status: ('A' for Active; 'I' for Inactive)
REMARK    1  A    between atoms: C_6  and  N_1 
REMARK    2  A    between atoms: C_4  and  C_2 
REMARK    3  A    between atoms: C_5  and  C_3 
REMARK    4  A    between atoms: O_19  and  C_4 
REMARK    5  A    between atoms: O_20  and  C_5 
REMARK    6  A    between atoms: C_11  and  O_14 
REMARK    7  A    between atoms: O_14  and  C_18 
ROOT
ATOM      1  C   UNL d   1      -0.588  -6.995  -3.201  0.00  0.00     0.057 A 
ATOM      2  C   UNL d   1      -0.082  -7.290  -4.478  0.00  0.00     0.054 A 
ATOM      3  C   UNL d   1      -0.114  -6.308  -5.488  0.00  0.00     0.022 A 
ATOM      4  C   UNL d   1      -1.126  -5.716  -2.973  0.00  0.00     0.056 A 
ATOM      5  C   UNL d   1      -1.053  -4.712  -3.943  0.00  0.00     0.077 A 
ATOM      6  C   UNL d   1      -0.575  -5.019  -5.214  0.00  0.00     0.038 A 
ENDROOT
BRANCH   5   7
ATOM      7  O   UNL d   1      -1.441  -3.408  -3.722  0.00  0.00    -0.311 OA
BRANCH   7   8
ATOM      8  C   UNL d   1      -1.259  -2.869  -2.465  0.00  0.00     0.076 A 
ATOM      9  C   UNL d   1      -0.157  -3.158  -1.649  0.00  0.00     0.040 A 
ATOM     10  C   UNL d   1      -0.089  -2.648  -0.351  0.00  0.00     0.039 A 
ATOM     11  C   UNL d   1      -1.098  -1.793   0.105  0.00  0.00     0.103 A 
ATOM     12  C   UNL d   1      -2.162  -1.433  -0.736  0.00  0.00     0.039 A 
ATOM     13  C   UNL d   1      -2.237  -1.975  -2.023  0.00  0.00     0.040 A 
BRANCH  11  14
ATOM     14  N   UNL d   1      -1.044  -1.276   1.478  0.00  0.00    -0.116 N 
ATOM     15  O   UNL d   1      -1.912  -0.461   1.820  0.00  0.00    -0.532 OA
ATOM     16  O   UNL d   1      -0.132  -1.683   2.211  0.00  0.00    -0.532 OA
ENDBRANCH  11  14
ENDBRANCH   7   8
ENDBRANCH   5   7
BRANCH   1  17
ATOM     17  C   UNL d   1      -0.470  -7.831  -1.972  0.00  0.00     0.177 C 
ATOM     18  O   UNL d   1      -0.287  -7.294  -0.889  0.00  0.00    -0.646 OA
BRANCH  17  19
ATOM     19  O   UNL d   1      -0.636  -9.159  -2.080  0.00  0.00    -0.773 OA
ATOM     20  H   UNL d   1      -0.693  -9.547  -2.984  0.00  0.00     0.167 HD
ENDBRANCH  17  19
ENDBRANCH   1  17
BRANCH   2  21
ATOM     21  C   UNL d   1       0.419  -8.630  -4.827  0.00  0.00     0.177 C 
ATOM     22  O   UNL d   1      -0.153  -9.638  -4.445  0.00  0.00    -0.646 OA
BRANCH  21  23
ATOM     23  O   UNL d   1       1.523  -8.641  -5.595  0.00  0.00    -0.773 OA
ATOM     24  H   UNL d   1       1.955  -7.780  -5.752  0.00  0.00     0.167 HD
ENDBRANCH  21  23
ENDBRANCH   2  21
TORSDOF 7
