REMARK  1 active torsions:
REMARK  status: ('A' for Active; 'I' for Inactive)
REMARK    1  A    between atoms: C_6  and  N_1 
ROOT
ATOM      1  N   UNL d   1      -2.352   0.020  -0.374  0.00  0.00    -0.230 N 
ATOM      2  C   UNL d   1      -1.609  -1.132  -0.666  0.00  0.00     0.238 C 
ATOM      3  C   UNL d   1      -1.620   0.967   0.351  0.00  0.00     0.238 C 
ATOM      4  C   UNL d   1      -0.424  -0.969   0.225  0.00  0.00     0.100 C 
ATOM      5  C   UNL d   1      -0.212   0.544   0.101  0.00  0.00     0.100 C 
ATOM      6  C   UNL d   1       0.995  -1.492   0.359  0.00  0.00     0.022 C 
ATOM      7  C   UNL d   1       1.113   0.727   0.850  0.00  0.00     0.022 C 
ATOM      8  C   UNL d   1       2.136   0.442  -0.243  0.00  0.00    -0.025 C 
ATOM      9  C   UNL d   1       2.002  -0.856  -0.584  0.00  0.00    -0.025 C 
ATOM     10  C   UNL d   1       1.341  -0.605   1.597  0.00  0.00     0.018 C 
ATOM     11  O   UNL d   1      -1.845  -2.091  -1.379  0.00  0.00    -0.272 OA
ATOM     12  O   UNL d   1      -1.966   1.909   1.037  0.00  0.00    -0.272 OA
ENDROOT
BRANCH   1  13
ATOM     13  C   UNL d   1      -3.720   0.038  -0.487  0.00  0.00     0.160 A 
ATOM     14  N   UNL d   1      -4.510  -1.013  -0.476  0.00  0.00    -0.345 N 
ATOM     15  C   UNL d   1      -5.828  -0.611  -0.552  0.00  0.00     0.097 A 
ATOM     16  HN  UNL d   1      -4.195  -1.982  -0.420  1.00  0.00     0.167 HD
ATOM     17  C   UNL d   1      -6.025   0.741  -0.720  0.00  0.00     0.070 A 
ATOM     18  S   UNL d   1      -4.514   1.547  -0.696  0.00  0.00    -0.064 SA
ENDBRANCH   1  13
TORSDOF 1
