REMARK  11 active torsions:
REMARK  status: ('A' for Active; 'I' for Inactive)
REMARK    1  A    between atoms: C_6  and  S_1 
REMARK    2  A    between atoms: N_9  and  S_1 
REMARK    3  A    between atoms: N_3  and  C_2 
REMARK    4  A    between atoms: C_5  and  C_10 
REMARK    5  A    between atoms: C_7  and  N_15 
REMARK    6  A    between atoms: N_16  and  C_7 
REMARK    7  A    between atoms: N_11  and  C_8 
REMARK    8  A    between atoms: C_21  and  N_9 
REMARK    9  A    between atoms: N_15  and  N_11 
REMARK   10  A    between atoms: C_12  and  C_21 
REMARK   11  A    between atoms: C_23  and  N_16 
ROOT
ATOM      1  C   UNL d   1       1.062   3.862   0.025  0.00  0.00     0.132 A 
ATOM      2  C   UNL d   1       1.443   2.527   0.246  0.00  0.00     0.063 A 
ATOM      3  C   UNL d   1       0.503   1.519   0.052  0.00  0.00     0.077 A 
ATOM      4  C   UNL d   1      -0.244   4.242  -0.362  0.00  0.00     0.081 A 
ATOM      5  C   UNL d   1      -0.796   1.847  -0.335  0.00  0.00     0.027 A 
ATOM      6  C   UNL d   1      -1.164   3.189  -0.519  0.00  0.00     0.035 A 
ENDROOT
BRANCH   4   7
ATOM      7  N   UNL d   1      -0.548   5.570  -0.712  0.00  0.00    -0.296 N 
ATOM      8  H   UNL d   1       0.073   6.326  -0.411  0.00  0.00     0.187 HD
BRANCH   7   9
ATOM      9  N   UNL d   1      -1.847   5.967  -1.015  0.00  0.00    -0.276 N 
ATOM     10  H   UNL d   1      -2.516   5.234  -1.209  0.00  0.00     0.189 HD
BRANCH   9  11
ATOM     11  C   UNL d   1      -2.052   7.106  -1.761  0.00  0.00     0.191 C 
ATOM     12  S   UNL d   1      -0.851   8.083  -2.401  0.00  0.00    -0.039 SA
BRANCH  11  13
ATOM     13  N   UNL d   1      -3.353   7.456  -2.013  0.00  0.00    -0.332 N 
ATOM     14  H   UNL d   1      -3.428   8.177  -2.725  0.00  0.00     0.168 HD
BRANCH  13  15
ATOM     15  C   UNL d   1      -4.559   7.096  -1.374  0.00  0.00     0.035 A 
ATOM     16  C   UNL d   1      -4.631   6.375  -0.179  0.00  0.00     0.045 A 
ATOM     17  C   UNL d   1      -5.868   6.038   0.398  0.00  0.00     0.050 A 
ATOM     18  C   UNL d   1      -7.046   6.486  -0.213  0.00  0.00     0.016 A 
ATOM     19  C   UNL d   1      -6.985   7.245  -1.379  0.00  0.00     0.003 A 
ATOM     20  C   UNL d   1      -5.749   7.543  -1.958  0.00  0.00     0.029 A 
BRANCH  17  21
ATOM     21  C   UNL d   1      -5.926   5.204   1.654  0.00  0.00     0.417 C 
ATOM     22  F   UNL d   1      -4.699   4.813   2.101  0.00  0.00    -0.166 F 
ATOM     23  F   UNL d   1      -6.516   5.854   2.693  0.00  0.00    -0.166 F 
ATOM     24  F   UNL d   1      -6.633   4.054   1.475  0.00  0.00    -0.166 F 
ENDBRANCH  17  21
ENDBRANCH  13  15
ENDBRANCH  11  13
ENDBRANCH   9  11
ENDBRANCH   7   9
ENDBRANCH   4   7
BRANCH   1  25
ATOM     25  N   UNL d   1       2.090   4.870   0.221  0.00  0.00    -0.113 N 
ATOM     26  O   UNL d   1       2.641   4.896   1.330  0.00  0.00    -0.532 OA
ATOM     27  O   UNL d   1       2.337   5.631  -0.722  0.00  0.00    -0.532 OA
ENDBRANCH   1  25
BRANCH   3  28
ATOM     28  S   UNL d   1       1.002  -0.190   0.153  0.00  0.00     0.241 S 
ATOM     29  O   UNL d   1       2.421  -0.189   0.445  0.00  0.00    -0.206 OA
ATOM     30  O   UNL d   1       0.458  -0.862  -1.006  0.00  0.00    -0.206 OA
BRANCH  28  31
ATOM     31  N   UNL d   1       0.222  -0.746   1.531  0.00  0.00    -0.209 NA
ATOM     32  H   UNL d   1       0.297  -0.105   2.322  0.00  0.00     0.140 HD
BRANCH  31  33
ATOM     33  C   UNL d   1      -1.129  -1.284   1.342  0.00  0.00     0.169 C 
BRANCH  33  34
ATOM     34  C   UNL d   1      -1.657  -1.682   2.670  0.00  0.00     0.066 A 
ATOM     35  O   UNL d   1      -2.285  -0.707   3.389  0.00  0.00    -0.326 OA
ATOM     36  C   UNL d   1      -2.708  -1.282   4.545  0.00  0.00     0.142 A 
ATOM     37  C   UNL d   1      -2.349  -2.608   4.583  0.00  0.00     0.027 A 
ATOM     38  C   UNL d   1      -1.663  -2.868   3.373  0.00  0.00     0.036 A 
ENDBRANCH  33  34
ENDBRANCH  31  33
ENDBRANCH  28  31
ENDBRANCH   3  28
TORSDOF 11
