REMARK  5 active torsions:
REMARK  status: ('A' for Active; 'I' for Inactive)
REMARK    1  A    between atoms: C_2  and  C_1 
REMARK    2  A    between atoms: C_11  and  N_3 
REMARK    3  A    between atoms: C_14  and  C_6 
REMARK    4  A    between atoms: C_13  and  N_7 
REMARK    5  A    between atoms: C_16  and  C_11 
ROOT
ATOM      1  C   UNL d   1      -0.446   1.178   0.242  0.00  0.00     0.021 C 
ATOM      2  N   UNL d   1       0.817  -0.696   0.665  0.00  0.00    -0.293 N 
ATOM      3  HN  UNL d   1       1.598  -1.315   0.882  1.00  0.00     0.187 HD
ATOM      4  C   UNL d   1       0.870   0.616   0.406  0.00  0.00     0.069 C 
ATOM      5  N   UNL d   1      -0.492  -1.028   0.579  0.00  0.00    -0.267 N 
ATOM      6  C   UNL d   1      -1.280   0.095   0.450  0.00  0.00     0.129 C 
ENDROOT
BRANCH   1   7
ATOM      7  C   UNL d   1      -0.745   2.611  -0.056  0.00  0.00     0.187 C 
ATOM      8  N   UNL d   1      -2.111   2.988  -0.353  0.00  0.00    -0.330 N 
ATOM      9  C   UNL d   1      -2.366   4.353  -0.152  0.00  0.00     0.230 C 
ATOM     10  O   UNL d   1      -3.321   4.963  -0.611  0.00  0.00    -0.272 OA
ATOM     11  C   UNL d   1      -1.286   5.031   0.667  0.00  0.00     0.179 C 
ATOM     12  S   UNL d   1      -0.260   3.705   1.302  0.00  0.00    -0.129 SA
BRANCH   8  13
ATOM     13  C   UNL d   1      -2.895   2.297  -1.373  0.00  0.00     0.166 C 
BRANCH  13  14
ATOM     14  C   UNL d   1      -4.135   1.604  -0.845  0.00  0.00    -0.040 A 
ATOM     15  C   UNL d   1      -4.789   2.010   0.329  0.00  0.00     0.009 A 
ATOM     16  C   UNL d   1      -5.929   1.344   0.782  0.00  0.00     0.001 A 
ATOM     17  C   UNL d   1      -6.444   0.271   0.057  0.00  0.00     0.000 A 
ATOM     18  C   UNL d   1      -5.827  -0.125  -1.126  0.00  0.00     0.001 A 
ATOM     19  C   UNL d   1      -4.685   0.540  -1.579  0.00  0.00     0.009 A 
ENDBRANCH  13  14
ENDBRANCH   8  13
ENDBRANCH   1   7
BRANCH   4  20
ATOM     20  C   UNL d   1       2.153   1.328   0.392  0.00  0.00    -0.007 A 
ATOM     21  C   UNL d   1       2.458   2.251  -0.619  0.00  0.00     0.014 A 
ATOM     22  C   UNL d   1       3.576   3.080  -0.509  0.00  0.00     0.001 A 
ATOM     23  C   UNL d   1       4.431   2.954   0.582  0.00  0.00     0.000 A 
ATOM     24  C   UNL d   1       4.185   1.980   1.549  0.00  0.00     0.001 A 
ATOM     25  C   UNL d   1       3.050   1.171   1.457  0.00  0.00     0.014 A 
ENDBRANCH   4  20
BRANCH   5  26
ATOM     26  C   UNL d   1      -0.893  -2.395   0.540  0.00  0.00     0.056 A 
ATOM     27  C   UNL d   1      -2.214  -2.755   0.236  0.00  0.00     0.031 A 
ATOM     28  C   UNL d   1      -2.550  -4.104   0.072  0.00  0.00     0.002 A 
ATOM     29  C   UNL d   1      -1.582  -5.095   0.230  0.00  0.00     0.000 A 
ATOM     30  C   UNL d   1      -0.278  -4.746   0.573  0.00  0.00     0.002 A 
ATOM     31  C   UNL d   1       0.068  -3.401   0.728  0.00  0.00     0.031 A 
ENDBRANCH   5  26
TORSDOF 5
