REMARK  3 active torsions:
REMARK  status: ('A' for Active; 'I' for Inactive)
REMARK    1  A    between atoms: N_7  and  C_2 
REMARK    2  A    between atoms: S_14  and  C_3 
REMARK    3  A    between atoms: C_15  and  N_11 
ROOT
ATOM      1  C   UNL d   1      -0.568   1.208  -0.091  0.00  0.00     0.086 A 
ATOM      2  C   UNL d   1       1.460  -0.121   0.173  0.00  0.00     0.077 A 
ATOM      3  C   UNL d   1      -1.303   0.023  -0.122  0.00  0.00     0.088 A 
ATOM      4  N   UNL d   1      -0.712  -1.190  -0.032  0.00  0.00    -0.351 N 
ATOM      5  HN  UNL d   1      -1.270  -2.043  -0.080  1.00  0.00     0.166 HD
ATOM      6  C   UNL d   1       0.840   1.142   0.051  0.00  0.00    -0.008 A 
ATOM      7  C   UNL d   1       0.638  -1.256   0.122  0.00  0.00     0.035 A 
ATOM      8  C   UNL d   1      -1.230   2.477  -0.182  0.00  0.00     0.103 C 
ATOM      9  N   UNL d   1      -1.773   3.500  -0.238  0.00  0.00    -0.191 NA
ATOM     10  C   UNL d   1       1.652   2.414   0.093  0.00  0.00     0.052 C 
ATOM     11  C   UNL d   1       1.184  -2.652   0.215  0.00  0.00     0.070 C 
ENDROOT
BRANCH   3  12
ATOM     12  S   UNL d   1      -3.077  -0.071  -0.301  0.00  0.00    -0.124 SA
ATOM     13  H   UNL d   1      -3.383   1.183   0.061  0.00  0.00     0.108 HD
ENDBRANCH   3  12
BRANCH   2  14
ATOM     14  N   UNL d   1       2.841  -0.224   0.442  0.00  0.00    -0.298 N 
ATOM     15  N   UNL d   1       3.471  -0.573  -0.581  0.00  0.00    -0.300 N 
ATOM     16  HN  UNL d   1       3.050  -0.695  -1.502  1.00  0.00     0.187 HD
ATOM     17  HN  UNL d   1       3.269  -0.038   1.349  1.00  0.00     0.187 HD
BRANCH  15  18
ATOM     18  C   UNL d   1       4.841  -0.777  -0.300  0.00  0.00     0.048 A 
ATOM     19  C   UNL d   1       5.604   0.114   0.470  0.00  0.00     0.031 A 
ATOM     20  C   UNL d   1       6.967  -0.109   0.685  0.00  0.00     0.002 A 
ATOM     21  C   UNL d   1       7.588  -1.224   0.127  0.00  0.00     0.000 A 
ATOM     22  C   UNL d   1       6.845  -2.120  -0.640  0.00  0.00     0.002 A 
ATOM     23  C   UNL d   1       5.481  -1.894  -0.852  0.00  0.00     0.031 A 
ENDBRANCH  15  18
ENDBRANCH   2  14
TORSDOF 3
