REMARK  5 active torsions:
REMARK  status: ('A' for Active; 'I' for Inactive)
REMARK    1  A    between atoms: C_6  and  C_1 
REMARK    2  A    between atoms: C_7  and  C_2 
REMARK    3  A    between atoms: S_12  and  C_5 
REMARK    4  A    between atoms: O_16  and  C_7 
REMARK    5  A    between atoms: C_18  and  O_16 
ROOT
ATOM      1  C   UNL d   1      -0.085  -1.406  -0.036  0.00  0.00     0.027 A 
ATOM      2  C   UNL d   1       1.305  -1.323  -0.036  0.00  0.00     0.094 A 
ATOM      3  C   UNL d   1      -0.692  -0.094  -0.037  0.00  0.00     0.081 A 
ATOM      4  S   UNL d   1       1.837   0.305   0.046  0.00  0.00    -0.075 SA
ATOM      5  C   UNL d   1       0.246   0.922  -0.011  0.00  0.00     0.063 A 
ATOM      6  C   UNL d   1      -2.101   0.177   0.002  0.00  0.00     0.102 C 
ATOM      7  N   UNL d   1      -3.235   0.426   0.021  0.00  0.00    -0.191 NA
ENDROOT
BRANCH   1   8
ATOM      8  C   UNL d   1      -0.839  -2.727  -0.041  0.00  0.00     0.018 A 
ATOM      9  S   UNL d   1      -2.372  -2.959  -0.770  0.00  0.00    -0.101 SA
ATOM     10  C   UNL d   1      -2.400  -4.619  -0.375  0.00  0.00     0.050 A 
ATOM     11  C   UNL d   1      -1.283  -4.995   0.331  0.00  0.00     0.008 A 
ATOM     12  C   UNL d   1      -0.392  -3.901   0.539  0.00  0.00     0.020 A 
ENDBRANCH   1   8
BRANCH   5  13
ATOM     13  S   UNL d   1      -0.017   2.667   0.061  0.00  0.00    -0.126 SA
ATOM     14  C   UNL d   1      -0.835   2.993  -1.520  0.00  0.00     0.096 C 
ENDBRANCH   5  13
BRANCH   2  15
ATOM     15  C   UNL d   1       2.286  -2.381  -0.209  0.00  0.00     0.301 C 
ATOM     16  O   UNL d   1       2.113  -3.394  -0.878  0.00  0.00    -0.259 OA
BRANCH  15  17
ATOM     17  O   UNL d   1       3.422  -2.140   0.510  0.00  0.00    -0.317 OA
BRANCH  17  18
ATOM     18  C   UNL d   1       4.388  -3.204   0.490  0.00  0.00     0.174 C 
ATOM     19  C   UNL d   1       5.175  -3.212  -0.809  0.00  0.00     0.034 C 
ENDBRANCH  17  18
ENDBRANCH  15  17
ENDBRANCH   2  15
TORSDOF 5
