REMARK  5 active torsions:
REMARK  status: ('A' for Active; 'I' for Inactive)
REMARK    1  A    between atoms: C_9  and  C_2 
REMARK    2  A    between atoms: C_10  and  C_3 
REMARK    3  A    between atoms: C_7  and  C_4 
REMARK    4  A    between atoms: C_8  and  C_5 
REMARK    5  A    between atoms: N_11  and  C_6 
ROOT
ATOM      1  C   UNL d   1       0.728  -0.178   0.055  0.00  0.00     0.003 A 
ATOM      2  C   UNL d   1      -0.216  -1.304   0.054  0.00  0.00    -0.001 A 
ATOM      3  C   UNL d   1      -0.078   1.065   0.062  0.00  0.00    -0.001 A 
ATOM      4  C   UNL d   1      -1.381   0.698  -0.014  0.00  0.00    -0.002 A 
ATOM      5  C   UNL d   1      -1.465  -0.772  -0.012  0.00  0.00    -0.002 A 
ATOM      6  C   UNL d   1       2.076  -0.152   0.041  0.00  0.00     0.098 C 
ENDROOT
BRANCH   2   7
ATOM      7  C   UNL d   1      -0.021  -2.742   0.268  0.00  0.00    -0.024 A 
ATOM      8  C   UNL d   1      -0.000  -3.630  -0.815  0.00  0.00     0.012 A 
ATOM      9  C   UNL d   1       0.060  -5.008  -0.600  0.00  0.00     0.001 A 
ATOM     10  C   UNL d   1       0.063  -5.510   0.700  0.00  0.00     0.000 A 
ATOM     11  C   UNL d   1       0.027  -4.636   1.786  0.00  0.00     0.001 A 
ATOM     12  C   UNL d   1      -0.003  -3.257   1.572  0.00  0.00     0.012 A 
ENDBRANCH   2   7
BRANCH   5  13
ATOM     13  C   UNL d   1      -2.705  -1.561  -0.019  0.00  0.00    -0.024 A 
ATOM     14  C   UNL d   1      -3.368  -1.868   1.175  0.00  0.00     0.012 A 
ATOM     15  C   UNL d   1      -4.507  -2.674   1.157  0.00  0.00     0.001 A 
ATOM     16  C   UNL d   1      -4.991  -3.172  -0.052  0.00  0.00     0.000 A 
ATOM     17  C   UNL d   1      -4.344  -2.857  -1.247  0.00  0.00     0.001 A 
ATOM     18  C   UNL d   1      -3.206  -2.050  -1.230  0.00  0.00     0.012 A 
ENDBRANCH   5  13
BRANCH   3  19
ATOM     19  C   UNL d   1       0.397   2.453   0.106  0.00  0.00    -0.024 A 
ATOM     20  C   UNL d   1       0.504   3.124   1.329  0.00  0.00     0.012 A 
ATOM     21  C   UNL d   1       0.967   4.440   1.374  0.00  0.00     0.001 A 
ATOM     22  C   UNL d   1       1.329   5.093   0.196  0.00  0.00     0.000 A 
ATOM     23  C   UNL d   1       1.224   4.429  -1.028  0.00  0.00     0.001 A 
ATOM     24  C   UNL d   1       0.760   3.114  -1.074  0.00  0.00     0.012 A 
ENDBRANCH   3  19
BRANCH   6  25
ATOM     25  N   UNL d   1       3.089  -1.094  -0.098  0.00  0.00    -0.398 N 
ATOM     26  C   UNL d   1       2.969  -2.310  -0.891  0.00  0.00     0.148 C 
ATOM     27  C   UNL d   1       4.432  -0.853   0.430  0.00  0.00     0.148 C 
ENDBRANCH   6  25
BRANCH   4  28
ATOM     28  C   UNL d   1      -2.529   1.610  -0.082  0.00  0.00    -0.024 A 
ATOM     29  C   UNL d   1      -3.011   2.034  -1.326  0.00  0.00     0.012 A 
ATOM     30  C   UNL d   1      -4.133   2.861  -1.401  0.00  0.00     0.001 A 
ATOM     31  C   UNL d   1      -4.779   3.268  -0.235  0.00  0.00     0.000 A 
ATOM     32  C   UNL d   1      -4.304   2.849   1.008  0.00  0.00     0.001 A 
ATOM     33  C   UNL d   1      -3.182   2.021   1.085  0.00  0.00     0.012 A 
ENDBRANCH   4  28
TORSDOF 5
