REMARK  6 active torsions:
REMARK  status: ('A' for Active; 'I' for Inactive)
REMARK    1  A    between atoms: C_2  and  S_1 
REMARK    2  A    between atoms: N_4  and  S_1 
REMARK    3  A    between atoms: C_14  and  N_4 
REMARK       I    between atoms: C_6  and  N_13 
REMARK    4  A    between atoms: C_19  and  C_6 
REMARK    5  A    between atoms: C_20  and  C_7 
REMARK    6  A    between atoms: N_13  and  C_20 
ROOT
ATOM      1  C   UNL d   1       0.338   0.872  -1.398  0.00  0.00     0.120 A 
ATOM      2  S   UNL d   1       0.604   2.565  -1.409  0.00  0.00    -0.080 SA
ATOM      3  C   UNL d   1      -0.315   0.463  -2.547  0.00  0.00     0.034 A 
ATOM      4  C   UNL d   1      -0.068   2.740  -2.979  0.00  0.00     0.002 A 
ATOM      5  C   UNL d   1      -0.543   1.534  -3.455  0.00  0.00     0.018 A 
ENDROOT
BRANCH   1   6
ATOM      6  S   UNL d   1       0.931  -0.063   0.007  0.00  0.00     0.269 S 
ATOM      7  O   UNL d   1       2.053   0.687   0.543  0.00  0.00    -0.200 OA
ATOM      8  O   UNL d   1       1.097  -1.406  -0.494  0.00  0.00    -0.200 OA
BRANCH   6   9
ATOM      9  N   UNL d   1      -0.242  -0.071   1.218  0.00  0.00    -0.280 N 
ATOM     10  H   UNL d   1      -0.209   0.761   1.801  0.00  0.00     0.179 HD
BRANCH   9  11
ATOM     11  C   UNL d   1      -1.523  -0.628   0.951  0.00  0.00     0.045 A 
ATOM     12  C   UNL d   1      -2.553   0.175   0.464  0.00  0.00     0.069 A 
ATOM     13  C   UNL d   1      -3.835  -0.360   0.321  0.00  0.00     0.104 A 
ATOM     14  O   UNL d   1      -4.808   0.495  -0.128  0.00  0.00    -0.346 OA
ATOM     15  C   UNL d   1      -4.080  -1.699   0.640  0.00  0.00     0.102 A 
ATOM     16  C   UNL d   1      -6.120  -0.022   0.124  0.00  0.00     0.202 C 
ATOM     17  C   UNL d   1      -6.209  -1.492  -0.255  0.00  0.00     0.202 C 
ATOM     18  O   UNL d   1      -5.316  -2.282   0.538  0.00  0.00    -0.346 OA
ATOM     19  C   UNL d   1      -3.043  -2.503   1.111  0.00  0.00     0.042 A 
ATOM     20  C   UNL d   1      -1.759  -1.969   1.256  0.00  0.00     0.033 A 
ENDBRANCH   9  11
ENDBRANCH   6   9
ENDBRANCH   1   6
BRANCH   4  21
ATOM     21  C   UNL d   1      -0.071   4.062  -3.687  0.00  0.00     0.169 C 
BRANCH  21  22
ATOM     22  N   UNL d   1      -1.276   4.790  -3.358  0.00  0.00    -0.352 N 
ATOM     23  C   UNL d   1      -2.420   4.688  -4.121  0.00  0.00     0.251 C 
ATOM     24  O   UNL d   1      -2.517   3.958  -5.100  0.00  0.00    -0.268 OA
ATOM     25  H   UNL d   1      -1.312   5.251  -2.462  0.00  0.00     0.163 HD
BRANCH  23  26
ATOM     26  C   UNL d   1      -3.581   5.519  -3.688  0.00  0.00     0.032 A 
ATOM     27  C   UNL d   1      -3.410   6.744  -3.029  0.00  0.00     0.017 A 
ATOM     28  C   UNL d   1      -4.524   7.513  -2.679  0.00  0.00     0.001 A 
ATOM     29  C   UNL d   1      -5.808   7.067  -2.990  0.00  0.00     0.000 A 
ATOM     30  C   UNL d   1      -5.984   5.853  -3.652  0.00  0.00     0.001 A 
ATOM     31  C   UNL d   1      -4.874   5.081  -4.005  0.00  0.00     0.017 A 
ENDBRANCH  23  26
ENDBRANCH  21  22
ENDBRANCH   4  21
TORSDOF 6
