REMARK  0 active torsions:
REMARK  status: ('A' for Active; 'I' for Inactive)
ROOT
ATOM      1  C   UNL d   1      -2.115  -0.332   2.154  0.00  0.00     0.085 A 
ATOM      2  C   UNL d   1      -1.882   1.491   3.833  0.00  0.00     0.085 A 
ATOM      3  C   UNL d   1      -1.349   0.560   1.205  0.00  0.00     0.026 A 
ATOM      4  C   UNL d   1      -3.337   1.782   3.550  0.00  0.00     0.026 A 
ATOM      5  N   UNL d   1      -0.731  -0.065   0.254  0.00  0.00    -0.305 N 
ATOM      6  HN  UNL d   1      -0.189   0.346  -0.506  1.00  0.00     0.186 HD
ATOM      7  N   UNL d   1      -4.014   2.228   4.560  0.00  0.00    -0.305 N 
ATOM      8  HN  UNL d   1      -5.003   2.476   4.582  1.00  0.00     0.186 HD
ATOM      9  C   UNL d   1      -1.666  -0.011   3.584  0.00  0.00     0.051 C 
ATOM     10  C   UNL d   1      -1.816   1.902   5.280  0.00  0.00     0.250 A 
ATOM     11  C   UNL d   1      -1.709  -1.680   1.629  0.00  0.00     0.250 A 
ATOM     12  C   UNL d   1      -3.838   1.511   2.165  0.00  0.00     0.036 C 
ATOM     13  C   UNL d   1      -1.465   2.041   1.409  0.00  0.00     0.036 C 
ATOM     14  N   UNL d   1      -0.962  -1.399   0.490  0.00  0.00    -0.269 N 
ATOM     15  N   UNL d   1      -3.113   2.295   5.592  0.00  0.00    -0.269 N 
ATOM     16  C   UNL d   1      -3.601   0.004   1.926  0.00  0.00     0.036 C 
ATOM     17  C   UNL d   1      -1.046   2.342   2.865  0.00  0.00     0.036 C 
ATOM     18  C   UNL d   1      -2.964   2.363   1.214  0.00  0.00     0.021 C 
ATOM     19  O   UNL d   1      -1.992  -2.771   2.088  0.00  0.00    -0.271 OA
ATOM     20  O   UNL d   1      -0.844   1.887   6.010  0.00  0.00    -0.271 OA
ATOM     21  H   UNL d   1      -0.557  -2.110  -0.111  0.00  0.00     0.190 HD
ATOM     22  H   UNL d   1      -3.402   2.617   6.511  0.00  0.00     0.190 HD
ENDROOT
TORSDOF 0
