REMARK  6 active torsions:
REMARK  status: ('A' for Active; 'I' for Inactive)
REMARK    1  A    between atoms: S_12  and  C_2 
REMARK    2  A    between atoms: C_6  and  C_3 
REMARK    3  A    between atoms: O_15  and  C_6 
REMARK    4  A    between atoms: C_16  and  S_12 
REMARK    5  A    between atoms: C_13  and  C_16 
REMARK    6  A    between atoms: C_18  and  O_15 
ROOT
ATOM      1  C   UNL d   1       1.042  -0.112   0.000  0.00  0.00     0.094 A 
ATOM      2  C   UNL d   1       0.311   1.081   0.003  0.00  0.00     0.092 A 
ATOM      3  C   UNL d   1       0.313  -1.318  -0.026  0.00  0.00     0.064 A 
ATOM      4  N   UNL d   1      -1.046   1.098  -0.013  0.00  0.00    -0.353 N 
ATOM      5  HN  UNL d   1      -1.548   1.986  -0.026  1.00  0.00     0.166 HD
ATOM      6  C   UNL d   1       2.474  -0.101   0.092  0.00  0.00     0.103 C 
ATOM      7  N   UNL d   1       3.629  -0.122   0.190  0.00  0.00    -0.191 NA
ATOM      8  C   UNL d   1      -1.089  -1.287  -0.018  0.00  0.00     0.043 A 
ATOM      9  C   UNL d   1      -1.730  -0.065  -0.011  0.00  0.00     0.007 A 
ATOM     10  C   UNL d   1      -3.224   0.040   0.003  0.00  0.00     0.068 C 
ENDROOT
BRANCH   2  11
ATOM     11  S   UNL d   1       1.063   2.720  -0.004  0.00  0.00    -0.107 SA
BRANCH  11  12
ATOM     12  C   UNL d   1      -0.278   3.688   0.772  0.00  0.00     0.107 C 
BRANCH  12  13
ATOM     13  C   UNL d   1       0.080   5.143   0.901  0.00  0.00    -0.026 C 
ATOM     14  C   UNL d   1       0.154   5.781   2.078  0.00  0.00     0.007 C 
ENDBRANCH  12  13
ENDBRANCH  11  12
ENDBRANCH   2  11
BRANCH   3  15
ATOM     15  C   UNL d   1       0.913  -2.678  -0.009  0.00  0.00     0.295 C 
ATOM     16  O   UNL d   1       0.346  -3.641   0.493  0.00  0.00    -0.259 OA
BRANCH  15  17
ATOM     17  O   UNL d   1       2.085  -2.708  -0.677  0.00  0.00    -0.318 OA
BRANCH  17  18
ATOM     18  C   UNL d   1       2.762  -3.977  -0.735  0.00  0.00     0.174 C 
ATOM     19  C   UNL d   1       3.490  -4.263   0.567  0.00  0.00     0.034 C 
ENDBRANCH  17  18
ENDBRANCH  15  17
ENDBRANCH   3  15
TORSDOF 6
