REMARK  6 active torsions:
REMARK  status: ('A' for Active; 'I' for Inactive)
REMARK    1  A    between atoms: C_2  and  C_1 
REMARK       I    between atoms: N_13  and  C_2 
REMARK       I    between atoms: C_3  and  N_12 
REMARK    2  A    between atoms: O_5  and  C_3 
REMARK    3  A    between atoms: C_11  and  O_5 
REMARK    4  A    between atoms: N_12  and  C_14 
REMARK    5  A    between atoms: C_18  and  N_13 
REMARK    6  A    between atoms: C_14  and  C_18 
ROOT
ATOM      1  C   UNL d   1       1.493   5.846  -0.041  0.00  0.00     0.144 C 
ENDROOT
BRANCH   1   2
ATOM      2  N   UNL d   1       1.510   7.298  -0.025  0.00  0.00    -0.335 N 
ATOM      3  C   UNL d   1       2.500   8.228  -0.078  0.00  0.00     0.361 C 
ATOM      4  O   UNL d   1       2.207   9.415   0.014  0.00  0.00    -0.238 OA
ATOM      5  H   UNL d   1       0.612   7.747   0.088  0.00  0.00     0.164 HD
BRANCH   3   6
ATOM      6  O   UNL d   1       3.750   7.735  -0.221  0.00  0.00    -0.294 OA
BRANCH   6   7
ATOM      7  C   UNL d   1       4.883   8.650  -0.141  0.00  0.00     0.061 C 
ATOM      8  C   UNL d   1       4.930   9.342   1.230  0.00  0.00     0.046 C 
ATOM      9  C   UNL d   1       6.132   7.766  -0.288  0.00  0.00     0.046 C 
ATOM     10  C   UNL d   1       4.883   9.674  -1.287  0.00  0.00     0.046 C 
ENDBRANCH   6   7
ENDBRANCH   3   6
ENDBRANCH   1   2
BRANCH   1  11
ATOM     11  C   UNL d   1       2.801   5.051  -0.028  0.00  0.00     0.142 C 
BRANCH  11  12
ATOM     12  N   UNL d   1       2.534   3.616  -0.070  0.00  0.00    -0.355 N 
ATOM     13  C   UNL d   1       2.155   2.900   1.050  0.00  0.00     0.258 C 
ATOM     14  O   UNL d   1       2.151   3.416   2.163  0.00  0.00    -0.267 OA
ATOM     15  H   UNL d   1       2.441   3.160  -0.969  0.00  0.00     0.162 HD
BRANCH  13  16
ATOM     16  C   UNL d   1       1.735   1.519   0.822  0.00  0.00     0.072 A 
ATOM     17  S   UNL d   1       1.562   0.855  -0.752  0.00  0.00    -0.097 SA
ATOM     18  C   UNL d   1       1.041  -0.652  -0.134  0.00  0.00     0.050 A 
ATOM     19  C   UNL d   1       1.004  -0.666   1.239  0.00  0.00     0.009 A 
ATOM     20  C   UNL d   1       1.402   0.587   1.790  0.00  0.00     0.025 A 
ENDBRANCH  13  16
ENDBRANCH  11  12
ENDBRANCH   1  11
TORSDOF 6
