REMARK  0 active torsions:
REMARK  status: ('A' for Active; 'I' for Inactive)
ROOT
ATOM      1  C   UNL d   1       0.614   0.590   2.750  0.00  0.00     0.127 A 
ATOM      2  N   UNL d   1       2.311  -1.043   2.611  0.00  0.00    -0.305 N 
ATOM      3  HN  UNL d   1       2.845  -1.873   2.355  1.00  0.00     0.186 HD
ATOM      4  C   UNL d   1       1.163  -0.672   2.132  0.00  0.00     0.021 A 
ATOM      5  C   UNL d   1       1.779  -0.540  -0.930  0.00  0.00     0.018 C 
ATOM      6  C   UNL d   1       1.545   0.860  -0.416  0.00  0.00     0.130 C 
ATOM      7  N   UNL d   1       2.267  -0.590  -2.131  0.00  0.00    -0.305 N 
ATOM      8  HN  UNL d   1       2.558  -1.422  -2.645  1.00  0.00     0.186 HD
ATOM      9  N   UNL d   1       2.655  -0.091   3.533  0.00  0.00    -0.270 N 
ATOM     10  C   UNL d   1       0.161   1.036   0.252  0.00  0.00     0.006 C 
ATOM     11  C   UNL d   1       1.742   0.944   3.678  0.00  0.00     0.245 A 
ATOM     12  N   UNL d   1       2.311   0.709  -2.566  0.00  0.00    -0.270 N 
ATOM     13  C   UNL d   1       0.440  -1.341   0.987  0.00  0.00     0.039 C 
ATOM     14  C   UNL d   1       1.768   1.635  -1.683  0.00  0.00     0.246 C 
ATOM     15  C   UNL d   1       0.330   1.643   1.673  0.00  0.00     0.026 C 
ATOM     16  C   UNL d   1       1.442  -1.744  -0.101  0.00  0.00     0.065 C 
ATOM     17  C   UNL d   1      -0.560  -0.324   0.404  0.00  0.00     0.016 C 
ATOM     18  O   UNL d   1       1.833   1.918   4.398  0.00  0.00    -0.271 OA
ATOM     19  O   UNL d   1       1.560   2.819  -1.882  0.00  0.00    -0.271 OA
ATOM     20  H   UNL d   1       3.546  -0.129   4.015  0.00  0.00     0.190 HD
ATOM     21  H   UNL d   1       2.582   0.928  -3.518  0.00  0.00     0.190 HD
ENDROOT
TORSDOF 0
