REMARK  5 active torsions:
REMARK  status: ('A' for Active; 'I' for Inactive)
REMARK    1  A    between atoms: C_11  and  N_1 
REMARK    2  A    between atoms: C_8  and  C_2 
REMARK    3  A    between atoms: C_16  and  C_11 
REMARK    4  A    between atoms: C_18  and  C_16 
REMARK    5  A    between atoms: C_17  and  C_18 
ROOT
ATOM      1  N   UNL d   1       0.829  -0.660  -0.115  0.00  0.00    -0.307 N 
ATOM      2  C   UNL d   1       0.917   0.721  -0.097  0.00  0.00     0.135 A 
ATOM      3  N   UNL d   1      -0.238   1.327  -0.054  0.00  0.00    -0.282 N 
ATOM      4  HN  UNL d   1      -0.414   2.331  -0.026  1.00  0.00     0.188 HD
ATOM      5  C   UNL d   1      -0.531  -0.908  -0.076  0.00  0.00     0.194 A 
ATOM      6  N   UNL d   1      -1.150   0.330  -0.055  0.00  0.00    -0.274 N 
ATOM      7  S   UNL d   1      -1.442  -2.293  -0.044  0.00  0.00    -0.039 SA
ATOM      8  H   UNL d   1      -2.147   0.501   0.003  0.00  0.00     0.189 HD
ENDROOT
BRANCH   2   9
ATOM      9  C   UNL d   1       2.173   1.513  -0.076  0.00  0.00     0.012 A 
ATOM     10  C   UNL d   1       3.337   1.157  -0.754  0.00  0.00     0.032 A 
ATOM     11  C   UNL d   1       4.439   1.990  -0.654  0.00  0.00     0.088 A 
ATOM     12  N   UNL d   1       4.443   3.155   0.021  0.00  0.00    -0.375 N 
ATOM     13  C   UNL d   1       3.288   3.518   0.615  0.00  0.00     0.088 A 
ATOM     14  HN  UNL d   1       5.279   3.736   0.080  1.00  0.00     0.164 HD
ATOM     15  C   UNL d   1       2.145   2.739   0.599  0.00  0.00     0.032 A 
ENDBRANCH   2   9
BRANCH   1  16
ATOM     16  C   UNL d   1       1.964  -1.595  -0.028  0.00  0.00     0.133 C 
BRANCH  16  17
ATOM     17  C   UNL d   1       1.700  -3.096  -0.031  0.00  0.00     0.020 C 
BRANCH  17  18
ATOM     18  C   UNL d   1       2.995  -3.915  -0.017  0.00  0.00     0.001 C 
BRANCH  18  19
ATOM     19  C   UNL d   1       2.668  -5.408  -0.105  0.00  0.00    -0.004 C 
ATOM     20  C   UNL d   1       3.916  -6.273  -0.066  0.00  0.00     0.005 C 
ENDBRANCH  18  19
ENDBRANCH  17  18
ENDBRANCH  16  17
ENDBRANCH   1  16
TORSDOF 5
