REMARK  10 active torsions:
REMARK  status: ('A' for Active; 'I' for Inactive)
REMARK    1  A    between atoms: C_8  and  S_1 
REMARK    2  A    between atoms: N_18  and  S_1 
REMARK    3  A    between atoms: S_2  and  C_9 
REMARK    4  A    between atoms: N_19  and  S_2 
REMARK    5  A    between atoms: C_23  and  N_18 
REMARK    6  A    between atoms: C_24  and  N_19 
REMARK    7  A    between atoms: C_27  and  C_23 
REMARK    8  A    between atoms: C_28  and  C_24 
REMARK    9  A    between atoms: O_25  and  C_27 
REMARK   10  A    between atoms: O_26  and  C_28 
ROOT
ATOM      1  C   UNL d   1       0.354  -2.753   2.971  0.00  0.00     0.027 A 
ATOM      2  C   UNL d   1      -0.190  -4.209   4.765  0.00  0.00     0.027 A 
ATOM      3  C   UNL d   1       0.476  -4.150   3.445  0.00  0.00     0.194 A 
ATOM      4  C   UNL d   1      -0.663  -2.917   5.059  0.00  0.00    -0.011 A 
ATOM      5  C   UNL d   1      -0.329  -2.027   3.965  0.00  0.00    -0.011 A 
ATOM      6  C   UNL d   1       0.515  -0.841   1.594  0.00  0.00     0.075 A 
ATOM      7  C   UNL d   1      -1.081  -5.063   6.781  0.00  0.00     0.075 A 
ATOM      8  C   UNL d   1       0.789  -2.197   1.783  0.00  0.00     0.041 A 
ATOM      9  C   UNL d   1      -0.380  -5.299   5.595  0.00  0.00     0.041 A 
ATOM     10  C   UNL d   1      -1.353  -2.692   6.239  0.00  0.00     0.015 A 
ATOM     11  C   UNL d   1      -0.584  -0.678   3.775  0.00  0.00     0.015 A 
ATOM     12  O   UNL d   1       1.012  -5.067   2.862  0.00  0.00    -0.287 OA
ATOM     13  C   UNL d   1      -1.566  -3.776   7.103  0.00  0.00     0.026 A 
ATOM     14  C   UNL d   1      -0.154  -0.081   2.580  0.00  0.00     0.026 A 
ENDROOT
BRANCH   6  15
ATOM     15  S   UNL d   1       1.035  -0.033   0.098  0.00  0.00     0.241 S 
ATOM     16  O   UNL d   1       1.601  -1.024  -0.790  0.00  0.00    -0.206 OA
ATOM     17  O   UNL d   1       1.762   1.151   0.492  0.00  0.00    -0.206 OA
BRANCH  15  18
ATOM     18  N   UNL d   1      -0.425   0.488  -0.554  0.00  0.00    -0.214 NA
ATOM     19  H   UNL d   1      -0.358   1.443  -0.921  0.00  0.00     0.140 HD
BRANCH  18  20
ATOM     20  C   UNL d   1      -1.157  -0.442  -1.436  0.00  0.00     0.130 C 
BRANCH  20  21
ATOM     21  C   UNL d   1      -2.450   0.226  -1.909  0.00  0.00     0.179 C 
BRANCH  21  22
ATOM     22  O   UNL d   1      -2.142   1.429  -2.616  0.00  0.00    -0.400 OA
ATOM     23  H   UNL d   1      -2.983   1.785  -2.952  0.00  0.00     0.209 HD
ENDBRANCH  21  22
ENDBRANCH  20  21
ENDBRANCH  18  20
ENDBRANCH  15  18
ENDBRANCH   6  15
BRANCH   7  24
ATOM     24  S   UNL d   1      -1.460  -6.416   7.871  0.00  0.00     0.241 S 
ATOM     25  O   UNL d   1      -2.872  -6.328   8.169  0.00  0.00    -0.206 OA
ATOM     26  O   UNL d   1      -0.863  -7.619   7.338  0.00  0.00    -0.206 OA
BRANCH  24  27
ATOM     27  N   UNL d   1      -0.642  -5.996   9.280  0.00  0.00    -0.214 NA
ATOM     28  H   UNL d   1      -1.215  -6.173  10.111  0.00  0.00     0.140 HD
BRANCH  27  29
ATOM     29  C   UNL d   1       0.756  -6.451   9.411  0.00  0.00     0.130 C 
BRANCH  29  30
ATOM     30  C   UNL d   1       1.332  -5.971  10.746  0.00  0.00     0.179 C 
BRANCH  30  31
ATOM     31  O   UNL d   1       0.569  -6.510  11.825  0.00  0.00    -0.400 OA
ATOM     32  H   UNL d   1       1.023  -6.256  12.649  0.00  0.00     0.209 HD
ENDBRANCH  30  31
ENDBRANCH  29  30
ENDBRANCH  27  29
ENDBRANCH  24  27
ENDBRANCH   7  24
TORSDOF 10
