REMARK  1 active torsions:
REMARK  status: ('A' for Active; 'I' for Inactive)
REMARK    1  A    between atoms: C_7  and  C_2 
ROOT
ATOM      1  C   UNL d   1      -1.735   1.056  -0.792  0.00  0.00     0.131 C 
ATOM      2  C   UNL d   1      -0.626   1.335  -0.067  0.00  0.00    -0.020 C 
ATOM      3  C   UNL d   1      -2.328   2.008  -1.673  0.00  0.00     0.111 C 
ATOM      4  C   UNL d   1      -2.365  -0.221  -0.711  0.00  0.00     0.111 C 
ATOM      5  N   UNL d   1      -2.824   2.765  -2.400  0.00  0.00    -0.191 NA
ATOM      6  N   UNL d   1      -2.867  -1.264  -0.630  0.00  0.00    -0.191 NA
ATOM      7  C   UNL d   1       0.071   0.379   0.872  0.00  0.00     0.051 C 
ENDROOT
BRANCH   2   8
ATOM      8  C   UNL d   1       0.034   2.657  -0.126  0.00  0.00    -0.028 A 
ATOM      9  C   UNL d   1      -0.362   3.681   0.744  0.00  0.00     0.012 A 
ATOM     10  C   UNL d   1       0.295   4.913   0.721  0.00  0.00     0.001 A 
ATOM     11  C   UNL d   1       1.345   5.128  -0.170  0.00  0.00     0.000 A 
ATOM     12  C   UNL d   1       1.734   4.117  -1.047  0.00  0.00     0.001 A 
ATOM     13  C   UNL d   1       1.080   2.883  -1.028  0.00  0.00     0.012 A 
ENDBRANCH   2   8
TORSDOF 1
