REMARK  7 active torsions:
REMARK  status: ('A' for Active; 'I' for Inactive)
REMARK    1  A    between atoms: C_2  and  S_1 
REMARK    2  A    between atoms: N_7  and  S_1 
REMARK       I    between atoms: C_5  and  N_6 
REMARK    3  A    between atoms: C_13  and  C_5 
REMARK    4  A    between atoms: N_6  and  N_8 
REMARK    5  A    between atoms: N_8  and  C_12 
REMARK    6  A    between atoms: C_16  and  C_13 
REMARK    7  A    between atoms: C_17  and  C_16 
ROOT
ATOM      1  N   UNL d   1      -0.445   5.436   1.902  0.00  0.00    -0.203 NA
ATOM      2  H   UNL d   1      -0.637   5.517   0.898  0.00  0.00     0.153 HD
ENDROOT
BRANCH   1   3
ATOM      3  N   UNL d   1      -1.566   5.782   2.661  0.00  0.00    -0.287 N 
ATOM      4  C   UNL d   1      -1.843   7.111   2.909  0.00  0.00     0.232 C 
ATOM      5  O   UNL d   1      -2.791   7.429   3.626  0.00  0.00    -0.272 OA
ATOM      6  H   UNL d   1      -2.045   5.090   3.226  0.00  0.00     0.184 HD
BRANCH   4   7
ATOM      7  C   UNL d   1      -0.912   8.102   2.246  0.00  0.00     0.108 C 
BRANCH   7   8
ATOM      8  C   UNL d   1      -1.279   9.544   2.549  0.00  0.00     0.048 C 
BRANCH   8   9
ATOM      9  C   UNL d   1      -0.245  10.484   1.980  0.00  0.00    -0.058 A 
ATOM     10  C   UNL d   1      -0.371  10.982   0.676  0.00  0.00     0.007 A 
ATOM     11  C   UNL d   1       0.584  11.859   0.161  0.00  0.00     0.001 A 
ATOM     12  C   UNL d   1       1.678  12.236   0.939  0.00  0.00     0.000 A 
ATOM     13  C   UNL d   1       1.829  11.721   2.224  0.00  0.00     0.001 A 
ATOM     14  C   UNL d   1       0.875  10.844   2.741  0.00  0.00     0.007 A 
ENDBRANCH   8   9
ENDBRANCH   7   8
ENDBRANCH   4   7
ENDBRANCH   1   3
BRANCH   1  15
ATOM     15  C   UNL d   1       0.126   4.168   2.150  0.00  0.00     0.027 A 
ATOM     16  C   UNL d   1      -0.604   3.046   2.564  0.00  0.00     0.026 A 
ATOM     17  C   UNL d   1       0.018   1.800   2.692  0.00  0.00     0.026 A 
ATOM     18  C   UNL d   1       1.374   1.674   2.383  0.00  0.00     0.074 A 
ATOM     19  C   UNL d   1       2.106   2.768   1.924  0.00  0.00     0.026 A 
ATOM     20  C   UNL d   1       1.477   4.006   1.805  0.00  0.00     0.026 A 
BRANCH  18  21
ATOM     21  S   UNL d   1       2.157   0.095   2.506  0.00  0.00     0.239 S 
ATOM     22  O   UNL d   1       3.338   0.087   1.677  0.00  0.00    -0.206 OA
ATOM     23  O   UNL d   1       1.158  -0.940   2.439  0.00  0.00    -0.206 OA
BRANCH  21  24
ATOM     24  N   UNL d   1       2.711   0.118   4.090  0.00  0.00    -0.225 NA
ATOM     25  H   UNL d   1       3.725   0.206   4.111  0.00  0.00     0.136 HD
ATOM     26  H   UNL d   1       2.353  -0.696   4.590  0.00  0.00     0.136 HD
ENDBRANCH  21  24
ENDBRANCH  18  21
ENDBRANCH   1  15
TORSDOF 7
