REMARK  3 active torsions:
REMARK  status: ('A' for Active; 'I' for Inactive)
REMARK    1  A    between atoms: C_9  and  N_1 
REMARK    2  A    between atoms: C_18  and  C_10 
REMARK    3  A    between atoms: C_19  and  C_11 
ROOT
ATOM      1  N   UNL d   1       2.403  -0.588   0.034  0.00  0.00    -0.339 N 
ATOM      2  N   UNL d   1       1.136   1.446  -0.009  0.00  0.00    -0.352 N 
ATOM      3  HN  UNL d   1       1.131   2.466  -0.040  1.00  0.00     0.166 HD
ATOM      4  C   UNL d   1       2.238   0.773   0.028  0.00  0.00     0.184 C 
ATOM      5  C   UNL d   1      -0.060  -0.693  -0.040  0.00  0.00    -0.013 A 
ATOM      6  C   UNL d   1       1.239  -1.453  -0.126  0.00  0.00     0.170 C 
ATOM      7  C   UNL d   1      -0.053   0.704  -0.006  0.00  0.00     0.041 A 
ATOM      8  C   UNL d   1      -1.279  -1.392  -0.030  0.00  0.00     0.018 A 
ATOM      9  C   UNL d   1      -2.504  -0.709   0.016  0.00  0.00    -0.054 A 
ATOM     10  C   UNL d   1      -2.482   0.691   0.058  0.00  0.00     0.010 A 
ATOM     11  C   UNL d   1      -1.270   1.385   0.048  0.00  0.00     0.030 A 
ENDROOT
BRANCH   1  12
ATOM     12  C   UNL d   1       3.630  -1.224   0.313  0.00  0.00     0.035 A 
ATOM     13  C   UNL d   1       4.522  -0.679   1.248  0.00  0.00     0.030 A 
ATOM     14  C   UNL d   1       5.743  -1.297   1.540  0.00  0.00     0.010 A 
ATOM     15  C   UNL d   1       6.126  -2.472   0.883  0.00  0.00    -0.055 A 
ATOM     16  C   UNL d   1       5.238  -3.031  -0.043  0.00  0.00     0.010 A 
ATOM     17  C   UNL d   1       4.010  -2.418  -0.318  0.00  0.00     0.030 A 
BRANCH  15  18
ATOM     18  C   UNL d   1       7.479  -3.114   1.127  0.00  0.00     0.010 C 
ATOM     19  C   UNL d   1       8.614  -2.147   0.774  0.00  0.00     0.015 C 
ATOM     20  C   UNL d   1       7.622  -3.625   2.561  0.00  0.00     0.015 C 
ENDBRANCH  15  18
ENDBRANCH   1  12
BRANCH   9  21
ATOM     21  C   UNL d   1      -3.829  -1.449   0.013  0.00  0.00     0.010 C 
ATOM     22  C   UNL d   1      -3.993  -2.300  -1.249  0.00  0.00     0.015 C 
ATOM     23  C   UNL d   1      -4.002  -2.304   1.271  0.00  0.00     0.015 C 
ENDBRANCH   9  21
TORSDOF 3
