REMARK  14 active torsions:
REMARK  status: ('A' for Active; 'I' for Inactive)
REMARK    1  A    between atoms: C_9  and  S_1 
REMARK    2  A    between atoms: N_19  and  S_1 
REMARK    3  A    between atoms: S_2  and  C_10 
REMARK    4  A    between atoms: N_18  and  S_2 
REMARK    5  A    between atoms: N_11  and  C_5 
REMARK    6  A    between atoms: N_12  and  C_6 
REMARK    7  A    between atoms: C_31  and  N_18 
REMARK    8  A    between atoms: C_32  and  N_18 
REMARK    9  A    between atoms: C_29  and  N_19 
REMARK   10  A    between atoms: C_30  and  N_19 
REMARK   11  A    between atoms: C_33  and  C_29 
REMARK   12  A    between atoms: C_34  and  C_30 
REMARK   13  A    between atoms: C_36  and  C_31 
REMARK   14  A    between atoms: C_35  and  C_32 
ROOT
ATOM      1  C   UNL d   1      -1.000   5.304   2.096  0.00  0.00     0.025 A 
ATOM      2  C   UNL d   1      -0.283   4.134   1.575  0.00  0.00     0.025 A 
ATOM      3  C   UNL d   1      -0.840   6.681   2.004  0.00  0.00     0.116 A 
ATOM      4  C   UNL d   1       0.971   3.913   1.016  0.00  0.00     0.116 A 
ATOM      5  C   UNL d   1      -1.087   2.990   1.766  0.00  0.00     0.030 A 
ATOM      6  C   UNL d   1      -2.175   4.856   2.740  0.00  0.00     0.030 A 
ATOM      7  C   UNL d   1       0.458   1.565   0.669  0.00  0.00     0.078 A 
ATOM      8  C   UNL d   1      -2.868   7.055   3.293  0.00  0.00     0.078 A 
ATOM      9  C   UNL d   1      -2.277   3.397   2.537  0.00  0.00     0.194 A 
ATOM     10  C   UNL d   1       1.343   2.646   0.544  0.00  0.00     0.061 A 
ATOM     11  C   UNL d   1      -1.758   7.560   2.600  0.00  0.00     0.061 A 
ATOM     12  C   UNL d   1      -0.759   1.710   1.335  0.00  0.00     0.041 A 
ATOM     13  C   UNL d   1      -3.111   5.683   3.349  0.00  0.00     0.041 A 
ATOM     14  O   UNL d   1      -3.172   2.676   2.922  0.00  0.00    -0.287 OA
ENDROOT
BRANCH   7  15
ATOM     15  S   UNL d   1       1.001  -0.032   0.108  0.00  0.00     0.243 S 
ATOM     16  O   UNL d   1       0.332  -1.001   0.949  0.00  0.00    -0.206 OA
ATOM     17  O   UNL d   1       2.447   0.020   0.039  0.00  0.00    -0.206 OA
BRANCH  15  18
ATOM     18  N   UNL d   1       0.407  -0.146  -1.514  0.00  0.00    -0.206 NA
BRANCH  18  19
ATOM     19  C   UNL d   1       0.786   1.029  -2.381  0.00  0.00     0.107 C 
BRANCH  19  20
ATOM     20  C   UNL d   1       0.199   0.991  -3.795  0.00  0.00     0.011 C 
ATOM     21  C   UNL d   1      -1.316   0.852  -3.814  0.00  0.00     0.006 C 
ENDBRANCH  19  20
ENDBRANCH  18  19
BRANCH  18  22
ATOM     22  C   UNL d   1       0.780  -1.456  -2.161  0.00  0.00     0.107 C 
BRANCH  22  23
ATOM     23  C   UNL d   1       0.117  -2.674  -1.525  0.00  0.00     0.011 C 
ATOM     24  C   UNL d   1      -1.400  -2.572  -1.499  0.00  0.00     0.006 C 
ENDBRANCH  22  23
ENDBRANCH  18  22
ENDBRANCH  15  18
ENDBRANCH   7  15
BRANCH   4  25
ATOM     25  N   UNL d   1       2.026   4.897   1.073  0.00  0.00    -0.115 N 
ATOM     26  O   UNL d   1       2.327   5.309   2.199  0.00  0.00    -0.532 OA
ATOM     27  O   UNL d   1       2.559   5.214   0.005  0.00  0.00    -0.532 OA
ENDBRANCH   4  25
BRANCH   3  28
ATOM     28  N   UNL d   1       0.132   7.300   1.134  0.00  0.00    -0.115 N 
ATOM     29  O   UNL d   1       0.061   7.001  -0.063  0.00  0.00    -0.532 OA
ATOM     30  O   UNL d   1       0.917   8.101   1.650  0.00  0.00    -0.532 OA
ENDBRANCH   3  28
BRANCH   8  31
ATOM     31  S   UNL d   1      -4.095   8.216   3.854  0.00  0.00     0.243 S 
ATOM     32  O   UNL d   1      -3.975   9.380   3.002  0.00  0.00    -0.206 OA
ATOM     33  O   UNL d   1      -5.338   7.482   3.936  0.00  0.00    -0.206 OA
BRANCH  31  34
ATOM     34  N   UNL d   1      -3.591   8.687   5.447  0.00  0.00    -0.206 NA
BRANCH  34  35
ATOM     35  C   UNL d   1      -2.144   9.119   5.520  0.00  0.00     0.107 C 
BRANCH  35  36
ATOM     36  C   UNL d   1      -1.647   9.442   6.929  0.00  0.00     0.011 C 
ATOM     37  C   UNL d   1      -1.794   8.284   7.905  0.00  0.00     0.006 C 
ENDBRANCH  35  36
ENDBRANCH  34  35
BRANCH  34  38
ATOM     38  C   UNL d   1      -4.496   9.760   6.020  0.00  0.00     0.107 C 
BRANCH  38  39
ATOM     39  C   UNL d   1      -5.963   9.364   6.163  0.00  0.00     0.011 C 
ATOM     40  C   UNL d   1      -6.162   8.153   7.061  0.00  0.00     0.006 C 
ENDBRANCH  38  39
ENDBRANCH  34  38
ENDBRANCH  31  34
ENDBRANCH   8  31
TORSDOF 14
