REMARK  6 active torsions:
REMARK  status: ('A' for Active; 'I' for Inactive)
REMARK       I    between atoms: N_2  and  C_1 
REMARK       I    between atoms: N_10  and  C_1 
REMARK       I    between atoms: C_5  and  N_2 
REMARK    1  A    between atoms: C_14  and  N_2 
REMARK    2  A    between atoms: C_9  and  C_3 
REMARK    3  A    between atoms: C_11  and  C_5 
REMARK    4  A    between atoms: C_8  and  C_12 
REMARK    5  A    between atoms: O_17  and  C_9 
REMARK    6  A    between atoms: C_19  and  N_10 
ROOT
ATOM      1  C   UNL d   1       0.794  -0.138   0.171  0.00  0.00     0.326 C 
ATOM      2  N   UNL d   1       0.308  -1.399  -0.268  0.00  0.00    -0.262 N 
ATOM      3  C   UNL d   1      -1.006  -1.902  -0.114  0.00  0.00     0.251 C 
ATOM      4  N   UNL d   1      -0.022   0.642   0.954  0.00  0.00    -0.338 N 
ATOM      5  O   UNL d   1       1.897   0.323  -0.117  0.00  0.00    -0.247 OA
ATOM      6  O   UNL d   1      -1.587  -2.615  -0.934  0.00  0.00    -0.268 OA
ATOM      7  H   UNL d   1      -0.829   0.243   1.385  0.00  0.00     0.164 HD
ENDROOT
BRANCH   2   8
ATOM      8  C   UNL d   1       1.301  -2.362  -0.905  0.00  0.00     0.098 C 
ATOM      9  C   UNL d   1       2.639  -1.822  -1.485  0.00  0.00     0.026 C 
ATOM     10  C   UNL d   1       2.456  -1.073  -2.809  0.00  0.00     0.002 C 
ATOM     11  C   UNL d   1       1.737  -1.917  -3.861  0.00  0.00     0.000 C 
ATOM     12  C   UNL d   1       0.484  -2.595  -3.312  0.00  0.00     0.002 C 
ATOM     13  C   UNL d   1       0.787  -3.331  -2.008  0.00  0.00     0.026 C 
ENDBRANCH   2   8
BRANCH   3  14
ATOM     14  C   UNL d   1      -1.757  -1.634   1.139  0.00  0.00     0.075 C 
ATOM     15  C   UNL d   1      -3.088  -1.416   1.102  0.00  0.00     0.018 C 
BRANCH  15  16
ATOM     16  C   UNL d   1      -3.919  -1.360   2.264  0.00  0.00    -0.018 A 
ATOM     17  C   UNL d   1      -5.234  -0.951   2.319  0.00  0.00     0.102 A 
ATOM     18  N   UNL d   1      -5.691  -1.161   3.604  0.00  0.00    -0.355 N 
ATOM     19  C   UNL d   1      -7.035  -0.851   4.063  0.00  0.00     0.156 C 
ATOM     20  C   UNL d   1      -4.698  -1.736   4.370  0.00  0.00     0.110 A 
ATOM     21  C   UNL d   1      -3.580  -1.804   3.558  0.00  0.00     0.048 A 
BRANCH  20  22
ATOM     22  C   UNL d   1      -4.809  -2.205   5.733  0.00  0.00     0.309 C 
ATOM     23  O   UNL d   1      -5.813  -2.159   6.438  0.00  0.00    -0.258 OA
BRANCH  22  24
ATOM     24  O   UNL d   1      -3.613  -2.739   6.114  0.00  0.00    -0.321 OA
ATOM     25  C   UNL d   1      -3.579  -3.309   7.415  0.00  0.00     0.213 C 
ENDBRANCH  22  24
ENDBRANCH  20  22
ENDBRANCH  15  16
ENDBRANCH   3  14
BRANCH   4  26
ATOM     26  C   UNL d   1       0.465   1.847   1.640  0.00  0.00     0.086 C 
ATOM     27  C   UNL d   1       1.406   1.503   2.807  0.00  0.00     0.025 C 
ATOM     28  C   UNL d   1       0.682   0.713   3.896  0.00  0.00     0.002 C 
ATOM     29  C   UNL d   1      -0.525   1.480   4.428  0.00  0.00     0.000 C 
ATOM     30  C   UNL d   1      -1.458   1.968   3.320  0.00  0.00     0.002 C 
ATOM     31  C   UNL d   1      -0.720   2.667   2.173  0.00  0.00     0.025 C 
ENDBRANCH   4  26
TORSDOF 6
