REMARK  7 active torsions:
REMARK  status: ('A' for Active; 'I' for Inactive)
REMARK    1  A    between atoms: C_3  and  C_1 
REMARK    2  A    between atoms: C_8  and  N_2 
REMARK    3  A    between atoms: O_18  and  C_6 
REMARK    4  A    between atoms: C_9  and  C_10 
REMARK    5  A    between atoms: O_20  and  C_9 
REMARK    6  A    between atoms: O_21  and  C_11 
REMARK    7  A    between atoms: C_25  and  O_20 
ROOT
ATOM      1  C   UNL d   1       1.598   1.088  -0.000  0.00  0.00     0.361 C 
ATOM      2  N   UNL d   1       2.488  -0.102  -0.069  0.00  0.00    -0.345 N 
ATOM      3  N   UNL d   1       0.238   0.626   0.292  0.00  0.00     0.122 N 
ATOM      4  C   UNL d   1       1.625  -1.280   0.183  0.00  0.00     0.161 C 
ATOM      5  C   UNL d   1       0.224  -0.754  -0.213  0.00  0.00     0.244 C 
ATOM      6  C   UNL d   1      -0.909   1.412  -0.109  0.00  0.00     0.276 C 
ATOM      7  C   UNL d   1      -0.975  -1.504   0.347  0.00  0.00     0.037 C 
ATOM      8  C   UNL d   1      -2.188   0.714   0.384  0.00  0.00     0.030 C 
ATOM      9  C   UNL d   1      -2.252  -0.756  -0.051  0.00  0.00     0.004 C 
ENDROOT
BRANCH   2  10
ATOM     10  C   UNL d   1       3.847  -0.059   0.148  0.00  0.00     0.032 A 
ATOM     11  C   UNL d   1       4.525   1.154   0.351  0.00  0.00     0.030 A 
ATOM     12  C   UNL d   1       5.912   1.227   0.493  0.00  0.00     0.020 A 
ATOM     13  C   UNL d   1       6.674   0.063   0.427  0.00  0.00     0.039 A 
ATOM     14  C   UNL d   1       6.036  -1.156   0.195  0.00  0.00     0.020 A 
ATOM     15  C   UNL d   1       4.641  -1.212   0.059  0.00  0.00     0.030 A 
BRANCH  13  16
ATOM     16  C   UNL d   1       8.133   0.076   0.690  0.00  0.00     0.293 C 
ATOM     17  O   UNL d   1       8.823  -0.930   0.728  0.00  0.00    -0.259 OA
BRANCH  16  18
ATOM     18  O   UNL d   1       8.529   1.335   1.013  0.00  0.00    -0.318 OA
BRANCH  18  19
ATOM     19  C   UNL d   1       9.741   1.430   1.764  0.00  0.00     0.174 C 
ATOM     20  C   UNL d   1       9.384   1.308   3.235  0.00  0.00     0.034 C 
ENDBRANCH  18  19
ENDBRANCH  16  18
ENDBRANCH  13  16
ENDBRANCH   2  10
BRANCH   1  21
ATOM     21  C   UNL d   1       1.787   1.939  -1.265  0.00  0.00     0.030 A 
ATOM     22  C   UNL d   1       2.078   1.401  -2.543  0.00  0.00     0.109 A 
ATOM     23  C   UNL d   1       2.323   2.226  -3.649  0.00  0.00     0.102 A 
ATOM     24  C   UNL d   1       2.295   3.611  -3.468  0.00  0.00     0.039 A 
ATOM     25  C   UNL d   1       2.012   4.169  -2.222  0.00  0.00     0.004 A 
ATOM     26  C   UNL d   1       1.748   3.340  -1.133  0.00  0.00     0.014 A 
BRANCH  22  27
ATOM     27  O   UNL d   1       2.186   0.043  -2.689  0.00  0.00    -0.357 OA
ATOM     28  H   UNL d   1       2.534  -0.272  -1.829  0.00  0.00     0.217 HD
ENDBRANCH  22  27
BRANCH  23  29
ATOM     29  O   UNL d   1       2.636   1.856  -4.931  0.00  0.00    -0.353 OA
ATOM     30  C   UNL d   1       2.759   0.470  -5.223  0.00  0.00     0.210 C 
ENDBRANCH  23  29
ENDBRANCH   1  21
TORSDOF 7
