REMARK  4 active torsions:
REMARK  status: ('A' for Active; 'I' for Inactive)
REMARK    1  A    between atoms: C_12  and  C_3 
REMARK    2  A    between atoms: C_11  and  C_6 
REMARK    3  A    between atoms: O_17  and  C_8 
REMARK    4  A    between atoms: O_18  and  C_12 
ROOT
ATOM      1  C   UNL d   1      -0.311  -0.717   0.003  0.00  0.00     0.070 A 
ATOM      2  C   UNL d   1      -0.272   0.723   0.002  0.00  0.00     0.032 A 
ATOM      3  C   UNL d   1      -1.588  -1.231   0.004  0.00  0.00     0.105 A 
ATOM      4  N   UNL d   1       0.812  -1.490   0.001  0.00  0.00    -0.350 N 
ATOM      5  HN  UNL d   1       0.798  -2.510   0.001  1.00  0.00     0.166 HD
ATOM      6  C   UNL d   1       1.979  -0.733  -0.001  0.00  0.00     0.119 A 
ATOM      7  S   UNL d   1      -2.744   0.047   0.004  0.00  0.00    -0.092 SA
ATOM      8  C   UNL d   1       0.903   1.477   0.001  0.00  0.00     0.080 A 
ATOM      9  C   UNL d   1       2.050   0.689   0.001  0.00  0.00     0.071 A 
ATOM     10  C   UNL d   1      -1.534   1.265   0.003  0.00  0.00     0.067 A 
ENDROOT
BRANCH   3  11
ATOM     11  C   UNL d   1      -2.058  -2.602   0.005  0.00  0.00     0.185 C 
ATOM     12  O   UNL d   1      -3.227  -2.963   0.007  0.00  0.00    -0.646 OA
BRANCH  11  13
ATOM     13  O   UNL d   1      -1.044  -3.508   0.004  0.00  0.00    -0.772 OA
ATOM     14  H   UNL d   1      -0.152  -3.090   0.003  0.00  0.00     0.167 HD
ENDBRANCH  11  13
ENDBRANCH   3  11
BRANCH   8  15
ATOM     15  O   UNL d   1       1.021   2.837   0.000  0.00  0.00    -0.360 OA
ATOM     16  H   UNL d   1       0.138   3.241  -0.006  0.00  0.00     0.217 HD
ENDBRANCH   8  15
BRANCH   6  17
ATOM     17  C   UNL d   1       3.325  -1.467  -0.007  0.00  0.00     0.432 C 
ATOM     18  F   UNL d   1       3.209  -2.824  -0.017  0.00  0.00    -0.165 F 
ATOM     19  F   UNL d   1       4.085  -1.148  -1.094  0.00  0.00    -0.165 F 
ATOM     20  F   UNL d   1       4.089  -1.163   1.081  0.00  0.00    -0.165 F 
ENDBRANCH   6  17
TORSDOF 4
