REMARK  2 active torsions:
REMARK  status: ('A' for Active; 'I' for Inactive)
REMARK    1  A    between atoms: N_16  and  C_11 
REMARK    2  A    between atoms: C_20  and  N_16 
ROOT
ATOM      1  C   UNL d   1       0.010  -0.728  -0.045  0.00  0.00     0.135 C 
ATOM      2  C   UNL d   1      -0.004   0.629   0.018  0.00  0.00     0.128 C 
ATOM      3  N   UNL d   1       1.254  -1.385  -0.004  0.00  0.00    -0.288 N 
ATOM      4  N   UNL d   1       2.432   0.659  -0.009  0.00  0.00    -0.270 N 
ATOM      5  N   UNL d   1      -1.216  -1.435  -0.131  0.00  0.00    -0.303 N 
ATOM      6  C   UNL d   1       2.477  -0.714  -0.069  0.00  0.00     0.332 C 
ATOM      7  C   UNL d   1       1.269   1.383   0.114  0.00  0.00     0.269 C 
ATOM      8  C   UNL d   1      -2.469   0.579  -0.312  0.00  0.00     0.099 C 
ATOM      9  C   UNL d   1      -2.463  -0.833   0.061  0.00  0.00     0.264 C 
ATOM     10  C   UNL d   1      -1.280   1.397  -0.084  0.00  0.00     0.208 C 
ATOM     11  C   UNL d   1      -3.448   1.022  -1.122  0.00  0.00     0.109 C 
ATOM     12  O   UNL d   1       3.549  -1.322  -0.157  0.00  0.00    -0.246 OA
ATOM     13  O   UNL d   1       1.288   2.601   0.284  0.00  0.00    -0.267 OA
ATOM     14  O   UNL d   1      -3.500  -1.439   0.322  0.00  0.00    -0.267 OA
ATOM     15  O   UNL d   1      -1.363   2.618  -0.041  0.00  0.00    -0.286 OA
ATOM     16  C   UNL d   1       1.413  -2.826   0.144  0.00  0.00     0.163 C 
ATOM     17  C   UNL d   1       3.678   1.405   0.026  0.00  0.00     0.164 C 
ATOM     18  C   UNL d   1      -1.376  -2.805  -0.589  0.00  0.00     0.161 C 
ENDROOT
BRANCH  11  19
ATOM     19  N   UNL d   1      -4.524   0.298  -1.582  0.00  0.00    -0.365 N 
ATOM     20  H   UNL d   1      -4.664  -0.605  -1.120  0.00  0.00     0.165 HD
BRANCH  19  21
ATOM     21  C   UNL d   1      -5.456   0.611  -2.581  0.00  0.00     0.032 A 
ATOM     22  C   UNL d   1      -5.431   1.804  -3.314  0.00  0.00     0.032 A 
ATOM     23  C   UNL d   1      -6.407   2.074  -4.277  0.00  0.00     0.044 A 
ATOM     24  C   UNL d   1      -7.407   1.144  -4.521  0.00  0.00     0.116 A 
ATOM     25  C   UNL d   1      -7.442  -0.059  -3.833  0.00  0.00     0.044 A 
ATOM     26  F   UNL d   1      -8.350   1.412  -5.433  0.00  0.00    -0.206 F 
ATOM     27  C   UNL d   1      -6.466  -0.324  -2.869  0.00  0.00     0.032 A 
ENDBRANCH  19  21
ENDBRANCH  11  19
TORSDOF 2
