REMARK  4 active torsions:
REMARK  status: ('A' for Active; 'I' for Inactive)
REMARK       I    between atoms: N_2  and  C_1 
REMARK    1  A    between atoms: C_3  and  C_1 
REMARK    2  A    between atoms: C_4  and  N_2 
REMARK    3  A    between atoms: O_15  and  C_6 
REMARK    4  A    between atoms: O_16  and  C_11 
ROOT
ATOM      1  C   UNL d   1       1.131   0.128  -0.117  0.00  0.00     0.252 C 
ATOM      2  N   UNL d   1       0.373   0.407  -1.229  0.00  0.00    -0.352 N 
ATOM      3  O   UNL d   1       2.312   0.421   0.007  0.00  0.00    -0.268 OA
ATOM      4  H   UNL d   1      -0.627   0.377  -1.083  0.00  0.00     0.163 HD
ENDROOT
BRANCH   1   5
ATOM      5  C   UNL d   1       0.368  -0.517   1.006  0.00  0.00     0.034 A 
ATOM      6  C   UNL d   1       0.800  -0.323   2.325  0.00  0.00     0.056 A 
ATOM      7  C   UNL d   1       0.072  -0.822   3.415  0.00  0.00     0.102 A 
ATOM      8  C   UNL d   1      -1.110  -1.551   3.175  0.00  0.00     0.101 A 
ATOM      9  C   UNL d   1      -1.518  -1.779   1.856  0.00  0.00     0.040 A 
ATOM     10  C   UNL d   1      -0.788  -1.280   0.773  0.00  0.00     0.020 A 
BRANCH   7  11
ATOM     11  O   UNL d   1       0.446  -0.621   4.715  0.00  0.00    -0.353 OA
ATOM     12  C   UNL d   1       1.622   0.139   4.971  0.00  0.00     0.210 C 
ENDBRANCH   7  11
BRANCH   8  13
ATOM     13  O   UNL d   1      -1.975  -2.114   4.076  0.00  0.00    -0.353 OA
ATOM     14  C   UNL d   1      -1.740  -1.943   5.465  0.00  0.00     0.210 C 
ENDBRANCH   8  13
ENDBRANCH   1   5
BRANCH   2  15
ATOM     15  C   UNL d   1       0.784   1.255  -2.343  0.00  0.00     0.093 C 
ATOM     16  C   UNL d   1       2.151   0.955  -2.999  0.00  0.00     0.064 C 
ATOM     17  C   UNL d   1       1.872   1.207  -4.453  0.00  0.00    -0.050 C 
ATOM     18  C   UNL d   1       2.764   1.415  -5.491  0.00  0.00     0.007 C 
ATOM     19  C   UNL d   1       0.515   1.036  -4.713  0.00  0.00    -0.050 C 
ATOM     20  C   UNL d   1       2.294   1.279  -6.801  0.00  0.00     0.001 C 
ATOM     21  C   UNL d   1       0.966   0.899  -7.047  0.00  0.00     0.001 C 
ATOM     22  C   UNL d   1       0.055   0.807  -5.997  0.00  0.00     0.007 C 
ATOM     23  C   UNL d   1      -0.285   1.132  -3.461  0.00  0.00     0.064 C 
ENDBRANCH   2  15
TORSDOF 4
