REMARK  4 active torsions:
REMARK  status: ('A' for Active; 'I' for Inactive)
REMARK    1  A    between atoms: C_4  and  N_1 
REMARK    2  A    between atoms: C_16  and  C_3 
REMARK    3  A    between atoms: C_6  and  C_9 
REMARK    4  A    between atoms: C_7  and  C_10 
ROOT
ATOM      1  N   UNL d   1       0.918  -0.652   0.109  0.00  0.00    -0.291 N 
ATOM      2  C   UNL d   1       0.991   0.745   0.148  0.00  0.00     0.149 A 
ATOM      3  C   UNL d   1      -0.418  -1.112   0.101  0.00  0.00     0.058 A 
ATOM      4  S   UNL d   1      -0.654   1.438   0.086  0.00  0.00    -0.063 SA
ATOM      5  C   UNL d   1      -1.359  -0.151   0.091  0.00  0.00     0.084 A 
ATOM      6  N   UNL d   1       1.973   1.565   0.263  0.00  0.00    -0.379 N 
ATOM      7  HN  UNL d   1       1.890   2.582   0.256  1.00  0.00     0.158 HD
ATOM      8  H   UNL d   1       2.849   1.049   0.363  0.00  0.00     0.158 HD
ENDROOT
BRANCH   1   9
ATOM      9  C   UNL d   1       2.070  -1.480  -0.057  0.00  0.00     0.043 A 
ATOM     10  C   UNL d   1       2.211  -2.694   0.634  0.00  0.00     0.046 A 
ATOM     11  C   UNL d   1       3.287  -3.568   0.407  0.00  0.00     0.050 A 
ATOM     12  C   UNL d   1       4.305  -3.170  -0.466  0.00  0.00     0.032 A 
ATOM     13  C   UNL d   1       4.235  -1.938  -1.132  0.00  0.00     0.050 A 
ATOM     14  C   UNL d   1       3.106  -1.120  -0.939  0.00  0.00     0.046 A 
BRANCH  11  15
ATOM     15  C   UNL d   1       3.337  -4.921   1.078  0.00  0.00     0.417 C 
ATOM     16  F   UNL d   1       2.240  -5.203   1.833  0.00  0.00    -0.166 F 
ATOM     17  F   UNL d   1       3.441  -5.939   0.179  0.00  0.00    -0.166 F 
ATOM     18  F   UNL d   1       4.407  -5.049   1.910  0.00  0.00    -0.166 F 
ENDBRANCH  11  15
BRANCH  13  19
ATOM     19  C   UNL d   1       5.359  -1.518  -2.049  0.00  0.00     0.417 C 
ATOM     20  F   UNL d   1       5.174  -0.295  -2.617  0.00  0.00    -0.166 F 
ATOM     21  F   UNL d   1       6.555  -1.451  -1.400  0.00  0.00    -0.166 F 
ATOM     22  F   UNL d   1       5.540  -2.388  -3.080  0.00  0.00    -0.166 F 
ENDBRANCH  13  19
ENDBRANCH   1   9
BRANCH   3  23
ATOM     23  C   UNL d   1      -0.814  -2.524   0.050  0.00  0.00    -0.008 A 
ATOM     24  C   UNL d   1      -0.894  -3.193  -1.179  0.00  0.00     0.014 A 
ATOM     25  C   UNL d   1      -1.208  -4.553  -1.215  0.00  0.00     0.001 A 
ATOM     26  C   UNL d   1      -1.439  -5.250  -0.029  0.00  0.00     0.000 A 
ATOM     27  C   UNL d   1      -1.390  -4.583   1.194  0.00  0.00     0.001 A 
ATOM     28  C   UNL d   1      -1.099  -3.220   1.232  0.00  0.00     0.014 A 
ENDBRANCH   3  23
TORSDOF 4
