REMARK  5 active torsions:
REMARK  status: ('A' for Active; 'I' for Inactive)
REMARK    1  A    between atoms: C_2  and  C_1 
REMARK    2  A    between atoms: C_3  and  N_6 
REMARK       I    between atoms: N_6  and  C_12 
REMARK    3  A    between atoms: C_12  and  C_21 
REMARK    4  A    between atoms: S_15  and  C_13 
REMARK    5  A    between atoms: C_21  and  S_15 
ROOT
ATOM      1  N   UNL d   1      -1.581   2.791  -7.868  0.00  0.00    -0.324 N 
ATOM      2  C   UNL d   1      -1.859   1.453  -7.645  0.00  0.00     0.231 C 
ATOM      3  O   UNL d   1      -2.366   0.695  -8.470  0.00  0.00    -0.272 OA
ATOM      4  H   UNL d   1      -1.056   3.284  -7.151  0.00  0.00     0.169 HD
ENDROOT
BRANCH   2   5
ATOM      5  C   UNL d   1      -1.373   0.899  -6.315  0.00  0.00     0.184 C 
BRANCH   5   6
ATOM      6  S   UNL d   1      -1.798   1.974  -4.909  0.00  0.00    -0.103 SA
BRANCH   6   7
ATOM      7  C   UNL d   1      -1.052   1.035  -3.585  0.00  0.00     0.070 A 
ATOM      8  C   UNL d   1      -1.135   1.505  -2.281  0.00  0.00     0.038 A 
ATOM      9  C   UNL d   1      -0.453   0.820  -1.274  0.00  0.00     0.020 A 
ATOM     10  C   UNL d   1       0.292  -0.319  -1.591  0.00  0.00     0.063 A 
ATOM     11  C   UNL d   1       0.275  -0.741  -2.911  0.00  0.00     0.105 A 
ATOM     12  N   UNL d   1      -0.373  -0.089  -3.905  0.00  0.00    -0.360 N 
ATOM     13  HN  UNL d   1      -0.349  -0.434  -4.864  1.00  0.00     0.166 HD
BRANCH  10  14
ATOM     14  C   UNL d   1       1.122  -1.032  -0.568  0.00  0.00     0.418 C 
ATOM     15  F   UNL d   1       1.763  -2.131  -1.054  0.00  0.00    -0.166 F 
ATOM     16  F   UNL d   1       0.394  -1.462   0.497  0.00  0.00    -0.166 F 
ATOM     17  F   UNL d   1       2.098  -0.232  -0.055  0.00  0.00    -0.166 F 
ENDBRANCH  10  14
ENDBRANCH   6   7
ENDBRANCH   5   6
ENDBRANCH   2   5
BRANCH   1  18
ATOM     18  C   UNL d   1      -1.944   3.552  -9.007  0.00  0.00     0.076 A 
ATOM     19  C   UNL d   1      -2.779   3.079 -10.024  0.00  0.00     0.078 A 
ATOM     20  C   UNL d   1      -3.102   3.903 -11.102  0.00  0.00     0.157 A 
ATOM     21  F   UNL d   1      -3.915   3.439 -12.060  0.00  0.00    -0.203 F 
ATOM     22  C   UNL d   1      -2.600   5.194 -11.181  0.00  0.00     0.157 A 
ATOM     23  C   UNL d   1      -1.766   5.687 -10.184  0.00  0.00     0.090 A 
ATOM     24  F   UNL d   1      -2.917   5.980 -12.220  0.00  0.00    -0.203 F 
ATOM     25  C   UNL d   1      -1.453   4.864  -9.107  0.00  0.00     0.146 A 
ATOM     26  F   UNL d   1      -0.649   5.342  -8.142  0.00  0.00    -0.204 F 
ENDBRANCH   1  18
TORSDOF 5
