REMARK  7 active torsions:
REMARK  status: ('A' for Active; 'I' for Inactive)
REMARK    1  A    between atoms: C_22  and  C_1 
REMARK    2  A    between atoms: C_21  and  C_2 
REMARK    3  A    between atoms: C_5  and  S_14 
REMARK    4  A    between atoms: S_15  and  C_6 
REMARK    5  A    between atoms: N_20  and  C_11 
REMARK    6  A    between atoms: S_14  and  C_12 
REMARK    7  A    between atoms: C_13  and  S_15 
ROOT
ATOM      1  C   UNL d   1       2.844  -2.237   0.879  0.00  0.00     0.170 A 
ATOM      2  C   UNL d   1       4.209  -2.367   1.023  0.00  0.00     0.114 A 
ATOM      3  C   UNL d   1       2.273  -2.646  -0.307  0.00  0.00     0.114 A 
ATOM      4  N   UNL d   1       4.970  -2.903   0.040  0.00  0.00    -0.344 N 
ATOM      5  HN  UNL d   1       5.976  -3.030   0.152  1.00  0.00     0.167 HD
ATOM      6  N   UNL d   1       3.028  -3.139  -1.317  0.00  0.00    -0.344 N 
ATOM      7  HN  UNL d   1       2.616  -3.407  -2.211  1.00  0.00     0.167 HD
ATOM      8  C   UNL d   1       4.341  -3.259  -1.085  0.00  0.00     0.182 A 
ENDROOT
BRANCH   2   9
ATOM      9  S   UNL d   1       5.125  -1.933   2.492  0.00  0.00    -0.032 SA
BRANCH   9  10
ATOM     10  C   UNL d   1       5.546  -0.303   2.083  0.00  0.00     0.169 A 
ATOM     11  N   UNL d   1       6.420   0.461   2.817  0.00  0.00    -0.312 N 
ATOM     12  C   UNL d   1       6.345   1.730   2.281  0.00  0.00     0.209 A 
ATOM     13  C   UNL d   1       7.241  -0.010   3.905  0.00  0.00     0.160 C 
ATOM     14  N   UNL d   1       5.567   1.679   1.211  0.00  0.00    -0.279 N 
ATOM     15  N   UNL d   1       5.062   0.409   1.095  0.00  0.00    -0.278 N 
ATOM     16  HN  UNL d   1       5.375   2.455   0.578  1.00  0.00     0.188 HD
ATOM     17  HN  UNL d   1       4.424   0.079   0.371  1.00  0.00     0.189 HD
BRANCH  12  18
ATOM     18  C   UNL d   1       7.010   2.950   2.816  0.00  0.00     0.450 C 
ATOM     19  F   UNL d   1       7.411   2.815   4.109  0.00  0.00    -0.163 F 
ATOM     20  F   UNL d   1       8.119   3.277   2.104  0.00  0.00    -0.163 F 
ATOM     21  F   UNL d   1       6.191   4.033   2.795  0.00  0.00    -0.163 F 
ENDBRANCH  12  18
ENDBRANCH   9  10
ENDBRANCH   2   9
BRANCH   1  22
ATOM     22  N   UNL d   1       2.042  -1.724   1.937  0.00  0.00    -0.110 N 
ATOM     23  O   UNL d   1       1.969  -0.495   2.051  0.00  0.00    -0.532 OA
ATOM     24  O   UNL d   1       1.482  -2.549   2.669  0.00  0.00    -0.532 OA
ENDBRANCH   1  22
BRANCH   3  25
ATOM     25  S   UNL d   1       0.532  -2.495  -0.683  0.00  0.00    -0.032 SA
BRANCH  25  26
ATOM     26  C   UNL d   1       0.148  -4.175  -0.869  0.00  0.00     0.169 A 
ATOM     27  N   UNL d   1      -0.810  -4.651  -1.724  0.00  0.00    -0.312 N 
ATOM     28  C   UNL d   1      -0.883  -6.009  -1.484  0.00  0.00     0.209 A 
ATOM     29  C   UNL d   1      -1.594  -3.904  -2.676  0.00  0.00     0.160 C 
ATOM     30  N   UNL d   1       0.024  -6.316  -0.569  0.00  0.00    -0.279 N 
ATOM     31  N   UNL d   1       0.659  -5.163  -0.179  0.00  0.00    -0.278 N 
ATOM     32  HN  UNL d   1       0.218  -7.253  -0.214  1.00  0.00     0.188 HD
ATOM     33  HN  UNL d   1       1.396  -5.090   0.522  1.00  0.00     0.189 HD
BRANCH  28  34
ATOM     34  C   UNL d   1      -1.827  -6.955  -2.138  0.00  0.00     0.450 C 
ATOM     35  F   UNL d   1      -2.745  -6.330  -2.925  0.00  0.00    -0.163 F 
ATOM     36  F   UNL d   1      -1.187  -7.846  -2.938  0.00  0.00    -0.163 F 
ATOM     37  F   UNL d   1      -2.542  -7.675  -1.234  0.00  0.00    -0.163 F 
ENDBRANCH  28  34
ENDBRANCH  25  26
ENDBRANCH   3  25
TORSDOF 7
