REMARK  4 active torsions:
REMARK  status: ('A' for Active; 'I' for Inactive)
REMARK    1  A    between atoms: C_4  and  C_1 
REMARK    2  A    between atoms: C_7  and  N_2 
REMARK    3  A    between atoms: O_13  and  C_5 
REMARK    4  A    between atoms: C_9  and  C_7 
ROOT
ATOM      1  N   UNL d   1      -3.310  -2.479  -0.017  0.00  0.00    -0.390 N 
ATOM      2  HN  UNL d   1      -3.766  -1.642   0.347  1.00  0.00     0.159 HD
ATOM      3  C   UNL d   1      -2.122  -2.452  -0.516  0.00  0.00     0.097 C 
ENDROOT
BRANCH   1   4
ATOM      4  C   UNL d   1      -3.969  -3.799  -0.007  0.00  0.00     0.110 C 
ATOM      5  C   UNL d   1      -5.474  -3.539  -0.123  0.00  0.00     0.037 C 
BRANCH   4   6
ATOM      6  C   UNL d   1      -3.703  -4.593   1.260  0.00  0.00    -0.036 A 
ATOM      7  C   UNL d   1      -3.459  -3.957   2.487  0.00  0.00     0.009 A 
ATOM      8  C   UNL d   1      -3.321  -4.701   3.660  0.00  0.00     0.001 A 
ATOM      9  C   UNL d   1      -3.429  -6.089   3.624  0.00  0.00     0.000 A 
ATOM     10  C   UNL d   1      -3.659  -6.737   2.412  0.00  0.00     0.001 A 
ATOM     11  C   UNL d   1      -3.793  -5.994   1.236  0.00  0.00     0.009 A 
ENDBRANCH   4   6
ENDBRANCH   1   4
BRANCH   3  12
ATOM     12  C   UNL d   1      -1.364  -1.183  -0.564  0.00  0.00     0.014 A 
ATOM     13  C   UNL d   1      -1.903   0.007  -0.051  0.00  0.00     0.077 A 
ATOM     14  C   UNL d   1      -1.171   1.191  -0.098  0.00  0.00     0.039 A 
ATOM     15  C   UNL d   1       0.107   1.193  -0.656  0.00  0.00     0.026 A 
ATOM     16  C   UNL d   1       0.642   0.008  -1.166  0.00  0.00     0.035 A 
ATOM     17  C   UNL d   1      -0.085  -1.182  -1.126  0.00  0.00     0.039 A 
ATOM     18 CL   UNL d   1       2.219   0.018  -1.856  0.00  0.00    -0.084 Cl
BRANCH  13  19
ATOM     19  O   UNL d   1      -3.150   0.079   0.508  0.00  0.00    -0.360 OA
ATOM     20  H   UNL d   1      -3.536  -0.826   0.457  0.00  0.00     0.217 HD
ENDBRANCH  13  19
ENDBRANCH   3  12
TORSDOF 4
