REMARK  5 active torsions:
REMARK  status: ('A' for Active; 'I' for Inactive)
REMARK    1  A    between atoms: N_5  and  C_1 
REMARK    2  A    between atoms: N_9  and  C_1 
REMARK    3  A    between atoms: N_2  and  N_9 
REMARK    4  A    between atoms: C_4  and  C_6 
REMARK    5  A    between atoms: C_13  and  N_5 
ROOT
ATOM      1  N   UNL d   1       0.805   0.477   1.018  0.00  0.00    -0.277 N 
ATOM      2  H   UNL d   1       1.312   1.097   1.646  0.00  0.00     0.189 HD
ENDROOT
BRANCH   1   3
ATOM      3  N   UNL d   1      -0.475   0.085   1.303  0.00  0.00    -0.307 N 
ATOM      4  C   UNL d   1      -0.908   0.452   2.465  0.00  0.00     0.144 C 
ATOM      5  HN  UNL d   1      -1.043  -0.455   0.650  1.00  0.00     0.186 HD
BRANCH   4   6
ATOM      6  C   UNL d   1      -2.262   0.194   2.857  0.00  0.00     0.091 A 
ATOM      7  O   UNL d   1      -2.670   0.622   4.091  0.00  0.00    -0.321 OA
ATOM      8  C   UNL d   1      -3.989   0.319   4.200  0.00  0.00     0.142 A 
ATOM      9  C   UNL d   1      -4.437  -0.300   3.058  0.00  0.00     0.027 A 
ATOM     10  C   UNL d   1      -3.320  -0.388   2.195  0.00  0.00     0.040 A 
ENDBRANCH   4   6
ENDBRANCH   1   3
BRANCH   1  11
ATOM     11  C   UNL d   1       1.449   0.100  -0.145  0.00  0.00     0.187 C 
ATOM     12  S   UNL d   1       2.966   0.721  -0.437  0.00  0.00    -0.040 SA
BRANCH  11  13
ATOM     13  N   UNL d   1       0.727  -0.793  -0.892  0.00  0.00    -0.358 N 
ATOM     14  H   UNL d   1      -0.181  -0.952  -0.461  0.00  0.00     0.162 HD
BRANCH  13  15
ATOM     15  C   UNL d   1       1.124  -1.692  -1.997  0.00  0.00     0.021 C 
ATOM     16  C   UNL d   1       2.340  -2.546  -1.597  0.00  0.00     0.037 C 
ATOM     17  C   UNL d   1      -0.052  -2.652  -2.272  0.00  0.00     0.037 C 
ATOM     18  C   UNL d   1       1.410  -0.924  -3.294  0.00  0.00     0.037 C 
ENDBRANCH  13  15
ENDBRANCH  11  13
ENDBRANCH   1  11
TORSDOF 5
