REMARK  3 active torsions:
REMARK  status: ('A' for Active; 'I' for Inactive)
REMARK    1  A    between atoms: N_2  and  C_1 
REMARK    2  A    between atoms: N_4  and  C_3 
REMARK    3  A    between atoms: N_6  and  C_5 
REMARK       I    between atoms: C_7  and  N_6 
ROOT
ATOM      1  C   UNL d   1       1.464  -0.270   0.011  0.00  0.00     0.162 A 
ATOM      2  C   UNL d   1       0.522  -1.303  -0.006  0.00  0.00     0.138 A 
ATOM      3  C   UNL d   1       1.029   1.068  -0.071  0.00  0.00     0.070 A 
ATOM      4  C   UNL d   1      -0.851  -1.035  -0.076  0.00  0.00     0.039 A 
ATOM      5  C   UNL d   1      -0.352   1.331  -0.062  0.00  0.00     0.032 A 
ATOM      6  C   UNL d   1      -1.284   0.288  -0.081  0.00  0.00     0.005 A 
ENDROOT
BRANCH   3   7
ATOM      7  N   UNL d   1       1.868   2.202  -0.217  0.00  0.00    -0.325 N 
ATOM      8  C   UNL d   1       2.952   2.212  -1.079  0.00  0.00     0.218 C 
ATOM      9  O   UNL d   1       3.277   1.264  -1.786  0.00  0.00    -0.274 OA
ATOM     10  C   UNL d   1       3.696   3.519  -1.122  0.00  0.00     0.117 C 
ATOM     11  H   UNL d   1       1.464   3.109  -0.011  0.00  0.00     0.169 HD
ENDBRANCH   3   7
BRANCH   1  12
ATOM     12  N   UNL d   1       2.856  -0.583   0.281  0.00  0.00    -0.111 N 
ATOM     13  O   UNL d   1       3.390  -1.453  -0.419  0.00  0.00    -0.532 OA
ATOM     14  O   UNL d   1       3.388   0.004   1.233  0.00  0.00    -0.532 OA
ENDBRANCH   1  12
BRANCH   2  15
ATOM     15  N   UNL d   1       0.911  -2.691   0.125  0.00  0.00    -0.113 N 
ATOM     16  O   UNL d   1       1.400  -3.029   1.208  0.00  0.00    -0.532 OA
ATOM     17  O   UNL d   1       0.637  -3.438  -0.821  0.00  0.00    -0.532 OA
ENDBRANCH   2  15
TORSDOF 3
