REMARK  4 active torsions:
REMARK  status: ('A' for Active; 'I' for Inactive)
REMARK    1  A    between atoms: C_5  and  S_1 
REMARK    2  A    between atoms: N_11  and  S_1 
REMARK       I    between atoms: C_2  and  N_7 
REMARK       I    between atoms: N_3  and  C_2 
REMARK    3  A    between atoms: C_4  and  N_3 
REMARK    4  A    between atoms: N_7  and  C_13 
ROOT
ATOM      1  C   UNL d   1       0.230   0.075   1.898  0.00  0.00     0.076 A 
ATOM      2  C   UNL d   1       0.192  -1.335   1.934  0.00  0.00     0.054 A 
ATOM      3  C   UNL d   1       0.110  -1.980   3.171  0.00  0.00     0.037 A 
ATOM      4  C   UNL d   1       0.156   0.842   3.066  0.00  0.00     0.025 A 
ATOM      5  C   UNL d   1       0.036   0.201   4.290  0.00  0.00     0.004 A 
ATOM      6  C   UNL d   1       0.017  -1.194   4.336  0.00  0.00     0.029 A 
ENDROOT
BRANCH   3   7
ATOM      7  N   UNL d   1       0.234  -3.363   3.405  0.00  0.00    -0.309 N 
ATOM      8  C   UNL d   1       0.425  -4.466   2.630  0.00  0.00     0.325 C 
ATOM      9  N   UNL d   1      -0.002  -4.430   1.339  0.00  0.00    -0.303 N 
ATOM     10  O   UNL d   1       0.911  -5.452   3.187  0.00  0.00    -0.247 OA
ATOM     11  H   UNL d   1      -0.808  -3.859   1.136  0.00  0.00     0.171 HD
ATOM     12  H   UNL d   1       0.404  -3.621   4.371  0.00  0.00     0.170 HD
BRANCH   9  13
ATOM     13  C   UNL d   1       0.243  -5.476   0.473  0.00  0.00     0.077 A 
ATOM     14  S   UNL d   1      -0.883  -5.629  -0.788  0.00  0.00    -0.084 SA
ATOM     15  C   UNL d   1      -0.053  -6.981  -1.438  0.00  0.00     0.052 A 
ATOM     16  C   UNL d   1       1.082  -7.282  -0.716  0.00  0.00     0.010 A 
ATOM     17  C   UNL d   1       1.236  -6.427   0.418  0.00  0.00     0.038 A 
ENDBRANCH   9  13
ENDBRANCH   3   7
BRANCH   1  18
ATOM     18  S   UNL d   1       0.506   0.936   0.368  0.00  0.00     0.239 S 
ATOM     19  O   UNL d   1       0.222   0.022  -0.717  0.00  0.00    -0.206 OA
ATOM     20  O   UNL d   1       1.750   1.654   0.491  0.00  0.00    -0.206 OA
BRANCH  18  21
ATOM     21  N   UNL d   1      -0.707   2.104   0.357  0.00  0.00    -0.225 NA
ATOM     22  H   UNL d   1      -1.490   1.914   0.976  0.00  0.00     0.136 HD
ATOM     23  H   UNL d   1      -0.296   3.032   0.479  0.00  0.00     0.136 HD
ENDBRANCH  18  21
ENDBRANCH   1  18
TORSDOF 4
