REMARK  2 active torsions:
REMARK  status: ('A' for Active; 'I' for Inactive)
REMARK    1  A    between atoms: C_13  and  C_4 
REMARK    2  A    between atoms: O_21  and  C_17 
ROOT
ATOM      1  C   UNL d   1      -0.036   0.709   0.058  0.00  0.00     0.024 C 
ATOM      2  C   UNL d   1      -0.070  -0.639   0.074  0.00  0.00     0.021 C 
ATOM      3  C   UNL d   1      -2.582   0.701   0.050  0.00  0.00     0.057 C 
ATOM      4  C   UNL d   1      -1.304   1.538  -0.069  0.00  0.00     0.103 C 
ATOM      5  N   UNL d   1      -1.288  -1.295   0.041  0.00  0.00    -0.362 N 
ATOM      6  C   UNL d   1      -2.520  -0.651   0.074  0.00  0.00     0.023 C 
ATOM      7  C   UNL d   1       1.264   1.428   0.176  0.00  0.00     0.159 C 
ATOM      8  C   UNL d   1      -3.819   1.398   0.123  0.00  0.00     0.098 C 
ATOM      9  N   UNL d   1      -4.839   1.965   0.188  0.00  0.00    -0.192 NA
ATOM     10  C   UNL d   1       1.183  -1.491   0.089  0.00  0.00     0.067 C 
ATOM     11  C   UNL d   1       2.443  -0.732  -0.388  0.00  0.00    -0.036 C 
ATOM     12  C   UNL d   1       2.518   0.605   0.363  0.00  0.00     0.092 C 
ATOM     13  O   UNL d   1       1.311   2.656   0.204  0.00  0.00    -0.293 OA
ATOM     14  C   UNL d   1      -3.730  -1.556   0.108  0.00  0.00     0.069 C 
ATOM     15  C   UNL d   1       2.400  -0.496  -1.914  0.00  0.00     0.015 C 
ATOM     16  C   UNL d   1       3.704  -1.553  -0.072  0.00  0.00     0.015 C 
ATOM     17  H   UNL d   1      -1.285  -2.310   0.110  0.00  0.00     0.165 HD
ENDROOT
BRANCH   4  18
ATOM     18  C   UNL d   1      -1.307   2.316  -1.390  0.00  0.00    -0.044 A 
ATOM     19  C   UNL d   1      -1.249   3.717  -1.376  0.00  0.00     0.011 A 
ATOM     20  C   UNL d   1      -1.214   4.432  -2.571  0.00  0.00     0.037 A 
ATOM     21  C   UNL d   1      -1.242   3.750  -3.783  0.00  0.00     0.065 A 
ATOM     22  C   UNL d   1      -1.307   2.362  -3.822  0.00  0.00     0.037 A 
ATOM     23  C   UNL d   1      -1.341   1.647  -2.625  0.00  0.00     0.011 A 
BRANCH  21  24
ATOM     24  O   UNL d   1      -1.189   4.490  -4.926  0.00  0.00    -0.361 OA
ATOM     25  H   UNL d   1      -1.187   3.883  -5.685  0.00  0.00     0.217 HD
ENDBRANCH  21  24
ENDBRANCH   4  18
TORSDOF 2
