REMARK  4 active torsions:
REMARK  status: ('A' for Active; 'I' for Inactive)
REMARK    1  A    between atoms: N_7  and  C_1 
REMARK    2  A    between atoms: C_12  and  N_4 
REMARK    3  A    between atoms: S_5  and  N_7 
REMARK    4  A    between atoms: C_8  and  S_5 
ROOT
ATOM      1  C   UNL d   1      -0.108  -1.208   0.261  0.00  0.00     0.116 C 
ATOM      2  C   UNL d   1       1.216  -0.604   0.579  0.00  0.00     0.291 C 
ATOM      3  N   UNL d   1      -0.277   1.018  -0.028  0.00  0.00    -0.289 N 
ATOM      4  N   UNL d   1       1.023   0.793   0.513  0.00  0.00    -0.217 N 
ATOM      5  C   UNL d   1      -0.949  -0.206  -0.040  0.00  0.00     0.052 C 
ATOM      6  O   UNL d   1       2.239  -1.244   0.775  0.00  0.00    -0.264 OA
ATOM      7  C   UNL d   1      -0.839   2.351   0.125  0.00  0.00     0.178 C 
ATOM      8  C   UNL d   1      -2.412  -0.354  -0.303  0.00  0.00     0.072 C 
ENDROOT
BRANCH   1   9
ATOM      9  N   UNL d   1      -0.359  -2.557  -0.060  0.00  0.00    -0.174 NA
ATOM     10  H   UNL d   1      -0.930  -2.727  -0.887  0.00  0.00     0.146 HD
BRANCH   9  11
ATOM     11  S   UNL d   1      -0.947  -3.509   1.194  0.00  0.00     0.246 S 
ATOM     12  O   UNL d   1      -1.524  -2.661   2.216  0.00  0.00    -0.206 OA
ATOM     13  O   UNL d   1      -1.749  -4.525   0.549  0.00  0.00    -0.206 OA
BRANCH  11  14
ATOM     14  C   UNL d   1       0.498  -4.290   1.851  0.00  0.00     0.074 A 
ATOM     15  C   UNL d   1       1.109  -3.741   2.978  0.00  0.00     0.025 A 
ATOM     16  C   UNL d   1       2.195  -4.389   3.561  0.00  0.00     0.008 A 
ATOM     17  C   UNL d   1       2.673  -5.595   3.030  0.00  0.00    -0.062 A 
ATOM     18  C   UNL d   1       2.038  -6.150   1.908  0.00  0.00     0.008 A 
ATOM     19  C   UNL d   1       3.822  -6.290   3.696  0.00  0.00     0.048 C 
ATOM     20  C   UNL d   1       0.951  -5.498   1.318  0.00  0.00     0.025 A 
ENDBRANCH  11  14
ENDBRANCH   9  11
ENDBRANCH   1   9
BRANCH   4  21
ATOM     21  C   UNL d   1       2.108   1.621   0.142  0.00  0.00     0.060 A 
ATOM     22  C   UNL d   1       2.237   2.146  -1.148  0.00  0.00     0.031 A 
ATOM     23  C   UNL d   1       3.339   2.939  -1.473  0.00  0.00     0.002 A 
ATOM     24  C   UNL d   1       4.299   3.235  -0.505  0.00  0.00     0.000 A 
ATOM     25  C   UNL d   1       4.166   2.727   0.787  0.00  0.00     0.002 A 
ATOM     26  C   UNL d   1       3.081   1.910   1.106  0.00  0.00     0.031 A 
ENDBRANCH   4  21
TORSDOF 4
