REMARK  6 active torsions:
REMARK  status: ('A' for Active; 'I' for Inactive)
REMARK    1  A    between atoms: C_5  and  C_1 
REMARK    2  A    between atoms: C_2  and  C_6 
REMARK    3  A    between atoms: C_12  and  C_3 
REMARK    4  A    between atoms: C_11  and  C_4 
REMARK       I    between atoms: N_18  and  C_5 
REMARK       I    between atoms: C_6  and  N_17 
REMARK    5  A    between atoms: N_17  and  C_20 
REMARK    6  A    between atoms: C_19  and  N_18 
ROOT
ATOM      1  C   UNL d   1      -1.931  -3.481  -0.470  0.00  0.00     0.107 C 
ATOM      2  C   UNL d   1      -2.481  -4.920  -0.749  0.00  0.00     0.107 C 
ATOM      3  C   UNL d   1      -2.432  -2.478  -1.526  0.00  0.00     0.027 C 
ATOM      4  C   UNL d   1      -2.336  -5.347  -2.219  0.00  0.00     0.027 C 
ATOM      5  C   UNL d   1      -2.817  -4.296  -3.215  0.00  0.00     0.002 C 
ATOM      6  C   UNL d   1      -2.163  -2.947  -2.954  0.00  0.00     0.002 C 
ENDROOT
BRANCH   1   7
ATOM      7  N   UNL d   1      -0.469  -3.443  -0.370  0.00  0.00    -0.350 N 
ATOM      8  C   UNL d   1       0.198  -2.387   0.240  0.00  0.00     0.257 C 
ATOM      9  O   UNL d   1      -0.378  -1.405   0.695  0.00  0.00    -0.267 OA
ATOM     10  H   UNL d   1       0.043  -4.307  -0.492  0.00  0.00     0.163 HD
BRANCH   8  11
ATOM     11  C   UNL d   1       1.641  -2.535   0.293  0.00  0.00     0.092 A 
ATOM     12  C   UNL d   1       2.599  -2.085   1.266  0.00  0.00     0.085 A 
ATOM     13  N   UNL d   1       3.841  -2.432   0.878  0.00  0.00    -0.259 N 
ATOM     14  O   UNL d   1       3.727  -3.026  -0.350  0.00  0.00    -0.241 OA
ATOM     15  HN  UNL d   1       4.704  -2.281   1.401  1.00  0.00     0.195 HD
ATOM     16  C   UNL d   1       2.426  -3.059  -0.719  0.00  0.00     0.090 A 
ATOM     17  C   UNL d   1       2.167  -3.553  -2.086  0.00  0.00     0.080 C 
BRANCH  12  18
ATOM     18  C   UNL d   1       2.453  -1.306   2.503  0.00  0.00     0.015 A 
ATOM     19  C   UNL d   1       1.514  -1.567   3.511  0.00  0.00     0.046 A 
ATOM     20 CL   UNL d   1       0.447  -2.927   3.479  0.00  0.00    -0.083 Cl
ATOM     21  C   UNL d   1       1.464  -0.758   4.658  0.00  0.00     0.025 A 
ATOM     22  C   UNL d   1       2.369   0.291   4.836  0.00  0.00     0.002 A 
ATOM     23  C   UNL d   1       3.334   0.536   3.867  0.00  0.00     0.001 A 
ATOM     24  C   UNL d   1       3.369  -0.249   2.713  0.00  0.00     0.015 A 
ENDBRANCH  12  18
ENDBRANCH   8  11
ENDBRANCH   1   7
BRANCH   2  25
ATOM     25  N   UNL d   1      -3.871  -5.072  -0.294  0.00  0.00    -0.350 N 
ATOM     26  C   UNL d   1      -4.137  -5.223   1.058  0.00  0.00     0.257 C 
ATOM     27  O   UNL d   1      -3.256  -5.397   1.886  0.00  0.00    -0.267 OA
ATOM     28  H   UNL d   1      -4.623  -4.752  -0.893  0.00  0.00     0.163 HD
BRANCH  26  29
ATOM     29  C   UNL d   1      -5.520  -5.052   1.437  0.00  0.00     0.092 A 
ATOM     30  C   UNL d   1      -6.053  -4.173   2.436  0.00  0.00     0.085 A 
ATOM     31  N   UNL d   1      -7.391  -4.279   2.477  0.00  0.00    -0.259 N 
ATOM     32  O   UNL d   1      -7.733  -5.274   1.593  0.00  0.00    -0.241 OA
ATOM     33  HN  UNL d   1      -8.029  -3.728   3.052  1.00  0.00     0.195 HD
ATOM     34  C   UNL d   1      -6.619  -5.748   0.979  0.00  0.00     0.090 A 
ATOM     35  C   UNL d   1      -6.839  -6.873   0.050  0.00  0.00     0.080 C 
BRANCH  30  36
ATOM     36  C   UNL d   1      -5.341  -3.200   3.269  0.00  0.00     0.015 A 
ATOM     37  C   UNL d   1      -5.556  -3.069   4.652  0.00  0.00     0.046 A 
ATOM     38 CL   UNL d   1      -6.641  -4.081   5.545  0.00  0.00    -0.083 Cl
ATOM     39  C   UNL d   1      -4.849  -2.107   5.389  0.00  0.00     0.025 A 
ATOM     40  C   UNL d   1      -3.909  -1.286   4.766  0.00  0.00     0.002 A 
ATOM     41  C   UNL d   1      -3.678  -1.414   3.401  0.00  0.00     0.001 A 
ATOM     42  C   UNL d   1      -4.400  -2.351   2.659  0.00  0.00     0.015 A 
ENDBRANCH  30  36
ENDBRANCH  26  29
ENDBRANCH   2  25
TORSDOF 6
