REMARK  2 active torsions:
REMARK  status: ('A' for Active; 'I' for Inactive)
REMARK    1  A    between atoms: N_3  and  N_1 
REMARK    2  A    between atoms: C_7  and  N_4 
ROOT
ATOM      1  N   UNL d   1       0.983  -0.005  -0.076  0.00  0.00    -0.244 N 
ATOM      2  HN  UNL d   1       0.392  -0.778   0.228  1.00  0.00     0.208 HD
ATOM      3  N   UNL d   1       2.142  -0.151  -0.510  0.00  0.00    -0.287 N 
ATOM      4  HN  UNL d   1       2.699   0.601  -0.915  1.00  0.00     0.188 HD
ENDROOT
BRANCH   3   5
ATOM      5  C   UNL d   1       2.588  -1.478  -0.375  0.00  0.00     0.049 A 
ATOM      6  C   UNL d   1       3.333  -2.043  -1.418  0.00  0.00     0.033 A 
ATOM      7  C   UNL d   1       3.853  -3.337  -1.308  0.00  0.00     0.026 A 
ATOM      8  C   UNL d   1       3.634  -4.073  -0.146  0.00  0.00     0.034 A 
ATOM      9  C   UNL d   1       2.906  -3.527   0.907  0.00  0.00     0.026 A 
ATOM     10 CL   UNL d   1       4.280  -5.661  -0.005  0.00  0.00    -0.084 Cl
ATOM     11  C   UNL d   1       2.392  -2.232   0.794  0.00  0.00     0.033 A 
ENDBRANCH   3   5
BRANCH   1  12
ATOM     12  N   UNL d   1       0.589   1.301  -0.051  0.00  0.00    -0.309 N 
ATOM     13  C   UNL d   1       1.040   2.268  -1.053  0.00  0.00     0.170 C 
ATOM     14  C   UNL d   1       0.876   3.691  -0.506  0.00  0.00     0.189 C 
ATOM     15  O   UNL d   1      -0.471   3.930  -0.059  0.00  0.00    -0.388 OA
ATOM     16  C   UNL d   1      -0.832   3.001   0.979  0.00  0.00     0.189 C 
ATOM     17  C   UNL d   1      -0.744   1.557   0.480  0.00  0.00     0.170 C 
ENDBRANCH   1  12
TORSDOF 2
