REMARK  2 active torsions:
REMARK  status: ('A' for Active; 'I' for Inactive)
REMARK    1  A    between atoms: S_15  and  C_9 
REMARK    2  A    between atoms: C_17  and  S_15 
ROOT
ATOM      1  N   UNL d   1       5.055   0.789   3.353  0.00  0.00    -0.197 NA
ATOM      2  C   UNL d   1       5.408   0.686   2.254  0.00  0.00     0.069 C 
ATOM      3  C   UNL d   1       5.875   0.561   0.867  0.00  0.00     0.206 C 
ENDROOT
BRANCH   3   4
ATOM      4  S   UNL d   1       5.084  -0.777  -0.070  0.00  0.00    -0.078 SA
BRANCH   4   5
ATOM      5  C   UNL d   1       3.375  -0.283   0.015  0.00  0.00     0.161 A 
ATOM      6  N   UNL d   1       2.494  -1.302   0.011  0.00  0.00    -0.320 N 
ATOM      7  C   UNL d   1       1.233  -0.846   0.011  0.00  0.00     0.137 A 
ATOM      8  HN  UNL d   1       2.751  -2.289   0.007  1.00  0.00     0.169 HD
ATOM      9  C   UNL d   1       0.837   0.479   0.011  0.00  0.00     0.104 A 
ATOM     10  N   UNL d   1       0.112  -1.622   0.007  0.00  0.00    -0.340 N 
ATOM     11  N   UNL d   1       1.784   1.456   0.011  0.00  0.00    -0.294 N 
ATOM     12  C   UNL d   1      -0.588   0.505   0.005  0.00  0.00     0.022 A 
ATOM     13  N   UNL d   1       3.063   1.042   0.008  0.00  0.00    -0.279 N 
ATOM     14  HN  UNL d   1       1.537   2.445   0.014  1.00  0.00     0.187 HD
ATOM     15  HN  UNL d   1       3.814   1.733  -0.000  1.00  0.00     0.189 HD
ATOM     16  C   UNL d   1      -1.570   1.519   0.001  0.00  0.00     0.016 A 
ATOM     17  C   UNL d   1      -1.016  -0.831   0.003  0.00  0.00     0.046 A 
ATOM     18  C   UNL d   1      -2.926   1.164  -0.001  0.00  0.00     0.001 A 
ATOM     19  C   UNL d   1      -3.315  -0.174  -0.002  0.00  0.00     0.002 A 
ATOM     20  C   UNL d   1      -2.366  -1.198  -0.001  0.00  0.00     0.030 A 
ATOM     21  H   UNL d   1       0.122  -2.631   0.008  0.00  0.00     0.167 HD
ENDBRANCH   4   5
ENDBRANCH   3   4
TORSDOF 2
