REMARK  3 active torsions:
REMARK  status: ('A' for Active; 'I' for Inactive)
REMARK    1  A    between atoms: C_13  and  C_3 
REMARK    2  A    between atoms: O_17  and  C_13 
REMARK    3  A    between atoms: C_19  and  O_17 
ROOT
ATOM      1  C   UNL d   1       0.124  -0.883   0.041  0.00  0.00     0.161 A 
ATOM      2  N   UNL d   1      -0.232   0.459   0.043  0.00  0.00    -0.239 N 
ATOM      3  C   UNL d   1       2.036   0.989   0.043  0.00  0.00     0.148 A 
ATOM      4  N   UNL d   1      -1.585   0.611   0.027  0.00  0.00    -0.295 N 
ATOM      5  HN  UNL d   1      -2.110   1.486   0.028  1.00  0.00     0.187 HD
ATOM      6  C   UNL d   1      -1.050  -1.589   0.015  0.00  0.00     0.081 A 
ATOM      7  C   UNL d   1       0.761   1.442   0.042  0.00  0.00     0.066 A 
ATOM      8  N   UNL d   1       1.433  -1.250   0.059  0.00  0.00    -0.282 N 
ATOM      9  HN  UNL d   1       1.687  -2.238   0.067  1.00  0.00     0.188 HD
ATOM     10  N   UNL d   1       2.330  -0.369   0.067  0.00  0.00    -0.292 N 
ATOM     11  HN  UNL d   1       3.307  -0.661   0.091  1.00  0.00     0.187 HD
ATOM     12  C   UNL d   1      -2.081  -0.635   0.010  0.00  0.00     0.043 A 
ATOM     13 BR   UNL d   1      -1.246  -3.450  -0.009  0.00  0.00    -0.045 Br
ATOM     14  C   UNL d   1       0.340   2.883   0.014  0.00  0.00     0.073 C 
ATOM     15  C   UNL d   1      -3.551  -0.832  -0.009  0.00  0.00     0.071 C 
ENDROOT
BRANCH   3  16
ATOM     16  C   UNL d   1       3.199   1.931  -0.059  0.00  0.00     0.313 C 
ATOM     17  O   UNL d   1       3.125   3.150  -0.131  0.00  0.00    -0.257 OA
BRANCH  16  18
ATOM     18  O   UNL d   1       4.349   1.212  -0.163  0.00  0.00    -0.317 OA
BRANCH  18  19
ATOM     19  C   UNL d   1       5.486   1.915  -0.680  0.00  0.00     0.175 C 
ATOM     20  C   UNL d   1       5.465   1.800  -2.193  0.00  0.00     0.034 C 
ENDBRANCH  18  19
ENDBRANCH  16  18
ENDBRANCH   3  16
TORSDOF 3
