REMARK  5 active torsions:
REMARK  status: ('A' for Active; 'I' for Inactive)
REMARK    1  A    between atoms: C_3  and  S_1 
REMARK    2  A    between atoms: C_4  and  S_1 
REMARK    3  A    between atoms: C_2  and  S_11 
REMARK    4  A    between atoms: C_14  and  C_4 
REMARK    5  A    between atoms: S_11  and  C_14 
ROOT
ATOM      1  C   UNL d   1       0.422   1.691  -0.461  0.00  0.00     0.156 C 
ENDROOT
BRANCH   1   2
ATOM      2  S   UNL d   1       1.078   0.140   0.112  0.00  0.00     0.176 S 
ATOM      3  O   UNL d   1       0.518  -0.912  -0.714  0.00  0.00    -0.223 OA
ATOM      4  O   UNL d   1       2.513   0.278   0.276  0.00  0.00    -0.223 OA
BRANCH   2   5
ATOM      5  C   UNL d   1       0.395  -0.037   1.748  0.00  0.00     0.059 A 
ATOM      6  C   UNL d   1      -0.457  -1.104   2.041  0.00  0.00     0.024 A 
ATOM      7  C   UNL d   1      -0.980  -1.233   3.331  0.00  0.00     0.008 A 
ATOM      8  C   UNL d   1      -0.657  -0.302   4.328  0.00  0.00    -0.062 A 
ATOM      9  C   UNL d   1       0.209   0.756   4.022  0.00  0.00     0.008 A 
ATOM     10  C   UNL d   1      -1.233  -0.452   5.707  0.00  0.00     0.048 C 
ATOM     11  C   UNL d   1       0.742   0.887   2.737  0.00  0.00     0.024 A 
ENDBRANCH   2   5
ENDBRANCH   1   2
BRANCH   1  12
ATOM     12  C   UNL d   1       0.932   2.010  -1.858  0.00  0.00     0.097 C 
BRANCH  12  13
ATOM     13  S   UNL d   1       0.250   3.632  -2.349  0.00  0.00    -0.093 SA
BRANCH  13  14
ATOM     14  C   UNL d   1       0.952   3.841  -3.968  0.00  0.00     0.143 A 
ATOM     15  N   UNL d   1       1.724   2.872  -4.489  0.00  0.00    -0.347 N 
ATOM     16  C   UNL d   1       2.214   3.102  -5.723  0.00  0.00     0.091 A 
ATOM     17  HN  UNL d   1       1.927   2.012  -3.979  1.00  0.00     0.167 HD
ATOM     18  C   UNL d   1       1.966   4.245  -6.443  0.00  0.00     0.034 A 
ATOM     19  C   UNL d   1       1.167   5.172  -5.819  0.00  0.00     0.091 A 
ATOM     20  N   UNL d   1       0.651   4.995  -4.589  0.00  0.00    -0.347 N 
ATOM     21  HN  UNL d   1       0.061   5.701  -4.149  1.00  0.00     0.167 HD
ENDBRANCH  13  14
ENDBRANCH  12  13
ENDBRANCH   1  12
TORSDOF 5
