REMARK  7 active torsions:
REMARK  status: ('A' for Active; 'I' for Inactive)
REMARK    1  A    between atoms: C_2  and  C_1 
REMARK       I    between atoms: N_11  and  C_2 
REMARK    2  A    between atoms: C_3  and  C_4 
REMARK    3  A    between atoms: O_18  and  C_5 
REMARK       I    between atoms: C_9  and  N_12 
REMARK    4  A    between atoms: C_19  and  C_9 
REMARK    5  A    between atoms: C_10  and  C_21 
REMARK    6  A    between atoms: N_12  and  N_11 
REMARK    7  A    between atoms: C_21  and  O_18 
ROOT
ATOM      1  C   UNL d   1       0.058   1.332  -0.054  0.00  0.00     0.107 A 
ATOM      2  C   UNL d   1       1.320   0.756  -0.048  0.00  0.00     0.092 A 
ATOM      3  S   UNL d   1      -1.165   0.115  -0.017  0.00  0.00    -0.094 SA
ATOM      4  C   UNL d   1       1.266  -0.670   0.059  0.00  0.00     0.045 A 
ATOM      5  C   UNL d   1      -0.022  -1.147   0.058  0.00  0.00     0.053 A 
ENDROOT
BRANCH   1   6
ATOM      6  C   UNL d   1      -0.314   2.745  -0.078  0.00  0.00     0.279 C 
ATOM      7  N   UNL d   1      -1.615   3.013  -0.482  0.00  0.00    -0.262 N 
ATOM      8  H   UNL d   1      -2.265   2.281  -0.766  0.00  0.00     0.190 HD
ATOM      9  O   UNL d   1       0.437   3.671   0.235  0.00  0.00    -0.265 OA
BRANCH   7  10
ATOM     10  N   UNL d   1      -2.099   4.326  -0.476  0.00  0.00    -0.263 N 
ATOM     11  C   UNL d   1      -3.332   4.565  -1.052  0.00  0.00     0.270 C 
ATOM     12  O   UNL d   1      -4.007   3.683  -1.575  0.00  0.00    -0.266 OA
ATOM     13  H   UNL d   1      -1.437   5.054  -0.211  0.00  0.00     0.190 HD
BRANCH  11  14
ATOM     14  C   UNL d   1      -3.826   5.968  -1.013  0.00  0.00     0.033 A 
ATOM     15  C   UNL d   1      -4.673   6.412  -2.039  0.00  0.00     0.019 A 
ATOM     16  C   UNL d   1      -5.205   7.705  -2.005  0.00  0.00     0.025 A 
ATOM     17  C   UNL d   1      -4.903   8.549  -0.937  0.00  0.00     0.034 A 
ATOM     18  C   UNL d   1      -4.069   8.113   0.092  0.00  0.00     0.025 A 
ATOM     19 CL   UNL d   1      -5.578  10.130  -0.878  0.00  0.00    -0.084 Cl
ATOM     20  C   UNL d   1      -3.527   6.823   0.056  0.00  0.00     0.019 A 
ENDBRANCH  11  14
ENDBRANCH   7  10
ENDBRANCH   1   6
BRANCH   2  21
ATOM     21  O   UNL d   1       2.441   1.523  -0.137  0.00  0.00    -0.344 OA
BRANCH  21  22
ATOM     22  C   UNL d   1       3.583   0.820  -0.639  0.00  0.00     0.234 C 
BRANCH  22  23
ATOM     23  C   UNL d   1       4.625   1.752  -1.217  0.00  0.00     0.055 A 
ATOM     24  N   UNL d   1       5.897   1.593  -0.743  0.00  0.00    -0.365 N 
ATOM     25  C   UNL d   1       6.883   2.335  -1.299  0.00  0.00     0.104 A 
ATOM     26  HN  UNL d   1       6.098   0.933   0.009  1.00  0.00     0.165 HD
ATOM     27  C   UNL d   1       6.678   3.243  -2.325  0.00  0.00     0.064 A 
ATOM     28  C   UNL d   1       5.374   3.392  -2.805  0.00  0.00     0.043 A 
ATOM     29  C   UNL d   1       4.335   2.636  -2.258  0.00  0.00     0.059 A 
ATOM     30 CL   UNL d   1       2.767   2.796  -2.956  0.00  0.00    -0.082 Cl
BRANCH  27  31
ATOM     31  C   UNL d   1       7.838   4.003  -2.889  0.00  0.00     0.418 C 
ATOM     32  F   UNL d   1       7.489   4.857  -3.890  0.00  0.00    -0.166 F 
ATOM     33  F   UNL d   1       8.470   4.761  -1.954  0.00  0.00    -0.166 F 
ATOM     34  F   UNL d   1       8.789   3.183  -3.412  0.00  0.00    -0.166 F 
ENDBRANCH  27  31
ENDBRANCH  22  23
ENDBRANCH  21  22
ENDBRANCH   2  21
TORSDOF 7
