REMARK  3 active torsions:
REMARK  status: ('A' for Active; 'I' for Inactive)
REMARK    1  A    between atoms: C_5  and  C_1 
REMARK    2  A    between atoms: N_9  and  C_2 
REMARK       I    between atoms: C_8  and  N_9 
REMARK       I    between atoms: N_10  and  C_8 
REMARK    3  A    between atoms: N_14  and  N_10 
ROOT
ATOM      1  C   UNL d   1      -1.584  -0.710  -0.218  0.00  0.00     0.097 A 
ATOM      2  C   UNL d   1      -0.167  -0.969  -0.269  0.00  0.00     0.097 A 
ATOM      3  N   UNL d   1      -1.794   0.599  -0.016  0.00  0.00    -0.258 N 
ATOM      4  HN  UNL d   1      -2.699   1.067   0.041  1.00  0.00     0.195 HD
ATOM      5  C   UNL d   1       0.418   0.265  -0.080  0.00  0.00     0.101 A 
ATOM      6  O   UNL d   1      -0.561   1.191   0.099  0.00  0.00    -0.240 OA
ATOM      7  C   UNL d   1       1.780   0.823  -0.179  0.00  0.00     0.081 C 
ENDROOT
BRANCH   2   8
ATOM      8  N   UNL d   1       0.447  -2.152  -0.626  0.00  0.00    -0.304 N 
ATOM      9  C   UNL d   1       1.411  -2.904  -0.021  0.00  0.00     0.335 C 
ATOM     10  N   UNL d   1       1.864  -2.487   1.211  0.00  0.00    -0.271 N 
ATOM     11  O   UNL d   1       1.730  -3.952  -0.566  0.00  0.00    -0.246 OA
ATOM     12  H   UNL d   1       1.509  -1.629   1.611  0.00  0.00     0.185 HD
ATOM     13  H   UNL d   1      -0.044  -2.723  -1.310  0.00  0.00     0.171 HD
BRANCH  10  14
ATOM     14  N   UNL d   1       2.640  -3.324   2.064  0.00  0.00    -0.236 NA
ATOM     15  C   UNL d   1       1.957  -4.576   2.419  0.00  0.00     0.135 C 
ATOM     16  C   UNL d   1       3.962  -3.612   1.496  0.00  0.00     0.135 C 
ENDBRANCH  10  14
ENDBRANCH   2   8
BRANCH   1  17
ATOM     17  C   UNL d   1      -2.721  -1.643  -0.295  0.00  0.00     0.038 A 
ATOM     18  C   UNL d   1      -3.769  -1.584   0.656  0.00  0.00     0.048 A 
ATOM     19 CL   UNL d   1      -3.789  -0.486   2.003  0.00  0.00    -0.083 Cl
ATOM     20  C   UNL d   1      -4.868  -2.455   0.588  0.00  0.00     0.025 A 
ATOM     21  C   UNL d   1      -4.929  -3.439  -0.390  0.00  0.00     0.003 A 
ATOM     22  C   UNL d   1      -3.904  -3.533  -1.323  0.00  0.00     0.025 A 
ATOM     23  C   UNL d   1      -2.830  -2.628  -1.300  0.00  0.00     0.048 A 
ATOM     24 CL   UNL d   1      -1.726  -2.775  -2.628  0.00  0.00    -0.083 Cl
ENDBRANCH   1  17
TORSDOF 3
