REMARK  3 active torsions:
REMARK  status: ('A' for Active; 'I' for Inactive)
REMARK    1  A    between atoms: C_11  and  C_2 
REMARK    2  A    between atoms: C_13  and  C_10 
REMARK    3  A    between atoms: C_16  and  C_12 
ROOT
ATOM      1  N   UNL d   1       0.287   0.636  -0.002  0.00  0.00    -0.235 N 
ATOM      2  C   UNL d   1      -0.833   1.454   0.015  0.00  0.00     0.144 A 
ATOM      3  C   UNL d   1       0.147  -0.760  -0.016  0.00  0.00     0.130 A 
ATOM      4  N   UNL d   1       1.591   0.988   0.005  0.00  0.00    -0.296 N 
ATOM      5  HN  UNL d   1       1.978   1.932   0.024  1.00  0.00     0.187 HD
ATOM      6  N   UNL d   1      -1.073  -1.374   0.011  0.00  0.00    -0.340 N 
ATOM      7  HN  UNL d   1      -1.159  -2.390   0.017  1.00  0.00     0.167 HD
ATOM      8  C   UNL d   1      -2.062   0.895   0.029  0.00  0.00     0.067 A 
ATOM      9  C   UNL d   1       1.422  -1.279  -0.054  0.00  0.00     0.077 A 
ATOM     10  C   UNL d   1       2.263  -0.160  -0.020  0.00  0.00     0.034 A 
ATOM     11  C   UNL d   1      -2.123  -0.601   0.029  0.00  0.00     0.046 A 
ENDROOT
BRANCH  11  12
ATOM     12  C   UNL d   1      -3.481  -1.218   0.096  0.00  0.00    -0.009 A 
ATOM     13  C   UNL d   1      -3.630  -2.431   0.785  0.00  0.00     0.015 A 
ATOM     14  C   UNL d   1      -4.888  -3.032   0.895  0.00  0.00     0.024 A 
ATOM     15  C   UNL d   1      -5.997  -2.426   0.310  0.00  0.00     0.034 A 
ATOM     16  C   UNL d   1      -5.858  -1.230  -0.393  0.00  0.00     0.024 A 
ATOM     17 CL   UNL d   1      -7.547  -3.158   0.451  0.00  0.00    -0.084 Cl
ATOM     18  C   UNL d   1      -4.600  -0.628  -0.507  0.00  0.00     0.015 A 
ENDBRANCH  11  12
BRANCH   2  19
ATOM     19  C   UNL d   1      -0.655   2.926   0.026  0.00  0.00     0.434 C 
ATOM     20  F   UNL d   1       0.613   3.396  -0.009  0.00  0.00    -0.165 F 
ATOM     21  F   UNL d   1      -1.297   3.488  -1.037  0.00  0.00    -0.165 F 
ATOM     22  F   UNL d   1      -1.235   3.469   1.132  0.00  0.00    -0.165 F 
ENDBRANCH   2  19
BRANCH  10  23
ATOM     23  C   UNL d   1       3.782  -0.233  -0.003  0.00  0.00     0.037 A 
ATOM     24  C   UNL d   1       4.541   0.819   0.785  0.00  0.00     0.011 A 
ATOM     25  C   UNL d   1       4.565   0.861  -0.704  0.00  0.00     0.011 A 
ENDBRANCH  10  23
TORSDOF 3
