REMARK  1 active torsions:
REMARK  status: ('A' for Active; 'I' for Inactive)
REMARK    1  A    between atoms: C_8  and  N_4 
ROOT
ATOM      1  C   UNL d   1       2.906  -4.775  -0.553  0.00  0.00     0.042 A 
ATOM      2  C   UNL d   1       1.660  -4.132  -0.592  0.00  0.00     0.053 A 
ATOM      3  C   UNL d   1       1.330  -3.142   0.343  0.00  0.00     0.035 A 
ATOM      4  C   UNL d   1       3.853  -4.448   0.426  0.00  0.00    -0.040 A 
ATOM      5  C   UNL d   1       3.517  -3.475   1.373  0.00  0.00     0.011 A 
ATOM      6 CL   UNL d   1       3.238  -5.963  -1.764  0.00  0.00    -0.084 Cl
ATOM      7  C   UNL d   1       2.278  -2.832   1.325  0.00  0.00     0.030 A 
ATOM      8  C   UNL d   1       5.214  -5.080   0.474  0.00  0.00     0.050 C 
ENDROOT
BRANCH   3   9
ATOM      9  N   UNL d   1       0.121  -2.442   0.209  0.00  0.00    -0.337 N 
ATOM     10  C   UNL d   1      -0.165  -1.191   0.663  0.00  0.00     0.140 C 
ATOM     11  N   UNL d   1       0.615  -0.327   1.218  0.00  0.00    -0.370 N 
ATOM     12  S   UNL d   1      -1.821  -0.674   0.397  0.00  0.00    -0.093 SA
ATOM     13  C   UNL d   1      -0.118   0.894   1.580  0.00  0.00     0.132 C 
ATOM     14  HN  UNL d   1       1.611  -0.472   1.384  1.00  0.00     0.161 HD
ATOM     15  C   UNL d   1      -1.345   1.036   0.700  0.00  0.00     0.102 C 
ATOM     16  H   UNL d   1      -0.609  -2.899  -0.318  0.00  0.00     0.168 HD
ENDBRANCH   3   9
TORSDOF 1
