REMARK  2 active torsions:
REMARK  status: ('A' for Active; 'I' for Inactive)
REMARK    1  A    between atoms: N_6  and  C_1 
REMARK    2  A    between atoms: N_5  and  C_2 
ROOT
ATOM      1  C   UNL d   1       0.637  -1.560   0.021  0.00  0.00     0.116 A 
ATOM      2  C   UNL d   1      -0.734  -1.526  -0.129  0.00  0.00     0.116 A 
ATOM      3  C   UNL d   1       0.717  -0.073   0.030  0.00  0.00     0.252 A 
ATOM      4  C   UNL d   1      -0.734  -0.044  -0.252  0.00  0.00     0.252 A 
ATOM      5  O   UNL d   1       1.541   0.803   0.152  0.00  0.00    -0.281 OA
ATOM      6  O   UNL d   1      -1.522   0.859  -0.398  0.00  0.00    -0.281 OA
ENDROOT
BRANCH   1   7
ATOM      7  N   UNL d   1       1.602  -2.460   0.149  0.00  0.00    -0.376 N 
ATOM      8  C   UNL d   1       1.523  -3.786  -0.477  0.00  0.00     0.123 C 
ATOM      9  C   UNL d   1       1.881  -4.855   0.552  0.00  0.00     0.020 C 
ATOM     10  C   UNL d   1       3.240  -4.577   1.193  0.00  0.00     0.003 C 
ATOM     11  C   UNL d   1       3.329  -3.143   1.717  0.00  0.00     0.020 C 
ATOM     12  C   UNL d   1       2.945  -2.126   0.641  0.00  0.00     0.123 C 
ENDBRANCH   1   7
BRANCH   2  13
ATOM     13  N   UNL d   1      -1.755  -2.368  -0.168  0.00  0.00    -0.372 N 
ATOM     14  C   UNL d   1      -1.761  -3.649   0.559  0.00  0.00     0.149 C 
ATOM     15  C   UNL d   1      -3.020  -3.753   1.435  0.00  0.00     0.187 C 
ATOM     16  O   UNL d   1      -4.214  -3.588   0.656  0.00  0.00    -0.388 OA
ATOM     17  C   UNL d   1      -4.225  -2.289   0.039  0.00  0.00     0.187 C 
ATOM     18  C   UNL d   1      -3.014  -2.092  -0.884  0.00  0.00     0.149 C 
ENDBRANCH   2  13
TORSDOF 2
