REMARK  1 active torsions:
REMARK  status: ('A' for Active; 'I' for Inactive)
REMARK    1  A    between atoms: N_5  and  C_1 
REMARK       I    between atoms: C_6  and  N_5 
ROOT
ATOM      1  C   UNL d   1       0.731   0.781   1.157  0.00  0.00     0.035 C 
ATOM      2  C   UNL d   1      -1.532   0.283   0.093  0.00  0.00    -0.040 C 
ATOM      3  C   UNL d   1       0.529   0.490  -1.377  0.00  0.00    -0.040 C 
ATOM      4  C   UNL d   1       0.266  -1.518   0.155  0.00  0.00    -0.040 C 
ATOM      5  C   UNL d   1      -0.793   1.043   1.212  0.00  0.00     0.040 C 
ATOM      6  C   UNL d   1       0.995  -0.740   1.273  0.00  0.00     0.040 C 
ATOM      7  C   UNL d   1       1.250   1.241  -0.233  0.00  0.00     0.040 C 
ATOM      8  C   UNL d   1      -0.989   0.757  -1.271  0.00  0.00     0.018 C 
ATOM      9  C   UNL d   1      -1.249  -1.228   0.249  0.00  0.00     0.018 C 
ATOM     10  C   UNL d   1       0.780  -1.025  -1.214  0.00  0.00     0.018 C 
ATOM     11  C   UNL d   1       1.047   0.961  -2.740  0.00  0.00     0.015 C 
ATOM     12  C   UNL d   1      -3.037   0.552   0.190  0.00  0.00     0.015 C 
ATOM     13  C   UNL d   1       0.523  -3.021   0.305  0.00  0.00     0.015 C 
ENDROOT
BRANCH   1  14
ATOM     14  N   UNL d   1       1.429   1.530   2.214  0.00  0.00    -0.352 N 
ATOM     15  C   UNL d   1       1.177   1.354   3.562  0.00  0.00     0.214 C 
ATOM     16  O   UNL d   1       0.379   0.543   4.019  0.00  0.00    -0.274 OA
ATOM     17  C   UNL d   1       1.965   2.250   4.476  0.00  0.00     0.117 C 
ATOM     18  H   UNL d   1       2.076   2.255   1.936  0.00  0.00     0.163 HD
ENDBRANCH   1  14
TORSDOF 1
