REMARK  7 active torsions:
REMARK  status: ('A' for Active; 'I' for Inactive)
REMARK    1  A    between atoms: N_3  and  S_1 
REMARK    2  A    between atoms: C_6  and  S_1 
REMARK    3  A    between atoms: C_2  and  N_3 
REMARK    4  A    between atoms: N_5  and  C_4 
REMARK    5  A    between atoms: C_8  and  C_9 
REMARK    6  A    between atoms: O_19  and  C_8 
REMARK    7  A    between atoms: C_27  and  O_19 
ROOT
ATOM      1  C   UNL d   1       0.782   1.294   2.370  0.00  0.00     0.050 A 
ATOM      2  C   UNL d   1       2.094   0.850   2.689  0.00  0.00     0.052 A 
ATOM      3  C   UNL d   1      -0.117   1.698   3.361  0.00  0.00     0.044 A 
ATOM      4  C   UNL d   1       0.272   1.714   4.700  0.00  0.00     0.041 A 
ATOM      5  C   UNL d   1       2.446   0.873   4.051  0.00  0.00     0.032 A 
ATOM      6  C   UNL d   1       1.558   1.302   5.046  0.00  0.00     0.020 A 
ENDROOT
BRANCH   1   7
ATOM      7  N   UNL d   1       0.298   1.280   1.018  0.00  0.00    -0.179 NA
ATOM      8  H   UNL d   1      -0.350   2.039   0.812  0.00  0.00     0.146 HD
BRANCH   7   9
ATOM      9  S   UNL d   1      -0.277  -0.195   0.415  0.00  0.00     0.245 S 
ATOM     10  O   UNL d   1       0.183  -1.315   1.209  0.00  0.00    -0.206 OA
ATOM     11  O   UNL d   1      -0.091  -0.153  -1.019  0.00  0.00    -0.206 OA
BRANCH   9  12
ATOM     12  C   UNL d   1      -2.035  -0.033   0.690  0.00  0.00     0.075 A 
ATOM     13  C   UNL d   1      -2.827   0.577  -0.294  0.00  0.00     0.028 A 
ATOM     14  C   UNL d   1      -4.214   0.603  -0.141  0.00  0.00     0.044 A 
ATOM     15  C   UNL d   1      -4.791   0.021   0.983  0.00  0.00     0.116 A 
ATOM     16  C   UNL d   1      -4.008  -0.574   1.969  0.00  0.00     0.044 A 
ATOM     17  F   UNL d   1      -6.124   0.018   1.110  0.00  0.00    -0.206 F 
ATOM     18  C   UNL d   1      -2.620  -0.607   1.824  0.00  0.00     0.028 A 
ENDBRANCH   9  12
ENDBRANCH   7   9
ENDBRANCH   1   7
BRANCH   2  19
ATOM     19  N   UNL d   1       2.985   0.384   1.733  0.00  0.00    -0.375 N 
ATOM     20  C   UNL d   1       4.080  -0.541   2.073  0.00  0.00     0.149 C 
ATOM     21  C   UNL d   1       4.347  -1.471   0.876  0.00  0.00     0.187 C 
ATOM     22  O   UNL d   1       4.621  -0.731  -0.326  0.00  0.00    -0.388 OA
ATOM     23  C   UNL d   1       3.505   0.122  -0.644  0.00  0.00     0.187 C 
ATOM     24  C   UNL d   1       3.248   1.131   0.488  0.00  0.00     0.149 C 
ENDBRANCH   2  19
BRANCH   4  25
ATOM     25  C   UNL d   1      -0.691   2.269   5.683  0.00  0.00     0.293 C 
ATOM     26  O   UNL d   1      -1.819   2.627   5.380  0.00  0.00    -0.259 OA
BRANCH  25  27
ATOM     27  O   UNL d   1      -0.081   2.454   6.877  0.00  0.00    -0.318 OA
BRANCH  27  28
ATOM     28  C   UNL d   1      -0.675   3.457   7.711  0.00  0.00     0.174 C 
ATOM     29  C   UNL d   1      -0.017   4.783   7.368  0.00  0.00     0.034 C 
ENDBRANCH  27  28
ENDBRANCH  25  27
ENDBRANCH   4  25
TORSDOF 7
