REMARK  4 active torsions:
REMARK  status: ('A' for Active; 'I' for Inactive)
REMARK    1  A    between atoms: C_9  and  C_1 
REMARK    2  A    between atoms: C_11  and  C_2 
REMARK    3  A    between atoms: C_7  and  N_3 
REMARK    4  A    between atoms: N_8  and  C_9 
ROOT
ATOM      1  C   UNL d   1       1.317   2.286  -0.713  0.00  0.00     0.016 A 
ATOM      2  C   UNL d   1       1.737   3.512  -1.337  0.00  0.00     0.067 A 
ATOM      3  N   UNL d   1       0.790   3.960  -2.181  0.00  0.00    -0.300 N 
ATOM      4  HN  UNL d   1       0.828   4.789  -2.774  1.00  0.00     0.187 HD
ATOM      5  N   UNL d   1      -0.211   3.083  -2.075  0.00  0.00    -0.311 N 
ATOM      6  C   UNL d   1       0.040   2.075  -1.200  0.00  0.00     0.118 A 
ATOM      7  H   UNL d   1      -1.043   3.237  -2.635  0.00  0.00     0.186 HD
ENDROOT
BRANCH   1   8
ATOM      8  C   UNL d   1       2.033   1.387   0.247  0.00  0.00     0.315 C 
BRANCH   8   9
ATOM      9  N   UNL d   1       3.359   1.008  -0.246  0.00  0.00     0.096 N 
ATOM     10  C   UNL d   1       4.105   0.227   0.766  0.00  0.00     0.292 C 
ATOM     11  C   UNL d   1       3.659  -1.247   0.959  0.00  0.00     0.154 C 
ATOM     12  N   UNL d   1       3.588  -1.935  -0.328  0.00  0.00    -0.364 N 
ATOM     13  C   UNL d   1       2.864  -1.237  -1.397  0.00  0.00     0.154 C 
ATOM     14  C   UNL d   1       3.338   0.230  -1.509  0.00  0.00     0.292 C 
BRANCH  12  15
ATOM     15  C   UNL d   1       3.783  -3.295  -0.467  0.00  0.00     0.102 A 
ATOM     16  N   UNL d   1       4.018  -3.773  -1.711  0.00  0.00    -0.352 N 
ATOM     17  C   UNL d   1       4.328  -5.080  -1.867  0.00  0.00     0.089 A 
ATOM     18  HN  UNL d   1       3.961  -3.156  -2.521  1.00  0.00     0.166 HD
ATOM     19  C   UNL d   1       4.392  -5.986  -0.828  0.00  0.00     0.017 A 
ATOM     20  C   UNL d   1       4.110  -5.518   0.443  0.00  0.00     0.005 A 
ATOM     21  C   UNL d   1       3.811  -4.166   0.623  0.00  0.00     0.048 A 
ENDBRANCH  12  15
ENDBRANCH   8   9
ENDBRANCH   1   8
BRANCH   2  22
ATOM     22  C   UNL d   1       2.984   4.271  -1.186  0.00  0.00    -0.007 A 
ATOM     23  C   UNL d   1       3.569   4.887  -2.307  0.00  0.00     0.017 A 
ATOM     24  C   UNL d   1       4.731   5.647  -2.178  0.00  0.00     0.043 A 
ATOM     25  C   UNL d   1       5.316   5.797  -0.926  0.00  0.00     0.116 A 
ATOM     26  C   UNL d   1       4.754   5.203   0.197  0.00  0.00     0.043 A 
ATOM     27  F   UNL d   1       6.427   6.533  -0.796  0.00  0.00    -0.206 F 
ATOM     28  C   UNL d   1       3.587   4.443   0.068  0.00  0.00     0.017 A 
ENDBRANCH   2  22
TORSDOF 4
