REMARK  9 active torsions:
REMARK  status: ('A' for Active; 'I' for Inactive)
REMARK    1  A    between atoms: C_5  and  C_1 
REMARK    2  A    between atoms: C_7  and  C_2 
REMARK       I    between atoms: N_9  and  C_7 
REMARK    3  A    between atoms: N_12  and  N_9 
REMARK       I    between atoms: C_10  and  N_12 
REMARK    4  A    between atoms: C_11  and  C_10 
REMARK    5  A    between atoms: C_17  and  C_11 
REMARK    6  A    between atoms: O_20  and  C_17 
REMARK    7  A    between atoms: O_21  and  C_17 
REMARK    8  A    between atoms: C_26  and  O_20 
REMARK    9  A    between atoms: C_27  and  O_21 
ROOT
ATOM      1  C   UNL d   1       0.384  -2.850  -1.898  0.00  0.00     0.275 C 
ATOM      2  N   UNL d   1      -0.567  -3.390  -1.048  0.00  0.00    -0.263 N 
ATOM      3  O   UNL d   1       0.113  -2.359  -2.986  0.00  0.00    -0.266 OA
ATOM      4  H   UNL d   1      -0.330  -3.781  -0.139  0.00  0.00     0.190 HD
ENDROOT
BRANCH   1   5
ATOM      5  C   UNL d   1       1.725  -2.852  -1.347  0.00  0.00     0.094 A 
ATOM      6  C   UNL d   1       2.729  -1.827  -1.403  0.00  0.00     0.086 A 
ATOM      7  N   UNL d   1       3.809  -2.209  -0.701  0.00  0.00    -0.259 N 
ATOM      8  O   UNL d   1       3.582  -3.497  -0.292  0.00  0.00    -0.241 OA
ATOM      9  HN  UNL d   1       4.639  -1.648  -0.509  1.00  0.00     0.195 HD
ATOM     10  C   UNL d   1       2.346  -3.892  -0.681  0.00  0.00     0.090 A 
ATOM     11  C   UNL d   1       2.017  -5.296  -0.355  0.00  0.00     0.080 C 
BRANCH   6  12
ATOM     12  C   UNL d   1       2.717  -0.503  -2.041  0.00  0.00     0.037 A 
ATOM     13  C   UNL d   1       1.702   0.438  -1.783  0.00  0.00     0.048 A 
ATOM     14 CL   UNL d   1       0.420   0.165  -0.646  0.00  0.00    -0.083 Cl
ATOM     15  C   UNL d   1       1.715   1.702  -2.395  0.00  0.00     0.025 A 
ATOM     16  C   UNL d   1       2.760   2.072  -3.234  0.00  0.00     0.003 A 
ATOM     17  C   UNL d   1       3.793   1.175  -3.474  0.00  0.00     0.025 A 
ATOM     18  C   UNL d   1       3.768  -0.106  -2.899  0.00  0.00     0.048 A 
ATOM     19 CL   UNL d   1       5.090  -1.144  -3.333  0.00  0.00    -0.083 Cl
ENDBRANCH   6  12
ENDBRANCH   1   5
BRANCH   2  20
ATOM     20  N   UNL d   1      -1.871  -3.624  -1.491  0.00  0.00    -0.267 N 
ATOM     21  C   UNL d   1      -2.599  -4.588  -0.830  0.00  0.00     0.240 C 
ATOM     22  O   UNL d   1      -2.112  -5.273   0.071  0.00  0.00    -0.272 OA
ATOM     23  H   UNL d   1      -2.304  -2.950  -2.126  0.00  0.00     0.190 HD
BRANCH  21  24
ATOM     24  C   UNL d   1      -4.021  -4.771  -1.291  0.00  0.00     0.165 C 
BRANCH  24  25
ATOM     25  C   UNL d   1      -4.859  -3.531  -1.002  0.00  0.00     0.268 C 
BRANCH  25  26
ATOM     26  O   UNL d   1      -4.465  -2.553  -1.978  0.00  0.00    -0.361 OA
BRANCH  26  27
ATOM     27  C   UNL d   1      -5.274  -1.379  -1.954  0.00  0.00     0.166 C 
ATOM     28  C   UNL d   1      -4.690  -0.386  -2.942  0.00  0.00     0.033 C 
ENDBRANCH  26  27
ENDBRANCH  25  26
BRANCH  25  29
ATOM     29  O   UNL d   1      -6.252  -3.833  -1.128  0.00  0.00    -0.361 OA
BRANCH  29  30
ATOM     30  C   UNL d   1      -6.799  -4.493   0.013  0.00  0.00     0.166 C 
ATOM     31  C   UNL d   1      -8.302  -4.604  -0.163  0.00  0.00     0.033 C 
ENDBRANCH  29  30
ENDBRANCH  25  29
ENDBRANCH  24  25
ENDBRANCH  21  24
ENDBRANCH   2  20
TORSDOF 9
