REMARK  4 active torsions:
REMARK  status: ('A' for Active; 'I' for Inactive)
REMARK    1  A    between atoms: C_2  and  C_1 
REMARK    2  A    between atoms: N_12  and  C_2 
REMARK    3  A    between atoms: O_9  and  N_4 
REMARK    4  A    between atoms: C_8  and  O_9 
ROOT
ATOM      1  C   UNL d   1       2.485  -1.958  -0.010  0.00  0.00     0.133 C 
ATOM      2  N   UNL d   1       2.585  -3.251   0.094  0.00  0.00    -0.241 N 
ATOM      3  HN  UNL d   1       3.470  -3.746   0.200  1.00  0.00     0.196 HD
ENDROOT
BRANCH   1   4
ATOM      4  C   UNL d   1       3.764  -1.167   0.021  0.00  0.00     0.048 A 
ATOM      5  C   UNL d   1       3.766   0.233  -0.017  0.00  0.00     0.133 A 
ATOM      6  C   UNL d   1       4.958   0.953  -0.007  0.00  0.00     0.085 A 
ATOM      7  F   UNL d   1       2.617   0.926  -0.051  0.00  0.00    -0.205 F 
ATOM      8  C   UNL d   1       6.164   0.268   0.044  0.00  0.00     0.119 A 
ATOM      9  C   UNL d   1       6.196  -1.121   0.090  0.00  0.00     0.043 A 
ATOM     10  F   UNL d   1       7.313   0.955   0.050  0.00  0.00    -0.206 F 
ATOM     11  C   UNL d   1       4.997  -1.840   0.080  0.00  0.00     0.021 A 
ENDBRANCH   1   4
BRANCH   1  12
ATOM     12  N   UNL d   1       1.284  -1.308  -0.149  0.00  0.00    -0.383 N 
ATOM     13  H   UNL d   1       1.233  -0.318   0.070  0.00  0.00     0.157 HD
ATOM     14  H   UNL d   1       0.459  -1.846   0.083  0.00  0.00     0.157 HD
ENDBRANCH   1  12
BRANCH   2  15
ATOM     15  O   UNL d   1       1.330  -3.888   0.041  0.00  0.00    -0.198 OA
BRANCH  15  16
ATOM     16  C   UNL d   1       1.504  -5.250   0.084  0.00  0.00     0.277 C 
ATOM     17  O   UNL d   1       2.561  -5.865   0.142  0.00  0.00    -0.264 OA
ATOM     18  C   UNL d   1       0.167  -5.936   0.056  0.00  0.00     0.128 C 
ENDBRANCH  15  16
ENDBRANCH   2  15
TORSDOF 4
