REMARK  8 active torsions:
REMARK  status: ('A' for Active; 'I' for Inactive)
REMARK    1  A    between atoms: N_2  and  C_1 
REMARK    2  A    between atoms: C_3  and  C_1 
REMARK    3  A    between atoms: N_4  and  C_1 
REMARK    4  A    between atoms: C_6  and  C_1 
REMARK       I    between atoms: C_5  and  N_2 
REMARK    5  A    between atoms: C_8  and  N_4 
REMARK    6  A    between atoms: C_7  and  C_5 
REMARK    7  A    between atoms: O_19  and  C_6 
REMARK    8  A    between atoms: C_23  and  O_19 
ROOT
ATOM      1  C   UNL d   1       1.009   0.022   0.090  0.00  0.00     0.297 C 
ENDROOT
BRANCH   1   2
ATOM      2  N   UNL d   1       0.502  -0.975  -0.845  0.00  0.00    -0.313 N 
ATOM      3  C   UNL d   1       0.536  -2.324  -0.661  0.00  0.00     0.277 C 
ATOM      4  O   UNL d   1       0.930  -2.837   0.388  0.00  0.00    -0.265 OA
ATOM      5  H   UNL d   1       0.265  -0.643  -1.765  0.00  0.00     0.166 HD
BRANCH   3   6
ATOM      6  C   UNL d   1       0.071  -3.076  -1.805  0.00  0.00     0.142 A 
ATOM      7  O   UNL d   1      -0.195  -2.415  -2.981  0.00  0.00    -0.317 OA
ATOM      8  C   UNL d   1      -0.586  -3.346  -3.889  0.00  0.00     0.143 A 
ATOM      9  C   UNL d   1      -0.594  -4.598  -3.322  0.00  0.00     0.027 A 
ATOM     10  C   UNL d   1      -0.180  -4.425  -1.980  0.00  0.00     0.045 A 
ENDBRANCH   3   6
ENDBRANCH   1   2
BRANCH   1  11
ATOM     11  C   UNL d   1       0.547  -0.163   1.595  0.00  0.00     0.442 C 
ATOM     12  F   UNL d   1      -0.435  -1.083   1.752  0.00  0.00    -0.166 F 
ATOM     13  F   UNL d   1       1.545  -0.491   2.451  0.00  0.00    -0.166 F 
ATOM     14  F   UNL d   1       0.022   1.010   2.064  0.00  0.00    -0.166 F 
ENDBRANCH   1  11
BRANCH   1  15
ATOM     15  N   UNL d   1       0.443   1.298  -0.491  0.00  0.00    -0.345 N 
ATOM     16  H   UNL d   1       0.346   1.997   0.251  0.00  0.00     0.163 HD
BRANCH  15  17
ATOM     17  C   UNL d   1       0.875   1.903  -1.679  0.00  0.00     0.069 A 
ATOM     18  C   UNL d   1       1.713   1.321  -2.647  0.00  0.00     0.142 A 
ATOM     19  F   UNL d   1       2.257   0.113  -2.448  0.00  0.00    -0.204 F 
ATOM     20  C   UNL d   1       2.015   1.954  -3.852  0.00  0.00     0.044 A 
ATOM     21  C   UNL d   1       1.456   3.192  -4.143  0.00  0.00     0.003 A 
ATOM     22  C   UNL d   1       0.597   3.785  -3.224  0.00  0.00     0.002 A 
ATOM     23  C   UNL d   1       0.308   3.146  -2.012  0.00  0.00     0.032 A 
ENDBRANCH  15  17
ENDBRANCH   1  15
BRANCH   1  24
ATOM     24  C   UNL d   1       2.545   0.146   0.258  0.00  0.00     0.318 C 
ATOM     25  O   UNL d   1       3.109   1.168   0.645  0.00  0.00    -0.260 OA
BRANCH  24  26
ATOM     26  O   UNL d   1       3.182  -1.037   0.024  0.00  0.00    -0.318 OA
BRANCH  26  27
ATOM     27  C   UNL d   1       4.588  -1.062   0.299  0.00  0.00     0.174 C 
ATOM     28  C   UNL d   1       5.353  -0.645  -0.940  0.00  0.00     0.034 C 
ENDBRANCH  26  27
ENDBRANCH  24  26
ENDBRANCH   1  24
TORSDOF 8
