REMARK  1 active torsions:
REMARK  status: ('A' for Active; 'I' for Inactive)
REMARK    1  A    between atoms: C_11  and  C_5 
ROOT
ATOM      1  C   UNL d   1       0.331   0.315   0.582  0.00  0.00     0.171 A 
ATOM      2  N   UNL d   1       1.486   0.803   0.935  0.00  0.00    -0.333 N 
ATOM      3  HN  UNL d   1       1.710   1.386   1.741  1.00  0.00     0.168 HD
ATOM      4  N   UNL d   1       0.368  -0.427  -0.549  0.00  0.00    -0.243 N 
ATOM      5  C   UNL d   1       2.343   0.333  -0.058  0.00  0.00     0.062 A 
ATOM      6  C   UNL d   1       1.653  -0.437  -0.987  0.00  0.00     0.149 A 
ATOM      7  S   UNL d   1      -1.269   0.369   1.186  0.00  0.00    -0.045 SA
ATOM      8  N   UNL d   1      -0.761  -0.993  -1.037  0.00  0.00    -0.297 N 
ATOM      9  HN  UNL d   1      -0.852  -1.568  -1.875  1.00  0.00     0.187 HD
ATOM     10  C   UNL d   1      -1.706  -0.648  -0.210  0.00  0.00     0.160 A 
ENDROOT
BRANCH   5  11
ATOM     11  C   UNL d   1       3.769   0.633  -0.084  0.00  0.00    -0.008 A 
ATOM     12  C   UNL d   1       4.336   1.405   0.938  0.00  0.00     0.014 A 
ATOM     13  C   UNL d   1       5.704   1.704   0.938  0.00  0.00     0.007 A 
ATOM     14  C   UNL d   1       6.532   1.237  -0.088  0.00  0.00    -0.062 A 
ATOM     15  C   UNL d   1       5.972   0.468  -1.111  0.00  0.00     0.007 A 
ATOM     16  C   UNL d   1       7.998   1.554  -0.077  0.00  0.00     0.048 C 
ATOM     17  C   UNL d   1       4.605   0.170  -1.110  0.00  0.00     0.014 A 
ENDBRANCH   5  11
TORSDOF 1
