REMARK  6 active torsions:
REMARK  status: ('A' for Active; 'I' for Inactive)
REMARK    1  A    between atoms: C_18  and  N_3 
REMARK    2  A    between atoms: C_14  and  N_4 
REMARK    3  A    between atoms: S_22  and  C_10 
REMARK    4  A    between atoms: C_20  and  C_13 
REMARK    5  A    between atoms: C_15  and  C_14 
REMARK    6  A    between atoms: C_28  and  S_22 
ROOT
ATOM      1  C   UNL d   1       1.842   4.403   2.034  0.00  0.00    -0.107 C 
ATOM      2  C   UNL d   1       2.509   5.291   2.502  0.00  0.00     0.013 C 
ATOM      3  C   UNL d   1       1.037   3.305   1.463  0.00  0.00     0.175 C 
ENDROOT
BRANCH   3   4
ATOM      4  S   UNL d   1       1.845   1.714   1.753  0.00  0.00    -0.080 SA
BRANCH   4   5
ATOM      5  C   UNL d   1       0.809   0.574   0.954  0.00  0.00     0.168 C 
ATOM      6  N   UNL d   1       0.454  -0.677   1.448  0.00  0.00    -0.274 N 
ATOM      7  C   UNL d   1      -0.155  -1.306   0.351  0.00  0.00     0.158 C 
ATOM      8  C   UNL d   1      -0.385  -2.720   0.201  0.00  0.00     0.099 C 
ATOM      9  N   UNL d   1      -0.363  -0.410  -0.593  0.00  0.00    -0.281 N 
ATOM     10  N   UNL d   1      -1.178  -3.373  -0.729  0.00  0.00    -0.284 N 
ATOM     11  C   UNL d   1       0.214  -3.743   0.909  0.00  0.00     0.062 C 
ATOM     12  N   UNL d   1      -1.279  -4.707  -0.473  0.00  0.00    -0.301 N 
ATOM     13  C   UNL d   1      -0.414  -4.941   0.516  0.00  0.00     0.036 C 
ATOM     14  HN  UNL d   1      -1.886  -5.383  -0.938  1.00  0.00     0.187 HD
ATOM     15  N   UNL d   1       0.243   0.766  -0.217  0.00  0.00    -0.278 N 
ATOM     16  HN  UNL d   1      -0.885  -0.562  -1.456  1.00  0.00     0.188 HD
ATOM     17  HN  UNL d   1       0.253   1.634  -0.752  1.00  0.00     0.189 HD
BRANCH   6  18
ATOM     18  C   UNL d   1       0.590  -1.187   2.779  0.00  0.00     0.043 A 
ATOM     19  C   UNL d   1       1.743  -0.959   3.537  0.00  0.00     0.030 A 
ATOM     20  C   UNL d   1       1.832  -1.435   4.848  0.00  0.00     0.002 A 
ATOM     21  C   UNL d   1       0.786  -2.167   5.402  0.00  0.00     0.000 A 
ATOM     22  C   UNL d   1      -0.353  -2.429   4.645  0.00  0.00     0.002 A 
ATOM     23  C   UNL d   1      -0.460  -1.931   3.344  0.00  0.00     0.030 A 
ENDBRANCH   6  18
BRANCH  10  24
ATOM     24  C   UNL d   1      -1.644  -2.895  -2.032  0.00  0.00     0.189 C 
BRANCH  24  25
ATOM     25  C   UNL d   1      -3.112  -2.533  -2.115  0.00  0.00    -0.017 A 
ATOM     26  C   UNL d   1      -4.119  -3.463  -2.436  0.00  0.00     0.043 A 
ATOM     27  C   UNL d   1      -5.437  -3.046  -2.668  0.00  0.00     0.048 A 
ATOM     28 CL   UNL d   1      -3.797  -5.148  -2.635  0.00  0.00    -0.084 Cl
ATOM     29  C   UNL d   1      -5.763  -1.698  -2.577  0.00  0.00     0.035 A 
ATOM     30  C   UNL d   1      -4.794  -0.765  -2.223  0.00  0.00     0.024 A 
ATOM     31 CL   UNL d   1      -7.363  -1.175  -2.936  0.00  0.00    -0.084 Cl
ATOM     32  C   UNL d   1      -3.480  -1.181  -1.988  0.00  0.00     0.012 A 
ENDBRANCH  24  25
ENDBRANCH  10  24
BRANCH  13  33
ATOM     33  C   UNL d   1      -0.208  -6.308   1.150  0.00  0.00    -0.007 C 
ATOM     34  C   UNL d   1      -0.948  -6.349   2.504  0.00  0.00     0.021 C 
ATOM     35  C   UNL d   1      -0.730  -7.459   0.271  0.00  0.00     0.021 C 
ATOM     36  C   UNL d   1       1.296  -6.561   1.409  0.00  0.00     0.021 C 
ENDBRANCH  13  33
ENDBRANCH   4   5
ENDBRANCH   3   4
TORSDOF 6
