REMARK  2 active torsions:
REMARK  status: ('A' for Active; 'I' for Inactive)
REMARK    1  A    between atoms: C_2  and  C_1 
REMARK    2  A    between atoms: C_12  and  N_3 
ROOT
ATOM      1  C   UNL d   1      -0.105  -0.697  -0.327  0.00  0.00     0.151 C 
ATOM      2  N   UNL d   1       1.233  -0.355  -0.243  0.00  0.00    -0.224 N 
ATOM      3  N   UNL d   1       1.329   0.974  -0.510  0.00  0.00     0.001 NA
ATOM      4  N   UNL d   1       0.162   1.322  -1.022  0.00  0.00    -0.007 NA
ATOM      5  N   UNL d   1      -0.730   0.287  -0.949  0.00  0.00    -0.269 N 
ATOM      6  HN  UNL d   1      -1.686   0.278  -1.304  1.00  0.00     0.185 HD
ENDROOT
BRANCH   1   7
ATOM      7  C   UNL d   1      -0.862  -1.823   0.302  0.00  0.00     0.038 A 
ATOM      8  C   UNL d   1      -2.150  -2.128  -0.090  0.00  0.00     0.104 A 
ATOM      9  N   UNL d   1      -2.641  -3.083   0.752  0.00  0.00    -0.364 N 
ATOM     10  C   UNL d   1      -1.713  -3.368   1.730  0.00  0.00     0.044 A 
ATOM     11  H   UNL d   1      -3.576  -3.468   0.716  0.00  0.00     0.165 HD
ATOM     12  C   UNL d   1      -0.557  -2.629   1.444  0.00  0.00     0.006 A 
ATOM     13  C   UNL d   1      -1.838  -4.193   2.857  0.00  0.00     0.054 A 
ATOM     14  C   UNL d   1       0.532  -2.750   2.337  0.00  0.00     0.016 A 
ATOM     15  C   UNL d   1       0.429  -3.579   3.463  0.00  0.00     0.025 A 
ATOM     16  C   UNL d   1      -0.746  -4.276   3.720  0.00  0.00     0.036 A 
ATOM     17 CL   UNL d   1      -0.869  -5.236   5.144  0.00  0.00    -0.084 Cl
ENDBRANCH   1   7
BRANCH   2  18
ATOM     18  C   UNL d   1       2.407  -1.139  -0.168  0.00  0.00     0.056 A 
ATOM     19  C   UNL d   1       2.420  -2.461  -0.627  0.00  0.00     0.032 A 
ATOM     20  C   UNL d   1       3.632  -3.158  -0.691  0.00  0.00     0.009 A 
ATOM     21  C   UNL d   1       4.827  -2.561  -0.265  0.00  0.00    -0.062 A 
ATOM     22  C   UNL d   1       4.799  -1.249   0.218  0.00  0.00     0.009 A 
ATOM     23  C   UNL d   1       6.137  -3.279  -0.417  0.00  0.00     0.048 C 
ATOM     24  C   UNL d   1       3.601  -0.536   0.255  0.00  0.00     0.032 A 
ENDBRANCH   2  18
TORSDOF 2
