REMARK  5 active torsions:
REMARK  status: ('A' for Active; 'I' for Inactive)
REMARK    1  A    between atoms: C_9  and  N_4 
REMARK    2  A    between atoms: N_8  and  C_5 
REMARK    3  A    between atoms: N_11  and  C_7 
REMARK    4  A    between atoms: C_12  and  N_8 
REMARK    5  A    between atoms: C_13  and  N_11 
ROOT
ATOM      1  C   UNL d   1      -0.392  -1.149   0.143  0.00  0.00     0.095 A 
ATOM      2  N   UNL d   1       0.879   0.734  -0.045  0.00  0.00    -0.275 N 
ATOM      3  HN  UNL d   1       1.655   1.383  -0.168  1.00  0.00     0.189 HD
ATOM      4  N   UNL d   1      -0.445   1.082   0.206  0.00  0.00    -0.218 N 
ATOM      5  C   UNL d   1       0.955  -0.577  -0.097  0.00  0.00     0.138 A 
ATOM      6  C   UNL d   1      -1.312  -0.008   0.283  0.00  0.00     0.282 A 
ATOM      7  C   UNL d   1      -0.746  -2.434   0.248  0.00  0.00     0.109 C 
ATOM      8  O   UNL d   1      -2.517  -0.097   0.445  0.00  0.00    -0.265 OA
ENDROOT
BRANCH   5   9
ATOM      9  N   UNL d   1       2.088  -1.326  -0.316  0.00  0.00    -0.341 N 
ATOM     10  H   UNL d   1       2.022  -2.325  -0.168  0.00  0.00     0.167 HD
BRANCH   9  11
ATOM     11  C   UNL d   1       3.212  -0.964  -1.087  0.00  0.00     0.033 A 
ATOM     12  C   UNL d   1       3.339   0.263  -1.746  0.00  0.00     0.029 A 
ATOM     13  C   UNL d   1       4.476   0.569  -2.492  0.00  0.00     0.002 A 
ATOM     14  C   UNL d   1       5.523  -0.344  -2.582  0.00  0.00     0.000 A 
ATOM     15  C   UNL d   1       5.433  -1.559  -1.912  0.00  0.00     0.002 A 
ATOM     16  C   UNL d   1       4.292  -1.860  -1.164  0.00  0.00     0.029 A 
ENDBRANCH   9  11
ENDBRANCH   5   9
BRANCH   7  17
ATOM     17  N   UNL d   1      -2.013  -2.919   0.462  0.00  0.00    -0.365 N 
ATOM     18  H   UNL d   1      -2.744  -2.204   0.526  0.00  0.00     0.165 HD
BRANCH  17  19
ATOM     19  C   UNL d   1      -2.441  -4.237   0.677  0.00  0.00     0.031 A 
ATOM     20  C   UNL d   1      -1.567  -5.322   0.819  0.00  0.00     0.029 A 
ATOM     21  C   UNL d   1      -2.053  -6.621   1.001  0.00  0.00     0.002 A 
ATOM     22  C   UNL d   1      -3.422  -6.856   1.034  0.00  0.00     0.000 A 
ATOM     23  C   UNL d   1      -4.308  -5.792   0.887  0.00  0.00     0.002 A 
ATOM     24  C   UNL d   1      -3.819  -4.496   0.708  0.00  0.00     0.029 A 
ENDBRANCH  17  19
ENDBRANCH   7  17
BRANCH   4  25
ATOM     25  C   UNL d   1      -0.733   2.429   0.532  0.00  0.00     0.060 A 
ATOM     26  C   UNL d   1      -1.969   2.799   1.077  0.00  0.00     0.031 A 
ATOM     27  C   UNL d   1      -2.200   4.107   1.510  0.00  0.00     0.002 A 
ATOM     28  C   UNL d   1      -1.206   5.072   1.381  0.00  0.00     0.000 A 
ATOM     29  C   UNL d   1       0.015   4.733   0.805  0.00  0.00     0.002 A 
ATOM     30  C   UNL d   1       0.250   3.421   0.385  0.00  0.00     0.031 A 
ENDBRANCH   4  25
TORSDOF 5
