REMARK  5 active torsions:
REMARK  status: ('A' for Active; 'I' for Inactive)
REMARK    1  A    between atoms: N_2  and  S_1 
REMARK    2  A    between atoms: C_10  and  S_1 
REMARK    3  A    between atoms: C_3  and  N_2 
REMARK       I    between atoms: C_4  and  N_15 
REMARK       I    between atoms: N_9  and  C_4 
REMARK    4  A    between atoms: C_11  and  N_9 
REMARK    5  A    between atoms: N_15  and  C_25 
ROOT
ATOM      1  C   UNL d   1       0.915   1.594  -0.746  0.00  0.00     0.075 A 
ATOM      2  C   UNL d   1       0.106   1.617  -1.883  0.00  0.00     0.027 A 
ATOM      3  C   UNL d   1       1.243   2.787  -0.099  0.00  0.00     0.027 A 
ATOM      4  C   UNL d   1      -0.115   4.034  -1.693  0.00  0.00     0.036 A 
ATOM      5  C   UNL d   1      -0.394   2.835  -2.362  0.00  0.00     0.031 A 
ATOM      6  C   UNL d   1       0.733   4.000  -0.580  0.00  0.00     0.031 A 
ENDROOT
BRANCH   1   7
ATOM      7  S   UNL d   1       1.347   0.043   0.009  0.00  0.00     0.248 S 
ATOM      8  O   UNL d   1       1.499   0.296   1.431  0.00  0.00    -0.205 OA
ATOM      9  O   UNL d   1       0.400  -0.958  -0.443  0.00  0.00    -0.205 OA
BRANCH   7  10
ATOM     10  N   UNL d   1       2.879  -0.303  -0.552  0.00  0.00    -0.151 NA
ATOM     11  H   UNL d   1       3.393  -0.826   0.148  0.00  0.00     0.149 HD
BRANCH  10  12
ATOM     12  C   UNL d   1       2.894  -0.942  -1.786  0.00  0.00     0.171 A 
ATOM     13  N   UNL d   1       2.698  -0.187  -2.868  0.00  0.00    -0.336 N 
ATOM     14  C   UNL d   1       2.728  -0.839  -4.045  0.00  0.00     0.009 A 
ATOM     15  HN  UNL d   1       2.537   0.818  -2.807  1.00  0.00     0.168 HD
ATOM     16  C   UNL d   1       2.570  -0.018  -5.288  0.00  0.00     0.068 C 
ATOM     17  C   UNL d   1       2.899  -2.209  -4.128  0.00  0.00     0.049 A 
ATOM     18  C   UNL d   1       3.070  -2.891  -2.936  0.00  0.00     0.009 A 
ATOM     19  N   UNL d   1       3.097  -2.261  -1.744  0.00  0.00    -0.336 N 
ATOM     20  C   UNL d   1       3.224  -4.383  -2.941  0.00  0.00     0.068 C 
ATOM     21  HN  UNL d   1       3.261  -2.758  -0.869  1.00  0.00     0.168 HD
ENDBRANCH  10  12
ENDBRANCH   7  10
ENDBRANCH   1   7
BRANCH   4  22
ATOM     22  N   UNL d   1      -0.769   5.204  -2.147  0.00  0.00    -0.309 N 
ATOM     23  C   UNL d   1      -0.752   6.436  -1.560  0.00  0.00     0.325 C 
ATOM     24  N   UNL d   1      -1.684   7.343  -1.969  0.00  0.00    -0.307 N 
ATOM     25  O   UNL d   1      -0.079   6.763  -0.583  0.00  0.00    -0.247 OA
ATOM     26  H   UNL d   1      -1.802   8.036  -1.237  0.00  0.00     0.170 HD
ATOM     27  H   UNL d   1      -1.369   5.105  -2.952  0.00  0.00     0.170 HD
BRANCH  24  28
ATOM     28  C   UNL d   1      -2.503   7.505  -3.100  0.00  0.00     0.058 A 
ATOM     29  C   UNL d   1      -2.182   7.181  -4.429  0.00  0.00     0.062 A 
ATOM     30  C   UNL d   1      -3.047   7.548  -5.471  0.00  0.00     0.050 A 
ATOM     31 CL   UNL d   1      -0.679   6.477  -4.904  0.00  0.00    -0.082 Cl
ATOM     32  C   UNL d   1      -4.236   8.219  -5.195  0.00  0.00     0.035 A 
ATOM     33  C   UNL d   1      -4.582   8.523  -3.885  0.00  0.00     0.026 A 
ATOM     34 CL   UNL d   1      -5.265   8.712  -6.483  0.00  0.00    -0.084 Cl
ATOM     35  C   UNL d   1      -3.711   8.181  -2.849  0.00  0.00     0.033 A 
ENDBRANCH  24  28
ENDBRANCH   4  22
TORSDOF 5
