REMARK  2 active torsions:
REMARK  status: ('A' for Active; 'I' for Inactive)
REMARK    1  A    between atoms: C_4  and  N_1 
REMARK    2  A    between atoms: C_9  and  C_5 
ROOT
ATOM      1  N   UNL d   1       2.423  -0.627   0.009  0.00  0.00    -0.267 N 
ATOM      2  C   UNL d   1       1.290  -1.438   0.116  0.00  0.00     0.266 A 
ATOM      3  C   UNL d   1       2.325   0.755  -0.008  0.00  0.00     0.087 A 
ATOM      4  N   UNL d   1       1.196   1.391   0.052  0.00  0.00    -0.345 N 
ATOM      5  HN  UNL d   1       1.175   2.411   0.079  1.00  0.00     0.167 HD
ATOM      6  C   UNL d   1      -0.007  -0.738   0.116  0.00  0.00     0.059 A 
ATOM      7  C   UNL d   1       0.009   0.653   0.077  0.00  0.00     0.049 A 
ATOM      8  O   UNL d   1       1.316  -2.665   0.186  0.00  0.00    -0.267 OA
ATOM      9  C   UNL d   1       3.573   1.610  -0.101  0.00  0.00     0.089 C 
ATOM     10  C   UNL d   1      -1.214  -1.447   0.106  0.00  0.00     0.019 A 
ATOM     11  C   UNL d   1      -1.206   1.341   0.022  0.00  0.00     0.030 A 
ATOM     12  C   UNL d   1      -2.421  -0.750   0.039  0.00  0.00     0.001 A 
ATOM     13  C   UNL d   1      -2.418   0.643  -0.003  0.00  0.00     0.002 A 
ENDROOT
BRANCH   1  14
ATOM     14  C   UNL d   1       3.674  -1.281  -0.133  0.00  0.00     0.059 A 
ATOM     15  C   UNL d   1       4.177  -1.647  -1.394  0.00  0.00     0.076 A 
ATOM     16  C   UNL d   1       5.452  -2.248  -1.461  0.00  0.00     0.037 A 
ATOM     17  C   UNL d   1       6.193  -2.477  -0.302  0.00  0.00     0.011 A 
ATOM     18  C   UNL d   1       5.681  -2.130   0.943  0.00  0.00     0.021 A 
ATOM     19 BR   UNL d   1       7.912  -3.252  -0.430  0.00  0.00    -0.051 Br
ATOM     20  C   UNL d   1       4.421  -1.535   1.030  0.00  0.00     0.032 A 
BRANCH  15  21
ATOM     21  C   UNL d   1       3.445  -1.418  -2.694  0.00  0.00     0.419 C 
ATOM     22  F   UNL d   1       2.239  -0.799  -2.584  0.00  0.00    -0.166 F 
ATOM     23  F   UNL d   1       4.173  -0.636  -3.543  0.00  0.00    -0.166 F 
ATOM     24  F   UNL d   1       3.211  -2.575  -3.371  0.00  0.00    -0.166 F 
ENDBRANCH  15  21
ENDBRANCH   1  14
TORSDOF 2
