REMARK  5 active torsions:
REMARK  status: ('A' for Active; 'I' for Inactive)
REMARK    1  A    between atoms: S_13  and  C_3 
REMARK    2  A    between atoms: C_5  and  C_7 
REMARK    3  A    between atoms: C_6  and  N_8 
REMARK       I    between atoms: N_8  and  C_10 
REMARK    4  A    between atoms: C_10  and  C_20 
REMARK    5  A    between atoms: C_20  and  S_13 
ROOT
ATOM      1  S   UNL d   1      -0.230   2.828   1.238  0.00  0.00    -0.085 SA
ENDROOT
BRANCH   1   2
ATOM      2  C   UNL d   1      -0.642   1.120   0.939  0.00  0.00     0.145 A 
ATOM      3  N   UNL d   1      -1.749   0.820   0.237  0.00  0.00    -0.336 N 
ATOM      4  C   UNL d   1      -2.007  -0.490   0.028  0.00  0.00     0.052 A 
ATOM      5  HN  UNL d   1      -2.366   1.549  -0.121  1.00  0.00     0.168 HD
ATOM      6  C   UNL d   1      -1.175  -1.491   0.486  0.00  0.00     0.048 A 
ATOM      7  C   UNL d   1      -0.072  -1.077   1.194  0.00  0.00     0.092 A 
ATOM      8  N   UNL d   1       0.211   0.211   1.435  0.00  0.00    -0.347 N 
ATOM      9  HN  UNL d   1       1.035   0.487   1.969  1.00  0.00     0.167 HD
BRANCH   4  10
ATOM     10  C   UNL d   1      -3.233  -0.751  -0.747  0.00  0.00     0.031 A 
ATOM     11  S   UNL d   1      -4.077  -2.247  -0.615  0.00  0.00    -0.100 SA
ATOM     12  C   UNL d   1      -5.275  -1.765  -1.732  0.00  0.00     0.050 A 
ATOM     13  C   UNL d   1      -5.059  -0.491  -2.199  0.00  0.00     0.008 A 
ATOM     14  C   UNL d   1      -3.890   0.094  -1.626  0.00  0.00     0.021 A 
ENDBRANCH   4  10
ENDBRANCH   1   2
BRANCH   1  15
ATOM     15  C   UNL d   1      -1.543   3.627   0.280  0.00  0.00     0.185 C 
BRANCH  15  16
ATOM     16  C   UNL d   1      -1.470   5.143   0.223  0.00  0.00     0.231 C 
ATOM     17  N   UNL d   1      -0.592   5.770   1.078  0.00  0.00    -0.325 N 
ATOM     18  H   UNL d   1       0.209   5.224   1.388  0.00  0.00     0.169 HD
ATOM     19  O   UNL d   1      -2.202   5.746  -0.565  0.00  0.00    -0.272 OA
BRANCH  17  20
ATOM     20  C   UNL d   1      -0.517   7.176   1.263  0.00  0.00     0.058 A 
ATOM     21  C   UNL d   1       0.722   7.784   1.564  0.00  0.00     0.082 A 
ATOM     22  C   UNL d   1       0.791   9.172   1.753  0.00  0.00     0.058 A 
ATOM     23 CL   UNL d   1       2.156   6.798   1.621  0.00  0.00    -0.080 Cl
ATOM     24 CL   UNL d   1       2.278   9.998   2.051  0.00  0.00    -0.082 Cl
ATOM     25  C   UNL d   1      -0.373   9.951   1.691  0.00  0.00     0.026 A 
ATOM     26  C   UNL d   1      -1.599   9.347   1.424  0.00  0.00     0.004 A 
ATOM     27  C   UNL d   1      -1.668   7.972   1.204  0.00  0.00     0.031 A 
ENDBRANCH  17  20
ENDBRANCH  15  16
ENDBRANCH   1  15
TORSDOF 5
