REMARK  10 active torsions:
REMARK  status: ('A' for Active; 'I' for Inactive)
REMARK    1  A    between atoms: C_3  and  C_1 
REMARK    2  A    between atoms: N_4  and  C_1 
REMARK    3  A    between atoms: C_8  and  C_1 
REMARK       I    between atoms: C_2  and  N_4 
REMARK    4  A    between atoms: O_6  and  C_2 
REMARK       I    between atoms: N_5  and  C_3 
REMARK    5  A    between atoms: C_12  and  N_5 
REMARK    6  A    between atoms: C_11  and  O_6 
REMARK    7  A    between atoms: O_10  and  C_8 
REMARK    8  A    between atoms: C_13  and  O_10 
REMARK    9  A    between atoms: C_14  and  C_12 
REMARK   10  A    between atoms: C_15  and  C_13 
ROOT
ATOM      1  C   UNL d   1       1.409   0.210  -0.460  0.00  0.00     0.207 C 
ENDROOT
BRANCH   1   2
ATOM      2  C   UNL d   1       1.296   1.400  -1.464  0.00  0.00     0.243 C 
ATOM      3  N   UNL d   1       0.094   1.759  -2.022  0.00  0.00    -0.355 N 
ATOM      4  H   UNL d   1       0.170   2.608  -2.568  0.00  0.00     0.162 HD
ATOM      5  O   UNL d   1       2.230   2.186  -1.655  0.00  0.00    -0.271 OA
BRANCH   3   6
ATOM      6  C   UNL d   1      -1.127   0.995  -2.169  0.00  0.00     0.161 C 
BRANCH   6   7
ATOM      7  C   UNL d   1      -2.115   1.630  -3.119  0.00  0.00    -0.041 A 
ATOM      8  C   UNL d   1      -1.738   1.924  -4.440  0.00  0.00     0.009 A 
ATOM      9  C   UNL d   1      -2.670   2.419  -5.354  0.00  0.00     0.001 A 
ATOM     10  C   UNL d   1      -3.992   2.614  -4.962  0.00  0.00     0.000 A 
ATOM     11  C   UNL d   1      -4.381   2.321  -3.656  0.00  0.00     0.001 A 
ATOM     12  C   UNL d   1      -3.448   1.832  -2.738  0.00  0.00     0.009 A 
ENDBRANCH   6   7
ENDBRANCH   3   6
ENDBRANCH   1   2
BRANCH   1  13
ATOM     13  N   UNL d   1       0.560  -0.938  -0.796  0.00  0.00    -0.321 N 
ATOM     14  C   UNL d   1       0.720  -1.727  -1.900  0.00  0.00     0.362 C 
ATOM     15  O   UNL d   1       1.500  -1.512  -2.806  0.00  0.00    -0.238 OA
ATOM     16  H   UNL d   1      -0.056  -1.317  -0.089  0.00  0.00     0.165 HD
BRANCH  14  17
ATOM     17  O   UNL d   1      -0.168  -2.751  -1.818  0.00  0.00    -0.294 OA
BRANCH  17  18
ATOM     18  C   UNL d   1      -0.376  -3.692  -2.908  0.00  0.00     0.061 C 
ATOM     19  C   UNL d   1       0.930  -4.298  -3.431  0.00  0.00     0.046 C 
ATOM     20  C   UNL d   1      -1.230  -4.822  -2.302  0.00  0.00     0.046 C 
ATOM     21  C   UNL d   1      -1.175  -3.025  -4.033  0.00  0.00     0.046 C 
ENDBRANCH  17  18
ENDBRANCH  14  17
ENDBRANCH   1  13
BRANCH   1  22
ATOM     22  C   UNL d   1       2.901  -0.182  -0.165  0.00  0.00     0.149 C 
ATOM     23  C   UNL d   1       2.964  -1.457   0.694  0.00  0.00     0.042 C 
BRANCH  22  24
ATOM     24  O   UNL d   1       3.588   0.854   0.593  0.00  0.00    -0.379 OA
BRANCH  24  25
ATOM     25  C   UNL d   1       5.018   0.762   0.454  0.00  0.00     0.206 C 
BRANCH  25  26
ATOM     26  C   UNL d   1       5.830   1.681   1.349  0.00  0.00    -0.035 A 
ATOM     27  C   UNL d   1       5.263   2.587   2.250  0.00  0.00     0.009 A 
ATOM     28  C   UNL d   1       6.084   3.368   3.080  0.00  0.00     0.001 A 
ATOM     29  C   UNL d   1       7.472   3.254   3.013  0.00  0.00     0.000 A 
ATOM     30  C   UNL d   1       8.053   2.367   2.112  0.00  0.00     0.001 A 
ATOM     31  C   UNL d   1       7.234   1.589   1.286  0.00  0.00     0.009 A 
ENDBRANCH  25  26
ENDBRANCH  24  25
ENDBRANCH  22  24
ENDBRANCH   1  22
TORSDOF 10
