REMARK  4 active torsions:
REMARK  status: ('A' for Active; 'I' for Inactive)
REMARK    1  A    between atoms: S_12  and  C_1 
REMARK    2  A    between atoms: C_7  and  C_6 
REMARK    3  A    between atoms: C_11  and  C_7 
REMARK    4  A    between atoms: C_8  and  S_12 
ROOT
ATOM      1  C   UNL d   1       1.959  -5.267  -0.149  0.00  0.00     0.063 C 
ATOM      2  C   UNL d   1       1.631  -3.966  -0.152  0.00  0.00     0.057 C 
ENDROOT
BRANCH   2   3
ATOM      3  S   UNL d   1      -0.039  -3.496  -0.184  0.00  0.00    -0.066 SA
BRANCH   3   4
ATOM      4  C   UNL d   1       0.049  -1.720  -0.269  0.00  0.00     0.148 A 
ATOM      5  N   UNL d   1       1.050  -1.138  -0.954  0.00  0.00    -0.341 N 
ATOM      6  C   UNL d   1       1.018   0.207  -1.054  0.00  0.00     0.009 A 
ATOM      7  HN  UNL d   1       1.797  -1.687  -1.379  1.00  0.00     0.167 HD
ATOM      8  C   UNL d   1       2.117   0.875  -1.824  0.00  0.00     0.068 C 
ATOM      9  C   UNL d   1       0.011   0.970  -0.492  0.00  0.00     0.049 A 
ATOM     10  C   UNL d   1      -0.976   0.287   0.188  0.00  0.00     0.009 A 
ATOM     11  N   UNL d   1      -0.972  -1.054   0.304  0.00  0.00    -0.341 N 
ATOM     12  C   UNL d   1      -2.118   1.031   0.812  0.00  0.00     0.068 C 
ATOM     13  HN  UNL d   1      -1.711  -1.546   0.806  1.00  0.00     0.167 HD
ENDBRANCH   3   4
ENDBRANCH   2   3
BRANCH   1  14
ATOM     14  C   UNL d   1       3.384  -5.687  -0.107  0.00  0.00     0.182 C 
ATOM     15  O   UNL d   1       4.272  -4.927   0.264  0.00  0.00    -0.288 OA
BRANCH  14  16
ATOM     16  C   UNL d   1       3.703  -7.091  -0.493  0.00  0.00     0.014 A 
ATOM     17  C   UNL d   1       2.952  -7.789  -1.446  0.00  0.00     0.016 A 
ATOM     18  C   UNL d   1       3.309  -9.092  -1.806  0.00  0.00     0.007 A 
ATOM     19  C   UNL d   1       4.423  -9.712  -1.226  0.00  0.00    -0.062 A 
ATOM     20  C   UNL d   1       5.174  -9.011  -0.276  0.00  0.00     0.007 A 
ATOM     21  C   UNL d   1       4.803 -11.105  -1.638  0.00  0.00     0.048 C 
ATOM     22  C   UNL d   1       4.821  -7.707   0.083  0.00  0.00     0.016 A 
ENDBRANCH  14  16
ENDBRANCH   1  14
TORSDOF 4
