REMARK  2 active torsions:
REMARK  status: ('A' for Active; 'I' for Inactive)
REMARK    1  A    between atoms: N_3  and  C_2 
REMARK    2  A    between atoms: C_16  and  C_4 
ROOT
ATOM      1  C   UNL d   1       0.143   1.056  -0.007  0.00  0.00     0.048 A 
ATOM      2  C   UNL d   1       1.489   1.514  -0.072  0.00  0.00     0.097 A 
ATOM      3  C   UNL d   1      -1.167   1.697   0.070  0.00  0.00    -0.003 A 
ATOM      4  C   UNL d   1      -0.005  -0.328  -0.002  0.00  0.00     0.089 A 
ATOM      5  C   UNL d   1      -2.187   0.763   0.162  0.00  0.00     0.065 A 
ATOM      6  S   UNL d   1      -1.622  -0.843   0.115  0.00  0.00    -0.082 SA
ATOM      7  N   UNL d   1       2.485   0.593  -0.126  0.00  0.00    -0.342 N 
ATOM      8  HN  UNL d   1       3.459   0.891  -0.164  1.00  0.00     0.167 HD
ATOM      9  N   UNL d   1       0.966  -1.253  -0.068  0.00  0.00    -0.346 N 
ATOM     10  HN  UNL d   1       0.793  -2.258  -0.072  1.00  0.00     0.167 HD
ATOM     11  C   UNL d   1       2.178  -0.710  -0.128  0.00  0.00     0.182 A 
ENDROOT
BRANCH   2  12
ATOM     12  N   UNL d   1       1.845   2.861   0.020  0.00  0.00    -0.264 NA
ATOM     13  C   UNL d   1       3.109   3.090   0.723  0.00  0.00     0.136 C 
ATOM     14  C   UNL d   1       3.106   4.538   1.155  0.00  0.00    -0.038 A 
ATOM     15  C   UNL d   1       3.540   4.924   2.428  0.00  0.00     0.009 A 
ATOM     16  C   UNL d   1       2.623   5.503   0.253  0.00  0.00    -0.050 A 
ATOM     17  C   UNL d   1       3.465   6.261   2.815  0.00  0.00     0.001 A 
ATOM     18  C   UNL d   1       2.972   7.218   1.927  0.00  0.00     0.001 A 
ATOM     19  C   UNL d   1       2.565   6.845   0.645  0.00  0.00     0.007 A 
ATOM     20  C   UNL d   1       2.197   5.066  -1.130  0.00  0.00     0.054 C 
ATOM     21  C   UNL d   1       1.737   3.593  -1.252  0.00  0.00     0.102 C 
ENDBRANCH   2  12
BRANCH   3  22
ATOM     22  C   UNL d   1      -1.514   3.120   0.025  0.00  0.00    -0.024 A 
ATOM     23  C   UNL d   1      -2.482   3.580  -0.882  0.00  0.00     0.012 A 
ATOM     24  C   UNL d   1      -2.765   4.943  -0.998  0.00  0.00     0.001 A 
ATOM     25  C   UNL d   1      -2.073   5.864  -0.213  0.00  0.00     0.000 A 
ATOM     26  C   UNL d   1      -1.133   5.418   0.710  0.00  0.00     0.001 A 
ATOM     27  C   UNL d   1      -0.869   4.052   0.846  0.00  0.00     0.012 A 
ENDBRANCH   3  22
TORSDOF 2
