REMARK  9 active torsions:
REMARK  status: ('A' for Active; 'I' for Inactive)
REMARK    1  A    between atoms: N_2  and  C_1 
REMARK    2  A    between atoms: C_9  and  N_2 
REMARK    3  A    between atoms: C_8  and  N_4 
REMARK    4  A    between atoms: O_5  and  C_10 
REMARK    5  A    between atoms: C_7  and  O_5 
REMARK    6  A    between atoms: C_6  and  C_8 
REMARK    7  A    between atoms: C_10  and  C_6 
REMARK    8  A    between atoms: O_16  and  C_6 
REMARK    9  A    between atoms: O_17  and  C_11 
ROOT
ATOM      1  C   UNL d   1       4.783  -0.498  -0.620  0.00  0.00     0.160 C 
ENDROOT
BRANCH   1   2
ATOM      2  C   UNL d   1       3.281  -0.643  -0.914  0.00  0.00     0.155 C 
BRANCH   2   3
ATOM      3  N   UNL d   1       2.951  -0.071  -2.211  0.00  0.00    -0.364 N 
ATOM      4  C   UNL d   1       1.806  -0.234  -2.938  0.00  0.00     0.172 C 
ATOM      5  S   UNL d   1       1.870   0.237  -4.540  0.00  0.00    -0.041 SA
ATOM      6  H   UNL d   1       3.747   0.200  -2.787  0.00  0.00     0.162 HD
BRANCH   4   7
ATOM      7  N   UNL d   1       0.730  -0.731  -2.240  0.00  0.00    -0.333 N 
ATOM      8  H   UNL d   1       0.664  -0.383  -1.294  0.00  0.00     0.168 HD
BRANCH   7   9
ATOM      9  C   UNL d   1      -0.448  -1.315  -2.759  0.00  0.00     0.034 A 
ATOM     10  C   UNL d   1      -0.456  -2.088  -3.923  0.00  0.00     0.029 A 
ATOM     11  C   UNL d   1      -1.646  -2.636  -4.407  0.00  0.00     0.002 A 
ATOM     12  C   UNL d   1      -2.838  -2.429  -3.720  0.00  0.00     0.000 A 
ATOM     13  C   UNL d   1      -2.834  -1.698  -2.533  0.00  0.00     0.002 A 
ATOM     14  C   UNL d   1      -1.640  -1.159  -2.044  0.00  0.00     0.029 A 
ENDBRANCH   7   9
ENDBRANCH   4   7
ENDBRANCH   2   3
ENDBRANCH   1   2
BRANCH   1  15
ATOM     15  C   UNL d   1       5.130  -1.091   0.752  0.00  0.00     0.209 C 
BRANCH  15  16
ATOM     16  O   UNL d   1       6.514  -0.857   1.030  0.00  0.00    -0.349 OA
BRANCH  16  17
ATOM     17  C   UNL d   1       7.004  -1.382   2.193  0.00  0.00     0.069 A 
ATOM     18  C   UNL d   1       6.248  -1.986   3.197  0.00  0.00     0.039 A 
ATOM     19  C   UNL d   1       6.868  -2.490   4.350  0.00  0.00     0.039 A 
ATOM     20  C   UNL d   1       8.249  -2.390   4.508  0.00  0.00     0.068 A 
ATOM     21  C   UNL d   1       9.004  -1.776   3.507  0.00  0.00     0.039 A 
ATOM     22  C   UNL d   1       8.386  -1.274   2.358  0.00  0.00     0.039 A 
BRANCH  20  23
ATOM     23  O   UNL d   1       8.967  -2.843   5.579  0.00  0.00    -0.356 OA
ATOM     24  C   UNL d   1       8.241  -3.524   6.595  0.00  0.00     0.210 C 
ENDBRANCH  20  23
ENDBRANCH  16  17
ENDBRANCH  15  16
ENDBRANCH   1  15
BRANCH   1  25
ATOM     25  O   UNL d   1       5.523  -1.148  -1.667  0.00  0.00    -0.392 OA
ATOM     26  H   UNL d   1       5.420  -2.110  -1.567  0.00  0.00     0.210 HD
ENDBRANCH   1  25
TORSDOF 9
