REMARK  4 active torsions:
REMARK  status: ('A' for Active; 'I' for Inactive)
REMARK    1  A    between atoms: N_12  and  C_1 
REMARK    2  A    between atoms: C_2  and  N_13 
REMARK    3  A    between atoms: C_8  and  C_3 
REMARK    4  A    between atoms: C_4  and  C_7 
ROOT
ATOM      1  N   UNL d   1      -0.956  -2.884   0.044  0.00  0.00    -0.377 N 
ATOM      2  N   UNL d   1      -0.622  -5.703   0.331  0.00  0.00    -0.363 N 
ATOM      3  C   UNL d   1      -0.410  -3.417   1.310  0.00  0.00     0.143 C 
ATOM      4  C   UNL d   1      -1.989  -3.776  -0.520  0.00  0.00     0.143 C 
ATOM      5  C   UNL d   1       0.278  -4.767   1.028  0.00  0.00     0.144 C 
ATOM      6  C   UNL d   1      -1.367  -5.168  -0.820  0.00  0.00     0.144 C 
ENDROOT
BRANCH   1   7
ATOM      7  C   UNL d   1      -1.085  -1.505  -0.130  0.00  0.00     0.045 A 
ATOM      8  C   UNL d   1      -1.306  -0.663   0.965  0.00  0.00     0.064 A 
ATOM      9  C   UNL d   1      -1.301   0.721   0.801  0.00  0.00     0.119 A 
ATOM     10  N   UNL d   1      -1.111   1.299  -0.412  0.00  0.00    -0.352 N 
ATOM     11  C   UNL d   1      -0.911   0.514  -1.479  0.00  0.00     0.045 A 
ATOM     12  HN  UNL d   1      -1.121   2.315  -0.510  1.00  0.00     0.166 HD
ATOM     13  C   UNL d   1      -0.893  -0.897  -1.406  0.00  0.00     0.017 A 
ATOM     14  C   UNL d   1      -0.679   1.134  -2.696  0.00  0.00     0.030 A 
ATOM     15  C   UNL d   1      -0.631  -1.616  -2.600  0.00  0.00     0.016 A 
ATOM     16  C   UNL d   1      -0.425  -0.973  -3.820  0.00  0.00     0.001 A 
ATOM     17  C   UNL d   1      -0.441   0.411  -3.868  0.00  0.00     0.002 A 
BRANCH   9  18
ATOM     18  C   UNL d   1      -1.479   1.599   2.030  0.00  0.00     0.432 C 
ATOM     19  F   UNL d   1      -1.366   2.937   1.793  0.00  0.00    -0.165 F 
ATOM     20  F   UNL d   1      -2.697   1.428   2.624  0.00  0.00    -0.165 F 
ATOM     21  F   UNL d   1      -0.561   1.319   3.004  0.00  0.00    -0.165 F 
ENDBRANCH   9  18
ENDBRANCH   1   7
BRANCH   2  22
ATOM     22  C   UNL d   1      -0.816  -6.961   0.852  0.00  0.00     0.125 A 
ATOM     23  N   UNL d   1      -0.772  -7.054   2.208  0.00  0.00    -0.350 N 
ATOM     24  C   UNL d   1      -0.969  -8.254   2.805  0.00  0.00     0.106 A 
ATOM     25  HN  UNL d   1      -0.591  -6.224   2.773  1.00  0.00     0.166 HD
ATOM     26  C   UNL d   1      -1.224  -9.425   2.119  0.00  0.00     0.065 A 
ATOM     27  C   UNL d   1      -1.253  -9.347   0.728  0.00  0.00     0.045 A 
ATOM     28  C   UNL d   1      -1.038  -8.121   0.087  0.00  0.00     0.078 A 
ATOM     29 CL   UNL d   1      -0.942  -8.178  -1.642  0.00  0.00    -0.080 Cl
BRANCH  26  30
ATOM     30  C   UNL d   1      -1.433 -10.704   2.864  0.00  0.00     0.418 C 
ATOM     31  F   UNL d   1      -1.688 -11.766   2.052  0.00  0.00    -0.166 F 
ATOM     32  F   UNL d   1      -0.352 -11.055   3.611  0.00  0.00    -0.166 F 
ATOM     33  F   UNL d   1      -2.481 -10.636   3.729  0.00  0.00    -0.166 F 
ENDBRANCH  26  30
ENDBRANCH   2  22
TORSDOF 4
