REMARK  4 active torsions:
REMARK  status: ('A' for Active; 'I' for Inactive)
REMARK    1  A    between atoms: N_2  and  C_1 
REMARK    2  A    between atoms: C_6  and  C_4 
REMARK    3  A    between atoms: C_5  and  C_10 
REMARK       I    between atoms: N_9  and  C_6 
REMARK    4  A    between atoms: C_13  and  N_9 
ROOT
ATOM      1  C   UNL d   1      -0.785  -2.340  -0.108  0.00  0.00     0.280 C 
ATOM      2  N   UNL d   1      -2.151  -2.533   0.033  0.00  0.00    -0.321 N 
ATOM      3  O   UNL d   1      -0.247  -1.251  -0.288  0.00  0.00    -0.265 OA
ATOM      4  H   UNL d   1      -2.448  -3.468   0.293  0.00  0.00     0.169 HD
ENDROOT
BRANCH   2   5
ATOM      5  C   UNL d   1      -3.139  -1.521  -0.013  0.00  0.00     0.035 A 
ATOM      6  C   UNL d   1      -2.884  -0.226  -0.476  0.00  0.00     0.045 A 
ATOM      7  C   UNL d   1      -3.864   0.779  -0.435  0.00  0.00     0.050 A 
ATOM      8  C   UNL d   1      -5.134   0.463   0.060  0.00  0.00     0.016 A 
ATOM      9  C   UNL d   1      -5.417  -0.836   0.485  0.00  0.00     0.003 A 
ATOM     10  C   UNL d   1      -4.427  -1.825   0.442  0.00  0.00     0.029 A 
BRANCH   7  11
ATOM     11  C   UNL d   1      -3.542   2.181  -0.892  0.00  0.00     0.417 C 
ATOM     12  F   UNL d   1      -2.300   2.314  -1.435  0.00  0.00    -0.166 F 
ATOM     13  F   UNL d   1      -4.409   2.632  -1.841  0.00  0.00    -0.166 F 
ATOM     14  F   UNL d   1      -3.601   3.084   0.126  0.00  0.00    -0.166 F 
ENDBRANCH   7  11
ENDBRANCH   2   5
BRANCH   1  15
ATOM     15  C   UNL d   1       0.028  -3.536   0.014  0.00  0.00     0.146 A 
ATOM     16  O   UNL d   1      -0.539  -4.776   0.178  0.00  0.00    -0.283 OA
ATOM     17  C   UNL d   1       0.504  -5.655   0.245  0.00  0.00     0.215 A 
ATOM     18  C   UNL d   1       1.720  -5.022   0.141  0.00  0.00     0.066 A 
ATOM     19  C   UNL d   1       1.410  -3.652  -0.008  0.00  0.00     0.047 A 
BRANCH  17  20
ATOM     20  N   UNL d   1       0.177  -7.037   0.405  0.00  0.00    -0.090 N 
ATOM     21  O   UNL d   1       1.130  -7.824   0.469  0.00  0.00    -0.530 OA
ATOM     22  O   UNL d   1      -1.022  -7.338   0.467  0.00  0.00    -0.530 OA
ENDBRANCH  17  20
ENDBRANCH   1  15
TORSDOF 4
