REMARK  8 active torsions:
REMARK  status: ('A' for Active; 'I' for Inactive)
REMARK    1  A    between atoms: N_3  and  C_1 
REMARK    2  A    between atoms: O_17  and  C_4 
REMARK    3  A    between atoms: C_8  and  N_11 
REMARK    4  A    between atoms: N_12  and  C_8 
REMARK    5  A    between atoms: N_11  and  N_9 
REMARK    6  A    between atoms: C_19  and  N_12 
REMARK    7  A    between atoms: C_14  and  C_18 
REMARK    8  A    between atoms: C_22  and  O_17 
ROOT
ATOM      1  C   UNL d   1       5.210  -5.935   1.245  0.00  0.00    -0.012 A 
ATOM      2  C   UNL d   1       6.538  -6.308   0.995  0.00  0.00     0.016 A 
ATOM      3  C   UNL d   1       4.861  -5.446   2.508  0.00  0.00     0.016 A 
ATOM      4  C   UNL d   1       7.152  -5.723   3.260  0.00  0.00     0.078 A 
ATOM      5  C   UNL d   1       5.833  -5.340   3.513  0.00  0.00     0.038 A 
ATOM      6  C   UNL d   1       7.507  -6.185   1.994  0.00  0.00     0.038 A 
ENDROOT
BRANCH   1   7
ATOM      7  C   UNL d   1       4.210  -6.072   0.136  0.00  0.00     0.032 C 
ATOM      8  N   UNL d   1       4.379  -7.051  -0.704  0.00  0.00    -0.302 N 
ATOM      9  HN  UNL d   1       5.108  -7.744  -0.536  1.00  0.00     0.186 HD
ATOM     10  C   UNL d   1       3.068  -5.082   0.106  0.00  0.00     0.070 C 
BRANCH   8  11
ATOM     11  N   UNL d   1       3.587  -7.154  -1.807  0.00  0.00    -0.276 N 
ATOM     12  H   UNL d   1       3.293  -6.306  -2.269  0.00  0.00     0.189 HD
BRANCH  11  13
ATOM     13  C   UNL d   1       3.365  -8.367  -2.397  0.00  0.00     0.187 C 
ATOM     14  S   UNL d   1       3.462  -9.852  -1.623  0.00  0.00    -0.040 SA
BRANCH  13  15
ATOM     15  N   UNL d   1       3.039  -8.394  -3.721  0.00  0.00    -0.358 N 
ATOM     16  H   UNL d   1       2.865  -9.351  -4.010  0.00  0.00     0.162 HD
BRANCH  15  17
ATOM     17  C   UNL d   1       3.360  -7.463  -4.824  0.00  0.00     0.021 C 
ATOM     18  C   UNL d   1       4.800  -6.935  -4.717  0.00  0.00     0.037 C 
ATOM     19  C   UNL d   1       3.248  -8.264  -6.140  0.00  0.00     0.037 C 
ATOM     20  C   UNL d   1       2.363  -6.298  -4.896  0.00  0.00     0.037 C 
ENDBRANCH  15  17
ENDBRANCH  13  15
ENDBRANCH  11  13
ENDBRANCH   8  11
ENDBRANCH   1   7
BRANCH   4  21
ATOM     21  O   UNL d   1       8.056  -5.538   4.284  0.00  0.00    -0.288 OA
BRANCH  21  22
ATOM     22  C   UNL d   1       9.124  -6.325   4.432  0.00  0.00     0.194 A 
ATOM     23  S   UNL d   1      10.516  -5.755   5.265  0.00  0.00    -0.021 SA
ATOM     24  C   UNL d   1      11.284  -7.237   4.945  0.00  0.00     0.162 A 
ATOM     25  C   UNL d   1      10.442  -8.092   4.279  0.00  0.00     0.134 A 
ATOM     26  N   UNL d   1       9.196  -7.567   3.994  0.00  0.00    -0.338 N 
ATOM     27  HN  UNL d   1       8.445  -8.065   3.516  1.00  0.00     0.168 HD
BRANCH  24  28
ATOM     28  N   UNL d   1      12.632  -7.495   5.338  0.00  0.00    -0.107 N 
ATOM     29  O   UNL d   1      13.086  -8.607   5.040  0.00  0.00    -0.531 OA
ATOM     30  O   UNL d   1      13.249  -6.603   5.933  0.00  0.00    -0.531 OA
ENDBRANCH  24  28
ENDBRANCH  21  22
ENDBRANCH   4  21
TORSDOF 8
