REMARK  4 active torsions:
REMARK  status: ('A' for Active; 'I' for Inactive)
REMARK    1  A    between atoms: C_3  and  C_1 
REMARK    2  A    between atoms: C_4  and  C_2 
REMARK    3  A    between atoms: O_12  and  C_3 
REMARK    4  A    between atoms: O_11  and  C_4 
ROOT
ATOM      1  C   UNL d   1       1.321   0.891   0.893  0.00  0.00     0.102 C 
ATOM      2  C   UNL d   1       1.162  -0.616   1.160  0.00  0.00     0.102 C 
ATOM      3  C   UNL d   1       0.252  -1.339   0.133  0.00  0.00     0.001 C 
ATOM      4  C   UNL d   1       0.233   1.416  -0.075  0.00  0.00     0.001 C 
ATOM      5  C   UNL d   1       0.559  -0.822  -1.284  0.00  0.00     0.006 C 
ATOM      6  C   UNL d   1       0.383   0.696  -1.431  0.00  0.00     0.006 C 
ATOM      7  C   UNL d   1      -1.967   0.032   0.127  0.00  0.00     0.001 C 
ATOM      8  C   UNL d   1      -1.253  -1.277   0.444  0.00  0.00     0.005 C 
ATOM      9  C   UNL d   1      -1.203   1.301   0.483  0.00  0.00     0.005 C 
ENDROOT
BRANCH   1  10
ATOM     10  C   UNL d   1       1.500   1.768   2.121  0.00  0.00     0.145 C 
ATOM     11  O   UNL d   1       0.722   2.643   2.458  0.00  0.00    -0.650 OA
BRANCH  10  12
ATOM     12  O   UNL d   1       2.609   1.484   2.838  0.00  0.00    -0.776 OA
ATOM     13  H   UNL d   1       3.168   0.752   2.517  0.00  0.00     0.167 HD
ENDBRANCH  10  12
ENDBRANCH   1  10
BRANCH   2  14
ATOM     14  C   UNL d   1       0.948  -1.115   2.581  0.00  0.00     0.145 C 
ATOM     15  O   UNL d   1       1.531  -2.109   2.997  0.00  0.00    -0.650 OA
BRANCH  14  16
ATOM     16  O   UNL d   1       0.073  -0.453   3.350  0.00  0.00    -0.776 OA
ATOM     17  H   UNL d   1      -0.372   0.340   3.000  0.00  0.00     0.167 HD
ENDBRANCH  14  16
ENDBRANCH   2  14
TORSDOF 4
