REMARK  12 active torsions:
REMARK  status: ('A' for Active; 'I' for Inactive)
REMARK    1  A    between atoms: O_25  and  C_1 
REMARK    2  A    between atoms: N_4  and  C_2 
REMARK    3  A    between atoms: N_6  and  C_3 
REMARK    4  A    between atoms: C_8  and  C_11 
REMARK    5  A    between atoms: C_9  and  C_10 
REMARK    6  A    between atoms: C_12  and  C_26 
REMARK    7  A    between atoms: O_30  and  C_12 
REMARK    8  A    between atoms: O_34  and  C_13 
REMARK    9  A    between atoms: O_33  and  C_14 
REMARK   10  A    between atoms: C_27  and  C_19 
REMARK   11  A    between atoms: C_26  and  C_27 
REMARK   12  A    between atoms: C_35  and  O_30 
ROOT
ATOM      1  C   UNL d   1       1.042  -0.043  -0.105  0.00  0.00     0.119 A 
ATOM      2  C   UNL d   1       0.406   1.207  -0.000  0.00  0.00     0.068 A 
ATOM      3  C   UNL d   1       0.320  -1.252  -0.079  0.00  0.00     0.068 A 
ATOM      4  C   UNL d   1      -1.077  -1.183  -0.041  0.00  0.00     0.039 A 
ATOM      5  C   UNL d   1      -0.992   1.233   0.050  0.00  0.00     0.039 A 
ATOM      6  C   UNL d   1      -1.750   0.050   0.011  0.00  0.00    -0.053 A 
ENDROOT
BRANCH   2   7
ATOM      7  N   UNL d   1       1.084   2.448  -0.041  0.00  0.00    -0.363 N 
ATOM      8  C   UNL d   1       2.112   2.622   0.733  0.00  0.00     0.102 C 
ATOM      9  HN  UNL d   1       0.771   3.191  -0.666  1.00  0.00     0.165 HD
BRANCH   8  10
ATOM     10  C   UNL d   1       2.825   3.919   0.776  0.00  0.00     0.014 A 
ATOM     11  C   UNL d   1       2.323   5.063   0.141  0.00  0.00     0.077 A 
ATOM     12  C   UNL d   1       2.986   6.284   0.254  0.00  0.00     0.039 A 
ATOM     13  C   UNL d   1       4.167   6.366   0.993  0.00  0.00     0.022 A 
ATOM     14  C   UNL d   1       4.679   5.223   1.607  0.00  0.00     0.011 A 
ATOM     15  C   UNL d   1       4.014   3.997   1.508  0.00  0.00     0.034 A 
ATOM     16 BR   UNL d   1       6.287   5.336   2.595  0.00  0.00    -0.051 Br
BRANCH  11  17
ATOM     17  O   UNL d   1       1.173   5.057  -0.600  0.00  0.00    -0.360 OA
ATOM     18  H   UNL d   1       0.841   4.131  -0.614  0.00  0.00     0.217 HD
ENDBRANCH  11  17
ENDBRANCH   8  10
ENDBRANCH   2   7
BRANCH   1  19
ATOM     19  O   UNL d   1       2.402  -0.088  -0.319  0.00  0.00    -0.356 OA
ATOM     20  H   UNL d   1       2.534   0.440  -1.127  0.00  0.00     0.218 HD
ENDBRANCH   1  19
BRANCH   3  21
ATOM     21  N   UNL d   1       0.908  -2.532  -0.218  0.00  0.00    -0.363 N 
ATOM     22  C   UNL d   1       1.994  -2.771   0.453  0.00  0.00     0.102 C 
ATOM     23  HN  UNL d   1       0.494  -3.241  -0.823  1.00  0.00     0.165 HD
BRANCH  22  24
ATOM     24  C   UNL d   1       2.724  -4.045   0.319  0.00  0.00     0.014 A 
ATOM     25  C   UNL d   1       2.183  -5.155  -0.344  0.00  0.00     0.077 A 
ATOM     26  C   UNL d   1       2.902  -6.341  -0.428  0.00  0.00     0.039 A 
ATOM     27  C   UNL d   1       4.180  -6.423   0.125  0.00  0.00     0.022 A 
ATOM     28  C   UNL d   1       4.729  -5.312   0.764  0.00  0.00     0.011 A 
ATOM     29  C   UNL d   1       4.008  -4.121   0.868  0.00  0.00     0.034 A 
ATOM     30 BR   UNL d   1       6.470  -5.409   1.495  0.00  0.00    -0.051 Br
BRANCH  25  31
ATOM     31  O   UNL d   1       0.940  -5.135  -0.920  0.00  0.00    -0.360 OA
ATOM     32  H   UNL d   1       0.608  -4.210  -0.858  0.00  0.00     0.217 HD
ENDBRANCH  25  31
ENDBRANCH  22  24
ENDBRANCH   3  21
BRANCH   6  33
ATOM     33  C   UNL d   1      -3.259   0.114  -0.061  0.00  0.00     0.048 C 
BRANCH  33  34
ATOM     34  C   UNL d   1      -3.955  -0.617   1.084  0.00  0.00     0.116 C 
BRANCH  34  35
ATOM     35  C   UNL d   1      -5.447  -0.405   1.038  0.00  0.00     0.259 C 
ATOM     36  O   UNL d   1      -6.046   0.254   0.201  0.00  0.00    -0.265 OA
BRANCH  35  37
ATOM     37  O   UNL d   1      -6.011  -1.000   2.127  0.00  0.00    -0.322 OA
BRANCH  37  38
ATOM     38  C   UNL d   1      -7.350  -0.589   2.435  0.00  0.00     0.174 C 
ATOM     39  C   UNL d   1      -7.271   0.645   3.315  0.00  0.00     0.034 C 
ENDBRANCH  37  38
ENDBRANCH  35  37
ENDBRANCH  34  35
ENDBRANCH  33  34
ENDBRANCH   6  33
TORSDOF 12
