REMARK  2 active torsions:
REMARK  status: ('A' for Active; 'I' for Inactive)
REMARK    1  A    between atoms: C_7  and  C_2 
REMARK    2  A    between atoms: S_8  and  C_3 
ROOT
ATOM      1  N   UNL d   1       0.795  -0.011  -0.045  0.00  0.00    -0.330 N 
ATOM      2  C   UNL d   1       0.011  -1.149   0.071  0.00  0.00     0.061 A 
ATOM      3  C   UNL d   1      -0.044   1.076   0.004  0.00  0.00     0.146 A 
ATOM      4  N   UNL d   1      -1.304   0.720   0.081  0.00  0.00    -0.344 N 
ATOM      5  HN  UNL d   1      -2.122   1.329   0.109  1.00  0.00     0.167 HD
ATOM      6  C   UNL d   1      -1.280  -0.645   0.114  0.00  0.00     0.120 A 
ATOM      7  C   UNL d   1       2.228   0.052  -0.231  0.00  0.00     0.158 C 
ENDROOT
BRANCH   2   8
ATOM      8  C   UNL d   1       0.453  -2.548   0.102  0.00  0.00    -0.008 A 
ATOM      9  C   UNL d   1       1.583  -2.954   0.825  0.00  0.00     0.015 A 
ATOM     10  C   UNL d   1       1.982  -4.296   0.839  0.00  0.00     0.024 A 
ATOM     11  C   UNL d   1       1.233  -5.250   0.156  0.00  0.00     0.034 A 
ATOM     12  C   UNL d   1       0.089  -4.874  -0.541  0.00  0.00     0.024 A 
ATOM     13 CL   UNL d   1       1.718  -6.900   0.181  0.00  0.00    -0.084 Cl
ATOM     14  C   UNL d   1      -0.295  -3.529  -0.569  0.00  0.00     0.015 A 
ENDBRANCH   2   8
BRANCH   3  15
ATOM     15  S   UNL d   1       0.523   2.716  -0.031  0.00  0.00    -0.098 SA
ATOM     16  C   UNL d   1      -1.044   3.615   0.001  0.00  0.00     0.099 C 
ENDBRANCH   3  15
TORSDOF 2
