REMARK  8 active torsions:
REMARK  status: ('A' for Active; 'I' for Inactive)
REMARK    1  A    between atoms: N_2  and  C_1 
REMARK    2  A    between atoms: N_9  and  C_1 
REMARK    3  A    between atoms: C_3  and  N_2 
REMARK    4  A    between atoms: N_4  and  N_9 
REMARK    5  A    between atoms: C_8  and  C_12 
REMARK    6  A    between atoms: O_17  and  C_11 
REMARK    7  A    between atoms: C_21  and  O_17 
REMARK    8  A    between atoms: C_22  and  C_21 
ROOT
ATOM      1  N   UNL d   1       2.726  -0.521  -0.186  0.00  0.00    -0.276 N 
ATOM      2  H   UNL d   1       2.857  -0.328   0.801  0.00  0.00     0.189 HD
ENDROOT
BRANCH   1   3
ATOM      3  N   UNL d   1       3.409   0.259  -1.073  0.00  0.00    -0.309 N 
ATOM      4  C   UNL d   1       4.534   0.777  -0.701  0.00  0.00     0.121 C 
ATOM      5  HN  UNL d   1       3.040   0.430  -2.008  1.00  0.00     0.186 HD
BRANCH   4   6
ATOM      6  C   UNL d   1       5.208   1.724  -1.610  0.00  0.00     0.014 A 
ATOM      7  C   UNL d   1       6.585   1.960  -1.607  0.00  0.00     0.080 A 
ATOM      8  C   UNL d   1       7.092   2.990  -2.414  0.00  0.00     0.037 A 
ATOM      9  C   UNL d   1       6.252   3.746  -3.238  0.00  0.00     0.003 A 
ATOM     10  C   UNL d   1       4.889   3.482  -3.270  0.00  0.00     0.001 A 
ATOM     11  C   UNL d   1       4.370   2.475  -2.459  0.00  0.00     0.015 A 
BRANCH   7  12
ATOM     12  O   UNL d   1       7.530   1.321  -0.851  0.00  0.00    -0.350 OA
BRANCH  12  13
ATOM     13  C   UNL d   1       7.456  -0.110  -0.830  0.00  0.00     0.175 C 
BRANCH  13  14
ATOM     14  C   UNL d   1       8.869  -0.695  -0.877  0.00  0.00     0.022 C 
ATOM     15  C   UNL d   1       9.518  -0.538  -2.244  0.00  0.00     0.007 C 
ENDBRANCH  13  14
ENDBRANCH  12  13
ENDBRANCH   7  12
ENDBRANCH   4   6
ENDBRANCH   1   3
BRANCH   1  16
ATOM     16  C   UNL d   1       1.470  -0.938  -0.569  0.00  0.00     0.191 C 
ATOM     17  S   UNL d   1       0.238  -1.042   0.553  0.00  0.00    -0.039 SA
BRANCH  16  18
ATOM     18  N   UNL d   1       1.224  -1.151  -1.901  0.00  0.00    -0.332 N 
ATOM     19  H   UNL d   1       0.262  -1.033  -2.189  0.00  0.00     0.168 HD
BRANCH  18  20
ATOM     20  C   UNL d   1       2.103  -1.722  -2.853  0.00  0.00     0.040 A 
ATOM     21  C   UNL d   1       1.911  -1.496  -4.228  0.00  0.00    -0.034 A 
ATOM     22  C   UNL d   1       2.718  -2.187  -5.153  0.00  0.00     0.028 A 
ATOM     23  C   UNL d   1       0.945  -0.481  -4.777  0.00  0.00     0.050 C 
ATOM     24  C   UNL d   1       3.701  -3.074  -4.718  0.00  0.00     0.011 A 
ATOM     25  C   UNL d   1       3.912  -3.276  -3.361  0.00  0.00     0.021 A 
ATOM     26 BR   UNL d   1       4.753  -4.009  -5.979  0.00  0.00    -0.051 Br
ATOM     27  C   UNL d   1       3.116  -2.602  -2.435  0.00  0.00     0.031 A 
ENDBRANCH  18  20
ENDBRANCH  16  18
ENDBRANCH   1  16
TORSDOF 8
