REMARK  3 active torsions:
REMARK  status: ('A' for Active; 'I' for Inactive)
REMARK    1  A    between atoms: C_15  and  C_2 
REMARK    2  A    between atoms: C_6  and  C_7 
REMARK    3  A    between atoms: C_18  and  C_12 
ROOT
ATOM      1  N   UNL d   1       0.347   0.699  -0.000  0.00  0.00    -0.235 N 
ATOM      2  C   UNL d   1      -0.773   1.519   0.031  0.00  0.00     0.144 A 
ATOM      3  C   UNL d   1       0.194  -0.692  -0.073  0.00  0.00     0.130 A 
ATOM      4  N   UNL d   1       1.653   1.036   0.050  0.00  0.00    -0.291 N 
ATOM      5  HN  UNL d   1       2.045   1.974   0.136  1.00  0.00     0.187 HD
ATOM      6  C   UNL d   1      -2.081  -0.540   0.017  0.00  0.00     0.053 A 
ATOM      7  N   UNL d   1      -1.026  -1.301  -0.060  0.00  0.00    -0.340 N 
ATOM      8  HN  UNL d   1      -1.110  -2.316  -0.110  1.00  0.00     0.167 HD
ATOM      9  C   UNL d   1      -1.999   0.963   0.041  0.00  0.00     0.067 A 
ATOM     10  C   UNL d   1       1.462  -1.218  -0.137  0.00  0.00     0.082 A 
ATOM     11  C   UNL d   1       2.326  -0.116  -0.037  0.00  0.00     0.069 A 
ENDROOT
BRANCH   6  12
ATOM     12  C   UNL d   1      -3.392  -1.181   0.110  0.00  0.00     0.039 A 
ATOM     13  S   UNL d   1      -4.748  -0.432  -0.616  0.00  0.00    -0.087 SA
ATOM     14  C   UNL d   1      -5.828  -1.654  -0.107  0.00  0.00     0.016 A 
ATOM     15  C   UNL d   1      -7.219  -1.692  -0.330  0.00  0.00     0.021 A 
ATOM     16  C   UNL d   1      -5.161  -2.665   0.585  0.00  0.00    -0.010 A 
ATOM     17  C   UNL d   1      -7.952  -2.777   0.153  0.00  0.00     0.025 A 
ATOM     18  C   UNL d   1      -7.313  -3.800   0.836  0.00  0.00     0.035 A 
ATOM     19  C   UNL d   1      -5.934  -3.759   1.058  0.00  0.00     0.037 A 
ATOM     20 CL   UNL d   1      -8.228  -5.134   1.423  0.00  0.00    -0.084 Cl
ATOM     21  C   UNL d   1      -3.738  -2.392   0.705  0.00  0.00    -0.031 A 
ATOM     22  C   UNL d   1      -2.810  -3.327   1.426  0.00  0.00     0.050 C 
ENDBRANCH   6  12
BRANCH   2  23
ATOM     23  C   UNL d   1      -0.597   2.992   0.046  0.00  0.00     0.434 C 
ATOM     24  F   UNL d   1       0.672   3.457   0.003  0.00  0.00    -0.165 F 
ATOM     25  F   UNL d   1      -1.245   3.556  -1.011  0.00  0.00    -0.165 F 
ATOM     26  F   UNL d   1      -1.168   3.531   1.158  0.00  0.00    -0.165 F 
ENDBRANCH   2  23
BRANCH  11  27
ATOM     27  C   UNL d   1       3.824  -0.152  -0.014  0.00  0.00     0.033 A 
ATOM     28  S   UNL d   1       4.762  -1.565  -0.219  0.00  0.00    -0.100 SA
ATOM     29  C   UNL d   1       6.225  -0.690  -0.070  0.00  0.00     0.050 A 
ATOM     30  C   UNL d   1       6.005   0.650   0.154  0.00  0.00     0.008 A 
ATOM     31  C   UNL d   1       4.615   0.963   0.183  0.00  0.00     0.021 A 
ENDBRANCH  11  27
TORSDOF 3
