REMARK  5 active torsions:
REMARK  status: ('A' for Active; 'I' for Inactive)
REMARK    1  A    between atoms: N_2  and  C_1 
REMARK    2  A    between atoms: N_4  and  C_1 
REMARK       I    between atoms: C_3  and  N_2 
REMARK    3  A    between atoms: O_13  and  C_3 
REMARK    4  A    between atoms: C_5  and  N_4 
REMARK    5  A    between atoms: C_16  and  O_13 
ROOT
ATOM      1  N   UNL d   1       0.149   0.934  -0.525  0.00  0.00    -0.330 N 
ATOM      2  H   UNL d   1      -0.659   0.569  -1.031  0.00  0.00     0.168 HD
ENDROOT
BRANCH   1   3
ATOM      3  C   UNL d   1       1.052  -0.011  -0.103  0.00  0.00     0.180 C 
ATOM      4  S   UNL d   1       2.708   0.171   0.069  0.00  0.00    -0.040 SA
BRANCH   3   5
ATOM      5  N   UNL d   1       0.529  -1.250   0.191  0.00  0.00    -0.279 N 
ATOM      6  C   UNL d   1      -0.784  -1.579   0.401  0.00  0.00     0.366 C 
ATOM      7  O   UNL d   1      -1.753  -0.943   0.010  0.00  0.00    -0.238 OA
ATOM      8  H   UNL d   1       1.189  -1.908   0.578  0.00  0.00     0.173 HD
BRANCH   6   9
ATOM      9  O   UNL d   1      -0.832  -2.724   1.122  0.00  0.00    -0.304 OA
BRANCH   9  10
ATOM     10  C   UNL d   1      -2.109  -3.060   1.680  0.00  0.00     0.176 C 
ATOM     11  C   UNL d   1      -2.190  -2.464   3.074  0.00  0.00     0.034 C 
ENDBRANCH   9  10
ENDBRANCH   6   9
ENDBRANCH   3   5
ENDBRANCH   1   3
BRANCH   1  12
ATOM     12  C   UNL d   1       0.268   2.340  -0.528  0.00  0.00     0.073 A 
ATOM     13  C   UNL d   1      -0.412   3.066  -1.515  0.00  0.00     0.145 A 
ATOM     14  C   UNL d   1      -0.349   4.454  -1.564  0.00  0.00     0.086 A 
ATOM     15  F   UNL d   1      -1.110   2.415  -2.459  0.00  0.00    -0.204 F 
ATOM     16  C   UNL d   1       0.366   5.125  -0.583  0.00  0.00     0.119 A 
ATOM     17  C   UNL d   1       1.009   4.433   0.437  0.00  0.00     0.044 A 
ATOM     18  F   UNL d   1       0.428   6.463  -0.610  0.00  0.00    -0.206 F 
ATOM     19  C   UNL d   1       0.962   3.037   0.465  0.00  0.00     0.036 A 
ENDBRANCH   1  12
TORSDOF 5
