REMARK  4 active torsions:
REMARK  status: ('A' for Active; 'I' for Inactive)
REMARK    1  A    between atoms: N_5  and  N_1 
REMARK    2  A    between atoms: C_4  and  N_5 
REMARK    3  A    between atoms: N_8  and  C_4 
REMARK    4  A    between atoms: C_12  and  N_8 
ROOT
ATOM      1  N   UNL d   1      -0.928   0.186   1.925  0.00  0.00    -0.293 N 
ATOM      2  H   UNL d   1      -0.592   0.769   1.162  0.00  0.00     0.183 HD
ENDROOT
BRANCH   1   3
ATOM      3  C   UNL d   1      -1.166   0.852   3.099  0.00  0.00     0.183 C 
ATOM      4  S   UNL d   1      -2.443   0.586   4.148  0.00  0.00    -0.040 SA
BRANCH   3   5
ATOM      5  N   UNL d   1      -0.247   1.797   3.458  0.00  0.00    -0.358 N 
ATOM      6  H   UNL d   1      -0.492   2.189   4.364  0.00  0.00     0.162 HD
BRANCH   5   7
ATOM      7  C   UNL d   1       1.190   1.909   3.111  0.00  0.00     0.021 C 
ATOM      8  C   UNL d   1       1.428   2.215   1.624  0.00  0.00     0.037 C 
ATOM      9  C   UNL d   1       1.772   3.080   3.929  0.00  0.00     0.037 C 
ATOM     10  C   UNL d   1       1.932   0.623   3.508  0.00  0.00     0.037 C 
ENDBRANCH   5   7
ENDBRANCH   3   5
ENDBRANCH   1   3
BRANCH   1  11
ATOM     11  N   UNL d   1      -1.652  -0.978   1.567  0.00  0.00    -0.199 NA
ATOM     12  C   UNL d   1      -0.772  -2.080   1.110  0.00  0.00     0.151 C 
ATOM     13  S   UNL d   1      -1.974  -3.416   0.715  0.00  0.00    -0.144 SA
ATOM     14  C   UNL d   1      -0.082  -1.628  -0.196  0.00  0.00     0.108 C 
ATOM     15  C   UNL d   1      -3.243  -2.175   0.266  0.00  0.00     0.108 C 
ATOM     16  C   UNL d   1      -2.511  -0.819   0.372  0.00  0.00     0.151 C 
ATOM     17  S   UNL d   1      -1.346  -0.611  -1.044  0.00  0.00    -0.144 SA
ENDBRANCH   1  11
TORSDOF 4
