REMARK  7 active torsions:
REMARK  status: ('A' for Active; 'I' for Inactive)
REMARK    1  A    between atoms: C_5  and  C_1 
REMARK    2  A    between atoms: C_8  and  C_1 
REMARK    3  A    between atoms: C_3  and  C_2 
REMARK    4  A    between atoms: C_6  and  C_3 
REMARK    5  A    between atoms: C_4  and  C_5 
REMARK    6  A    between atoms: C_7  and  C_4 
REMARK    7  A    between atoms: O_22  and  C_16 
ROOT
ATOM      1  C   UNL d   1       1.107   0.100  -0.253  0.00  0.00    -0.037 C 
ATOM      2  C   UNL d   1       0.649  -1.172  -0.256  0.00  0.00     0.064 C 
ENDROOT
BRANCH   1   3
ATOM      3  C   UNL d   1       0.069   1.180   0.038  0.00  0.00     0.123 C 
BRANCH   3   4
ATOM      4  C   UNL d   1      -0.510   1.944  -1.155  0.00  0.00     0.163 C 
ATOM      5  O   UNL d   1      -0.159   1.763  -2.314  0.00  0.00    -0.292 OA
BRANCH   4   6
ATOM      6  C   UNL d   1      -1.601   2.936  -0.848  0.00  0.00     0.010 A 
ATOM      7  C   UNL d   1      -1.920   3.305   0.471  0.00  0.00     0.018 A 
ATOM      8  C   UNL d   1      -2.973   4.185   0.727  0.00  0.00     0.043 A 
ATOM      9  C   UNL d   1      -3.708   4.702  -0.332  0.00  0.00     0.116 A 
ATOM     10  C   UNL d   1      -3.398   4.366  -1.644  0.00  0.00     0.043 A 
ATOM     11  F   UNL d   1      -4.728   5.532  -0.080  0.00  0.00    -0.206 F 
ATOM     12  C   UNL d   1      -2.342   3.485  -1.906  0.00  0.00     0.018 A 
ENDBRANCH   4   6
ENDBRANCH   3   4
ENDBRANCH   1   3
BRANCH   1  13
ATOM     13  C   UNL d   1       2.530   0.538  -0.406  0.00  0.00    -0.029 A 
ATOM     14  C   UNL d   1       3.418  -0.128  -1.266  0.00  0.00     0.012 A 
ATOM     15  C   UNL d   1       4.751   0.286  -1.410  0.00  0.00     0.001 A 
ATOM     16  C   UNL d   1       5.215   1.409  -0.734  0.00  0.00     0.000 A 
ATOM     17  C   UNL d   1       4.354   2.104   0.102  0.00  0.00     0.001 A 
ATOM     18  C   UNL d   1       3.035   1.664   0.274  0.00  0.00     0.012 A 
ENDBRANCH   1  13
BRANCH   2  19
ATOM     19  C   UNL d   1       1.290  -2.516  -0.325  0.00  0.00     0.182 C 
ATOM     20  O   UNL d   1       0.699  -3.422  -0.909  0.00  0.00    -0.288 OA
BRANCH  19  21
ATOM     21  C   UNL d   1       2.572  -2.800   0.360  0.00  0.00     0.014 A 
ATOM     22  C   UNL d   1       2.985  -2.109   1.502  0.00  0.00     0.018 A 
ATOM     23  C   UNL d   1       4.258  -2.337   2.037  0.00  0.00     0.037 A 
ATOM     24  C   UNL d   1       5.110  -3.272   1.448  0.00  0.00     0.068 A 
ATOM     25  C   UNL d   1       4.654  -4.033   0.371  0.00  0.00     0.037 A 
ATOM     26  C   UNL d   1       3.388  -3.805  -0.171  0.00  0.00     0.018 A 
BRANCH  24  27
ATOM     27  O   UNL d   1       6.396  -3.535   1.830  0.00  0.00    -0.356 OA
ATOM     28  C   UNL d   1       6.989  -2.619   2.743  0.00  0.00     0.210 C 
ENDBRANCH  24  27
ENDBRANCH  19  21
ENDBRANCH   2  19
TORSDOF 7
