REMARK  4 active torsions:
REMARK  status: ('A' for Active; 'I' for Inactive)
REMARK    1  A    between atoms: C_11  and  N_1 
REMARK    2  A    between atoms: C_6  and  C_3 
REMARK    3  A    between atoms: C_16  and  N_5 
REMARK    4  A    between atoms: C_17  and  C_11 
ROOT
ATOM      1  N   UNL d   1      -0.717   1.201  -0.066  0.00  0.00    -0.261 N 
ATOM      2  C   UNL d   1      -1.398  -0.006  -0.194  0.00  0.00     0.332 C 
ATOM      3  C   UNL d   1       1.439   0.061   0.034  0.00  0.00     0.082 C 
ATOM      4  C   UNL d   1       0.656   1.323   0.092  0.00  0.00     0.266 C 
ATOM      5  N   UNL d   1      -0.619  -1.159  -0.035  0.00  0.00    -0.304 N 
ATOM      6  C   UNL d   1       0.760  -1.094   0.016  0.00  0.00     0.116 C 
ATOM      7  O   UNL d   1      -2.605  -0.065  -0.428  0.00  0.00    -0.246 OA
ATOM      8  O   UNL d   1       1.209   2.406   0.279  0.00  0.00    -0.267 OA
ENDROOT
BRANCH   1   9
ATOM      9  C   UNL d   1      -1.516   2.422  -0.019  0.00  0.00     0.175 C 
BRANCH   9  10
ATOM     10  C   UNL d   1      -2.062   2.679   1.370  0.00  0.00    -0.040 A 
ATOM     11  C   UNL d   1      -1.312   3.388   2.319  0.00  0.00     0.009 A 
ATOM     12  C   UNL d   1      -1.797   3.563   3.618  0.00  0.00     0.001 A 
ATOM     13  C   UNL d   1      -3.030   3.025   3.982  0.00  0.00     0.000 A 
ATOM     14  C   UNL d   1      -3.786   2.322   3.048  0.00  0.00     0.001 A 
ATOM     15  C   UNL d   1      -3.307   2.154   1.749  0.00  0.00     0.009 A 
ENDBRANCH   9  10
ENDBRANCH   1   9
BRANCH   5  16
ATOM     16  C   UNL d   1      -1.313  -2.466  -0.055  0.00  0.00     0.086 C 
ATOM     17  C   UNL d   1      -1.327  -3.066  -1.462  0.00  0.00     0.032 C 
ATOM     18  C   UNL d   1      -0.783  -3.473   0.972  0.00  0.00     0.032 C 
ENDBRANCH   5  16
BRANCH   3  19
ATOM     19  C   UNL d   1       2.868   0.035   0.078  0.00  0.00     0.091 A 
ATOM     20  N   UNL d   1       3.603  -0.892   0.675  0.00  0.00    -0.353 N 
ATOM     21  C   UNL d   1       4.956  -0.626   0.550  0.00  0.00     0.012 A 
ATOM     22  HN  UNL d   1       3.220  -1.701   1.166  1.00  0.00     0.166 HD
ATOM     23  C   UNL d   1       5.936  -1.526   1.210  0.00  0.00     0.068 C 
ATOM     24  C   UNL d   1       5.255   0.491  -0.201  0.00  0.00     0.076 A 
ATOM     25  S   UNL d   1       3.819   1.207  -0.781  0.00  0.00    -0.081 SA
ENDBRANCH   3  19
TORSDOF 4
