REMARK  4 active torsions:
REMARK  status: ('A' for Active; 'I' for Inactive)
REMARK    1  A    between atoms: C_8  and  C_1 
REMARK    2  A    between atoms: C_7  and  C_2 
REMARK    3  A    between atoms: O_12  and  C_8 
REMARK    4  A    between atoms: C_17  and  O_12 
ROOT
ATOM      1  C   UNL d   1       1.441   1.055   0.039  0.00  0.00     0.066 C 
ATOM      2  C   UNL d   1       0.190   1.901  -0.083  0.00  0.00     0.162 C 
ATOM      3  C   UNL d   1       1.374  -0.294  -0.002  0.00  0.00     0.024 C 
ATOM      4  C   UNL d   1      -1.062  -0.250  -0.052  0.00  0.00     0.321 C 
ATOM      5  N   UNL d   1       0.134  -0.891  -0.104  0.00  0.00    -0.312 N 
ATOM      6  N   UNL d   1      -1.010   1.094   0.087  0.00  0.00    -0.330 N 
ATOM      7  O   UNL d   1      -2.126  -0.854  -0.091  0.00  0.00    -0.247 OA
ATOM      8  C   UNL d   1       2.501  -1.297   0.026  0.00  0.00     0.069 C 
ATOM      9  H   UNL d   1       0.060  -1.900  -0.158  0.00  0.00     0.170 HD
ATOM     10  H   UNL d   1      -1.911   1.550   0.095  0.00  0.00     0.165 HD
ENDROOT
BRANCH   2  11
ATOM     11  C   UNL d   1       0.074   3.074   0.883  0.00  0.00    -0.009 A 
ATOM     12  C   UNL d   1      -0.114   4.400   0.451  0.00  0.00     0.042 A 
ATOM     13 CL   UNL d   1      -0.168   4.837  -1.221  0.00  0.00    -0.084 Cl
ATOM     14  C   UNL d   1      -0.280   5.435   1.378  0.00  0.00     0.024 A 
ATOM     15  C   UNL d   1      -0.266   5.166   2.745  0.00  0.00     0.002 A 
ATOM     16  C   UNL d   1      -0.075   3.862   3.191  0.00  0.00     0.001 A 
ATOM     17  C   UNL d   1       0.092   2.826   2.272  0.00  0.00     0.011 A 
ENDBRANCH   2  11
BRANCH   1  18
ATOM     18  C   UNL d   1       2.756   1.748   0.145  0.00  0.00     0.293 C 
ATOM     19  O   UNL d   1       3.753   1.255   0.652  0.00  0.00    -0.259 OA
BRANCH  18  20
ATOM     20  O   UNL d   1       2.700   2.996  -0.378  0.00  0.00    -0.318 OA
BRANCH  20  21
ATOM     21  C   UNL d   1       3.921   3.756  -0.293  0.00  0.00     0.174 C 
ATOM     22  C   UNL d   1       4.188   4.245   1.122  0.00  0.00     0.034 C 
ENDBRANCH  20  21
ENDBRANCH  18  20
ENDBRANCH   1  18
TORSDOF 4
