REMARK  3 active torsions:
REMARK  status: ('A' for Active; 'I' for Inactive)
REMARK    1  A    between atoms: C_2  and  C_1 
REMARK       I    between atoms: N_7  and  C_2 
REMARK    2  A    between atoms: N_8  and  C_3 
REMARK    3  A    between atoms: N_9  and  N_7 
ROOT
ATOM      1  C   UNL d   1       0.216  -1.319   0.100  0.00  0.00     0.071 A 
ATOM      2  C   UNL d   1       0.959  -0.135   0.100  0.00  0.00     0.093 A 
ATOM      3  N   UNL d   1       0.383   1.085   0.062  0.00  0.00    -0.356 N 
ATOM      4  HN  UNL d   1       0.946   1.935   0.082  1.00  0.00     0.166 HD
ATOM      5  C   UNL d   1      -1.178  -1.225   0.005  0.00  0.00     0.022 A 
ATOM      6  C   UNL d   1      -0.967   1.141  -0.004  0.00  0.00     0.089 A 
ATOM      7  C   UNL d   1      -1.783   0.025  -0.045  0.00  0.00     0.018 A 
ENDROOT
BRANCH   1   8
ATOM      8  C   UNL d   1       0.814  -2.671   0.226  0.00  0.00     0.269 C 
ATOM      9  O   UNL d   1       0.196  -3.665  -0.154  0.00  0.00    -0.266 OA
ATOM     10  N   UNL d   1       2.066  -2.747   0.820  0.00  0.00    -0.290 N 
ATOM     11  H   UNL d   1       2.558  -1.888   1.081  0.00  0.00     0.183 HD
BRANCH  10  12
ATOM     12  N   UNL d   1       2.703  -3.997   0.954  0.00  0.00    -0.247 NA
ATOM     13  H   UNL d   1       2.148  -4.670   0.406  0.00  0.00     0.143 HD
ATOM     14  H   UNL d   1       2.576  -4.307   1.921  0.00  0.00     0.143 HD
ENDBRANCH  10  12
ENDBRANCH   1   8
BRANCH   2  15
ATOM     15  N   UNL d   1       2.357  -0.103   0.138  0.00  0.00    -0.288 NA
ATOM     16  H   UNL d   1       2.743  -0.585  -0.672  0.00  0.00     0.125 HD
ATOM     17  H   UNL d   1       2.608   0.886   0.103  0.00  0.00     0.125 HD
ENDBRANCH   2  15
TORSDOF 3
