REMARK  6 active torsions:
REMARK  status: ('A' for Active; 'I' for Inactive)
REMARK    1  A    between atoms: C_2  and  N_1 
REMARK    2  A    between atoms: C_19  and  N_3 
REMARK    3  A    between atoms: C_10  and  S_12 
REMARK    4  A    between atoms: S_12  and  C_23 
REMARK    5  A    between atoms: C_20  and  C_19 
REMARK    6  A    between atoms: C_23  and  C_20 
ROOT
ATOM      1  N   UNL d   1      -1.504   0.053   0.226  0.00  0.00    -0.377 N 
ATOM      2  N   UNL d   1       1.420  -0.028  -0.197  0.00  0.00     0.091 N 
ATOM      3  C   UNL d   1      -0.851  -1.222  -0.098  0.00  0.00     0.153 C 
ATOM      4  C   UNL d   1      -0.790   1.272  -0.183  0.00  0.00     0.153 C 
ATOM      5  C   UNL d   1       0.695   1.190   0.248  0.00  0.00     0.292 C 
ATOM      6  C   UNL d   1       0.646  -1.200   0.304  0.00  0.00     0.292 C 
ENDROOT
BRANCH   2   7
ATOM      7  C   UNL d   1       1.557  -0.110  -1.663  0.00  0.00     0.273 C 
BRANCH   7   8
ATOM      8  C   UNL d   1       2.373   1.033  -2.291  0.00  0.00     0.041 C 
BRANCH   8   9
ATOM      9  C   UNL d   1       2.455   0.919  -3.816  0.00  0.00     0.081 C 
BRANCH   9  10
ATOM     10  S   UNL d   1       0.794   1.125  -4.560  0.00  0.00    -0.130 SA
BRANCH  10  11
ATOM     11  C   UNL d   1       1.071   0.922  -6.306  0.00  0.00     0.000 A 
ATOM     12  C   UNL d   1       2.151   0.236  -6.870  0.00  0.00     0.020 A 
ATOM     13  C   UNL d   1       2.262   0.107  -8.258  0.00  0.00     0.025 A 
ATOM     14  C   UNL d   1       1.289   0.659  -9.089  0.00  0.00     0.034 A 
ATOM     15  C   UNL d   1       0.201   1.333  -8.543  0.00  0.00     0.025 A 
ATOM     16 CL   UNL d   1       1.427   0.498 -10.795  0.00  0.00    -0.084 Cl
ATOM     17  C   UNL d   1       0.094   1.459  -7.157  0.00  0.00     0.020 A 
ENDBRANCH  10  11
ENDBRANCH   9  10
ENDBRANCH   8   9
ENDBRANCH   7   8
ENDBRANCH   2   7
BRANCH   1  18
ATOM     18  C   UNL d   1      -2.654   0.132   0.985  0.00  0.00     0.031 A 
ATOM     19  C   UNL d   1      -2.906  -0.758   2.038  0.00  0.00     0.053 A 
ATOM     20  C   UNL d   1      -4.066  -0.657   2.812  0.00  0.00     0.036 A 
ATOM     21 CL   UNL d   1      -4.319  -1.758   4.110  0.00  0.00    -0.084 Cl
ATOM     22  C   UNL d   1      -5.008   0.331   2.550  0.00  0.00     0.024 A 
ATOM     23  C   UNL d   1      -4.786   1.224   1.508  0.00  0.00     0.004 A 
ATOM     24  C   UNL d   1      -3.621   1.120   0.739  0.00  0.00     0.029 A 
ENDBRANCH   1  18
TORSDOF 6
