REMARK  5 active torsions:
REMARK  status: ('A' for Active; 'I' for Inactive)
REMARK    1  A    between atoms: C_5  and  C_1 
REMARK    2  A    between atoms: N_2  and  C_3 
REMARK    3  A    between atoms: C_6  and  C_4 
REMARK    4  A    between atoms: O_11  and  C_5 
REMARK    5  A    between atoms: O_12  and  C_6 
ROOT
ATOM      1  C   UNL d   1       1.524  -0.252   0.090  0.00  0.00     0.088 A 
ATOM      2  C   UNL d   1       0.599  -1.303   0.022  0.00  0.00     0.120 A 
ATOM      3  C   UNL d   1       1.035   1.057  -0.014  0.00  0.00     0.058 A 
ATOM      4  C   UNL d   1      -0.783  -1.075  -0.077  0.00  0.00     0.037 A 
ATOM      5  C   UNL d   1      -0.349   1.296  -0.102  0.00  0.00     0.019 A 
ATOM      6  C   UNL d   1      -1.255   0.233  -0.122  0.00  0.00     0.003 A 
ENDROOT
BRANCH   1   7
ATOM      7  C   UNL d   1       2.953  -0.512   0.375  0.00  0.00     0.296 C 
ATOM      8  O   UNL d   1       3.892  -0.048  -0.233  0.00  0.00    -0.259 OA
BRANCH   7   9
ATOM      9  O   UNL d   1       3.011  -1.305   1.474  0.00  0.00    -0.322 OA
ATOM     10  C   UNL d   1       4.339  -1.657   1.872  0.00  0.00     0.213 C 
ENDBRANCH   7   9
ENDBRANCH   1   7
BRANCH   2  11
ATOM     11  N   UNL d   1       1.054  -2.680  -0.013  0.00  0.00    -0.115 N 
ATOM     12  O   UNL d   1       1.877  -2.978  -0.887  0.00  0.00    -0.532 OA
ATOM     13  O   UNL d   1       0.548  -3.462   0.803  0.00  0.00    -0.532 OA
ENDBRANCH   2  11
BRANCH   3  14
ATOM     14  C   UNL d   1       1.901   2.246   0.026  0.00  0.00     0.294 C 
ATOM     15  O   UNL d   1       1.780   3.123   0.862  0.00  0.00    -0.259 OA
BRANCH  14  16
ATOM     16  O   UNL d   1       2.703   2.231  -1.057  0.00  0.00    -0.322 OA
ATOM     17  C   UNL d   1       3.661   3.290  -1.157  0.00  0.00     0.213 C 
ENDBRANCH  14  16
ENDBRANCH   3  14
TORSDOF 5
