REMARK  9 active torsions:
REMARK  status: ('A' for Active; 'I' for Inactive)
REMARK    1  A    between atoms: C_2  and  C_1 
REMARK       I    between atoms: C_3  and  N_5 
REMARK       I    between atoms: N_6  and  C_3 
REMARK    2  A    between atoms: N_5  and  C_4 
REMARK    3  A    between atoms: C_11  and  N_6 
REMARK    4  A    between atoms: C_19  and  C_12 
REMARK    5  A    between atoms: C_20  and  C_19 
REMARK    6  A    between atoms: C_23  and  C_20 
REMARK    7  A    between atoms: C_21  and  C_22 
REMARK    8  A    between atoms: C_22  and  C_24 
REMARK    9  A    between atoms: C_24  and  C_23 
ROOT
ATOM      1  C   UNL d   1       0.880  -0.964  -2.145  0.00  0.00     0.325 C 
ATOM      2  N   UNL d   1       1.982  -1.592  -1.656  0.00  0.00    -0.308 N 
ATOM      3  N   UNL d   1       0.310   0.086  -1.506  0.00  0.00    -0.309 N 
ATOM      4  O   UNL d   1       0.294  -1.310  -3.183  0.00  0.00    -0.247 OA
ATOM      5  H   UNL d   1       2.626  -1.011  -1.150  0.00  0.00     0.170 HD
ATOM      6  H   UNL d   1      -0.554   0.291  -1.999  0.00  0.00     0.170 HD
ENDROOT
BRANCH   3   7
ATOM      7  C   UNL d   1       0.485   0.822  -0.326  0.00  0.00     0.036 C 
ATOM      8  C   UNL d   1       1.603   0.805   0.499  0.00  0.00     0.030 C 
ATOM      9  C   UNL d   1       1.564   1.456   1.742  0.00  0.00     0.009 C 
ATOM     10  C   UNL d   1       0.412   2.122   2.178  0.00  0.00    -0.058 C 
ATOM     11  C   UNL d   1      -0.649   2.268   1.283  0.00  0.00     0.009 C 
ATOM     12  C   UNL d   1      -0.606   1.623   0.045  0.00  0.00     0.030 C 
BRANCH  10  13
ATOM     13  C   UNL d   1       0.278   2.587   3.610  0.00  0.00     0.038 C 
BRANCH  13  14
ATOM     14  C   UNL d   1      -0.855   1.871   4.378  0.00  0.00     0.005 C 
BRANCH  14  15
ATOM     15  C   UNL d   1      -0.691   0.345   4.425  0.00  0.00     0.000 C 
BRANCH  15  16
ATOM     16  C   UNL d   1      -1.828  -0.347   5.186  0.00  0.00     0.000 C 
BRANCH  16  17
ATOM     17  C   UNL d   1      -1.647  -1.869   5.162  0.00  0.00    -0.000 C 
BRANCH  17  18
ATOM     18  C   UNL d   1      -2.764  -2.602   5.906  0.00  0.00    -0.005 C 
ATOM     19  C   UNL d   1      -2.556  -4.110   5.859  0.00  0.00     0.005 C 
ENDBRANCH  17  18
ENDBRANCH  16  17
ENDBRANCH  15  16
ENDBRANCH  14  15
ENDBRANCH  13  14
ENDBRANCH  10  13
ENDBRANCH   3   7
BRANCH   2  20
ATOM     20  C   UNL d   1       2.569  -2.702  -2.357  0.00  0.00     0.051 C 
ATOM     21  C   UNL d   1       1.819  -3.619  -3.112  0.00  0.00     0.074 C 
ATOM     22  C   UNL d   1       2.436  -4.294  -4.180  0.00  0.00     0.018 C 
ATOM     23  C   UNL d   1       3.816  -4.281  -4.310  0.00  0.00     0.001 C 
ATOM     24  C   UNL d   1       4.581  -3.626  -3.345  0.00  0.00     0.002 C 
ATOM     25  C   UNL d   1       3.959  -2.815  -2.387  0.00  0.00     0.030 C 
BRANCH  21  26
ATOM     26  C   UNL d   1       0.468  -4.119  -2.662  0.00  0.00     0.419 C 
ATOM     27  F   UNL d   1       0.017  -3.608  -1.480  0.00  0.00    -0.166 F 
ATOM     28  F   UNL d   1       0.522  -5.473  -2.438  0.00  0.00    -0.166 F 
ATOM     29  F   UNL d   1      -0.534  -3.960  -3.571  0.00  0.00    -0.166 F 
ENDBRANCH  21  26
ENDBRANCH   2  20
TORSDOF 9
