REMARK  3 active torsions:
REMARK  status: ('A' for Active; 'I' for Inactive)
REMARK    1  A    between atoms: C_2  and  C_1 
REMARK       I    between atoms: N_6  and  C_2 
REMARK    2  A    between atoms: C_5  and  C_8 
REMARK    3  A    between atoms: C_9  and  N_6 
ROOT
ATOM      1  C   UNL d   1      -5.227   1.049  -0.025  0.00  0.00     0.254 C 
ATOM      2  N   UNL d   1      -4.068   1.599  -0.514  0.00  0.00    -0.348 N 
ATOM      3  O   UNL d   1      -5.738   1.429   1.026  0.00  0.00    -0.268 OA
ATOM      4  H   UNL d   1      -3.834   1.479  -1.482  0.00  0.00     0.163 HD
ENDROOT
BRANCH   1   5
ATOM      5  C   UNL d   1      -5.878  -0.090  -0.771  0.00  0.00     0.054 A 
ATOM      6  C   UNL d   1      -5.322  -0.896  -1.772  0.00  0.00     0.021 A 
ATOM      7  N   UNL d   1      -5.981  -1.980  -2.293  0.00  0.00    -0.355 N 
ATOM      8  C   UNL d   1      -3.963  -0.718  -2.375  0.00  0.00     0.069 C 
ATOM      9  C   UNL d   1      -7.207  -2.323  -1.815  0.00  0.00     0.117 A 
ATOM     10  HN  UNL d   1      -5.552  -2.529  -3.038  1.00  0.00     0.166 HD
ATOM     11  C   UNL d   1      -7.826  -1.569  -0.829  0.00  0.00     0.035 A 
ATOM     12  C   UNL d   1      -7.161  -0.455  -0.316  0.00  0.00     0.021 A 
BRANCH   9  13
ATOM     13  C   UNL d   1      -7.903  -3.574  -2.342  0.00  0.00     0.432 C 
ATOM     14  F   UNL d   1      -7.198  -4.253  -3.292  0.00  0.00    -0.165 F 
ATOM     15  F   UNL d   1      -8.160  -4.481  -1.354  0.00  0.00    -0.165 F 
ATOM     16  F   UNL d   1      -9.116  -3.298  -2.905  0.00  0.00    -0.165 F 
ENDBRANCH   9  13
ENDBRANCH   1   5
BRANCH   2  17
ATOM     17  C   UNL d   1      -3.188   2.517   0.216  0.00  0.00     0.118 C 
ATOM     18  C   UNL d   1      -3.436   3.996  -0.051  0.00  0.00    -0.029 A 
ATOM     19  C   UNL d   1      -3.210   4.954   0.960  0.00  0.00    -0.050 A 
ATOM     20  C   UNL d   1      -3.751   4.454  -1.343  0.00  0.00     0.010 A 
ATOM     21  C   UNL d   1      -3.242   6.325   0.656  0.00  0.00     0.007 A 
ATOM     22  C   UNL d   1      -2.878   4.532   2.368  0.00  0.00     0.039 C 
ATOM     23  C   UNL d   1      -3.535   6.755  -0.636  0.00  0.00     0.001 A 
ATOM     24  C   UNL d   1      -3.807   5.820  -1.630  0.00  0.00     0.001 A 
ATOM     25  C   UNL d   1      -3.473   3.165   2.684  0.00  0.00     0.007 C 
ATOM     26  C   UNL d   1      -2.951   2.129   1.694  0.00  0.00     0.030 C 
ENDBRANCH   2  17
TORSDOF 3
