REMARK  2 active torsions:
REMARK  status: ('A' for Active; 'I' for Inactive)
REMARK    1  A    between atoms: C_8  and  N_5 
REMARK    2  A    between atoms: O_11  and  C_10 
ROOT
ATOM      1  C   UNL d   1      -2.122  -0.615  -0.977  0.00  0.00     0.146 C 
ATOM      2  N   UNL d   1      -0.771  -0.460  -0.846  0.00  0.00    -0.356 N 
ATOM      3  S   UNL d   1      -2.968   0.386   0.200  0.00  0.00    -0.057 SA
ATOM      4  C   UNL d   1      -1.489   0.734   1.064  0.00  0.00     0.005 C 
ATOM      5  N   UNL d   1      -2.820  -1.373  -1.750  0.00  0.00    -0.335 N 
ATOM      6  HN  UNL d   1      -3.837  -1.300  -1.737  1.00  0.00     0.168 HD
ATOM      7  C   UNL d   1      -0.245   0.252   0.318  0.00  0.00     0.065 C 
ATOM      8  C   UNL d   1      -1.525   1.344   2.258  0.00  0.00     0.029 C 
ATOM      9  C   UNL d   1       0.611  -0.730   1.144  0.00  0.00     0.036 C 
ATOM     10  C   UNL d   1       0.599   1.454  -0.154  0.00  0.00     0.036 C 
ATOM     11  C   UNL d   1       1.900  -1.139   0.421  0.00  0.00     0.003 C 
ATOM     12  C   UNL d   1       1.888   1.041  -0.863  0.00  0.00     0.003 C 
ATOM     13  C   UNL d   1       2.714   0.071  -0.026  0.00  0.00     0.000 C 
ATOM     14  H   UNL d   1      -0.192  -1.168  -1.274  0.00  0.00     0.162 HD
ENDROOT
BRANCH   5  15
ATOM     15  C   UNL d   1      -2.205  -2.299  -2.613  0.00  0.00     0.067 A 
ATOM     16  C   UNL d   1      -2.590  -3.656  -2.612  0.00  0.00     0.094 A 
ATOM     17  C   UNL d   1      -1.902  -4.584  -3.408  0.00  0.00     0.039 A 
ATOM     18  C   UNL d   1      -0.864  -4.176  -4.242  0.00  0.00     0.003 A 
ATOM     19  C   UNL d   1      -0.516  -2.831  -4.300  0.00  0.00     0.002 A 
ATOM     20  C   UNL d   1      -1.195  -1.901  -3.508  0.00  0.00     0.032 A 
BRANCH  16  21
ATOM     21  O   UNL d   1      -3.584  -4.221  -1.852  0.00  0.00    -0.354 OA
ATOM     22  C   UNL d   1      -4.737  -3.412  -1.642  0.00  0.00     0.210 C 
ENDBRANCH  16  21
ENDBRANCH   5  15
TORSDOF 2
