REMARK  3 active torsions:
REMARK  status: ('A' for Active; 'I' for Inactive)
REMARK    1  A    between atoms: N_6  and  C_2 
REMARK    2  A    between atoms: C_3  and  C_12 
REMARK    3  A    between atoms: N_8  and  N_6 
ROOT
ATOM      1  N   UNL d   1       3.231   0.846  -0.027  0.00  0.00    -0.309 N 
ATOM      2  HN  UNL d   1       3.357  -0.163  -0.108  1.00  0.00     0.186 HD
ATOM      3  C   UNL d   1       4.207   1.689   0.073  0.00  0.00     0.122 C 
ENDROOT
BRANCH   1   4
ATOM      4  N   UNL d   1       1.991   1.475  -0.012  0.00  0.00    -0.280 N 
ATOM      5  HN  UNL d   1       1.876   2.488  -0.012  1.00  0.00     0.189 HD
BRANCH   4   6
ATOM      6  C   UNL d   1       0.998   0.647   0.001  0.00  0.00     0.162 A 
ATOM      7  N   UNL d   1      -0.276   1.105   0.018  0.00  0.00    -0.306 N 
ATOM      8  C   UNL d   1      -1.290   0.196   0.011  0.00  0.00     0.233 A 
ATOM      9  H   UNL d   1      -0.463   2.094   0.026  0.00  0.00     0.171 HD
ATOM     10  O   UNL d   1      -2.474   0.506   0.020  0.00  0.00    -0.272 OA
ATOM     11  C   UNL d   1      -0.781  -1.222  -0.014  0.00  0.00     0.185 A 
ATOM     12  S   UNL d   1       1.023  -1.095   0.000  0.00  0.00    -0.083 SA
ENDBRANCH   4   6
ENDBRANCH   1   4
BRANCH   3  13
ATOM     13  C   UNL d   1       5.619   1.250   0.092  0.00  0.00     0.024 A 
ATOM     14  C   UNL d   1       6.595   2.076  -0.489  0.00  0.00     0.047 A 
ATOM     15 CL   UNL d   1       6.219   3.584  -1.252  0.00  0.00    -0.083 Cl
ATOM     16  C   UNL d   1       7.940   1.687  -0.499  0.00  0.00     0.025 A 
ATOM     17  C   UNL d   1       8.327   0.476   0.070  0.00  0.00     0.003 A 
ATOM     18  C   UNL d   1       7.368  -0.345   0.657  0.00  0.00     0.025 A 
ATOM     19  C   UNL d   1       6.020   0.035   0.676  0.00  0.00     0.047 A 
ATOM     20 CL   UNL d   1       4.952  -1.036   1.518  0.00  0.00    -0.083 Cl
ENDBRANCH   3  13
TORSDOF 3
