REMARK  4 active torsions:
REMARK  status: ('A' for Active; 'I' for Inactive)
REMARK    1  A    between atoms: C_2  and  S_1 
REMARK    2  A    between atoms: C_9  and  S_1 
REMARK    3  A    between atoms: C_3  and  C_5 
REMARK    4  A    between atoms: C_4  and  C_6 
ROOT
ATOM      1  C   UNL d   1       0.618  -1.271   1.108  0.00  0.00     0.065 A 
ATOM      2  C   UNL d   1       0.516  -3.639   1.640  0.00  0.00     0.050 A 
ATOM      3  C   UNL d   1       0.212  -1.959   3.403  0.00  0.00     0.050 A 
ATOM      4  C   UNL d   1       0.685  -2.609   0.702  0.00  0.00     0.040 A 
ATOM      5  C   UNL d   1       0.397  -0.943   2.452  0.00  0.00     0.040 A 
ATOM      6  C   UNL d   1       0.267  -3.301   2.983  0.00  0.00     0.032 A 
ENDROOT
BRANCH   1   7
ATOM      7  S   UNL d   1       0.992   0.018  -0.066  0.00  0.00     0.206 S 
ATOM      8  O   UNL d   1       1.754  -0.603  -1.135  0.00  0.00    -0.217 OA
ATOM      9  O   UNL d   1       1.556   1.116   0.701  0.00  0.00    -0.217 OA
BRANCH   7  10
ATOM     10  C   UNL d   1      -0.488   0.650  -0.816  0.00  0.00     0.064 A 
ATOM     11  C   UNL d   1      -1.757   0.168  -0.489  0.00  0.00     0.025 A 
ATOM     12  C   UNL d   1      -2.882   0.757  -1.081  0.00  0.00     0.025 A 
ATOM     13  C   UNL d   1      -2.731   1.809  -1.986  0.00  0.00     0.034 A 
ATOM     14  C   UNL d   1      -1.461   2.273  -2.328  0.00  0.00     0.025 A 
ATOM     15 CL   UNL d   1      -4.121   2.549  -2.677  0.00  0.00    -0.084 Cl
ATOM     16  C   UNL d   1      -0.336   1.691  -1.742  0.00  0.00     0.025 A 
ENDBRANCH   7  10
ENDBRANCH   1   7
BRANCH   2  17
ATOM     17  C   UNL d   1       0.636  -5.092   1.236  0.00  0.00     0.417 C 
ATOM     18  F   UNL d   1       0.928  -5.266  -0.081  0.00  0.00    -0.166 F 
ATOM     19  F   UNL d   1       1.611  -5.741   1.928  0.00  0.00    -0.166 F 
ATOM     20  F   UNL d   1      -0.513  -5.785   1.462  0.00  0.00    -0.166 F 
ENDBRANCH   2  17
BRANCH   3  21
ATOM     21  C   UNL d   1      -0.018  -1.638   4.864  0.00  0.00     0.417 C 
ATOM     22  F   UNL d   1       0.040  -0.308   5.144  0.00  0.00    -0.166 F 
ATOM     23  F   UNL d   1      -1.239  -2.059   5.293  0.00  0.00    -0.166 F 
ATOM     24  F   UNL d   1       0.893  -2.236   5.677  0.00  0.00    -0.166 F 
ENDBRANCH   3  21
TORSDOF 4
