REMARK  5 active torsions:
REMARK  status: ('A' for Active; 'I' for Inactive)
REMARK    1  A    between atoms: S_7  and  C_1 
REMARK    2  A    between atoms: C_5  and  N_6 
REMARK       I    between atoms: N_6  and  C_8 
REMARK    3  A    between atoms: C_14  and  S_7 
REMARK    4  A    between atoms: C_8  and  C_14 
REMARK    5  A    between atoms: O_19  and  C_12 
ROOT
ATOM      1  N   UNL d   1       1.748   5.191   0.485  0.00  0.00    -0.324 N 
ATOM      2  C   UNL d   1       2.551   4.286  -0.193  0.00  0.00     0.232 C 
ATOM      3  O   UNL d   1       3.589   4.581  -0.791  0.00  0.00    -0.272 OA
ATOM      4  H   UNL d   1       1.012   4.814   1.067  0.00  0.00     0.169 HD
ENDROOT
BRANCH   1   5
ATOM      5  C   UNL d   1       2.027   6.568   0.616  0.00  0.00     0.070 A 
ATOM      6  C   UNL d   1       2.717   7.264  -0.387  0.00  0.00     0.056 A 
ATOM      7  C   UNL d   1       2.993   8.623  -0.252  0.00  0.00     0.036 A 
ATOM      8 CL   UNL d   1       3.804   9.458  -1.521  0.00  0.00    -0.084 Cl
ATOM      9  C   UNL d   1       2.600   9.312   0.888  0.00  0.00     0.026 A 
ATOM     10  C   UNL d   1       1.885   8.642   1.883  0.00  0.00     0.041 A 
ATOM     11  C   UNL d   1       1.587   7.280   1.750  0.00  0.00     0.095 A 
BRANCH  11  12
ATOM     12  O   UNL d   1       0.809   6.747   2.747  0.00  0.00    -0.354 OA
ATOM     13  C   UNL d   1       1.384   5.640   3.436  0.00  0.00     0.210 C 
ENDBRANCH  11  12
ENDBRANCH   1   5
BRANCH   2  14
ATOM     14  C   UNL d   1       2.176   2.833  -0.007  0.00  0.00     0.185 C 
BRANCH  14  15
ATOM     15  S   UNL d   1       0.435   2.510  -0.402  0.00  0.00    -0.084 SA
BRANCH  15  16
ATOM     16  C   UNL d   1       0.457   0.781  -0.273  0.00  0.00     0.146 A 
ATOM     17  N   UNL d   1      -0.547  -0.031  -0.721  0.00  0.00    -0.341 N 
ATOM     18  C   UNL d   1      -0.167  -1.324  -0.462  0.00  0.00     0.109 A 
ATOM     19  C   UNL d   1      -1.787   0.345  -1.355  0.00  0.00     0.158 C 
ATOM     20  C   UNL d   1       1.067  -1.223   0.135  0.00  0.00     0.107 A 
ATOM     21  N   UNL d   1       1.441   0.090   0.257  0.00  0.00    -0.345 N 
ATOM     22  HN  UNL d   1       2.299   0.453   0.671  1.00  0.00     0.167 HD
ENDBRANCH  15  16
ENDBRANCH  14  15
ENDBRANCH   2  14
TORSDOF 5
