REMARK  5 active torsions:
REMARK  status: ('A' for Active; 'I' for Inactive)
REMARK    1  A    between atoms: N_7  and  C_1 
REMARK    2  A    between atoms: C_4  and  C_6 
REMARK    3  A    between atoms: C_5  and  C_10 
REMARK       I    between atoms: C_9  and  N_8 
REMARK    4  A    between atoms: O_24  and  C_9 
REMARK    5  A    between atoms: C_25  and  O_24 
ROOT
ATOM      1  C   UNL d   1      -0.771   1.177   0.137  0.00  0.00     0.083 A 
ATOM      2  N   UNL d   1      -0.657   0.761  -1.140  0.00  0.00    -0.343 N 
ATOM      3  HN  UNL d   1      -0.945   1.369  -1.907  1.00  0.00     0.167 HD
ATOM      4  C   UNL d   1      -0.152  -0.482  -1.397  0.00  0.00     0.118 A 
ATOM      5  C   UNL d   1       0.172  -0.904   0.948  0.00  0.00     0.053 A 
ATOM      6  C   UNL d   1      -0.349   0.368   1.187  0.00  0.00     0.058 A 
ATOM      7  C   UNL d   1       0.266  -1.334  -0.373  0.00  0.00     0.050 A 
ENDROOT
BRANCH   1   8
ATOM      8  N   UNL d   1      -1.260   2.452   0.431  0.00  0.00    -0.266 NA
ATOM      9  C   UNL d   1      -1.374   3.384  -0.712  0.00  0.00     0.117 C 
ATOM     10  C   UNL d   1      -1.622   4.817  -0.183  0.00  0.00     0.143 C 
ATOM     11  N   UNL d   1      -2.730   4.862   0.783  0.00  0.00    -0.326 N 
ATOM     12  C   UNL d   1      -2.676   3.866   1.851  0.00  0.00     0.143 C 
ATOM     13  C   UNL d   1      -3.782   5.748   0.734  0.00  0.00     0.362 C 
ATOM     14  C   UNL d   1      -2.474   2.456   1.278  0.00  0.00     0.117 C 
ATOM     15  O   UNL d   1      -4.719   5.734   1.523  0.00  0.00    -0.238 OA
BRANCH  13  16
ATOM     16  O   UNL d   1      -3.684   6.611  -0.311  0.00  0.00    -0.304 OA
BRANCH  16  17
ATOM     17  C   UNL d   1      -4.841   7.424  -0.549  0.00  0.00     0.176 C 
ATOM     18  C   UNL d   1      -5.797   6.662  -1.448  0.00  0.00     0.034 C 
ENDBRANCH  16  17
ENDBRANCH  13  16
ENDBRANCH   1   8
BRANCH   4  19
ATOM     19  C   UNL d   1      -0.028  -0.965  -2.837  0.00  0.00     0.432 C 
ATOM     20  F   UNL d   1      -0.464  -0.077  -3.773  0.00  0.00    -0.165 F 
ATOM     21  F   UNL d   1       1.262  -1.260  -3.174  0.00  0.00    -0.165 F 
ATOM     22  F   UNL d   1      -0.731  -2.115  -3.057  0.00  0.00    -0.165 F 
ENDBRANCH   4  19
BRANCH   5  23
ATOM     23  C   UNL d   1       0.625  -1.777   2.086  0.00  0.00     0.417 C 
ATOM     24  F   UNL d   1       0.477  -1.201   3.311  0.00  0.00    -0.166 F 
ATOM     25  F   UNL d   1      -0.062  -2.950   2.139  0.00  0.00    -0.166 F 
ATOM     26  F   UNL d   1       1.939  -2.114   1.986  0.00  0.00    -0.166 F 
ENDBRANCH   5  23
TORSDOF 5
