REMARK  7 active torsions:
REMARK  status: ('A' for Active; 'I' for Inactive)
REMARK    1  A    between atoms: C_2  and  C_1 
REMARK       I    between atoms: N_8  and  C_2 
REMARK    2  A    between atoms: C_7  and  C_4 
REMARK       I    between atoms: C_6  and  N_9 
REMARK    3  A    between atoms: C_14  and  C_6 
REMARK    4  A    between atoms: N_9  and  N_8 
REMARK    5  A    between atoms: C_15  and  C_10 
REMARK    6  A    between atoms: C_18  and  C_15 
REMARK    7  A    between atoms: C_19  and  C_18 
ROOT
ATOM      1  C   UNL d   1      -0.635  -2.512   0.012  0.00  0.00     0.293 C 
ATOM      2  N   UNL d   1       0.418  -3.408   0.032  0.00  0.00    -0.261 N 
ATOM      3  O   UNL d   1      -1.802  -2.911   0.002  0.00  0.00    -0.264 OA
ATOM      4  H   UNL d   1       1.393  -3.116  -0.005  0.00  0.00     0.190 HD
ENDROOT
BRANCH   1   5
ATOM      5  C   UNL d   1      -0.285  -1.098   0.008  0.00  0.00     0.146 A 
ATOM      6  O   UNL d   1       1.027  -0.664   0.020  0.00  0.00    -0.296 OA
ATOM      7  C   UNL d   1       0.988   0.705   0.019  0.00  0.00     0.129 A 
ATOM      8  C   UNL d   1      -0.310   1.157   0.005  0.00  0.00     0.050 A 
ATOM      9  C   UNL d   1      -1.126   0.004  -0.002  0.00  0.00     0.046 A 
BRANCH   7  10
ATOM     10  C   UNL d   1       2.209   1.444   0.030  0.00  0.00    -0.041 C 
ATOM     11  C   UNL d   1       3.179   2.152   0.033  0.00  0.00    -0.099 C 
BRANCH  11  12
ATOM     12  C   UNL d   1       4.363   3.029   0.020  0.00  0.00     0.094 C 
BRANCH  12  13
ATOM     13  C   UNL d   1       4.016   4.474   0.411  0.00  0.00     0.012 C 
BRANCH  13  14
ATOM     14  C   UNL d   1       5.253   5.381   0.390  0.00  0.00    -0.004 C 
ATOM     15  C   UNL d   1       4.915   6.814   0.780  0.00  0.00     0.005 C 
ENDBRANCH  13  14
ENDBRANCH  12  13
ENDBRANCH  11  12
ENDBRANCH   7  10
ENDBRANCH   1   5
BRANCH   2  16
ATOM     16  N   UNL d   1       0.161  -4.796   0.005  0.00  0.00    -0.263 N 
ATOM     17  C   UNL d   1       1.244  -5.656   0.021  0.00  0.00     0.270 C 
ATOM     18  O   UNL d   1       2.404  -5.255   0.053  0.00  0.00    -0.266 OA
ATOM     19  H   UNL d   1      -0.804  -5.090   0.150  0.00  0.00     0.190 HD
BRANCH  17  20
ATOM     20  C   UNL d   1       0.947  -7.117   0.007  0.00  0.00     0.033 A 
ATOM     21  C   UNL d   1      -0.204  -7.628  -0.607  0.00  0.00     0.017 A 
ATOM     22  C   UNL d   1      -0.420  -9.007  -0.650  0.00  0.00     0.001 A 
ATOM     23  C   UNL d   1       0.510  -9.882  -0.089  0.00  0.00     0.000 A 
ATOM     24  C   UNL d   1       1.660  -9.381   0.521  0.00  0.00     0.001 A 
ATOM     25  C   UNL d   1       1.881  -8.002   0.566  0.00  0.00     0.017 A 
ENDBRANCH  17  20
ENDBRANCH   2  16
TORSDOF 7
