REMARK  3 active torsions:
REMARK  status: ('A' for Active; 'I' for Inactive)
REMARK    1  A    between atoms: C_13  and  C_10 
REMARK    2  A    between atoms: O_18  and  C_11 
REMARK    3  A    between atoms: O_19  and  C_14 
ROOT
ATOM      1  N   UNL d   1      -0.202  -0.274   0.044  0.00  0.00    -0.255 N 
ATOM      2  C   UNL d   1      -0.482   1.052   0.046  0.00  0.00     0.160 A 
ATOM      3  C   UNL d   1      -1.266  -1.149   0.062  0.00  0.00     0.271 A 
ATOM      4  C   UNL d   1      -2.509  -0.324   0.075  0.00  0.00     0.077 A 
ATOM      5  N   UNL d   1       0.575   1.816   0.024  0.00  0.00    -0.334 N 
ATOM      6  HN  UNL d   1       0.619   2.835   0.017  1.00  0.00     0.168 HD
ATOM      7  S   UNL d   1      -2.168   1.391   0.074  0.00  0.00    -0.048 SA
ATOM      8  C   UNL d   1       1.163  -0.411   0.023  0.00  0.00     0.071 A 
ATOM      9  C   UNL d   1       1.620   0.913   0.010  0.00  0.00     0.061 A 
ATOM     10  C   UNL d   1      -3.719  -0.904   0.064  0.00  0.00     0.036 C 
ATOM     11  O   UNL d   1      -1.133  -2.359   0.054  0.00  0.00    -0.266 OA
ATOM     12  C   UNL d   1       2.022  -1.514   0.015  0.00  0.00     0.032 A 
ATOM     13  C   UNL d   1       3.001   1.158  -0.010  0.00  0.00     0.032 A 
ATOM     14  C   UNL d   1       3.395  -1.244  -0.000  0.00  0.00     0.002 A 
ATOM     15  C   UNL d   1       3.879   0.066  -0.013  0.00  0.00     0.002 A 
ENDROOT
BRANCH  10  16
ATOM     16  C   UNL d   1      -4.987  -0.172   0.016  0.00  0.00    -0.032 A 
ATOM     17  C   UNL d   1      -5.545   0.159  -1.226  0.00  0.00     0.051 A 
ATOM     18  C   UNL d   1      -6.715   0.921  -1.303  0.00  0.00     0.102 A 
ATOM     19  C   UNL d   1      -7.335   1.325  -0.112  0.00  0.00     0.099 A 
ATOM     20  C   UNL d   1      -6.800   0.979   1.130  0.00  0.00     0.040 A 
ATOM     21  C   UNL d   1      -5.622   0.233   1.193  0.00  0.00     0.014 A 
BRANCH  18  22
ATOM     22  O   UNL d   1      -7.308   1.321  -2.472  0.00  0.00    -0.353 OA
ATOM     23  C   UNL d   1      -6.680   0.927  -3.685  0.00  0.00     0.210 C 
ENDBRANCH  18  22
BRANCH  19  24
ATOM     24  O   UNL d   1      -8.480   2.073  -0.174  0.00  0.00    -0.358 OA
ATOM     25  H   UNL d   1      -8.772   2.285   0.727  0.00  0.00     0.217 HD
ENDBRANCH  19  24
ENDBRANCH  10  16
TORSDOF 3
