REMARK  5 active torsions:
REMARK  status: ('A' for Active; 'I' for Inactive)
REMARK    1  A    between atoms: S_6  and  C_1 
REMARK    2  A    between atoms: N_3  and  C_17 
REMARK    3  A    between atoms: C_15  and  S_6 
REMARK       I    between atoms: C_7  and  N_8 
REMARK    4  A    between atoms: C_20  and  C_7 
REMARK    5  A    between atoms: N_8  and  C_16 
ROOT
ATOM      1  C   UNL d   1      -3.208  -2.943   0.541  0.00  0.00     0.033 C 
ATOM      2  C   UNL d   1      -3.595  -3.004  -0.810  0.00  0.00     0.052 C 
ATOM      3  C   UNL d   1      -4.680  -3.833  -1.157  0.00  0.00     0.031 C 
ATOM      4  C   UNL d   1      -3.663  -3.967   1.401  0.00  0.00     0.021 C 
ATOM      5  C   UNL d   1      -4.643  -4.874   1.014  0.00  0.00     0.002 C 
ATOM      6  C   UNL d   1      -5.213  -4.749  -0.242  0.00  0.00     0.002 C 
ENDROOT
BRANCH   1   7
ATOM      7  S   UNL d   1      -2.419  -1.657   1.492  0.00  0.00    -0.069 SA
BRANCH   7   8
ATOM      8  C   UNL d   1      -2.001  -0.212   0.598  0.00  0.00     0.089 C 
ATOM      9  C   UNL d   1      -2.828   0.559  -0.246  0.00  0.00     0.038 C 
ATOM     10  C   UNL d   1      -2.175   1.656  -0.810  0.00  0.00     0.088 C 
ATOM     11  C   UNL d   1      -4.232   0.587  -0.646  0.00  0.00    -0.040 C 
ATOM     12  S   UNL d   1      -3.088   2.464  -1.995  0.00  0.00    -0.083 SA
ATOM     13  N   UNL d   1      -0.948   2.120  -0.525  0.00  0.00    -0.346 N 
ATOM     14  C   UNL d   1      -4.449   1.508  -1.661  0.00  0.00     0.059 C 
ATOM     15  C   UNL d   1      -0.336   1.403   0.407  0.00  0.00     0.182 C 
ATOM     16  HN  UNL d   1      -0.531   2.934  -0.977  1.00  0.00     0.167 HD
ATOM     17  N   UNL d   1      -0.778   0.272   0.948  0.00  0.00    -0.346 N 
ATOM     18  HN  UNL d   1      -0.202  -0.232   1.623  1.00  0.00     0.167 HD
ATOM     19  C   UNL d   1      -5.366  -0.193  -0.069  0.00  0.00     0.049 C 
ENDBRANCH   7   8
ENDBRANCH   1   7
BRANCH   2  20
ATOM     20  N   UNL d   1      -2.907  -2.405  -1.906  0.00  0.00    -0.322 N 
ATOM     21  C   UNL d   1      -1.522  -2.424  -1.970  0.00  0.00     0.256 C 
ATOM     22  O   UNL d   1      -0.772  -2.709  -1.036  0.00  0.00    -0.267 OA
ATOM     23  H   UNL d   1      -3.398  -2.385  -2.792  0.00  0.00     0.169 HD
BRANCH  21  24
ATOM     24  C   UNL d   1      -0.862  -2.179  -3.279  0.00  0.00     0.032 A 
ATOM     25  C   UNL d   1       0.390  -1.538  -3.226  0.00  0.00     0.019 A 
ATOM     26  C   UNL d   1       1.212  -1.461  -4.356  0.00  0.00     0.037 A 
ATOM     27  C   UNL d   1       0.774  -2.036  -5.553  0.00  0.00     0.102 A 
ATOM     28  C   UNL d   1      -0.491  -2.641  -5.635  0.00  0.00     0.037 A 
ATOM     29  C   UNL d   1      -1.312  -2.714  -4.494  0.00  0.00     0.019 A 
BRANCH  27  30
ATOM     30  N   UNL d   1       1.682  -2.054  -6.711  0.00  0.00    -0.116 N 
ATOM     31  O   UNL d   1       2.821  -1.590  -6.558  0.00  0.00    -0.532 OA
ATOM     32  O   UNL d   1       1.257  -2.545  -7.765  0.00  0.00    -0.532 OA
ENDBRANCH  27  30
ENDBRANCH  21  24
ENDBRANCH   2  20
TORSDOF 5
