REMARK  3 active torsions:
REMARK  status: ('A' for Active; 'I' for Inactive)
REMARK    1  A    between atoms: C_6  and  C_1 
REMARK    2  A    between atoms: O_13  and  C_6 
REMARK    3  A    between atoms: C_17  and  O_13 
ROOT
ATOM      1  C   UNL d   1       1.222  -1.467  -0.025  0.00  0.00     0.053 A 
ATOM      2  C   UNL d   1      -0.027  -0.790  -0.002  0.00  0.00     0.008 A 
ATOM      3  N   UNL d   1       1.186   1.302  -0.037  0.00  0.00    -0.359 N 
ATOM      4  HN  UNL d   1       1.178   2.321  -0.043  1.00  0.00     0.166 HD
ATOM      5  C   UNL d   1       0.032   0.617  -0.023  0.00  0.00     0.043 A 
ATOM      6  C   UNL d   1       2.421  -0.748  -0.043  0.00  0.00     0.043 A 
ATOM      7  C   UNL d   1       2.359   0.632  -0.044  0.00  0.00     0.006 A 
ATOM      8  C   UNL d   1      -1.307  -1.410   0.044  0.00  0.00     0.034 A 
ATOM      9  C   UNL d   1      -1.150   1.345  -0.035  0.00  0.00     0.031 A 
ATOM     10  C   UNL d   1      -2.475  -0.653   0.020  0.00  0.00     0.011 A 
ATOM     11  C   UNL d   1      -2.403   0.729  -0.026  0.00  0.00     0.021 A 
ATOM     12 BR   UNL d   1      -4.159  -1.510   0.034  0.00  0.00    -0.051 Br
ATOM     13  C   UNL d   1       3.613   1.451  -0.086  0.00  0.00     0.068 C 
ENDROOT
BRANCH   1  14
ATOM     14  C   UNL d   1       1.285  -2.948  -0.049  0.00  0.00     0.294 C 
ATOM     15  O   UNL d   1       0.469  -3.667  -0.601  0.00  0.00    -0.259 OA
BRANCH  14  16
ATOM     16  O   UNL d   1       2.314  -3.365   0.732  0.00  0.00    -0.318 OA
BRANCH  16  17
ATOM     17  C   UNL d   1       2.228  -4.729   1.168  0.00  0.00     0.174 C 
ATOM     18  C   UNL d   1       1.536  -4.727   2.519  0.00  0.00     0.034 C 
ENDBRANCH  16  17
ENDBRANCH  14  16
ENDBRANCH   1  14
TORSDOF 3
