REMARK  2 active torsions:
REMARK  status: ('A' for Active; 'I' for Inactive)
REMARK    1  A    between atoms: C_2  and  C_1 
REMARK       I    between atoms: N_9  and  C_2 
REMARK    2  A    between atoms: C_11  and  N_9 
ROOT
ATOM      1  C   UNL d   1       0.190  -4.282   0.640  0.00  0.00     0.262 C 
ATOM      2  N   UNL d   1       0.745  -3.395  -0.261  0.00  0.00    -0.343 N 
ATOM      3  O   UNL d   1       0.895  -4.808   1.498  0.00  0.00    -0.267 OA
ATOM      4  H   UNL d   1       0.166  -2.913  -0.942  0.00  0.00     0.163 HD
ENDROOT
BRANCH   2   5
ATOM      5  C   UNL d   1       2.149  -2.999  -0.196  0.00  0.00     0.177 C 
ATOM      6  C   UNL d   1       2.286  -1.686  -0.979  0.00  0.00     0.240 C 
ATOM      7  N   UNL d   1       3.472  -1.016  -0.894  0.00  0.00    -0.359 N 
ATOM      8  O   UNL d   1       1.380  -1.245  -1.689  0.00  0.00    -0.271 OA
ATOM      9  C   UNL d   1       4.634  -1.439  -0.150  0.00  0.00     0.122 C 
ATOM     10  H   UNL d   1       3.524  -0.175  -1.460  0.00  0.00     0.162 HD
ATOM     11  C   UNL d   1       5.253  -2.700  -0.737  0.00  0.00     0.020 C 
ATOM     12  C   UNL d   1       4.518  -3.984  -0.349  0.00  0.00     0.004 C 
ATOM     13  C   UNL d   1       3.058  -4.076  -0.799  0.00  0.00     0.035 C 
ENDBRANCH   2   5
BRANCH   1  14
ATOM     14  C   UNL d   1      -1.224  -4.547   0.508  0.00  0.00     0.114 A 
ATOM     15  C   UNL d   1      -2.030  -5.468   1.170  0.00  0.00     0.046 A 
ATOM     16  N   UNL d   1      -3.371  -5.443   0.789  0.00  0.00    -0.298 N 
ATOM     17  C   UNL d   1      -1.651  -6.464   2.205  0.00  0.00     0.071 C 
ATOM     18  N   UNL d   1      -3.608  -4.530  -0.133  0.00  0.00    -0.269 N 
ATOM     19  HN  UNL d   1      -4.085  -6.059   1.178  1.00  0.00     0.187 HD
ATOM     20  S   UNL d   1      -2.242  -3.682  -0.569  0.00  0.00     0.009 SA
ATOM     21  HN  UNL d   1      -4.529  -4.361  -0.537  1.00  0.00     0.195 HD
ENDBRANCH   1  14
TORSDOF 2
