REMARK  6 active torsions:
REMARK  status: ('A' for Active; 'I' for Inactive)
REMARK    1  A    between atoms: O_6  and  C_1 
REMARK    2  A    between atoms: C_10  and  C_2 
REMARK    3  A    between atoms: C_3  and  O_8 
REMARK    4  A    between atoms: C_9  and  C_3 
REMARK    5  A    between atoms: C_15  and  O_6 
REMARK    6  A    between atoms: O_8  and  C_10 
ROOT
ATOM      1  C   UNL d   1       1.298   0.619   0.007  0.00  0.00     0.091 A 
ATOM      2  C   UNL d   1      -0.025   1.026  -0.125  0.00  0.00     0.040 A 
ATOM      3  S   UNL d   1      -1.076  -0.341  -0.165  0.00  0.00    -0.101 SA
ATOM      4  C   UNL d   1       1.434  -0.804  -0.060  0.00  0.00     0.045 A 
ATOM      5  C   UNL d   1       0.219  -1.443  -0.104  0.00  0.00     0.053 A 
ENDROOT
BRANCH   2   6
ATOM      6  C   UNL d   1      -0.572   2.430  -0.197  0.00  0.00     0.228 C 
BRANCH   6   7
ATOM      7  O   UNL d   1      -2.005   2.423  -0.412  0.00  0.00    -0.312 OA
BRANCH   7   8
ATOM      8  C   UNL d   1      -2.761   2.811   0.644  0.00  0.00     0.293 C 
ATOM      9  O   UNL d   1      -2.342   3.134   1.745  0.00  0.00    -0.259 OA
BRANCH   8  10
ATOM     10  C   UNL d   1      -4.215   2.888   0.310  0.00  0.00     0.039 A 
ATOM     11  C   UNL d   1      -5.050   3.593   1.195  0.00  0.00     0.019 A 
ATOM     12  C   UNL d   1      -6.415   3.740   0.929  0.00  0.00     0.025 A 
ATOM     13  C   UNL d   1      -6.961   3.174  -0.217  0.00  0.00     0.034 A 
ATOM     14  C   UNL d   1      -6.152   2.445  -1.091  0.00  0.00     0.025 A 
ATOM     15 CL   UNL d   1      -8.632   3.382  -0.560  0.00  0.00    -0.084 Cl
ATOM     16  C   UNL d   1      -4.780   2.300  -0.830  0.00  0.00     0.019 A 
ENDBRANCH   8  10
ENDBRANCH   7   8
ENDBRANCH   6   7
ENDBRANCH   2   6
BRANCH   1  17
ATOM     17  O   UNL d   1       2.325   1.507   0.145  0.00  0.00    -0.310 OA
BRANCH  17  18
ATOM     18  C   UNL d   1       3.501   1.110   0.756  0.00  0.00     0.076 A 
ATOM     19  C   UNL d   1       4.718   1.423   0.145  0.00  0.00     0.037 A 
ATOM     20  C   UNL d   1       5.921   1.000   0.721  0.00  0.00     0.003 A 
ATOM     21  C   UNL d   1       5.910   0.269   1.913  0.00  0.00     0.000 A 
ATOM     22  C   UNL d   1       4.700  -0.013   2.541  0.00  0.00     0.003 A 
ATOM     23  C   UNL d   1       3.500   0.423   1.976  0.00  0.00     0.037 A 
ENDBRANCH  17  18
ENDBRANCH   1  17
TORSDOF 6
