REMARK  4 active torsions:
REMARK  status: ('A' for Active; 'I' for Inactive)
REMARK    1  A    between atoms: N_12  and  C_3 
REMARK    2  A    between atoms: C_13  and  C_10 
REMARK    3  A    between atoms: C_16  and  C_11 
REMARK       I    between atoms: C_14  and  N_15 
REMARK    4  A    between atoms: C_22  and  C_14 
ROOT
ATOM      1  N   UNL d   1       0.308   0.645   0.011  0.00  0.00    -0.224 N 
ATOM      2  C   UNL d   1       0.148  -0.747   0.001  0.00  0.00     0.131 A 
ATOM      3  C   UNL d   1      -0.830   1.507   0.000  0.00  0.00     0.129 A 
ATOM      4  N   UNL d   1       1.634   0.974   0.007  0.00  0.00    -0.294 N 
ATOM      5  HN  UNL d   1       2.035   1.912   0.023  1.00  0.00     0.187 HD
ATOM      6  C   UNL d   1      -2.047   0.929  -0.025  0.00  0.00     0.084 A 
ATOM      7  N   UNL d   1      -1.074  -1.351   0.020  0.00  0.00    -0.337 N 
ATOM      8  HN  UNL d   1      -1.166  -2.367   0.037  1.00  0.00     0.167 HD
ATOM      9  C   UNL d   1       1.411  -1.284  -0.008  0.00  0.00     0.077 A 
ATOM     10  C   UNL d   1      -2.123  -0.571   0.017  0.00  0.00     0.121 A 
ATOM     11  C   UNL d   1       2.298  -0.186  -0.022  0.00  0.00     0.037 A 
ENDROOT
BRANCH   3  12
ATOM     12  N   UNL d   1      -0.695   2.916   0.052  0.00  0.00    -0.363 N 
ATOM     13  C   UNL d   1       0.466   3.540   0.749  0.00  0.00     0.144 C 
ATOM     14  C   UNL d   1       0.088   4.955   1.224  0.00  0.00     0.146 C 
ATOM     15  N   UNL d   1      -0.284   5.778   0.069  0.00  0.00    -0.345 N 
ATOM     16  C   UNL d   1       0.283   6.977  -0.368  0.00  0.00     0.253 C 
ATOM     17  C   UNL d   1      -1.423   5.217  -0.669  0.00  0.00     0.146 C 
ATOM     18  O   UNL d   1      -0.220   7.624  -1.291  0.00  0.00    -0.267 OA
ATOM     19  C   UNL d   1      -1.171   3.751  -1.089  0.00  0.00     0.144 C 
BRANCH  16  20
ATOM     20  C   UNL d   1       1.513   7.546   0.258  0.00  0.00     0.032 A 
ATOM     21  C   UNL d   1       2.586   6.771   0.717  0.00  0.00     0.017 A 
ATOM     22  C   UNL d   1       3.699   7.373   1.313  0.00  0.00     0.001 A 
ATOM     23  C   UNL d   1       3.792   8.762   1.376  0.00  0.00     0.000 A 
ATOM     24  C   UNL d   1       2.776   9.549   0.843  0.00  0.00     0.001 A 
ATOM     25  C   UNL d   1       1.640   8.946   0.294  0.00  0.00     0.017 A 
ENDBRANCH  16  20
ENDBRANCH   3  12
BRANCH  10  26
ATOM     26  C   UNL d   1      -3.522  -1.186   0.084  0.00  0.00     0.432 C 
ATOM     27  F   UNL d   1      -4.512  -0.250   0.121  0.00  0.00    -0.165 F 
ATOM     28  F   UNL d   1      -3.791  -1.978  -0.989  0.00  0.00    -0.165 F 
ATOM     29  F   UNL d   1      -3.693  -1.958   1.193  0.00  0.00    -0.165 F 
ENDBRANCH  10  26
BRANCH  11  30
ATOM     30  C   UNL d   1       3.821  -0.208  -0.017  0.00  0.00    -0.007 C 
ATOM     31  C   UNL d   1       4.328  -0.247   1.437  0.00  0.00     0.021 C 
ATOM     32  C   UNL d   1       4.362  -1.445  -0.763  0.00  0.00     0.021 C 
ATOM     33  C   UNL d   1       4.405   1.044  -0.708  0.00  0.00     0.021 C 
ENDBRANCH  11  30
TORSDOF 4
