REMARK  5 active torsions:
REMARK  status: ('A' for Active; 'I' for Inactive)
REMARK    1  A    between atoms: C_4  and  C_1 
REMARK       I    between atoms: N_5  and  C_1 
REMARK    2  A    between atoms: C_2  and  C_3 
REMARK       I    between atoms: N_7  and  C_2 
REMARK    3  A    between atoms: C_6  and  N_5 
REMARK    4  A    between atoms: C_11  and  N_7 
REMARK    5  A    between atoms: O_20  and  C_13 
ROOT
ATOM      1  C   UNL d   1      -1.850  -0.078   1.227  0.00  0.00     0.059 A 
ATOM      2  C   UNL d   1      -1.136   1.088   0.891  0.00  0.00     0.050 A 
ATOM      3  C   UNL d   1      -3.239  -0.007   1.437  0.00  0.00     0.019 A 
ATOM      4  C   UNL d   1      -1.818   2.312   0.839  0.00  0.00     0.030 A 
ATOM      5  C   UNL d   1      -3.911   1.210   1.323  0.00  0.00     0.001 A 
ATOM      6  C   UNL d   1      -3.197   2.371   1.037  0.00  0.00     0.002 A 
ENDROOT
BRANCH   1   7
ATOM      7  C   UNL d   1      -1.164  -1.341   1.618  0.00  0.00     0.258 C 
ATOM      8  N   UNL d   1      -1.715  -2.492   1.080  0.00  0.00    -0.323 N 
ATOM      9  H   UNL d   1      -2.436  -2.364   0.383  0.00  0.00     0.169 HD
ATOM     10  O   UNL d   1      -0.222  -1.267   2.402  0.00  0.00    -0.267 OA
BRANCH   8  11
ATOM     11  C   UNL d   1      -1.246  -3.814   1.247  0.00  0.00     0.035 A 
ATOM     12  C   UNL d   1      -0.191  -4.161   2.092  0.00  0.00     0.032 A 
ATOM     13  C   UNL d   1       0.295  -5.473   2.126  0.00  0.00     0.039 A 
ATOM     14  C   UNL d   1      -0.273  -6.450   1.312  0.00  0.00     0.068 A 
ATOM     15  C   UNL d   1      -1.383  -6.133   0.533  0.00  0.00     0.039 A 
ATOM     16  C   UNL d   1      -1.863  -4.821   0.494  0.00  0.00     0.032 A 
BRANCH  14  17
ATOM     17  O   UNL d   1       0.178  -7.739   1.233  0.00  0.00    -0.356 OA
ATOM     18  C   UNL d   1       1.600  -7.852   1.271  0.00  0.00     0.210 C 
ENDBRANCH  14  17
ENDBRANCH   8  11
ENDBRANCH   1   7
BRANCH   2  19
ATOM     19  N   UNL d   1       0.247   1.144   0.612  0.00  0.00    -0.322 N 
ATOM     20  C   UNL d   1       0.954   0.194  -0.096  0.00  0.00     0.257 C 
ATOM     21  O   UNL d   1       0.417  -0.733  -0.701  0.00  0.00    -0.267 OA
ATOM     22  H   UNL d   1       0.701   2.037   0.759  0.00  0.00     0.169 HD
BRANCH  20  23
ATOM     23  C   UNL d   1       2.446   0.354  -0.179  0.00  0.00     0.054 A 
ATOM     24  C   UNL d   1       3.192   1.481   0.209  0.00  0.00     0.049 A 
ATOM     25 CL   UNL d   1       2.507   2.967   0.775  0.00  0.00    -0.083 Cl
ATOM     26  C   UNL d   1       4.594   1.469   0.117  0.00  0.00     0.025 A 
ATOM     27  C   UNL d   1       5.268   0.353  -0.376  0.00  0.00     0.002 A 
ATOM     28  C   UNL d   1       4.543  -0.758  -0.789  0.00  0.00     0.001 A 
ATOM     29  C   UNL d   1       3.149  -0.757  -0.689  0.00  0.00     0.019 A 
ENDBRANCH  20  23
ENDBRANCH   2  19
TORSDOF 5
