REMARK  4 active torsions:
REMARK  status: ('A' for Active; 'I' for Inactive)
REMARK    1  A    between atoms: C_7  and  C_2 
REMARK    2  A    between atoms: S_8  and  C_3 
REMARK    3  A    between atoms: C_11  and  S_8 
REMARK    4  A    between atoms: C_13  and  C_11 
ROOT
ATOM      1  S   UNL d   1      -1.182  -0.108  -0.036  0.00  0.00    -0.076 SA
ATOM      2  C   UNL d   1       0.071   1.209   0.059  0.00  0.00     0.194 C 
ATOM      3  C   UNL d   1       0.116  -1.270   0.050  0.00  0.00     0.120 C 
ATOM      4  N   UNL d   1       1.335  -0.827   0.010  0.00  0.00    -0.308 N 
ATOM      5  HN  UNL d   1       2.170  -1.404   0.117  1.00  0.00     0.182 HD
ATOM      6  N   UNL d   1       1.341   0.521  -0.197  0.00  0.00    -0.219 NA
ATOM      7  H   UNL d   1       2.131   1.006   0.229  0.00  0.00     0.148 HD
ENDROOT
BRANCH   3   8
ATOM      8  S   UNL d   1      -0.312  -2.940   0.194  0.00  0.00    -0.100 SA
BRANCH   8   9
ATOM      9  C   UNL d   1       1.248  -3.615   0.820  0.00  0.00     0.120 C 
BRANCH   9  10
ATOM     10  C   UNL d   1       1.166  -5.116   0.966  0.00  0.00    -0.048 A 
ATOM     11  C   UNL d   1       1.621  -5.954  -0.064  0.00  0.00     0.009 A 
ATOM     12  C   UNL d   1       1.517  -7.342   0.053  0.00  0.00     0.024 A 
ATOM     13  C   UNL d   1       0.953  -7.900   1.198  0.00  0.00     0.034 A 
ATOM     14  C   UNL d   1       0.491  -7.082   2.227  0.00  0.00     0.024 A 
ATOM     15 CL   UNL d   1       0.817  -9.609   1.338  0.00  0.00    -0.084 Cl
ATOM     16  C   UNL d   1       0.597  -5.694   2.111  0.00  0.00     0.009 A 
ENDBRANCH   9  10
ENDBRANCH   8   9
ENDBRANCH   3   8
BRANCH   2  17
ATOM     17  C   UNL d   1      -0.188   2.361  -0.890  0.00  0.00     0.038 A 
ATOM     18  N   UNL d   1      -0.408   3.583  -0.332  0.00  0.00    -0.367 N 
ATOM     19  C   UNL d   1      -0.645   4.620  -1.167  0.00  0.00     0.088 A 
ATOM     20  HN  UNL d   1      -0.395   3.712   0.680  1.00  0.00     0.165 HD
ATOM     21  C   UNL d   1      -0.668   4.509  -2.547  0.00  0.00     0.017 A 
ATOM     22  C   UNL d   1      -0.433   3.262  -3.109  0.00  0.00     0.003 A 
ATOM     23  C   UNL d   1      -0.188   2.174  -2.275  0.00  0.00     0.027 A 
ENDBRANCH   2  17
TORSDOF 4
