REMARK  2 active torsions:
REMARK  status: ('A' for Active; 'I' for Inactive)
REMARK       I    between atoms: N_2  and  C_1 
REMARK       I    between atoms: N_3  and  C_1 
REMARK    1  A    between atoms: C_10  and  N_3 
REMARK    2  A    between atoms: C_5  and  N_4 
ROOT
ATOM      1  C   UNL d   1      -2.905  -3.363  -2.656  0.00  0.00     0.103 A 
ATOM      2  N   UNL d   1      -4.110  -2.849  -2.978  0.00  0.00    -0.351 N 
ATOM      3  HN  UNL d   1      -4.446  -1.990  -2.540  1.00  0.00     0.166 HD
ATOM      4  N   UNL d   1      -5.970  -5.780  -6.317  0.00  0.00    -0.191 NA
ATOM      5  C   UNL d   1      -5.299  -5.276  -5.521  0.00  0.00     0.101 C 
ATOM      6  C   UNL d   1      -4.462  -4.658  -4.542  0.00  0.00     0.060 A 
ATOM      7  C   UNL d   1      -2.442  -4.534  -3.261  0.00  0.00     0.050 A 
ATOM      8  C   UNL d   1      -4.863  -3.501  -3.896  0.00  0.00     0.112 A 
ATOM      9  C   UNL d   1      -3.219  -5.185  -4.217  0.00  0.00     0.028 A 
ENDROOT
BRANCH   1  10
ATOM     10  N   UNL d   1      -2.075  -2.699  -1.764  0.00  0.00    -0.366 N 
ATOM     11  C   UNL d   1      -2.268  -1.249  -1.603  0.00  0.00     0.144 C 
ATOM     12  C   UNL d   1      -0.920  -0.521  -1.766  0.00  0.00     0.147 C 
ATOM     13  N   UNL d   1       0.152  -1.013  -0.882  0.00  0.00    -0.332 N 
ATOM     14  C   UNL d   1       0.862  -0.077  -0.134  0.00  0.00     0.323 C 
ATOM     15  C   UNL d   1       0.600  -2.388  -1.111  0.00  0.00     0.129 C 
ATOM     16  N   UNL d   1       1.738  -0.635   0.782  0.00  0.00    -0.308 N 
ATOM     17  O   UNL d   1       0.665   1.130  -0.249  0.00  0.00    -0.247 OA
ATOM     18  H   UNL d   1       1.387  -1.498   1.161  0.00  0.00     0.170 HD
ATOM     19  C   UNL d   1      -0.194  -3.440  -0.342  0.00  0.00     0.040 C 
ATOM     20  C   UNL d   1      -1.709  -3.420  -0.548  0.00  0.00     0.126 C 
BRANCH  16  21
ATOM     21  C   UNL d   1       2.491   0.176   1.663  0.00  0.00     0.042 A 
ATOM     22  C   UNL d   1       2.506  -0.101   3.042  0.00  0.00    -0.035 A 
ATOM     23  C   UNL d   1       1.831  -1.302   3.640  0.00  0.00     0.050 C 
ATOM     24  C   UNL d   1       3.082   0.845   3.907  0.00  0.00     0.009 A 
ATOM     25  C   UNL d   1       3.725   1.979   3.408  0.00  0.00     0.001 A 
ATOM     26  C   UNL d   1       3.818   2.176   2.035  0.00  0.00     0.002 A 
ATOM     27  C   UNL d   1       3.194   1.282   1.167  0.00  0.00     0.030 A 
ENDBRANCH  16  21
ENDBRANCH   1  10
TORSDOF 2
