REMARK  8 active torsions:
REMARK  status: ('A' for Active; 'I' for Inactive)
REMARK    1  A    between atoms: C_17  and  C_1 
REMARK    2  A    between atoms: C_7  and  N_11 
REMARK    3  A    between atoms: N_8  and  C_7 
REMARK    4  A    between atoms: C_10  and  N_8 
REMARK    5  A    between atoms: C_9  and  C_19 
REMARK       I    between atoms: N_12  and  C_9 
REMARK    6  A    between atoms: N_11  and  N_12 
REMARK    7  A    between atoms: S_16  and  C_17 
REMARK    8  A    between atoms: C_19  and  S_16 
ROOT
ATOM      1  C   UNL d   1      -3.983   5.474   1.051  0.00  0.00     0.245 C 
ATOM      2  N   UNL d   1      -4.171   5.966   2.321  0.00  0.00    -0.267 N 
ATOM      3  O   UNL d   1      -3.849   6.256   0.110  0.00  0.00    -0.271 OA
ATOM      4  H   UNL d   1      -4.252   6.974   2.425  0.00  0.00     0.190 HD
ENDROOT
BRANCH   1   5
ATOM      5  C   UNL d   1      -3.955   3.967   0.845  0.00  0.00     0.178 C 
BRANCH   5   6
ATOM      6  S   UNL d   1      -2.271   3.313   1.068  0.00  0.00    -0.155 SA
BRANCH   6   7
ATOM      7  C   UNL d   1      -2.497   1.698   0.238  0.00  0.00     0.114 C 
BRANCH   7   8
ATOM      8  C   UNL d   1      -1.193   0.908   0.144  0.00  0.00    -0.036 C 
ATOM      9  C   UNL d   1      -0.754   0.118   1.243  0.00  0.00    -0.048 C 
ATOM     10  C   UNL d   1       0.530  -0.482   1.209  0.00  0.00    -0.049 C 
ATOM     11  C   UNL d   1      -1.639  -0.054   2.459  0.00  0.00     0.049 C 
ATOM     12  C   UNL d   1       1.092  -1.176   2.434  0.00  0.00     0.049 C 
ATOM     13  C   UNL d   1       1.284  -0.478   0.006  0.00  0.00    -0.049 C 
ATOM     14  C   UNL d   1       0.796   0.208  -1.136  0.00  0.00    -0.049 C 
ATOM     15  C   UNL d   1       2.613  -1.207  -0.022  0.00  0.00     0.049 C 
ATOM     16  C   UNL d   1      -0.396   0.976  -1.038  0.00  0.00    -0.048 C 
ATOM     17  C   UNL d   1       1.581   0.128  -2.428  0.00  0.00     0.049 C 
ATOM     18  C   UNL d   1      -0.864   1.828  -2.200  0.00  0.00     0.049 C 
ENDBRANCH   7   8
ENDBRANCH   6   7
ENDBRANCH   5   6
ENDBRANCH   1   5
BRANCH   2  19
ATOM     19  N   UNL d   1      -4.287   5.181   3.462  0.00  0.00    -0.274 N 
ATOM     20  H   UNL d   1      -3.557   4.496   3.633  0.00  0.00     0.189 HD
BRANCH  19  21
ATOM     21  C   UNL d   1      -5.299   5.372   4.377  0.00  0.00     0.191 C 
ATOM     22  S   UNL d   1      -6.659   6.312   4.122  0.00  0.00    -0.039 SA
BRANCH  21  23
ATOM     23  N   UNL d   1      -5.204   4.667   5.545  0.00  0.00    -0.331 N 
ATOM     24  H   UNL d   1      -6.086   4.526   6.030  0.00  0.00     0.168 HD
BRANCH  23  25
ATOM     25  C   UNL d   1      -4.053   4.245   6.256  0.00  0.00     0.056 A 
ATOM     26  C   UNL d   1      -4.188   3.276   7.265  0.00  0.00     0.060 A 
ATOM     27 CL   UNL d   1      -5.716   2.535   7.598  0.00  0.00    -0.082 Cl
ATOM     28  C   UNL d   1      -3.080   2.868   8.014  0.00  0.00     0.026 A 
ATOM     29  C   UNL d   1      -1.833   3.445   7.783  0.00  0.00     0.002 A 
ATOM     30  C   UNL d   1      -1.695   4.433   6.810  0.00  0.00     0.002 A 
ATOM     31  C   UNL d   1      -2.800   4.833   6.053  0.00  0.00     0.031 A 
ENDBRANCH  23  25
ENDBRANCH  21  23
ENDBRANCH  19  21
ENDBRANCH   2  19
TORSDOF 8
