REMARK  6 active torsions:
REMARK  status: ('A' for Active; 'I' for Inactive)
REMARK    1  A    between atoms: C_6  and  S_1 
REMARK    2  A    between atoms: N_11  and  S_1 
REMARK    3  A    between atoms: C_2  and  N_9 
REMARK    4  A    between atoms: N_4  and  C_2 
REMARK    5  A    between atoms: C_5  and  N_4 
REMARK    6  A    between atoms: N_9  and  C_16 
ROOT
ATOM      1  N   UNL d   1      -0.334  -2.897   4.844  0.00  0.00    -0.333 N 
ATOM      2  H   UNL d   1      -0.102  -2.491   5.744  0.00  0.00     0.168 HD
ENDROOT
BRANCH   1   3
ATOM      3  C   UNL d   1      -0.273  -4.263   4.822  0.00  0.00     0.176 C 
ATOM      4  S   UNL d   1       0.451  -5.189   3.632  0.00  0.00    -0.041 SA
BRANCH   3   5
ATOM      5  N   UNL d   1      -0.716  -4.902   5.952  0.00  0.00    -0.332 N 
ATOM      6  H   UNL d   1      -0.352  -5.848   6.056  0.00  0.00     0.168 HD
BRANCH   5   7
ATOM      7  C   UNL d   1      -1.887  -4.654   6.725  0.00  0.00     0.058 A 
ATOM      8  C   UNL d   1      -2.214  -5.561   7.760  0.00  0.00     0.082 A 
ATOM      9  C   UNL d   1      -3.438  -5.448   8.438  0.00  0.00     0.058 A 
ATOM     10 CL   UNL d   1      -1.092  -6.829   8.161  0.00  0.00    -0.080 Cl
ATOM     11 CL   UNL d   1      -3.922  -6.553   9.678  0.00  0.00    -0.082 Cl
ATOM     12  C   UNL d   1      -4.334  -4.431   8.104  0.00  0.00     0.026 A 
ATOM     13  C   UNL d   1      -4.005  -3.518   7.107  0.00  0.00     0.004 A 
ATOM     14  C   UNL d   1      -2.792  -3.629   6.422  0.00  0.00     0.031 A 
ENDBRANCH   5   7
ENDBRANCH   3   5
ENDBRANCH   1   3
BRANCH   1  15
ATOM     15  C   UNL d   1      -0.573  -1.994   3.789  0.00  0.00     0.034 A 
ATOM     16  C   UNL d   1      -1.311  -2.344   2.651  0.00  0.00     0.031 A 
ATOM     17  C   UNL d   1      -1.728  -1.358   1.750  0.00  0.00     0.027 A 
ATOM     18  C   UNL d   1      -1.383  -0.026   1.978  0.00  0.00     0.074 A 
ATOM     19  C   UNL d   1      -0.586   0.324   3.072  0.00  0.00     0.027 A 
ATOM     20  C   UNL d   1      -0.197  -0.661   3.982  0.00  0.00     0.031 A 
BRANCH  18  21
ATOM     21  S   UNL d   1      -2.030   1.254   0.933  0.00  0.00     0.239 S 
ATOM     22  O   UNL d   1      -1.369   2.493   1.257  0.00  0.00    -0.206 OA
ATOM     23  O   UNL d   1      -3.464   1.119   0.887  0.00  0.00    -0.206 OA
BRANCH  21  24
ATOM     24  N   UNL d   1      -1.452   0.833  -0.585  0.00  0.00    -0.225 NA
ATOM     25  H   UNL d   1      -0.668   1.435  -0.835  0.00  0.00     0.136 HD
ATOM     26  H   UNL d   1      -2.221   0.870  -1.250  0.00  0.00     0.136 HD
ENDBRANCH  21  24
ENDBRANCH  18  21
ENDBRANCH   1  15
TORSDOF 6
