REMARK  1 active torsions:
REMARK  status: ('A' for Active; 'I' for Inactive)
REMARK    1  A    between atoms: C_15  and  C_5 
ROOT
ATOM      1  C   UNL d   1      -2.782   0.863   0.591  0.00  0.00     0.056 A 
ATOM      2  C   UNL d   1      -4.032   1.286   1.255  0.00  0.00     0.153 A 
ATOM      3  N   UNL d   1      -4.881   0.310   1.677  0.00  0.00    -0.219 N 
ATOM      4  C   UNL d   1      -2.681  -0.521   0.476  0.00  0.00     0.089 A 
ATOM      5  C   UNL d   1      -1.675   1.590   0.056  0.00  0.00    -0.003 A 
ATOM      6  N   UNL d   1      -3.568  -1.482   0.907  0.00  0.00    -0.345 N 
ATOM      7  HN  UNL d   1      -3.393  -2.477   0.769  1.00  0.00     0.167 HD
ATOM      8  N   UNL d   1      -5.741   2.159   2.210  0.00  0.00    -0.007 NA
ATOM      9  N   UNL d   1      -5.947   0.845   2.283  0.00  0.00     0.001 NA
ATOM     10  N   UNL d   1      -4.552   2.450   1.563  0.00  0.00    -0.269 N 
ATOM     11  HN  UNL d   1      -4.164   3.373   1.369  1.00  0.00     0.185 HD
ATOM     12  C   UNL d   1      -4.648  -1.046   1.503  0.00  0.00     0.207 A 
ATOM     13  S   UNL d   1      -1.232  -0.949  -0.315  0.00  0.00    -0.082 SA
ATOM     14  C   UNL d   1      -0.756   0.691  -0.465  0.00  0.00     0.065 A 
ENDROOT
BRANCH   5  15
ATOM     15  C   UNL d   1      -1.420   3.034   0.021  0.00  0.00    -0.024 A 
ATOM     16  C   UNL d   1      -1.825   3.861   1.076  0.00  0.00     0.013 A 
ATOM     17  C   UNL d   1      -1.608   5.242   1.035  0.00  0.00     0.007 A 
ATOM     18  C   UNL d   1      -0.943   5.825  -0.046  0.00  0.00    -0.062 A 
ATOM     19  C   UNL d   1      -0.509   5.006  -1.091  0.00  0.00     0.007 A 
ATOM     20  C   UNL d   1      -0.712   7.306  -0.069  0.00  0.00     0.048 C 
ATOM     21  C   UNL d   1      -0.753   3.628  -1.062  0.00  0.00     0.013 A 
ENDBRANCH   5  15
TORSDOF 1
