REMARK  5 active torsions:
REMARK  status: ('A' for Active; 'I' for Inactive)
REMARK    1  A    between atoms: C_7  and  C_1 
REMARK    2  A    between atoms: S_17  and  C_10 
REMARK    3  A    between atoms: C_12  and  C_22 
REMARK       I    between atoms: N_16  and  C_12 
REMARK    4  A    between atoms: C_23  and  N_16 
REMARK    5  A    between atoms: C_22  and  S_17 
ROOT
ATOM      1  C   UNL d   1       2.072  -2.460  -0.125  0.00  0.00     0.065 A 
ATOM      2  N   UNL d   1       2.349  -2.951   1.095  0.00  0.00    -0.335 N 
ATOM      3  HN  UNL d   1       2.269  -2.378   1.935  1.00  0.00     0.168 HD
ATOM      4  C   UNL d   1       2.737  -4.233   1.151  0.00  0.00     0.145 A 
ATOM      5  N   UNL d   1       2.882  -5.051   0.101  0.00  0.00    -0.347 N 
ATOM      6  HN  UNL d   1       3.197  -6.016   0.205  1.00  0.00     0.167 HD
ATOM      7  C   UNL d   1       2.167  -3.224  -1.268  0.00  0.00     0.049 A 
ATOM      8  C   UNL d   1       2.587  -4.523  -1.096  0.00  0.00     0.092 A 
ENDROOT
BRANCH   4   9
ATOM      9  S   UNL d   1       2.820  -4.989   2.749  0.00  0.00    -0.085 SA
BRANCH   9  10
ATOM     10  C   UNL d   1       1.076  -4.739   3.183  0.00  0.00     0.185 C 
BRANCH  10  11
ATOM     11  C   UNL d   1       0.100  -5.279   2.143  0.00  0.00     0.231 C 
ATOM     12  N   UNL d   1       0.428  -6.516   1.613  0.00  0.00    -0.327 N 
ATOM     13  H   UNL d   1       1.300  -6.928   1.932  0.00  0.00     0.169 HD
ATOM     14  O   UNL d   1      -0.941  -4.662   1.915  0.00  0.00    -0.272 OA
BRANCH  12  15
ATOM     15  C   UNL d   1      -0.350  -7.288   0.724  0.00  0.00     0.034 A 
ATOM     16  C   UNL d   1      -1.473  -6.791   0.053  0.00  0.00     0.032 A 
ATOM     17  C   UNL d   1      -2.271  -7.637  -0.722  0.00  0.00     0.044 A 
ATOM     18  C   UNL d   1      -1.939  -8.980  -0.831  0.00  0.00     0.116 A 
ATOM     19  C   UNL d   1      -0.798  -9.482  -0.220  0.00  0.00     0.044 A 
ATOM     20  F   UNL d   1      -2.732  -9.801  -1.531  0.00  0.00    -0.206 F 
ATOM     21  C   UNL d   1       0.008  -8.631   0.544  0.00  0.00     0.032 A 
ENDBRANCH  12  15
ENDBRANCH  10  11
ENDBRANCH   9  10
ENDBRANCH   4   9
BRANCH   1  22
ATOM     22  C   UNL d   1       1.609  -1.072  -0.147  0.00  0.00     0.089 A 
ATOM     23  N   UNL d   1       2.108  -0.049   0.657  0.00  0.00    -0.304 N 
ATOM     24  C   UNL d   1       1.395   1.104   0.325  0.00  0.00     0.112 A 
ATOM     25  C   UNL d   1       3.128  -0.041   1.615  0.00  0.00     0.099 A 
ATOM     26  C   UNL d   1       1.719   2.308   1.018  0.00  0.00     0.049 A 
ATOM     27  N   UNL d   1       0.511   0.879  -0.614  0.00  0.00    -0.344 N 
ATOM     28  C   UNL d   1       2.694   2.308   1.946  0.00  0.00     0.005 A 
ATOM     29  C   UNL d   1       3.433   1.098   2.261  0.00  0.00     0.018 A 
ATOM     30  C   UNL d   1       0.614  -0.459  -0.907  0.00  0.00     0.036 A 
ATOM     31  HN  UNL d   1      -0.123   1.556  -1.039  1.00  0.00     0.167 HD
ATOM     32  C   UNL d   1      -0.307  -1.041  -1.913  0.00  0.00     0.070 C 
ENDBRANCH   1  22
TORSDOF 5
