REMARK  1 active torsions:
REMARK  status: ('A' for Active; 'I' for Inactive)
REMARK    1  A    between atoms: C_2  and  C_1 
ROOT
ATOM      1  C   UNL d   1       0.177   1.181  -0.034  0.00  0.00    -0.004 A 
ATOM      2  N   UNL d   1       2.938   2.885  -1.577  0.00  0.00    -0.191 NA
ATOM      3  C   UNL d   1       2.284   2.054  -1.092  0.00  0.00     0.100 C 
ATOM      4  C   UNL d   1       1.489   0.991  -0.545  0.00  0.00     0.055 A 
ATOM      5  C   UNL d   1      -0.458   0.024   0.475  0.00  0.00     0.014 A 
ATOM      6  C   UNL d   1       2.099  -0.282  -0.536  0.00  0.00     0.023 A 
ATOM      7  C   UNL d   1       0.175  -1.224   0.529  0.00  0.00     0.001 A 
ATOM      8  C   UNL d   1       1.452  -1.381   0.011  0.00  0.00     0.002 A 
ENDROOT
BRANCH   1   9
ATOM      9  C   UNL d   1      -0.548   2.502  -0.032  0.00  0.00    -0.004 A 
ATOM     10  C   UNL d   1      -1.370   2.960   1.033  0.00  0.00     0.055 A 
ATOM     11  C   UNL d   1      -1.567   2.222   2.253  0.00  0.00     0.100 C 
ATOM     12  C   UNL d   1      -2.043   4.198   0.954  0.00  0.00     0.023 A 
ATOM     13  N   UNL d   1      -1.772   1.636   3.232  0.00  0.00    -0.191 NA
ATOM     14  C   UNL d   1      -1.879   5.032  -0.145  0.00  0.00     0.002 A 
ATOM     15  C   UNL d   1      -1.069   4.620  -1.191  0.00  0.00     0.001 A 
ATOM     16  C   UNL d   1      -0.449   3.366  -1.148  0.00  0.00     0.014 A 
ENDBRANCH   1   9
TORSDOF 1
