REMARK  3 active torsions:
REMARK  status: ('A' for Active; 'I' for Inactive)
REMARK    1  A    between atoms: C_12  and  C_2 
REMARK    2  A    between atoms: C_13  and  C_9 
REMARK    3  A    between atoms: C_14  and  C_11 
ROOT
ATOM      1  N   UNL d   1       0.280   0.622   0.091  0.00  0.00    -0.235 N 
ATOM      2  C   UNL d   1      -0.845   1.436   0.086  0.00  0.00     0.144 A 
ATOM      3  C   UNL d   1       0.145  -0.770   0.031  0.00  0.00     0.130 A 
ATOM      4  N   UNL d   1       1.582   0.978   0.148  0.00  0.00    -0.289 N 
ATOM      5  HN  UNL d   1       1.963   1.917   0.266  1.00  0.00     0.188 HD
ATOM      6  N   UNL d   1      -1.073  -1.390   0.053  0.00  0.00    -0.340 N 
ATOM      7  HN  UNL d   1      -1.154  -2.407   0.054  1.00  0.00     0.167 HD
ATOM      8  C   UNL d   1       1.419  -1.278  -0.073  0.00  0.00     0.084 A 
ATOM      9  C   UNL d   1       2.264  -0.162   0.016  0.00  0.00     0.086 A 
ATOM     10  C   UNL d   1      -2.069   0.875   0.070  0.00  0.00     0.067 A 
ATOM     11  C   UNL d   1      -2.126  -0.623   0.074  0.00  0.00     0.046 A 
ENDROOT
BRANCH  11  12
ATOM     12  C   UNL d   1      -3.483  -1.247   0.134  0.00  0.00    -0.009 A 
ATOM     13  C   UNL d   1      -3.628  -2.462   0.822  0.00  0.00     0.021 A 
ATOM     14  C   UNL d   1      -4.884  -3.045   0.881  0.00  0.00    -0.051 A 
ATOM     15  C   UNL d   1      -5.291  -4.299   1.591  0.00  0.00     0.039 C 
ATOM     16  C   UNL d   1      -5.988  -2.442   0.271  0.00  0.00    -0.052 A 
ATOM     17  C   UNL d   1      -6.635  -4.600   0.911  0.00  0.00     0.009 C 
ATOM     18  C   UNL d   1      -7.229  -3.247   0.494  0.00  0.00     0.039 C 
ATOM     19  C   UNL d   1      -5.864  -1.242  -0.406  0.00  0.00     0.008 A 
ATOM     20  C   UNL d   1      -4.600  -0.648  -0.483  0.00  0.00     0.014 A 
ENDBRANCH  11  12
BRANCH   2  21
ATOM     21  C   UNL d   1      -0.665   2.909   0.073  0.00  0.00     0.434 C 
ATOM     22  F   UNL d   1       0.606   3.373   0.038  0.00  0.00    -0.165 F 
ATOM     23  F   UNL d   1      -1.293   3.453  -1.008  0.00  0.00    -0.165 F 
ATOM     24  F   UNL d   1      -1.252   3.476   1.163  0.00  0.00    -0.165 F 
ENDBRANCH   2  21
BRANCH   9  25
ATOM     25  C   UNL d   1       3.752  -0.190  -0.033  0.00  0.00     0.103 A 
ATOM     26  O   UNL d   1       4.505  -1.308  -0.260  0.00  0.00    -0.320 OA
ATOM     27  C   UNL d   1       5.807  -0.924  -0.257  0.00  0.00     0.142 A 
ATOM     28  C   UNL d   1       5.913   0.424  -0.010  0.00  0.00     0.027 A 
ATOM     29  C   UNL d   1       4.588   0.899   0.134  0.00  0.00     0.041 A 
ENDBRANCH   9  25
TORSDOF 3
