REMARK  9 active torsions:
REMARK  status: ('A' for Active; 'I' for Inactive)
REMARK    1  A    between atoms: N_2  and  C_1 
REMARK    2  A    between atoms: C_3  and  C_1 
REMARK    3  A    between atoms: N_4  and  C_1 
REMARK    4  A    between atoms: C_8  and  C_1 
REMARK       I    between atoms: C_6  and  N_2 
REMARK    5  A    between atoms: C_9  and  N_4 
REMARK    6  A    between atoms: C_5  and  C_7 
REMARK    7  A    between atoms: C_10  and  C_6 
REMARK    8  A    between atoms: O_21  and  C_8 
REMARK    9  A    between atoms: C_27  and  O_21 
ROOT
ATOM      1  C   UNL d   1       1.144  -0.011  -0.264  0.00  0.00     0.297 C 
ENDROOT
BRANCH   1   2
ATOM      2  N   UNL d   1       0.743   1.116  -1.125  0.00  0.00    -0.315 N 
ATOM      3  C   UNL d   1       1.016   2.429  -0.800  0.00  0.00     0.255 C 
ATOM      4  O   UNL d   1       1.668   2.747   0.185  0.00  0.00    -0.268 OA
ATOM      5  H   UNL d   1      -0.074   0.936  -1.688  0.00  0.00     0.166 HD
BRANCH   3   6
ATOM      6  C   UNL d   1       0.467   3.454  -1.723  0.00  0.00     0.047 A 
ATOM      7  C   UNL d   1       0.414   4.780  -1.310  0.00  0.00     0.104 A 
ATOM      8  N   UNL d   1      -0.058   5.795  -2.080  0.00  0.00    -0.374 N 
ATOM      9  C   UNL d   1      -0.485   5.475  -3.321  0.00  0.00     0.087 A 
ATOM     10  HN  UNL d   1      -0.088   6.755  -1.738  1.00  0.00     0.164 HD
ATOM     11  C   UNL d   1      -0.460   4.187  -3.830  0.00  0.00     0.018 A 
ATOM     12  C   UNL d   1       0.028   3.163  -3.019  0.00  0.00     0.020 A 
ENDBRANCH   3   6
ENDBRANCH   1   2
BRANCH   1  13
ATOM     13  C   UNL d   1       1.000  -1.390  -1.011  0.00  0.00     0.442 C 
ATOM     14  F   UNL d   1       0.141  -1.247  -2.068  0.00  0.00    -0.166 F 
ATOM     15  F   UNL d   1       2.147  -1.862  -1.555  0.00  0.00    -0.166 F 
ATOM     16  F   UNL d   1       0.492  -2.378  -0.239  0.00  0.00    -0.166 F 
ENDBRANCH   1  13
BRANCH   1  17
ATOM     17  N   UNL d   1       0.369   0.139   1.000  0.00  0.00    -0.347 N 
ATOM     18  H   UNL d   1       0.872   0.773   1.630  0.00  0.00     0.163 HD
BRANCH  17  19
ATOM     19  C   UNL d   1      -1.004   0.097   1.191  0.00  0.00     0.045 A 
ATOM     20  C   UNL d   1      -1.582   0.562   2.396  0.00  0.00     0.074 A 
ATOM     21  C   UNL d   1      -2.972   0.411   2.628  0.00  0.00     0.018 A 
ATOM     22  C   UNL d   1      -3.797  -0.200   1.694  0.00  0.00     0.001 A 
ATOM     23  C   UNL d   1      -3.245  -0.663   0.513  0.00  0.00     0.002 A 
ATOM     24  C   UNL d   1      -1.873  -0.518   0.274  0.00  0.00     0.030 A 
BRANCH  20  25
ATOM     25  C   UNL d   1      -0.804   1.258   3.490  0.00  0.00     0.419 C 
ATOM     26  F   UNL d   1       0.530   1.400   3.242  0.00  0.00    -0.166 F 
ATOM     27  F   UNL d   1      -1.268   2.522   3.720  0.00  0.00    -0.166 F 
ATOM     28  F   UNL d   1      -0.894   0.614   4.688  0.00  0.00    -0.166 F 
ENDBRANCH  20  25
ENDBRANCH  17  19
ENDBRANCH   1  17
BRANCH   1  29
ATOM     29  C   UNL d   1       2.670  -0.047   0.038  0.00  0.00     0.318 C 
ATOM     30  O   UNL d   1       3.169  -0.620   1.002  0.00  0.00    -0.260 OA
BRANCH  29  31
ATOM     31  O   UNL d   1       3.394   0.493  -0.993  0.00  0.00    -0.318 OA
BRANCH  31  32
ATOM     32  C   UNL d   1       4.812   0.278  -0.946  0.00  0.00     0.174 C 
ATOM     33  C   UNL d   1       5.488   1.309  -0.065  0.00  0.00     0.034 C 
ENDBRANCH  31  32
ENDBRANCH  29  31
ENDBRANCH   1  29
TORSDOF 9
