REMARK  6 active torsions:
REMARK  status: ('A' for Active; 'I' for Inactive)
REMARK    1  A    between atoms: C_7  and  C_1 
REMARK    2  A    between atoms: C_10  and  C_2 
REMARK    3  A    between atoms: C_15  and  N_3 
REMARK    4  A    between atoms: S_4  and  N_9 
REMARK    5  A    between atoms: C_12  and  S_4 
REMARK    6  A    between atoms: N_9  and  N_11 
REMARK       I    between atoms: N_11  and  C_10 
ROOT
ATOM      1  C   UNL d   1       1.132  -0.848   0.165  0.00  0.00     0.157 C 
ATOM      2  C   UNL d   1      -0.166  -1.363   0.077  0.00  0.00     0.084 C 
ATOM      3  N   UNL d   1       1.023   0.534   0.056  0.00  0.00    -0.251 N 
ATOM      4  N   UNL d   1      -0.273   0.925   0.110  0.00  0.00    -0.303 N 
ATOM      5  HN  UNL d   1      -0.633   1.876   0.191  1.00  0.00     0.186 HD
ATOM      6  C   UNL d   1      -0.971  -0.202   0.034  0.00  0.00     0.127 C 
ENDROOT
BRANCH   2   7
ATOM      7  C   UNL d   1      -0.721  -2.720   0.083  0.00  0.00     0.274 C 
ATOM      8  N   UNL d   1       0.133  -3.781   0.308  0.00  0.00    -0.256 N 
ATOM      9  H   UNL d   1       1.125  -3.678   0.523  0.00  0.00     0.191 HD
ATOM     10  O   UNL d   1      -1.924  -2.911  -0.100  0.00  0.00    -0.266 OA
BRANCH   8  11
ATOM     11  N   UNL d   1      -0.397  -5.140   0.344  0.00  0.00    -0.220 N 
ATOM     12  H   UNL d   1      -1.395  -5.297   0.175  0.00  0.00     0.200 HD
BRANCH  11  13
ATOM     13  S   UNL d   1       0.675  -6.411   0.611  0.00  0.00     0.276 S 
ATOM     14  O   UNL d   1       1.535  -6.504  -0.550  0.00  0.00    -0.199 OA
ATOM     15  O   UNL d   1       1.239  -6.227   1.930  0.00  0.00    -0.199 OA
BRANCH  13  16
ATOM     16  C   UNL d   1      -0.362  -7.855   0.642  0.00  0.00     0.081 A 
ATOM     17  C   UNL d   1      -0.648  -8.526  -0.554  0.00  0.00     0.028 A 
ATOM     18  C   UNL d   1      -1.352  -9.732  -0.517  0.00  0.00     0.044 A 
ATOM     19  C   UNL d   1      -1.755 -10.259   0.708  0.00  0.00     0.116 A 
ATOM     20  C   UNL d   1      -1.465  -9.602   1.900  0.00  0.00     0.044 A 
ATOM     21  F   UNL d   1      -2.409 -11.426   0.740  0.00  0.00    -0.206 F 
ATOM     22  C   UNL d   1      -0.762  -8.394   1.872  0.00  0.00     0.028 A 
ENDBRANCH  13  16
ENDBRANCH  11  13
ENDBRANCH   8  11
ENDBRANCH   2   7
BRANCH   1  23
ATOM     23  C   UNL d   1       2.433  -1.470   0.444  0.00  0.00     0.435 C 
ATOM     24  F   UNL d   1       2.288  -2.737   0.913  0.00  0.00    -0.165 F 
ATOM     25  F   UNL d   1       3.206  -1.580  -0.660  0.00  0.00    -0.165 F 
ATOM     26  F   UNL d   1       3.140  -0.808   1.388  0.00  0.00    -0.165 F 
ENDBRANCH   1  23
BRANCH   3  27
ATOM     27  C   UNL d   1       2.038   1.532  -0.040  0.00  0.00     0.057 A 
ATOM     28  C   UNL d   1       3.224   1.312  -0.749  0.00  0.00     0.031 A 
ATOM     29  C   UNL d   1       4.240   2.271  -0.738  0.00  0.00     0.002 A 
ATOM     30  C   UNL d   1       4.070   3.464  -0.040  0.00  0.00     0.000 A 
ATOM     31  C   UNL d   1       2.864   3.721   0.609  0.00  0.00     0.002 A 
ATOM     32  C   UNL d   1       1.840   2.769   0.594  0.00  0.00     0.031 A 
ENDBRANCH   3  27
TORSDOF 6
