REMARK  4 active torsions:
REMARK  status: ('A' for Active; 'I' for Inactive)
REMARK    1  A    between atoms: C_2  and  C_1 
REMARK    2  A    between atoms: C_4  and  C_2 
REMARK    3  A    between atoms: S_8  and  C_3 
REMARK    4  A    between atoms: C_9  and  S_8 
ROOT
ATOM      1  C   UNL d   1       0.947   0.047  -0.122  0.00  0.00     0.062 C 
ATOM      2  C   UNL d   1       2.285   0.097  -0.120  0.00  0.00     0.054 C 
ENDROOT
BRANCH   1   3
ATOM      3  C   UNL d   1       0.244  -1.245  -0.339  0.00  0.00     0.182 C 
ATOM      4  O   UNL d   1       0.821  -2.318  -0.219  0.00  0.00    -0.288 OA
BRANCH   3   5
ATOM      5  C   UNL d   1      -1.210  -1.194  -0.663  0.00  0.00     0.014 A 
ATOM      6  C   UNL d   1      -1.777  -0.136  -1.384  0.00  0.00     0.016 A 
ATOM      7  C   UNL d   1      -3.141  -0.149  -1.694  0.00  0.00     0.007 A 
ATOM      8  C   UNL d   1      -3.953  -1.219  -1.298  0.00  0.00    -0.062 A 
ATOM      9  C   UNL d   1      -3.382  -2.276  -0.579  0.00  0.00     0.007 A 
ATOM     10  C   UNL d   1      -5.410  -1.227  -1.658  0.00  0.00     0.048 C 
ATOM     11  C   UNL d   1      -2.018  -2.267  -0.270  0.00  0.00     0.016 A 
ENDBRANCH   3   5
ENDBRANCH   1   3
BRANCH   2  12
ATOM     12  S   UNL d   1       3.102   1.603   0.126  0.00  0.00    -0.102 SA
BRANCH  12  13
ATOM     13  C   UNL d   1       4.322   1.187   1.364  0.00  0.00     0.004 A 
ATOM     14  C   UNL d   1       5.514   1.926   1.375  0.00  0.00     0.020 A 
ATOM     15  C   UNL d   1       6.483   1.709   2.359  0.00  0.00     0.025 A 
ATOM     16  C   UNL d   1       6.265   0.749   3.343  0.00  0.00     0.034 A 
ATOM     17  C   UNL d   1       5.085   0.009   3.350  0.00  0.00     0.025 A 
ATOM     18 CL   UNL d   1       7.450   0.487   4.562  0.00  0.00    -0.084 Cl
ATOM     19  C   UNL d   1       4.113   0.232   2.367  0.00  0.00     0.020 A 
ENDBRANCH  12  13
ENDBRANCH   2  12
TORSDOF 4
