REMARK  3 active torsions:
REMARK  status: ('A' for Active; 'I' for Inactive)
REMARK    1  A    between atoms: C_6  and  C_1 
REMARK    2  A    between atoms: C_7  and  C_6 
REMARK       I    between atoms: N_9  and  C_7 
REMARK       I    between atoms: C_8  and  N_11 
REMARK    3  A    between atoms: N_11  and  N_9 
ROOT
ATOM      1  C   UNL d   1       2.221  -0.021  -0.095  0.00  0.00    -0.001 C 
ATOM      2  S   UNL d   1       1.186   1.298  -0.446  0.00  0.00    -0.093 SA
ATOM      3  C   UNL d   1       1.496  -1.206   0.007  0.00  0.00    -0.037 C 
ATOM      4  C   UNL d   1       0.064  -0.971  -0.014  0.00  0.00    -0.011 A 
ATOM      5  C   UNL d   1      -0.237   0.378  -0.203  0.00  0.00     0.016 A 
ATOM      6  C   UNL d   1      -1.025  -1.874   0.124  0.00  0.00     0.037 A 
ATOM      7  C   UNL d   1      -1.562   0.854  -0.210  0.00  0.00     0.021 A 
ATOM      8  C   UNL d   1      -2.340  -1.405   0.116  0.00  0.00     0.035 A 
ATOM      9  C   UNL d   1      -2.609  -0.054  -0.037  0.00  0.00     0.025 A 
ATOM     10  C   UNL d   1       2.072  -2.587   0.135  0.00  0.00     0.050 C 
ATOM     11 CL   UNL d   1      -3.639  -2.518   0.308  0.00  0.00    -0.084 Cl
ENDROOT
BRANCH   1  12
ATOM     12  C   UNL d   1       3.721   0.160  -0.084  0.00  0.00     0.151 C 
BRANCH  12  13
ATOM     13  C   UNL d   1       4.314   1.315   0.711  0.00  0.00     0.240 C 
ATOM     14  N   UNL d   1       3.488   2.143   1.429  0.00  0.00    -0.267 N 
ATOM     15  H   UNL d   1       2.471   2.129   1.348  0.00  0.00     0.190 HD
ATOM     16  O   UNL d   1       5.539   1.493   0.721  0.00  0.00    -0.271 OA
BRANCH  14  17
ATOM     17  N   UNL d   1       4.054   3.285   2.010  0.00  0.00    -0.268 N 
ATOM     18  C   UNL d   1       3.292   4.040   2.872  0.00  0.00     0.232 C 
ATOM     19  O   UNL d   1       2.092   3.846   3.061  0.00  0.00    -0.272 OA
ATOM     20  C   UNL d   1       4.048   5.151   3.549  0.00  0.00     0.119 C 
ATOM     21  H   UNL d   1       5.069   3.360   1.949  0.00  0.00     0.190 HD
ENDBRANCH  14  17
ENDBRANCH  12  13
ENDBRANCH   1  12
TORSDOF 3
