REMARK  3 active torsions:
REMARK  status: ('A' for Active; 'I' for Inactive)
REMARK    1  A    between atoms: C_2  and  S_1 
REMARK    2  A    between atoms: C_3  and  S_1 
REMARK    3  A    between atoms: C_11  and  C_4 
ROOT
ATOM      1  C   UNL d   1       0.357   1.203  -1.141  0.00  0.00     0.075 A 
ATOM      2  C   UNL d   1      -0.686   1.131  -2.094  0.00  0.00    -0.004 A 
ATOM      3  C   UNL d   1       1.027   2.432  -0.908  0.00  0.00     0.025 A 
ATOM      4  C   UNL d   1      -1.018   2.361  -2.734  0.00  0.00     0.014 A 
ATOM      5  C   UNL d   1       0.690   3.596  -1.587  0.00  0.00     0.002 A 
ATOM      6  C   UNL d   1      -0.346   3.563  -2.501  0.00  0.00     0.001 A 
ENDROOT
BRANCH   1   7
ATOM      7  S   UNL d   1       0.908  -0.125  -0.075  0.00  0.00     0.207 S 
ATOM      8  O   UNL d   1      -0.201  -0.430   0.814  0.00  0.00    -0.217 OA
ATOM      9  O   UNL d   1       2.166   0.301   0.512  0.00  0.00    -0.217 OA
BRANCH   7  10
ATOM     10  C   UNL d   1       1.358  -1.619  -0.910  0.00  0.00     0.066 A 
ATOM     11  C   UNL d   1       1.298  -2.811  -0.172  0.00  0.00     0.049 A 
ATOM     12  C   UNL d   1       1.820  -3.990  -0.705  0.00  0.00     0.057 A 
ATOM     13 CL   UNL d   1       1.768  -5.409   0.278  0.00  0.00    -0.083 Cl
ATOM     14  C   UNL d   1       2.393  -3.979  -1.982  0.00  0.00     0.055 A 
ATOM     15  C   UNL d   1       2.439  -2.785  -2.717  0.00  0.00     0.027 A 
ATOM     16 CL   UNL d   1       3.086  -5.392  -2.695  0.00  0.00    -0.083 Cl
ATOM     17  C   UNL d   1       1.924  -1.597  -2.183  0.00  0.00     0.025 A 
ENDBRANCH   7  10
ENDBRANCH   1   7
BRANCH   2  18
ATOM     18  C   UNL d   1      -1.470  -0.062  -2.526  0.00  0.00    -0.025 A 
ATOM     19  C   UNL d   1      -2.027  -0.997  -1.644  0.00  0.00     0.012 A 
ATOM     20  C   UNL d   1      -2.796  -2.076  -2.100  0.00  0.00     0.001 A 
ATOM     21  C   UNL d   1      -3.091  -2.215  -3.451  0.00  0.00     0.000 A 
ATOM     22  C   UNL d   1      -2.603  -1.281  -4.351  0.00  0.00     0.001 A 
ATOM     23  C   UNL d   1      -1.787  -0.238  -3.896  0.00  0.00     0.012 A 
ENDBRANCH   2  18
TORSDOF 3
