REMARK  7 active torsions:
REMARK  status: ('A' for Active; 'I' for Inactive)
REMARK    1  A    between atoms: C_2  and  C_1 
REMARK    2  A    between atoms: N_10  and  C_3 
REMARK    3  A    between atoms: C_8  and  O_19 
REMARK    4  A    between atoms: C_11  and  C_8 
REMARK    5  A    between atoms: C_25  and  N_10 
REMARK    6  A    between atoms: O_19  and  C_24 
REMARK    7  A    between atoms: C_24  and  C_25 
ROOT
ATOM      1  N   UNL d   1      -0.812   5.348  -1.416  0.00  0.00    -0.368 N 
ATOM      2  C   UNL d   1       0.411   4.862  -2.037  0.00  0.00     0.151 C 
ENDROOT
BRANCH   1   3
ATOM      3  C   UNL d   1      -0.976   5.358  -0.042  0.00  0.00     0.125 A 
ATOM      4  N   UNL d   1      -2.177   4.927   0.428  0.00  0.00    -0.350 N 
ATOM      5  C   UNL d   1      -2.419   4.941   1.762  0.00  0.00     0.106 A 
ATOM      6  HN  UNL d   1      -2.892   4.595  -0.219  1.00  0.00     0.166 HD
ATOM      7  C   UNL d   1      -1.515   5.384   2.710  0.00  0.00     0.065 A 
ATOM      8  C   UNL d   1      -0.282   5.831   2.243  0.00  0.00     0.045 A 
ATOM      9  C   UNL d   1      -0.008   5.830   0.868  0.00  0.00     0.078 A 
ATOM     10 CL   UNL d   1       1.493   6.556   0.396  0.00  0.00    -0.080 Cl
BRANCH   7  11
ATOM     11  C   UNL d   1      -1.892   5.396   4.157  0.00  0.00     0.418 C 
ATOM     12  F   UNL d   1      -0.925   5.916   4.965  0.00  0.00    -0.166 F 
ATOM     13  F   UNL d   1      -2.152   4.152   4.641  0.00  0.00    -0.166 F 
ATOM     14  F   UNL d   1      -3.011   6.133   4.398  0.00  0.00    -0.166 F 
ENDBRANCH   7  11
ENDBRANCH   1   3
BRANCH   1  15
ATOM     15  C   UNL d   1      -2.001   5.472  -2.270  0.00  0.00     0.151 C 
BRANCH  15  16
ATOM     16  C   UNL d   1      -2.678   4.137  -2.611  0.00  0.00     0.199 C 
BRANCH  16  17
ATOM     17  O   UNL d   1      -3.753   4.318  -3.562  0.00  0.00    -0.316 OA
BRANCH  17  18
ATOM     18  C   UNL d   1      -3.368   4.415  -4.858  0.00  0.00     0.293 C 
ATOM     19  O   UNL d   1      -2.211   4.425  -5.257  0.00  0.00    -0.259 OA
BRANCH  18  20
ATOM     20  C   UNL d   1      -4.540   4.487  -5.775  0.00  0.00     0.039 A 
ATOM     21  C   UNL d   1      -4.296   4.535  -7.159  0.00  0.00     0.019 A 
ATOM     22  C   UNL d   1      -5.356   4.579  -8.067  0.00  0.00     0.025 A 
ATOM     23  C   UNL d   1      -6.669   4.580  -7.600  0.00  0.00     0.034 A 
ATOM     24  C   UNL d   1      -6.926   4.541  -6.229  0.00  0.00     0.025 A 
ATOM     25 CL   UNL d   1      -7.974   4.625  -8.716  0.00  0.00    -0.084 Cl
ATOM     26  C   UNL d   1      -5.865   4.496  -5.315  0.00  0.00     0.019 A 
ENDBRANCH  18  20
ENDBRANCH  17  18
ENDBRANCH  16  17
ENDBRANCH  15  16
ENDBRANCH   1  15
TORSDOF 7
