REMARK  7 active torsions:
REMARK  status: ('A' for Active; 'I' for Inactive)
REMARK    1  A    between atoms: C_5  and  C_1 
REMARK    2  A    between atoms: C_8  and  C_2 
REMARK       I    between atoms: N_12  and  C_8 
REMARK    3  A    between atoms: C_27  and  N_12 
REMARK    4  A    between atoms: O_21  and  C_15 
REMARK    5  A    between atoms: C_16  and  O_22 
REMARK    6  A    between atoms: O_22  and  C_28 
REMARK    7  A    between atoms: C_28  and  C_27 
ROOT
ATOM      1  C   UNL d   1      -1.097  -0.823   0.456  0.00  0.00     0.086 A 
ATOM      2  C   UNL d   1       0.064  -1.345  -0.216  0.00  0.00     0.092 A 
ATOM      3  N   UNL d   1      -1.000   0.515   0.544  0.00  0.00    -0.259 N 
ATOM      4  HN  UNL d   1      -1.655   1.141   1.014  1.00  0.00     0.195 HD
ATOM      5  O   UNL d   1       0.143   0.880  -0.115  0.00  0.00    -0.241 OA
ATOM      6  C   UNL d   1       0.791  -0.222  -0.558  0.00  0.00     0.090 A 
ATOM      7  C   UNL d   1       2.045   0.048  -1.289  0.00  0.00     0.080 C 
ENDROOT
BRANCH   2   8
ATOM      8  C   UNL d   1       0.411  -2.727  -0.496  0.00  0.00     0.256 C 
ATOM      9  O   UNL d   1      -0.415  -3.545  -0.871  0.00  0.00    -0.267 OA
ATOM     10  N   UNL d   1       1.731  -3.042  -0.215  0.00  0.00    -0.355 N 
ATOM     11  H   UNL d   1       2.234  -2.375   0.356  0.00  0.00     0.162 HD
BRANCH  10  12
ATOM     12  C   UNL d   1       2.160  -4.431  -0.143  0.00  0.00     0.149 C 
BRANCH  12  13
ATOM     13  C   UNL d   1       3.684  -4.562  -0.066  0.00  0.00     0.195 C 
BRANCH  13  14
ATOM     14  O   UNL d   1       4.043  -5.941   0.031  0.00  0.00    -0.350 OA
BRANCH  14  15
ATOM     15  C   UNL d   1       5.381  -6.201   0.168  0.00  0.00     0.069 A 
ATOM     16  C   UNL d   1       5.702  -7.435   0.736  0.00  0.00     0.039 A 
ATOM     17  C   UNL d   1       7.039  -7.807   0.916  0.00  0.00     0.039 A 
ATOM     18  C   UNL d   1       8.071  -6.957   0.520  0.00  0.00     0.068 A 
ATOM     19  C   UNL d   1       7.755  -5.732  -0.065  0.00  0.00     0.039 A 
ATOM     20  C   UNL d   1       6.414  -5.358  -0.242  0.00  0.00     0.039 A 
BRANCH  18  21
ATOM     21  O   UNL d   1       9.334  -7.435   0.746  0.00  0.00    -0.356 OA
ATOM     22  C   UNL d   1      10.416  -6.592   0.370  0.00  0.00     0.210 C 
ENDBRANCH  18  21
ENDBRANCH  14  15
ENDBRANCH  13  14
ENDBRANCH  12  13
ENDBRANCH  10  12
ENDBRANCH   2   8
BRANCH   1  23
ATOM     23  C   UNL d   1      -2.246  -1.510   1.070  0.00  0.00     0.037 A 
ATOM     24  C   UNL d   1      -2.081  -2.593   1.959  0.00  0.00     0.048 A 
ATOM     25 CL   UNL d   1      -0.534  -3.147   2.516  0.00  0.00    -0.083 Cl
ATOM     26  C   UNL d   1      -3.187  -3.237   2.537  0.00  0.00     0.025 A 
ATOM     27  C   UNL d   1      -4.477  -2.772   2.308  0.00  0.00     0.003 A 
ATOM     28  C   UNL d   1      -4.664  -1.673   1.480  0.00  0.00     0.025 A 
ATOM     29  C   UNL d   1      -3.570  -1.061   0.846  0.00  0.00     0.048 A 
ATOM     30 CL   UNL d   1      -3.972   0.251  -0.217  0.00  0.00    -0.083 Cl
ENDBRANCH   1  23
TORSDOF 7
