REMARK  5 active torsions:
REMARK  status: ('A' for Active; 'I' for Inactive)
REMARK    1  A    between atoms: N_2  and  C_1 
REMARK    2  A    between atoms: N_4  and  N_2 
REMARK       I    between atoms: C_3  and  N_4 
REMARK    3  A    between atoms: C_7  and  C_3 
REMARK    4  A    between atoms: C_11  and  C_7 
REMARK    5  A    between atoms: C_12  and  C_7 
ROOT
ATOM      1  C   UNL d   1      -1.242  -4.171  -0.153  0.00  0.00     0.245 C 
ATOM      2  N   UNL d   1      -1.808  -4.314   1.113  0.00  0.00    -0.286 N 
ATOM      3  O   UNL d   1      -1.759  -3.464  -1.020  0.00  0.00    -0.271 OA
ATOM      4  H   UNL d   1      -1.216  -4.562   1.903  0.00  0.00     0.184 HD
ENDROOT
BRANCH   1   5
ATOM      5  C   UNL d   1       0.045  -5.003  -0.328  0.00  0.00     0.145 C 
BRANCH   5   6
ATOM      6  C   UNL d   1       0.031  -5.904  -1.563  0.00  0.00    -0.041 A 
ATOM      7  C   UNL d   1      -0.195  -5.396  -2.852  0.00  0.00     0.008 A 
ATOM      8  C   UNL d   1      -0.140  -6.230  -3.970  0.00  0.00     0.001 A 
ATOM      9  C   UNL d   1       0.141  -7.585  -3.817  0.00  0.00     0.000 A 
ATOM     10  C   UNL d   1       0.366  -8.108  -2.546  0.00  0.00     0.001 A 
ATOM     11  C   UNL d   1       0.315  -7.274  -1.427  0.00  0.00     0.008 A 
ENDBRANCH   5   6
BRANCH   5  12
ATOM     12  C   UNL d   1       1.329  -4.182  -0.233  0.00  0.00    -0.041 A 
ATOM     13  C   UNL d   1       2.385  -4.632   0.581  0.00  0.00     0.008 A 
ATOM     14  C   UNL d   1       3.606  -3.954   0.612  0.00  0.00     0.001 A 
ATOM     15  C   UNL d   1       3.793  -2.822  -0.176  0.00  0.00     0.000 A 
ATOM     16  C   UNL d   1       2.758  -2.358  -0.983  0.00  0.00     0.001 A 
ATOM     17  C   UNL d   1       1.532  -3.029  -1.007  0.00  0.00     0.008 A 
ENDBRANCH   5  12
ENDBRANCH   1   5
BRANCH   2  18
ATOM     18  N   UNL d   1      -2.917  -3.512   1.436  0.00  0.00    -0.200 NA
ATOM     19  H   UNL d   1      -3.320  -3.097   0.581  0.00  0.00     0.153 HD
BRANCH  18  20
ATOM     20  C   UNL d   1      -3.925  -4.181   2.203  0.00  0.00     0.073 A 
ATOM     21  C   UNL d   1      -3.658  -5.075   3.262  0.00  0.00     0.073 A 
ATOM     22 CL   UNL d   1      -2.068  -5.547   3.760  0.00  0.00    -0.081 Cl
ATOM     23  C   UNL d   1      -4.724  -5.595   3.997  0.00  0.00     0.113 A 
ATOM     24  N   UNL d   1      -6.022  -5.281   3.790  0.00  0.00    -0.372 N 
ATOM     25  C   UNL d   1      -6.266  -4.390   2.805  0.00  0.00     0.113 A 
ATOM     26  HN  UNL d   1      -6.773  -5.693   4.345  1.00  0.00     0.164 HD
ATOM     27  C   UNL d   1      -5.276  -3.821   2.010  0.00  0.00     0.073 A 
ATOM     28 CL   UNL d   1      -5.744  -2.685   0.795  0.00  0.00    -0.081 Cl
ENDBRANCH  18  20
ENDBRANCH   2  18
TORSDOF 5
