REMARK  3 active torsions:
REMARK  status: ('A' for Active; 'I' for Inactive)
REMARK    1  A    between atoms: C_5  and  N_1 
REMARK    2  A    between atoms: C_3  and  C_5 
REMARK    3  A    between atoms: C_4  and  C_3 
ROOT
ATOM      1  C   UNL d   1      -3.370   1.232  -0.473  0.00  0.00     0.179 C 
ATOM      2  O   UNL d   1      -3.954   1.377  -1.548  0.00  0.00    -0.290 OA
ENDROOT
BRANCH   1   3
ATOM      3  C   UNL d   1      -2.799  -0.131  -0.100  0.00  0.00     0.215 C 
BRANCH   3   4
ATOM      4  N   UNL d   1      -1.369  -0.148   0.195  0.00  0.00    -0.317 N 
ATOM      5  C   UNL d   1      -0.948  -0.538   1.465  0.00  0.00     0.247 A 
ATOM      6  C   UNL d   1       0.520  -0.718   1.640  0.00  0.00     0.074 A 
ATOM      7  O   UNL d   1      -1.698  -0.754   2.412  0.00  0.00    -0.268 OA
ATOM      8  C   UNL d   1       1.355  -0.490   0.618  0.00  0.00     0.007 A 
ATOM      9  C   UNL d   1       0.845  -0.058  -0.658  0.00  0.00     0.017 A 
ATOM     10  C   UNL d   1      -0.473   0.089  -0.837  0.00  0.00     0.094 A 
ENDBRANCH   3   4
ENDBRANCH   1   3
BRANCH   1  11
ATOM     11  C   UNL d   1      -3.362   2.353   0.512  0.00  0.00     0.033 A 
ATOM     12  C   UNL d   1      -3.311   3.695   0.099  0.00  0.00     0.048 A 
ATOM     13 CL   UNL d   1      -3.016   4.181  -1.534  0.00  0.00    -0.083 Cl
ATOM     14  C   UNL d   1      -3.459   4.726   1.037  0.00  0.00     0.025 A 
ATOM     15  C   UNL d   1      -3.639   4.436   2.388  0.00  0.00     0.002 A 
ATOM     16  C   UNL d   1      -3.660   3.108   2.809  0.00  0.00     0.001 A 
ATOM     17  C   UNL d   1      -3.528   2.073   1.878  0.00  0.00     0.017 A 
ENDBRANCH   1  11
TORSDOF 3
