REMARK  6 active torsions:
REMARK  status: ('A' for Active; 'I' for Inactive)
REMARK    1  A    between atoms: C_6  and  C_1 
REMARK    2  A    between atoms: C_10  and  C_2 
REMARK    3  A    between atoms: S_12  and  C_5 
REMARK    4  A    between atoms: O_13  and  C_6 
REMARK    5  A    between atoms: O_14  and  C_10 
REMARK    6  A    between atoms: O_15  and  C_10 
ROOT
ATOM      1  C   UNL d   1      -0.659   1.251   0.028  0.00  0.00     0.080 A 
ATOM      2  C   UNL d   1      -1.309   0.033  -0.034  0.00  0.00     0.085 A 
ATOM      3  N   UNL d   1      -0.613  -1.127  -0.201  0.00  0.00    -0.335 N 
ATOM      4  HN  UNL d   1      -1.100  -2.018  -0.303  1.00  0.00     0.168 HD
ATOM      5  C   UNL d   1       0.725  -1.069  -0.227  0.00  0.00     0.141 A 
ATOM      6  N   UNL d   1       1.434   0.061  -0.115  0.00  0.00    -0.346 N 
ATOM      7  HN  UNL d   1       2.454   0.060  -0.123  1.00  0.00     0.167 HD
ATOM      8  C   UNL d   1       0.722   1.203   0.009  0.00  0.00     0.110 A 
ENDROOT
BRANCH   2   9
ATOM      9  C   UNL d   1      -2.826  -0.076   0.087  0.00  0.00     0.310 C 
BRANCH   9  10
ATOM     10  O   UNL d   1      -3.324   0.193  -1.237  0.00  0.00    -0.360 OA
ATOM     11  C   UNL d   1      -4.721  -0.052  -1.362  0.00  0.00     0.205 C 
ENDBRANCH   9  10
BRANCH   9  12
ATOM     12  O   UNL d   1      -3.236  -1.363   0.558  0.00  0.00    -0.360 OA
ATOM     13  C   UNL d   1      -2.905  -1.585   1.923  0.00  0.00     0.205 C 
ENDBRANCH   9  12
ENDBRANCH   2   9
BRANCH   1  14
ATOM     14  C   UNL d   1      -1.313   2.558   0.187  0.00  0.00     0.179 C 
ATOM     15  O   UNL d   1      -0.891   3.396   0.963  0.00  0.00    -0.646 OA
BRANCH  14  16
ATOM     16  O   UNL d   1      -2.375   2.753  -0.618  0.00  0.00    -0.773 OA
ATOM     17  H   UNL d   1      -2.576   2.050  -1.281  0.00  0.00     0.167 HD
ENDBRANCH  14  16
ENDBRANCH   1  14
BRANCH   5  18
ATOM     18  S   UNL d   1       1.611  -2.589  -0.343  0.00  0.00    -0.107 SA
ATOM     19  H   UNL d   1       2.794  -2.022  -0.084  0.00  0.00     0.110 HD
ENDBRANCH   5  18
TORSDOF 6
