REMARK  3 active torsions:
REMARK  status: ('A' for Active; 'I' for Inactive)
REMARK    1  A    between atoms: C_2  and  C_1 
REMARK       I    between atoms: N_4  and  C_2 
REMARK    2  A    between atoms: N_7  and  N_4 
REMARK    3  A    between atoms: C_8  and  N_7 
ROOT
ATOM      1  C   UNL d   1       2.359  -2.003   0.168  0.00  0.00     0.269 C 
ATOM      2  N   UNL d   1       2.471  -3.378   0.294  0.00  0.00    -0.283 N 
ATOM      3  O   UNL d   1       1.310  -1.454  -0.167  0.00  0.00    -0.266 OA
ATOM      4  H   UNL d   1       3.381  -3.836   0.324  0.00  0.00     0.184 HD
ENDROOT
BRANCH   2   5
ATOM      5  N   UNL d   1       1.413  -4.154  -0.211  0.00  0.00    -0.203 NA
ATOM      6  H   UNL d   1       0.571  -3.566  -0.306  0.00  0.00     0.153 HD
BRANCH   5   7
ATOM      7  C   UNL d   1       1.102  -5.312   0.549  0.00  0.00     0.030 A 
ATOM      8  C   UNL d   1       1.515  -5.519   1.870  0.00  0.00     0.049 A 
ATOM      9  C   UNL d   1       1.120  -6.669   2.560  0.00  0.00     0.037 A 
ATOM     10 CL   UNL d   1       1.631  -6.904   4.188  0.00  0.00    -0.084 Cl
ATOM     11  C   UNL d   1       0.308  -7.624   1.955  0.00  0.00     0.047 A 
ATOM     12  C   UNL d   1      -0.112  -7.418   0.647  0.00  0.00     0.037 A 
ATOM     13  C   UNL d   1       0.271  -6.271  -0.050  0.00  0.00     0.049 A 
ATOM     14 CL   UNL d   1      -1.120  -8.584  -0.120  0.00  0.00    -0.084 Cl
ENDBRANCH   5   7
ENDBRANCH   2   5
BRANCH   1  15
ATOM     15  C   UNL d   1       3.572  -1.189   0.465  0.00  0.00     0.072 A 
ATOM     16  C   UNL d   1       4.771  -1.757   0.913  0.00  0.00     0.135 A 
ATOM     17  C   UNL d   1       5.868  -0.964   1.240  0.00  0.00     0.085 A 
ATOM     18  F   UNL d   1       4.897  -3.086   1.044  0.00  0.00    -0.205 F 
ATOM     19  C   UNL d   1       5.771   0.414   1.110  0.00  0.00     0.119 A 
ATOM     20  C   UNL d   1       4.599   1.008   0.648  0.00  0.00     0.043 A 
ATOM     21  F   UNL d   1       6.817   1.183   1.436  0.00  0.00    -0.206 F 
ATOM     22  C   UNL d   1       3.501   0.207   0.324  0.00  0.00     0.023 A 
ENDBRANCH   1  15
TORSDOF 3
