REMARK  4 active torsions:
REMARK  status: ('A' for Active; 'I' for Inactive)
REMARK    1  A    between atoms: C_3  and  C_1 
REMARK    2  A    between atoms: C_4  and  C_2 
REMARK    3  A    between atoms: O_8  and  C_3 
REMARK    4  A    between atoms: O_9  and  C_4 
ROOT
ATOM      1  C   UNL d   1      -0.000  -1.258   0.557  0.00  0.00     0.046 C 
ATOM      2  C   UNL d   1       0.019   1.268   0.553  0.00  0.00     0.049 C 
ATOM      3  C   UNL d   1      -0.040   0.010   1.425  0.00  0.00     0.040 C 
ATOM      4  C   UNL d   1      -1.236  -1.307  -0.361  0.00  0.00     0.020 C 
ATOM      5  C   UNL d   1       1.354   1.288  -0.219  0.00  0.00     0.020 C 
ATOM      6  C   UNL d   1      -1.204   1.328  -0.382  0.00  0.00     0.020 C 
ATOM      7  C   UNL d   1       1.325  -1.297  -0.233  0.00  0.00     0.020 C 
ATOM      8  C   UNL d   1      -1.868   0.015  -0.782  0.00  0.00     0.002 C 
ATOM      9  C   UNL d   1       1.731  -0.004  -0.930  0.00  0.00     0.002 C 
ENDROOT
BRANCH   1  10
ATOM     10  C   UNL d   1      -0.028  -2.496   1.480  0.00  0.00     0.148 C 
ATOM     11  O   UNL d   1      -0.054  -2.454   2.696  0.00  0.00    -0.649 OA
BRANCH  10  12
ATOM     12  O   UNL d   1      -0.028  -3.677   0.808  0.00  0.00    -0.776 OA
ATOM     13  H   UNL d   1      -0.014  -3.605  -0.159  0.00  0.00     0.167 HD
ENDBRANCH  10  12
ENDBRANCH   1  10
BRANCH   2  14
ATOM     14  C   UNL d   1      -0.005   2.521   1.445  0.00  0.00     0.267 C 
ATOM     15  O   UNL d   1      -0.047   2.515   2.666  0.00  0.00    -0.264 OA
BRANCH  14  16
ATOM     16  O   UNL d   1       0.029   3.651   0.677  0.00  0.00    -0.326 OA
ATOM     17  C   UNL d   1       0.008   4.869   1.421  0.00  0.00     0.213 C 
ENDBRANCH  14  16
ENDBRANCH   2  14
TORSDOF 4
