REMARK  5 active torsions:
REMARK  status: ('A' for Active; 'I' for Inactive)
REMARK    1  A    between atoms: N_6  and  C_1 
REMARK    2  A    between atoms: C_14  and  C_2 
REMARK       I    between atoms: C_5  and  N_6 
REMARK       I    between atoms: N_7  and  C_5 
REMARK    3  A    between atoms: C_12  and  C_10 
REMARK    4  A    between atoms: O_16  and  C_12 
REMARK    5  A    between atoms: C_23  and  O_16 
ROOT
ATOM      1  C   UNL d   1       1.636  -2.781  -0.252  0.00  0.00     0.323 C 
ATOM      2  N   UNL d   1       0.750  -2.777   0.798  0.00  0.00    -0.304 N 
ATOM      3  N   UNL d   1       2.876  -2.210   0.054  0.00  0.00    -0.333 N 
ATOM      4  C   UNL d   1       5.327  -2.343  -0.371  0.00  0.00     0.104 C 
ATOM      5  C   UNL d   1       3.920  -2.339  -0.963  0.00  0.00     0.142 C 
ATOM      6  O   UNL d   1       1.421  -3.325  -1.334  0.00  0.00    -0.247 OA
ATOM      7  C   UNL d   1       3.028  -1.079   0.976  0.00  0.00     0.127 C 
ATOM      8  C   UNL d   1       5.528  -1.164   0.590  0.00  0.00     0.018 C 
ATOM      9  C   UNL d   1       4.408  -1.055   1.624  0.00  0.00     0.021 C 
ATOM     10  H   UNL d   1       1.203  -2.819   1.700  0.00  0.00     0.171 HD
ENDROOT
BRANCH   2  11
ATOM     11  C   UNL d   1      -0.505  -3.381   0.752  0.00  0.00     0.097 A 
ATOM     12  C   UNL d   1      -1.085  -4.180   1.793  0.00  0.00     0.094 A 
ATOM     13  N   UNL d   1      -2.347  -4.511   1.485  0.00  0.00    -0.258 N 
ATOM     14  O   UNL d   1      -2.572  -4.020   0.220  0.00  0.00    -0.240 OA
ATOM     15  HN  UNL d   1      -3.007  -5.023   2.071  1.00  0.00     0.195 HD
ATOM     16  C   UNL d   1      -1.466  -3.369  -0.237  0.00  0.00     0.101 A 
ATOM     17  C   UNL d   1      -1.620  -2.803  -1.591  0.00  0.00     0.081 C 
BRANCH  12  18
ATOM     18  C   UNL d   1      -0.446  -4.705   3.001  0.00  0.00    -0.005 A 
ATOM     19  C   UNL d   1      -1.165  -4.833   4.196  0.00  0.00     0.014 A 
ATOM     20  C   UNL d   1      -0.566  -5.401   5.323  0.00  0.00     0.001 A 
ATOM     21  C   UNL d   1       0.757  -5.842   5.268  0.00  0.00     0.000 A 
ATOM     22  C   UNL d   1       1.482  -5.721   4.085  0.00  0.00     0.001 A 
ATOM     23  C   UNL d   1       0.881  -5.164   2.956  0.00  0.00     0.014 A 
ENDBRANCH  12  18
ENDBRANCH   2  11
BRANCH   4  24
ATOM     24  C   UNL d   1       5.641  -3.682   0.281  0.00  0.00     0.264 C 
ATOM     25  O   UNL d   1       5.843  -3.853   1.475  0.00  0.00    -0.265 OA
BRANCH  24  26
ATOM     26  O   UNL d   1       5.737  -4.657  -0.669  0.00  0.00    -0.322 OA
BRANCH  26  27
ATOM     27  C   UNL d   1       6.182  -5.945  -0.214  0.00  0.00     0.174 C 
ATOM     28  C   UNL d   1       5.000  -6.847   0.084  0.00  0.00     0.034 C 
ENDBRANCH  26  27
ENDBRANCH  24  26
ENDBRANCH   4  24
TORSDOF 5
