REMARK  5 active torsions:
REMARK  status: ('A' for Active; 'I' for Inactive)
REMARK    1  A    between atoms: C_6  and  C_1 
REMARK    2  A    between atoms: S_2  and  C_13 
REMARK    3  A    between atoms: N_5  and  S_2 
REMARK    4  A    between atoms: C_7  and  N_5 
REMARK       I    between atoms: N_12  and  C_6 
REMARK    5  A    between atoms: C_23  and  N_12 
ROOT
ATOM      1  C   UNL d   1       2.624  -4.991   0.093  0.00  0.00     0.075 A 
ATOM      2  C   UNL d   1       2.306  -4.094  -0.926  0.00  0.00     0.027 A 
ATOM      3  C   UNL d   1       3.680  -4.716   0.968  0.00  0.00     0.027 A 
ATOM      4  C   UNL d   1       3.980  -2.547  -0.083  0.00  0.00     0.035 A 
ATOM      5  C   UNL d   1       2.994  -2.883  -1.016  0.00  0.00     0.031 A 
ATOM      6  C   UNL d   1       4.372  -3.504   0.862  0.00  0.00     0.031 A 
ENDROOT
BRANCH   4   7
ATOM      7  N   UNL d   1       4.556  -1.260  -0.002  0.00  0.00    -0.322 N 
ATOM      8  C   UNL d   1       4.001  -0.094  -0.523  0.00  0.00     0.264 C 
ATOM      9  O   UNL d   1       2.956  -0.085  -1.162  0.00  0.00    -0.267 OA
ATOM     10  H   UNL d   1       5.332  -1.138   0.640  0.00  0.00     0.169 HD
BRANCH   8  11
ATOM     11  C   UNL d   1       4.729   1.143  -0.248  0.00  0.00     0.096 C 
ATOM     12  S   UNL d   1       6.240   1.155   0.556  0.00  0.00    -0.082 SA
ATOM     13  C   UNL d   1       6.457   2.845   0.319  0.00  0.00     0.017 A 
ATOM     14  C   UNL d   1       7.554   3.632   0.726  0.00  0.00     0.020 A 
ATOM     15  C   UNL d   1       5.380   3.402  -0.372  0.00  0.00     0.004 A 
ATOM     16  C   UNL d   1       7.592   4.981   0.365  0.00  0.00     0.001 A 
ATOM     17  C   UNL d   1       6.567   5.542  -0.382  0.00  0.00     0.001 A 
ATOM     18  C   UNL d   1       5.458   4.772  -0.735  0.00  0.00     0.014 A 
ATOM     19  C   UNL d   1       4.343   2.429  -0.578  0.00  0.00     0.068 C 
ATOM     20 CL   UNL d   1       2.814   2.897  -1.222  0.00  0.00    -0.082 Cl
ENDBRANCH   8  11
ENDBRANCH   4   7
BRANCH   1  21
ATOM     21  S   UNL d   1       1.507  -6.324   0.430  0.00  0.00     0.247 S 
ATOM     22  O   UNL d   1       1.688  -6.700   1.816  0.00  0.00    -0.205 OA
ATOM     23  O   UNL d   1       0.184  -5.956  -0.042  0.00  0.00    -0.205 OA
BRANCH  21  24
ATOM     24  N   UNL d   1       2.103  -7.627  -0.455  0.00  0.00    -0.160 NA
ATOM     25  H   UNL d   1       1.956  -8.451   0.123  0.00  0.00     0.148 HD
BRANCH  24  26
ATOM     26  C   UNL d   1       1.499  -7.721  -1.725  0.00  0.00     0.136 A 
ATOM     27  N   UNL d   1       1.959  -7.022  -2.732  0.00  0.00    -0.350 N 
ATOM     28  C   UNL d   1       1.259  -7.365  -3.874  0.00  0.00     0.097 A 
ATOM     29  HN  UNL d   1       2.713  -6.336  -2.683  1.00  0.00     0.166 HD
ATOM     30  C   UNL d   1       0.252  -8.292  -3.700  0.00  0.00     0.069 A 
ATOM     31  S   UNL d   1       0.249  -8.832  -2.071  0.00  0.00    -0.070 SA
ENDBRANCH  24  26
ENDBRANCH  21  24
ENDBRANCH   1  21
TORSDOF 5
