REMARK  6 active torsions:
REMARK  status: ('A' for Active; 'I' for Inactive)
REMARK       I    between atoms: N_2  and  C_1 
REMARK       I    between atoms: N_9  and  C_1 
REMARK    1  A    between atoms: C_10  and  N_2 
REMARK    2  A    between atoms: C_3  and  C_12 
REMARK    3  A    between atoms: C_13  and  N_9 
REMARK    4  A    between atoms: S_11  and  C_14 
REMARK    5  A    between atoms: C_12  and  S_11 
REMARK    6  A    between atoms: C_14  and  C_13 
ROOT
ATOM      1  C   UNL d   1       1.125  -0.120   0.045  0.00  0.00     0.320 C 
ATOM      2  N   UNL d   1       0.485  -0.674   1.123  0.00  0.00    -0.309 N 
ATOM      3  O   UNL d   1       0.600   0.428  -0.922  0.00  0.00    -0.247 OA
ATOM      4  N   UNL d   1       2.495  -0.186   0.068  0.00  0.00    -0.342 N 
ATOM      5  H   UNL d   1       1.069  -1.097   1.825  0.00  0.00     0.170 HD
ATOM      6  H   UNL d   1       2.912   0.297  -0.720  0.00  0.00     0.164 HD
ENDROOT
BRANCH   4   7
ATOM      7  C   UNL d   1       3.332  -0.662   1.152  0.00  0.00     0.134 C 
BRANCH   7   8
ATOM      8  C   UNL d   1       4.838  -0.655   0.871  0.00  0.00     0.094 C 
BRANCH   8   9
ATOM      9  S   UNL d   1       5.612  -1.424   2.332  0.00  0.00    -0.161 SA
BRANCH   9  10
ATOM     10  C   UNL d   1       7.380  -1.331   1.894  0.00  0.00     0.139 C 
BRANCH  10  11
ATOM     11  C   UNL d   1       8.172  -1.944   2.997  0.00  0.00     0.061 A 
ATOM     12  O   UNL d   1       8.924  -3.040   2.684  0.00  0.00    -0.326 OA
ATOM     13  C   UNL d   1       9.501  -3.468   3.838  0.00  0.00     0.142 A 
ATOM     14  C   UNL d   1       9.143  -2.657   4.888  0.00  0.00     0.027 A 
ATOM     15  C   UNL d   1       8.297  -1.662   4.345  0.00  0.00     0.035 A 
ENDBRANCH  10  11
ENDBRANCH   9  10
ENDBRANCH   8   9
ENDBRANCH   7   8
ENDBRANCH   4   7
BRANCH   2  16
ATOM     16  C   UNL d   1      -0.899  -0.702   1.400  0.00  0.00     0.036 A 
ATOM     17  C   UNL d   1      -1.873  -0.150   0.567  0.00  0.00     0.029 A 
ATOM     18  C   UNL d   1      -3.221  -0.168   0.943  0.00  0.00     0.002 A 
ATOM     19  C   UNL d   1      -3.609  -0.746   2.150  0.00  0.00     0.000 A 
ATOM     20  C   UNL d   1      -2.650  -1.325   2.976  0.00  0.00     0.002 A 
ATOM     21  C   UNL d   1      -1.303  -1.305   2.601  0.00  0.00     0.029 A 
ENDBRANCH   2  16
TORSDOF 6
