REMARK  4 active torsions:
REMARK  status: ('A' for Active; 'I' for Inactive)
REMARK    1  A    between atoms: C_2  and  C_1 
REMARK    2  A    between atoms: N_3  and  C_1 
REMARK       I    between atoms: N_9  and  C_2 
REMARK    3  A    between atoms: C_6  and  N_3 
REMARK    4  A    between atoms: C_10  and  C_5 
ROOT
ATOM      1  C   UNL d   1      -1.478   0.311  -0.170  0.00  0.00     0.111 C 
ATOM      2  C   UNL d   1      -0.026   0.557   0.295  0.00  0.00     0.041 C 
ATOM      3  C   UNL d   1      -1.909  -1.123   0.246  0.00  0.00     0.041 C 
ATOM      4  C   UNL d   1       0.949  -0.533  -0.148  0.00  0.00     0.003 C 
ATOM      5  C   UNL d   1      -0.924  -2.211  -0.181  0.00  0.00     0.003 C 
ATOM      6  C   UNL d   1       0.488  -1.914   0.301  0.00  0.00     0.000 C 
ENDROOT
BRANCH   1   7
ATOM      7  C   UNL d   1      -2.470   1.284   0.544  0.00  0.00     0.243 C 
ATOM      8  O   UNL d   1      -2.166   2.038   1.465  0.00  0.00    -0.271 OA
ATOM      9  N   UNL d   1      -3.770   1.227   0.108  0.00  0.00    -0.368 N 
ATOM     10  H   UNL d   1      -3.911   0.970  -0.861  0.00  0.00     0.159 HD
ATOM     11  H   UNL d   1      -4.368   1.962   0.465  0.00  0.00     0.159 HD
ENDBRANCH   1   7
BRANCH   1  12
ATOM     12  N   UNL d   1      -1.586   0.411  -1.655  0.00  0.00    -0.372 N 
ATOM     13  H   UNL d   1      -1.990  -0.412  -2.092  0.00  0.00     0.161 HD
BRANCH  12  14
ATOM     14  C   UNL d   1      -1.802   1.583  -2.369  0.00  0.00     0.029 A 
ATOM     15  C   UNL d   1      -1.429   2.853  -1.924  0.00  0.00     0.029 A 
ATOM     16  C   UNL d   1      -1.731   4.004  -2.663  0.00  0.00     0.010 A 
ATOM     17  C   UNL d   1      -2.409   3.919  -3.883  0.00  0.00    -0.055 A 
ATOM     18  C   UNL d   1      -2.733   2.648  -4.366  0.00  0.00     0.010 A 
ATOM     19  C   UNL d   1      -2.419   1.501  -3.625  0.00  0.00     0.029 A 
BRANCH  17  20
ATOM     20  C   UNL d   1      -2.802   5.159  -4.664  0.00  0.00     0.010 C 
ATOM     21  C   UNL d   1      -3.753   6.046  -3.855  0.00  0.00     0.015 C 
ATOM     22  C   UNL d   1      -1.576   5.951  -5.123  0.00  0.00     0.015 C 
ENDBRANCH  17  20
ENDBRANCH  12  14
ENDBRANCH   1  12
TORSDOF 4
