REMARK  4 active torsions:
REMARK  status: ('A' for Active; 'I' for Inactive)
REMARK       I    between atoms: N_2  and  C_1 
REMARK    1  A    between atoms: C_4  and  C_1 
REMARK    2  A    between atoms: C_5  and  N_2 
REMARK    3  A    between atoms: C_9  and  C_4 
REMARK    4  A    between atoms: O_12  and  C_6 
ROOT
ATOM      1  C   UNL d   1       0.944   0.224   0.047  0.00  0.00     0.226 C 
ATOM      2  N   UNL d   1       0.236   0.475   1.214  0.00  0.00    -0.327 N 
ATOM      3  O   UNL d   1       2.055   0.666  -0.237  0.00  0.00    -0.273 OA
ATOM      4  H   UNL d   1      -0.693   0.079   1.282  0.00  0.00     0.169 HD
ENDROOT
BRANCH   2   5
ATOM      5  C   UNL d   1       0.679   1.203   2.339  0.00  0.00     0.034 A 
ATOM      6  C   UNL d   1       1.920   1.836   2.419  0.00  0.00     0.032 A 
ATOM      7  C   UNL d   1       2.314   2.505   3.586  0.00  0.00     0.039 A 
ATOM      8  C   UNL d   1       1.473   2.543   4.695  0.00  0.00     0.068 A 
ATOM      9  C   UNL d   1       0.222   1.931   4.614  0.00  0.00     0.039 A 
ATOM     10  C   UNL d   1      -0.174   1.267   3.446  0.00  0.00     0.032 A 
BRANCH   8  11
ATOM     11  O   UNL d   1       1.755   3.135   5.895  0.00  0.00    -0.356 OA
ATOM     12  C   UNL d   1       3.066   3.661   6.054  0.00  0.00     0.210 C 
ENDBRANCH   8  11
ENDBRANCH   2   5
BRANCH   1  13
ATOM     13  C   UNL d   1       0.224  -0.725  -0.901  0.00  0.00     0.141 C 
BRANCH  13  14
ATOM     14  C   UNL d   1      -0.469  -0.051  -2.062  0.00  0.00    -0.050 A 
ATOM     15  C   UNL d   1       0.210   0.861  -2.883  0.00  0.00     0.007 A 
ATOM     16  C   UNL d   1      -0.412   1.411  -4.005  0.00  0.00     0.001 A 
ATOM     17  C   UNL d   1      -1.718   1.049  -4.326  0.00  0.00     0.000 A 
ATOM     18  C   UNL d   1      -2.406   0.144  -3.521  0.00  0.00     0.001 A 
ATOM     19  C   UNL d   1      -1.786  -0.405  -2.396  0.00  0.00     0.007 A 
ENDBRANCH  13  14
ENDBRANCH   1  13
TORSDOF 4
