REMARK  6 active torsions:
REMARK  status: ('A' for Active; 'I' for Inactive)
REMARK    1  A    between atoms: C_13  and  N_1 
REMARK    2  A    between atoms: N_5  and  C_16 
REMARK    3  A    between atoms: C_17  and  N_7 
REMARK    4  A    between atoms: C_9  and  C_13 
REMARK    5  A    between atoms: C_10  and  C_9 
REMARK    6  A    between atoms: O_20  and  C_10 
ROOT
ATOM      1  N   UNL d   1      10.597  -4.361   0.536  0.00  0.00    -0.191 NA
ATOM      2  C   UNL d   1       9.591  -3.780   0.546  0.00  0.00     0.099 C 
ATOM      3  C   UNL d   1       5.899  -1.654   0.580  0.00  0.00     0.048 A 
ATOM      4  C   UNL d   1       8.350  -3.064   0.560  0.00  0.00     0.044 A 
ATOM      5  C   UNL d   1       7.123  -0.971   0.589  0.00  0.00     0.032 A 
ATOM      6  C   UNL d   1       5.926  -3.058   0.577  0.00  0.00     0.032 A 
ATOM      7  C   UNL d   1       8.340  -1.666   0.576  0.00  0.00     0.025 A 
ATOM      8  C   UNL d   1       7.137  -3.759   0.562  0.00  0.00     0.025 A 
ENDROOT
BRANCH   3   9
ATOM      9  N   UNL d   1       4.707  -0.896   0.619  0.00  0.00    -0.300 N 
ATOM     10  N   UNL d   1       3.768  -1.460   0.017  0.00  0.00    -0.300 N 
ATOM     11  HN  UNL d   1       3.856  -2.368  -0.440  1.00  0.00     0.187 HD
ATOM     12  HN  UNL d   1       4.623   0.007   1.085  1.00  0.00     0.187 HD
BRANCH  10  13
ATOM     13  C   UNL d   1       2.572  -0.711   0.036  0.00  0.00     0.048 A 
ATOM     14  C   UNL d   1       2.531   0.683  -0.034  0.00  0.00     0.033 A 
ATOM     15  C   UNL d   1       1.309   1.365  -0.075  0.00  0.00     0.032 A 
ATOM     16  C   UNL d   1       0.082   0.688  -0.061  0.00  0.00     0.036 A 
ATOM     17  N   UNL d   1      -1.134   1.354  -0.134  0.00  0.00    -0.380 N 
ATOM     18  C   UNL d   1       0.120  -0.720   0.013  0.00  0.00    -0.029 A 
ATOM     19  C   UNL d   1      -2.316   0.651   0.357  0.00  0.00     0.123 C 
ATOM     20  C   UNL d   1      -2.394  -0.718  -0.297  0.00  0.00     0.024 C 
ATOM     21  C   UNL d   1      -1.154  -1.532   0.059  0.00  0.00     0.042 C 
ATOM     22  C   UNL d   1       1.355  -1.399   0.059  0.00  0.00     0.040 A 
BRANCH  17  23
ATOM     23  C   UNL d   1      -1.276   2.705  -0.690  0.00  0.00     0.133 C 
BRANCH  23  24
ATOM     24  C   UNL d   1      -0.952   2.725  -2.184  0.00  0.00     0.131 C 
BRANCH  24  25
ATOM     25  C   UNL d   1      -1.077   4.119  -2.737  0.00  0.00     0.259 C 
ATOM     26  O   UNL d   1      -1.414   5.107  -2.100  0.00  0.00    -0.265 OA
BRANCH  25  27
ATOM     27  O   UNL d   1      -0.752   4.117  -4.062  0.00  0.00    -0.326 OA
ATOM     28  C   UNL d   1      -0.831   5.400  -4.686  0.00  0.00     0.213 C 
ENDBRANCH  25  27
ENDBRANCH  24  25
ENDBRANCH  23  24
ENDBRANCH  17  23
ENDBRANCH  10  13
ENDBRANCH   3   9
TORSDOF 6
