REMARK  4 active torsions:
REMARK  status: ('A' for Active; 'I' for Inactive)
REMARK    1  A    between atoms: C_7  and  S_1 
REMARK    2  A    between atoms: N_18  and  S_1 
REMARK    3  A    between atoms: S_2  and  C_8 
REMARK    4  A    between atoms: N_19  and  S_2 
ROOT
ATOM      1  C   UNL d   1      -1.371  -3.227   0.011  0.00  0.00    -0.041 A 
ATOM      2  C   UNL d   1      -2.567  -5.256   0.003  0.00  0.00    -0.041 A 
ATOM      3  C   UNL d   1      -0.448  -4.295  -0.058  0.00  0.00    -0.019 A 
ATOM      4  C   UNL d   1      -1.183  -5.544  -0.051  0.00  0.00    -0.019 A 
ATOM      5  C   UNL d   1       0.422  -1.659  -0.008  0.00  0.00     0.080 A 
ATOM      6  C   UNL d   1      -3.063  -7.584   0.022  0.00  0.00     0.080 A 
ATOM      7  C   UNL d   1      -2.791  -3.757   0.036  0.00  0.00     0.078 A 
ATOM      8  C   UNL d   1      -0.954  -1.905   0.041  0.00  0.00     0.033 A 
ATOM      9  C   UNL d   1      -3.520  -6.262   0.036  0.00  0.00     0.033 A 
ATOM     10  C   UNL d   1      -0.738  -6.857  -0.061  0.00  0.00     0.014 A 
ATOM     11  C   UNL d   1       0.914  -4.044  -0.121  0.00  0.00     0.014 A 
ATOM     12  C   UNL d   1       1.353  -2.714  -0.102  0.00  0.00     0.026 A 
ATOM     13  C   UNL d   1      -1.687  -7.885  -0.019  0.00  0.00     0.026 A 
ENDROOT
BRANCH   5  14
ATOM     14  S   UNL d   1       1.011   0.015  -0.002  0.00  0.00     0.258 S 
ATOM     15  O   UNL d   1      -0.104   0.904   0.248  0.00  0.00    -0.201 OA
ATOM     16  O   UNL d   1       1.866   0.172  -1.157  0.00  0.00    -0.201 OA
BRANCH  14  17
ATOM     17  N   UNL d   1       2.024   0.066   1.341  0.00  0.00    -0.320 N 
ATOM     18  C   UNL d   1       1.430   0.340   2.645  0.00  0.00     0.159 C 
ATOM     19  H   UNL d   1       2.908   0.523   1.119  0.00  0.00     0.171 HD
ENDBRANCH  14  17
ENDBRANCH   5  14
BRANCH   6  20
ATOM     20  S   UNL d   1      -4.230  -8.919   0.127  0.00  0.00     0.258 S 
ATOM     21  O   UNL d   1      -3.784  -9.796   1.186  0.00  0.00    -0.201 OA
ATOM     22  O   UNL d   1      -5.570  -8.377   0.097  0.00  0.00    -0.201 OA
BRANCH  20  23
ATOM     23  N   UNL d   1      -3.975  -9.755  -1.311  0.00  0.00    -0.320 N 
ATOM     24  C   UNL d   1      -4.696  -9.318  -2.501  0.00  0.00     0.159 C 
ATOM     25  H   UNL d   1      -3.882 -10.757  -1.151  0.00  0.00     0.171 HD
ENDBRANCH  20  23
ENDBRANCH   6  20
TORSDOF 4
