REMARK  3 active torsions:
REMARK  status: ('A' for Active; 'I' for Inactive)
REMARK    1  A    between atoms: N_10  and  C_3 
REMARK    2  A    between atoms: O_9  and  C_4 
REMARK    3  A    between atoms: C_11  and  O_9 
ROOT
ATOM      1  N   UNL d   1       1.208   0.986  -0.099  0.00  0.00    -0.313 N 
ATOM      2  HN  UNL d   1       2.122   1.439  -0.079  1.00  0.00     0.170 HD
ATOM      3  C   UNL d   1       1.077  -0.339  -0.128  0.00  0.00     0.157 A 
ATOM      4  C   UNL d   1       0.066   1.689  -0.097  0.00  0.00     0.146 A 
ATOM      5  N   UNL d   1      -0.087  -0.995  -0.101  0.00  0.00    -0.337 N 
ATOM      6  HN  UNL d   1      -0.122  -2.014  -0.097  1.00  0.00     0.168 HD
ATOM      7  C   UNL d   1      -1.186   1.123  -0.075  0.00  0.00     0.080 A 
ATOM      8  C   UNL d   1      -1.214  -0.254  -0.079  0.00  0.00     0.012 A 
ATOM      9  C   UNL d   1      -2.512  -1.002  -0.063  0.00  0.00     0.068 C 
ENDROOT
BRANCH   4  10
ATOM     10  O   UNL d   1       0.106   3.071  -0.124  0.00  0.00    -0.331 OA
BRANCH  10  11
ATOM     11  C   UNL d   1       1.376   3.627  -0.500  0.00  0.00     0.122 C 
ATOM     12  C   UNL d   1       1.619   3.449  -1.999  0.00  0.00     0.040 C 
ATOM     13  C   UNL d   1       1.320   5.118  -0.169  0.00  0.00     0.040 C 
ENDBRANCH  10  11
ENDBRANCH   4  10
BRANCH   3  14
ATOM     14  N   UNL d   1       2.232  -1.091  -0.155  0.00  0.00    -0.274 NA
ATOM     15  H   UNL d   1       2.992  -0.565   0.250  0.00  0.00     0.127 HD
ATOM     16  H   UNL d   1       2.045  -2.009   0.226  0.00  0.00     0.127 HD
ENDBRANCH   3  14
TORSDOF 3
