REMARK  2 active torsions:
REMARK  status: ('A' for Active; 'I' for Inactive)
REMARK    1  A    between atoms: N_3  and  C_8 
REMARK    2  A    between atoms: O_15  and  N_10 
ROOT
ATOM      1  C   UNL d   1      -1.222   0.917  -0.001  0.00  0.00     0.007 A 
ATOM      2  C   UNL d   1      -0.025   1.801   0.000  0.00  0.00     0.076 A 
ATOM      3  C   UNL d   1      -0.752  -0.414   0.001  0.00  0.00    -0.012 A 
ATOM      4  C   UNL d   1       1.156   0.907   0.001  0.00  0.00     0.004 A 
ATOM      5  C   UNL d   1       0.694  -0.416   0.002  0.00  0.00    -0.012 A 
ATOM      6  C   UNL d   1      -2.575   1.215  -0.003  0.00  0.00     0.050 A 
ATOM      7  C   UNL d   1      -3.472   0.139  -0.002  0.00  0.00     0.103 A 
ATOM      8  C   UNL d   1      -1.644  -1.477   0.003  0.00  0.00     0.015 A 
ATOM      9  N   UNL d   1       0.093   3.091   0.000  0.00  0.00    -0.268 N 
ATOM     10  HN  UNL d   1       0.991   3.576   0.000  1.00  0.00     0.194 HD
ATOM     11  C   UNL d   1      -3.015  -1.198   0.001  0.00  0.00     0.037 A 
ATOM     12  C   UNL d   1       2.500   1.233   0.001  0.00  0.00     0.014 A 
ATOM     13  C   UNL d   1       1.603  -1.462   0.002  0.00  0.00     0.013 A 
ATOM     14  C   UNL d   1       3.415   0.179   0.002  0.00  0.00     0.001 A 
ATOM     15  C   UNL d   1       2.970  -1.156   0.002  0.00  0.00     0.001 A 
ENDROOT
BRANCH   9  16
ATOM     16  O   UNL d   1      -1.136   3.744  -0.000  0.00  0.00    -0.289 OA
ATOM     17  H   UNL d   1      -0.875   4.684   0.001  0.00  0.00     0.244 HD
ENDBRANCH   9  16
BRANCH   7  18
ATOM     18  N   UNL d   1      -4.918   0.404  -0.004  0.00  0.00    -0.116 N 
ATOM     19  O   UNL d   1      -5.289   1.586  -0.008  0.00  0.00    -0.532 OA
ATOM     20  O   UNL d   1      -5.681  -0.572  -0.001  0.00  0.00    -0.532 OA
ENDBRANCH   7  18
TORSDOF 2
