REMARK  3 active torsions:
REMARK  status: ('A' for Active; 'I' for Inactive)
REMARK    1  A    between atoms: C_2  and  C_1 
REMARK    2  A    between atoms: C_16  and  N_7 
REMARK    3  A    between atoms: S_19  and  C_9 
ROOT
ATOM      1  C   UNL d   1      -0.350   1.257   0.019  0.00  0.00     0.062 A 
ATOM      2  N   UNL d   1       0.995  -0.579   0.143  0.00  0.00    -0.287 N 
ATOM      3  HN  UNL d   1       1.814  -1.181   0.232  1.00  0.00     0.188 HD
ATOM      4  N   UNL d   1      -0.306  -0.959   0.027  0.00  0.00    -0.266 N 
ATOM      5  C   UNL d   1       0.964   0.759   0.115  0.00  0.00     0.100 A 
ATOM      6  C   UNL d   1      -1.143   0.131  -0.052  0.00  0.00     0.135 A 
ENDROOT
BRANCH   1   7
ATOM      7  C   UNL d   1      -0.800   2.642  -0.004  0.00  0.00     0.142 A 
ATOM      8  N   UNL d   1      -2.136   2.932  -0.159  0.00  0.00    -0.318 N 
ATOM      9  C   UNL d   1      -2.153   4.252  -0.115  0.00  0.00     0.189 A 
ATOM     10  HN  UNL d   1      -2.919   2.288  -0.278  1.00  0.00     0.169 HD
ATOM     11  C   UNL d   1      -3.334   5.054  -0.246  0.00  0.00     0.058 A 
ATOM     12  O   UNL d   1      -0.900   4.780   0.062  0.00  0.00    -0.217 OA
ATOM     13  S   UNL d   1      -3.257   6.766  -0.183  0.00  0.00    -0.098 SA
ATOM     14  C   UNL d   1      -4.632   4.617  -0.432  0.00  0.00     0.024 A 
ATOM     15  C   UNL d   1      -4.941   6.921  -0.421  0.00  0.00     0.050 A 
ATOM     16  C   UNL d   1      -5.559   5.696  -0.537  0.00  0.00     0.009 A 
ATOM     17  N   UNL d   1      -0.015   3.713   0.138  0.00  0.00    -0.242 N 
ATOM     18  HN  UNL d   1       0.996   3.741   0.270  1.00  0.00     0.196 HD
ENDBRANCH   1   7
BRANCH   5  19
ATOM     19  S   UNL d   1       2.438   1.707   0.166  0.00  0.00    -0.114 SA
ATOM     20  C   UNL d   1       3.716   0.474   0.425  0.00  0.00     0.097 C 
ENDBRANCH   5  19
BRANCH   4  21
ATOM     21  C   UNL d   1      -0.670  -2.336  -0.009  0.00  0.00     0.056 A 
ATOM     22  C   UNL d   1      -1.999  -2.732  -0.224  0.00  0.00     0.031 A 
ATOM     23  C   UNL d   1      -2.330  -4.090  -0.267  0.00  0.00     0.002 A 
ATOM     24  C   UNL d   1      -1.345  -5.058  -0.090  0.00  0.00     0.000 A 
ATOM     25  C   UNL d   1      -0.024  -4.674   0.131  0.00  0.00     0.002 A 
ATOM     26  C   UNL d   1       0.316  -3.319   0.169  0.00  0.00     0.031 A 
ENDBRANCH   4  21
TORSDOF 3
