REMARK  3 active torsions:
REMARK  status: ('A' for Active; 'I' for Inactive)
REMARK       I    between atoms: N_3  and  C_1 
REMARK       I    between atoms: N_4  and  C_1 
REMARK    1  A    between atoms: C_13  and  N_3 
REMARK    2  A    between atoms: C_12  and  N_4 
REMARK    3  A    between atoms: C_6  and  C_7 
ROOT
ATOM      1  N   UNL d   1       7.482  -0.042   6.002  0.00  0.00    -0.191 NA
ATOM      2  C   UNL d   1       6.617  -0.141   5.233  0.00  0.00     0.099 C 
ATOM      3  C   UNL d   1       5.550  -0.264   4.288  0.00  0.00     0.044 A 
ATOM      4  C   UNL d   1       3.418  -0.466   2.458  0.00  0.00     0.036 A 
ATOM      5  C   UNL d   1       4.446  -1.060   4.585  0.00  0.00     0.025 A 
ATOM      6  C   UNL d   1       5.603   0.412   3.065  0.00  0.00     0.025 A 
ATOM      7  C   UNL d   1       3.396  -1.166   3.670  0.00  0.00     0.031 A 
ATOM      8  C   UNL d   1       4.545   0.306   2.152  0.00  0.00     0.031 A 
ENDROOT
BRANCH   4   9
ATOM      9  N   UNL d   1       2.351  -0.489   1.527  0.00  0.00    -0.309 N 
ATOM     10  C   UNL d   1       1.068  -0.938   1.795  0.00  0.00     0.325 C 
ATOM     11  N   UNL d   1       0.236  -0.824   0.691  0.00  0.00    -0.309 N 
ATOM     12  O   UNL d   1       0.709  -1.360   2.888  0.00  0.00    -0.247 OA
ATOM     13  H   UNL d   1       0.671  -0.639  -0.199  0.00  0.00     0.170 HD
ATOM     14  H   UNL d   1       2.474   0.054   0.686  0.00  0.00     0.170 HD
BRANCH  11  15
ATOM     15  C   UNL d   1      -1.164  -1.026   0.685  0.00  0.00     0.036 A 
ATOM     16  C   UNL d   1      -1.906  -1.303   1.831  0.00  0.00     0.030 A 
ATOM     17  C   UNL d   1      -3.296  -1.431   1.778  0.00  0.00     0.010 A 
ATOM     18  C   UNL d   1      -4.005  -1.277   0.578  0.00  0.00    -0.051 A 
ATOM     19  C   UNL d   1      -3.248  -1.028  -0.579  0.00  0.00     0.010 A 
ATOM     20  C   UNL d   1      -1.849  -0.904  -0.526  0.00  0.00     0.030 A 
BRANCH  18  21
ATOM     21  C   UNL d   1      -5.539  -1.361   0.594  0.00  0.00    -0.024 C 
ATOM     22  C   UNL d   1      -6.188  -1.125  -0.786  0.00  0.00     0.019 C 
ATOM     23  C   UNL d   1      -5.982  -2.755   1.085  0.00  0.00     0.019 C 
ATOM     24  C   UNL d   1      -6.101  -0.286   1.554  0.00  0.00     0.019 C 
ENDBRANCH  18  21
ENDBRANCH  11  15
ENDBRANCH   4   9
TORSDOF 3
