REMARK  10 active torsions:
REMARK  status: ('A' for Active; 'I' for Inactive)
REMARK    1  A    between atoms: C_9  and  C_3 
REMARK    2  A    between atoms: C_8  and  C_4 
REMARK       I    between atoms: C_5  and  N_6 
REMARK    3  A    between atoms: C_15  and  C_5 
REMARK    4  A    between atoms: N_6  and  C_13 
REMARK    5  A    between atoms: S_10  and  C_7 
REMARK    6  A    between atoms: O_23  and  C_8 
REMARK    7  A    between atoms: O_22  and  C_9 
REMARK    8  A    between atoms: C_14  and  S_10 
REMARK    9  A    between atoms: C_30  and  O_22 
REMARK   10  A    between atoms: C_29  and  O_23 
ROOT
ATOM      1  S   UNL d   1       2.355   0.780  -1.620  0.00  0.00    -0.088 SA
ENDROOT
BRANCH   1   2
ATOM      2  C   UNL d   1       0.685   0.530  -1.052  0.00  0.00     0.010 A 
ATOM      3  C   UNL d   1       0.096  -0.733  -0.967  0.00  0.00     0.054 A 
ATOM      4  C   UNL d   1      -1.167  -0.841  -0.389  0.00  0.00     0.110 A 
ATOM      5  N   UNL d   1      -1.867   0.228   0.062  0.00  0.00    -0.346 N 
ATOM      6  C   UNL d   1      -1.270   1.444  -0.039  0.00  0.00     0.110 A 
ATOM      7  HN  UNL d   1      -2.800   0.124   0.461  1.00  0.00     0.166 HD
ATOM      8  C   UNL d   1      -0.003   1.635  -0.564  0.00  0.00     0.054 A 
BRANCH   4   9
ATOM      9  C   UNL d   1      -1.770  -2.202  -0.196  0.00  0.00     0.310 C 
ATOM     10  O   UNL d   1      -1.225  -3.232  -0.568  0.00  0.00    -0.258 OA
BRANCH   9  11
ATOM     11  O   UNL d   1      -2.960  -2.125   0.457  0.00  0.00    -0.317 OA
BRANCH  11  12
ATOM     12  C   UNL d   1      -3.594  -3.375   0.781  0.00  0.00     0.175 C 
ATOM     13  C   UNL d   1      -4.408  -3.887  -0.393  0.00  0.00     0.034 C 
ENDBRANCH  11  12
ENDBRANCH   9  11
ENDBRANCH   4   9
BRANCH   6  14
ATOM     14  C   UNL d   1      -1.986   2.629   0.513  0.00  0.00     0.310 C 
ATOM     15  O   UNL d   1      -1.490   3.744   0.604  0.00  0.00    -0.258 OA
BRANCH  14  16
ATOM     16  O   UNL d   1      -3.216   2.263   0.950  0.00  0.00    -0.317 OA
BRANCH  16  17
ATOM     17  C   UNL d   1      -3.841   3.178   1.856  0.00  0.00     0.175 C 
ATOM     18  C   UNL d   1      -3.346   2.862   3.256  0.00  0.00     0.034 C 
ENDBRANCH  16  17
ENDBRANCH  14  16
ENDBRANCH   6  14
ENDBRANCH   1   2
BRANCH   1  19
ATOM     19  C   UNL d   1       2.257   0.373  -3.356  0.00  0.00     0.032 C 
ATOM     20  C   UNL d   1       1.502   1.016  -4.357  0.00  0.00     0.052 C 
ATOM     21  C   UNL d   1       1.350   0.362  -5.600  0.00  0.00     0.031 C 
ATOM     22  C   UNL d   1       2.031  -0.821  -5.896  0.00  0.00     0.002 C 
ATOM     23  C   UNL d   1       2.884  -1.374  -4.955  0.00  0.00     0.002 C 
ATOM     24  C   UNL d   1       2.982  -0.789  -3.695  0.00  0.00     0.021 C 
BRANCH  20  25
ATOM     25  N   UNL d   1       0.893   2.303  -4.314  0.00  0.00    -0.322 N 
ATOM     26  C   UNL d   1       1.354   3.424  -3.632  0.00  0.00     0.256 C 
ATOM     27  O   UNL d   1       2.238   3.475  -2.795  0.00  0.00    -0.267 OA
ATOM     28  H   UNL d   1       0.341   2.518  -5.133  0.00  0.00     0.169 HD
BRANCH  26  29
ATOM     29  C   UNL d   1       0.786   4.719  -4.131  0.00  0.00     0.032 A 
ATOM     30  C   UNL d   1      -0.518   4.826  -4.631  0.00  0.00     0.018 A 
ATOM     31  C   UNL d   1      -0.935   6.011  -5.249  0.00  0.00     0.025 A 
ATOM     32  C   UNL d   1      -0.057   7.091  -5.350  0.00  0.00     0.034 A 
ATOM     33  C   UNL d   1       1.217   7.019  -4.791  0.00  0.00     0.025 A 
ATOM     34 CL   UNL d   1      -0.540   8.507  -6.199  0.00  0.00    -0.084 Cl
ATOM     35  C   UNL d   1       1.635   5.836  -4.175  0.00  0.00     0.018 A 
ENDBRANCH  26  29
ENDBRANCH  20  25
ENDBRANCH   1  19
TORSDOF 10
