REMARK  5 active torsions:
REMARK  status: ('A' for Active; 'I' for Inactive)
REMARK       I    between atoms: C_3  and  N_1 
REMARK    1  A    between atoms: C_15  and  C_3 
REMARK    2  A    between atoms: C_10  and  C_16 
REMARK    3  A    between atoms: O_14  and  C_10 
REMARK    4  A    between atoms: S_13  and  C_15 
REMARK    5  A    between atoms: C_16  and  S_13 
ROOT
ATOM      1  N   UNL d   1      -2.625  -0.038  -0.098  0.00  0.00    -0.351 N 
ATOM      2  C   UNL d   1       0.259   0.025  -0.250  0.00  0.00     0.167 C 
ATOM      3  C   UNL d   1      -3.931   0.131  -0.532  0.00  0.00     0.229 C 
ATOM      4  C   UNL d   1      -0.551  -1.153  -0.792  0.00  0.00     0.088 C 
ATOM      5  C   UNL d   1      -0.575   1.309  -0.221  0.00  0.00     0.088 C 
ATOM      6  C   UNL d   1      -1.883  -1.301  -0.063  0.00  0.00     0.131 C 
ATOM      7  C   UNL d   1      -1.904   1.089   0.494  0.00  0.00     0.131 C 
ATOM      8  O   UNL d   1       1.396   0.215  -1.110  0.00  0.00    -0.353 OA
ATOM      9  O   UNL d   1       0.715  -0.265   1.083  0.00  0.00    -0.353 OA
ATOM     10  O   UNL d   1      -4.528   1.214  -0.446  0.00  0.00    -0.273 OA
ATOM     11  C   UNL d   1       2.522   0.285  -0.239  0.00  0.00     0.197 C 
ATOM     12  C   UNL d   1       2.109  -0.544   0.945  0.00  0.00     0.197 C 
ENDROOT
BRANCH   3  13
ATOM     13  C   UNL d   1      -4.698  -1.057  -1.096  0.00  0.00     0.177 C 
BRANCH  13  14
ATOM     14  S   UNL d   1      -5.622  -1.903   0.230  0.00  0.00    -0.149 SA
BRANCH  14  15
ATOM     15  C   UNL d   1      -6.704  -0.554   0.823  0.00  0.00     0.184 C 
BRANCH  15  16
ATOM     16  C   UNL d   1      -7.628  -0.033  -0.254  0.00  0.00     0.149 C 
ATOM     17  O   UNL d   1      -8.713  -0.531  -0.525  0.00  0.00    -0.649 OA
BRANCH  16  18
ATOM     18  O   UNL d   1      -7.147   1.040  -0.927  0.00  0.00    -0.776 OA
ATOM     19  H   UNL d   1      -6.241   1.333  -0.654  0.00  0.00     0.167 HD
ENDBRANCH  16  18
ENDBRANCH  15  16
ENDBRANCH  14  15
ENDBRANCH  13  14
ENDBRANCH   3  13
TORSDOF 5
