REMARK  3 active torsions:
REMARK  status: ('A' for Active; 'I' for Inactive)
REMARK    1  A    between atoms: C_12  and  C_2 
REMARK    2  A    between atoms: O_14  and  C_12 
REMARK    3  A    between atoms: C_15  and  O_14 
ROOT
ATOM      1  C   UNL d   1       0.121  -0.729   0.066  0.00  0.00     0.086 A 
ATOM      2  C   UNL d   1      -2.250  -0.682  -0.014  0.00  0.00     0.041 A 
ATOM      3  C   UNL d   1       0.145   0.726   0.105  0.00  0.00     0.085 A 
ATOM      4  C   UNL d   1      -1.075  -1.466   0.014  0.00  0.00     0.051 A 
ATOM      5  O   UNL d   1       2.178  -0.034   0.120  0.00  0.00    -0.156 OA
ATOM      6  N   UNL d   1       1.385  -1.168   0.082  0.00  0.00    -0.240 N 
ATOM      7  HN  UNL d   1       1.699  -2.138   0.069  1.00  0.00     0.197 HD
ATOM      8  N   UNL d   1       1.420   1.126   0.139  0.00  0.00    -0.240 N 
ATOM      9  HN  UNL d   1       1.764   2.086   0.171  1.00  0.00     0.197 HD
ATOM     10  C   UNL d   1      -2.220   0.747   0.036  0.00  0.00     0.020 A 
ATOM     11  C   UNL d   1      -1.029   1.499   0.099  0.00  0.00     0.035 A 
ENDROOT
BRANCH   2  12
ATOM     12  C   UNL d   1      -3.536  -1.423  -0.166  0.00  0.00     0.293 C 
ATOM     13  O   UNL d   1      -3.603  -2.638  -0.249  0.00  0.00    -0.259 OA
BRANCH  12  14
ATOM     14  O   UNL d   1      -4.569  -0.553  -0.279  0.00  0.00    -0.318 OA
BRANCH  14  15
ATOM     15  C   UNL d   1      -5.818  -1.117  -0.705  0.00  0.00     0.174 C 
ATOM     16  C   UNL d   1      -5.880  -1.062  -2.220  0.00  0.00     0.034 C 
ENDBRANCH  14  15
ENDBRANCH  12  14
ENDBRANCH   2  12
TORSDOF 3
