REMARK  6 active torsions:
REMARK  status: ('A' for Active; 'I' for Inactive)
REMARK    1  A    between atoms: C_11  and  N_1 
REMARK    2  A    between atoms: C_8  and  C_2 
REMARK    3  A    between atoms: C_9  and  C_7 
REMARK    4  A    between atoms: O_15  and  C_9 
REMARK    5  A    between atoms: N_14  and  C_10 
REMARK    6  A    between atoms: C_12  and  N_14 
ROOT
ATOM      1  C   UNL d   1       2.416  -1.218   0.344  0.00  0.00     0.063 C 
ATOM      2  C   UNL d   1       2.681  -2.516   0.155  0.00  0.00     0.066 C 
ENDROOT
BRANCH   1   3
ATOM      3  C   UNL d   1       1.096  -0.714   0.362  0.00  0.00     0.139 A 
ATOM      4  N   UNL d   1       0.752   0.571  -0.079  0.00  0.00    -0.225 N 
ATOM      5  N   UNL d   1      -0.537   0.792   0.301  0.00  0.00     0.001 NA
ATOM      6  N   UNL d   1      -0.972  -0.333   0.839  0.00  0.00    -0.007 NA
ATOM      7  N   UNL d   1       0.011  -1.279   0.862  0.00  0.00    -0.270 N 
ATOM      8  HN  UNL d   1      -0.076  -2.237   1.201  1.00  0.00     0.185 HD
BRANCH   4   9
ATOM      9  C   UNL d   1       1.469   1.587  -0.784  0.00  0.00     0.056 A 
ATOM     10  C   UNL d   1       2.729   1.369  -1.356  0.00  0.00     0.031 A 
ATOM     11  C   UNL d   1       3.435   2.423  -1.946  0.00  0.00     0.002 A 
ATOM     12  C   UNL d   1       2.873   3.695  -2.014  0.00  0.00     0.000 A 
ATOM     13  C   UNL d   1       1.591   3.909  -1.520  0.00  0.00     0.002 A 
ATOM     14  C   UNL d   1       0.890   2.864  -0.911  0.00  0.00     0.031 A 
ENDBRANCH   4   9
ENDBRANCH   1   3
BRANCH   2  15
ATOM     15  N   UNL d   1       3.955  -3.055   0.154  0.00  0.00    -0.269 NA
ATOM     16  H   UNL d   1       4.166  -3.558  -0.715  0.00  0.00     0.133 HD
BRANCH  15  17
ATOM     17  C   UNL d   1       4.477  -3.820   1.241  0.00  0.00     0.028 A 
ATOM     18  C   UNL d   1       5.699  -4.530   1.145  0.00  0.00     0.060 A 
ATOM     19  C   UNL d   1       6.227  -5.167   2.290  0.00  0.00     0.019 A 
ATOM     20  C   UNL d   1       5.577  -5.101   3.521  0.00  0.00     0.001 A 
ATOM     21  C   UNL d   1       4.388  -4.396   3.627  0.00  0.00     0.002 A 
ATOM     22  C   UNL d   1       3.853  -3.756   2.507  0.00  0.00     0.025 A 
BRANCH  18  23
ATOM     23  C   UNL d   1       6.539  -4.672  -0.086  0.00  0.00     0.294 C 
ATOM     24  O   UNL d   1       7.637  -5.202  -0.072  0.00  0.00    -0.259 OA
BRANCH  23  25
ATOM     25  O   UNL d   1       5.936  -4.168  -1.194  0.00  0.00    -0.322 OA
ATOM     26  C   UNL d   1       6.722  -4.239  -2.391  0.00  0.00     0.213 C 
ENDBRANCH  23  25
ENDBRANCH  18  23
ENDBRANCH  15  17
ENDBRANCH   2  15
TORSDOF 6
