REMARK  1 active torsions:
REMARK  status: ('A' for Active; 'I' for Inactive)
REMARK    1  A    between atoms: C_5  and  C_4 
ROOT
ATOM      1  C   UNL d   1       0.717  -0.390   0.002  0.00  0.00    -0.014 A 
ATOM      2  C   UNL d   1       1.519  -1.560   0.042  0.00  0.00     0.028 A 
ATOM      3  C   UNL d   1      -0.724  -0.396  -0.007  0.00  0.00    -0.015 A 
ATOM      4  C   UNL d   1       2.925  -1.526   0.064  0.00  0.00     0.010 A 
ATOM      5  C   UNL d   1       1.403   0.848  -0.015  0.00  0.00    -0.025 A 
ATOM      6  C   UNL d   1       3.564  -0.290   0.019  0.00  0.00     0.016 A 
ATOM      7  C   UNL d   1      -1.420   0.840   0.019  0.00  0.00    -0.025 A 
ATOM      8  C   UNL d   1       2.806   0.883  -0.021  0.00  0.00     0.013 A 
ATOM      9  C   UNL d   1       0.684   2.046  -0.015  0.00  0.00     0.013 A 
ATOM     10  C   UNL d   1      -0.708   2.042   0.015  0.00  0.00     0.013 A 
ATOM     11  C   UNL d   1      -1.516  -1.571  -0.039  0.00  0.00     0.013 A 
ATOM     12  C   UNL d   1      -2.825   0.868   0.048  0.00  0.00     0.012 A 
ATOM     13  C   UNL d   1      -2.914  -1.530  -0.024  0.00  0.00     0.001 A 
ATOM     14  C   UNL d   1      -3.568  -0.309   0.029  0.00  0.00     0.001 A 
ENDROOT
BRANCH   4  15
ATOM     15  C   UNL d   1       3.652  -2.833   0.150  0.00  0.00     0.155 C 
ATOM     16  O   UNL d   1       3.002  -3.880   0.187  0.00  0.00    -0.293 OA
ATOM     17  C   UNL d   1       5.158  -2.892   0.206  0.00  0.00     0.096 C 
ENDBRANCH   4  15
TORSDOF 1
