REMARK  2 active torsions:
REMARK  status: ('A' for Active; 'I' for Inactive)
REMARK    1  A    between atoms: C_2  and  S_1 
REMARK    2  A    between atoms: N_3  and  S_1 
ROOT
ATOM      1  S   UNL d   1       0.998  -0.072  -0.061  0.00  0.00     0.267 S 
ATOM      2  O   UNL d   1       0.913   1.334  -0.397  0.00  0.00    -0.200 OA
ATOM      3  O   UNL d   1       0.498  -0.530   1.224  0.00  0.00    -0.200 OA
ENDROOT
BRANCH   1   4
ATOM      4  C   UNL d   1       2.705  -0.509  -0.084  0.00  0.00     0.109 A 
ATOM      5  C   UNL d   1       3.522  -0.445  -1.232  0.00  0.00     0.090 A 
ATOM      6  N   UNL d   1       3.181  -0.076  -2.475  0.00  0.00    -0.309 N 
ATOM      7  C   UNL d   1       4.986  -0.830  -1.138  0.00  0.00     0.068 A 
ATOM      8  S   UNL d   1       4.535  -0.200  -3.421  0.00  0.00     0.068 SA
ATOM      9  HN  UNL d   1       2.257   0.226  -2.783  1.00  0.00     0.176 HD
ATOM     10  N   UNL d   1       5.640  -0.735  -2.305  0.00  0.00    -0.310 N 
ATOM     11  HN  UNL d   1       6.623  -0.949  -2.474  1.00  0.00     0.176 HD
ATOM     12  C   UNL d   1       5.559  -1.250   0.087  0.00  0.00     0.032 A 
ATOM     13  C   UNL d   1       4.697  -1.296   1.193  0.00  0.00     0.004 A 
ATOM     14  C   UNL d   1       3.331  -0.943   1.112  0.00  0.00     0.028 A 
ENDBRANCH   1   4
BRANCH   1  15
ATOM     15  N   UNL d   1       0.249  -1.036  -1.205  0.00  0.00    -0.271 N 
ATOM     16  C   UNL d   1       0.091  -0.710  -2.579  0.00  0.00     0.051 A 
ATOM     17  C   UNL d   1      -0.047  -1.880  -3.324  0.00  0.00    -0.029 A 
ATOM     18  C   UNL d   1      -0.135   0.526  -3.158  0.00  0.00     0.031 A 
ATOM     19  C   UNL d   1      -0.373  -1.844  -4.672  0.00  0.00     0.009 A 
ATOM     20  C   UNL d   1       0.203  -3.090  -2.483  0.00  0.00     0.062 C 
ATOM     21  C   UNL d   1      -0.584  -0.600  -5.269  0.00  0.00     0.001 A 
ATOM     22  C   UNL d   1      -0.460   0.578  -4.518  0.00  0.00     0.002 A 
ATOM     23  C   UNL d   1       0.289  -2.512  -1.058  0.00  0.00     0.146 C 
ENDBRANCH   1  15
TORSDOF 2
