REMARK  3 active torsions:
REMARK  status: ('A' for Active; 'I' for Inactive)
REMARK    1  A    between atoms: O_16  and  C_1 
REMARK    2  A    between atoms: C_6  and  O_8 
REMARK    3  A    between atoms: O_8  and  C_10 
ROOT
ATOM      1  C   UNL d   1       1.879  -0.235   3.424  0.00  0.00     0.221 A 
ATOM      2  N   UNL d   1       0.688  -0.831   3.307  0.00  0.00    -0.330 N 
ATOM      3  HN  UNL d   1      -0.044  -0.742   4.011  1.00  0.00     0.168 HD
ATOM      4  N   UNL d   1       2.898  -0.278   2.565  0.00  0.00    -0.330 N 
ATOM      5  HN  UNL d   1       3.773   0.220   2.727  1.00  0.00     0.168 HD
ATOM      6  C   UNL d   1       1.519  -1.727   1.228  0.00  0.00     0.107 A 
ATOM      7  C   UNL d   1       0.531  -1.561   2.180  0.00  0.00     0.130 A 
ATOM      8  C   UNL d   1       2.684  -1.028   1.466  0.00  0.00     0.130 A 
ENDROOT
BRANCH   6   9
ATOM      9  O   UNL d   1       1.418  -2.456   0.079  0.00  0.00    -0.306 OA
BRANCH   9  10
ATOM     10  C   UNL d   1       0.701  -3.632   0.094  0.00  0.00     0.098 A 
ATOM     11  C   UNL d   1      -0.102  -3.934  -1.015  0.00  0.00     0.069 A 
ATOM     12  C   UNL d   1      -0.819  -5.131  -1.064  0.00  0.00     0.050 A 
ATOM     13 CL   UNL d   1      -0.237  -2.842  -2.345  0.00  0.00    -0.081 Cl
ATOM     14  C   UNL d   1      -0.722  -6.033  -0.007  0.00  0.00     0.035 A 
ATOM     15  C   UNL d   1       0.097  -5.758   1.088  0.00  0.00     0.026 A 
ATOM     16 CL   UNL d   1      -1.611  -7.505  -0.057  0.00  0.00    -0.084 Cl
ATOM     17  C   UNL d   1       0.823  -4.565   1.133  0.00  0.00     0.041 A 
ENDBRANCH   9  10
ENDBRANCH   6   9
BRANCH   1  18
ATOM     18  O   UNL d   1       2.048   0.476   4.569  0.00  0.00    -0.332 OA
ATOM     19  H   UNL d   1       1.181   0.315   4.975  0.00  0.00     0.220 HD
ENDBRANCH   1  18
TORSDOF 3
