REMARK  5 active torsions:
REMARK  status: ('A' for Active; 'I' for Inactive)
REMARK    1  A    between atoms: N_12  and  C_1 
REMARK    2  A    between atoms: O_18  and  C_8 
REMARK    3  A    between atoms: O_19  and  C_9 
REMARK    4  A    between atoms: C_10  and  C_11 
REMARK    5  A    between atoms: C_14  and  N_12 
ROOT
ATOM      1  C   UNL d   1      -1.268  -0.126   0.090  0.00  0.00     0.689 A 
ATOM      2  N   UNL d   1      -0.759   0.978  -0.442  0.00  0.00    -0.154 N 
ATOM      3  HN  UNL d   1      -1.338   1.704  -0.864  1.00  0.00     0.188 HD
ATOM      4  N   UNL d   1      -0.543  -1.069   0.681  0.00  0.00    -0.154 N 
ATOM      5  HN  UNL d   1      -0.967  -1.899   1.095  1.00  0.00     0.188 HD
ATOM      6  N   UNL d   1       1.385   0.180   0.177  0.00  0.00    -0.287 N 
ATOM      7  HN  UNL d   1       2.399   0.295   0.201  1.00  0.00     0.173 HD
ATOM      8  C   UNL d   1       0.765  -0.864   0.699  0.00  0.00     0.240 A 
ATOM      9  C   UNL d   1       0.571   1.062  -0.380  0.00  0.00     0.240 A 
ENDROOT
BRANCH   1  10
ATOM     10  N   UNL d   1      -2.655  -0.288   0.022  0.00  0.00    -0.192 N 
ATOM     11  H   UNL d   1      -3.062   0.497  -0.473  0.00  0.00     0.184 HD
BRANCH  10  12
ATOM     12  C   UNL d   1      -3.359  -1.494  -0.151  0.00  0.00     0.050 A 
ATOM     13  C   UNL d   1      -2.764  -2.633  -0.713  0.00  0.00     0.046 A 
ATOM     14  C   UNL d   1      -3.478  -3.830  -0.880  0.00  0.00     0.050 A 
ATOM     15  C   UNL d   1      -4.814  -3.882  -0.466  0.00  0.00     0.016 A 
ATOM     16  C   UNL d   1      -5.422  -2.757   0.089  0.00  0.00     0.003 A 
ATOM     17  C   UNL d   1      -4.702  -1.569   0.235  0.00  0.00     0.030 A 
BRANCH  14  18
ATOM     18  C   UNL d   1      -2.821  -5.037  -1.501  0.00  0.00     0.417 C 
ATOM     19  F   UNL d   1      -1.523  -4.827  -1.864  0.00  0.00    -0.166 F 
ATOM     20  F   UNL d   1      -2.802  -6.111  -0.664  0.00  0.00    -0.166 F 
ATOM     21  F   UNL d   1      -3.458  -5.452  -2.630  0.00  0.00    -0.166 F 
ENDBRANCH  14  18
ENDBRANCH  10  12
ENDBRANCH   1  10
BRANCH   9  22
ATOM     22  O   UNL d   1       1.214   2.146  -0.940  0.00  0.00    -0.327 OA
ATOM     23  C   UNL d   1       0.341   3.051  -1.599  0.00  0.00     0.213 C 
ENDBRANCH   9  22
BRANCH   8  24
ATOM     24  O   UNL d   1       1.592  -1.802   1.279  0.00  0.00    -0.327 OA
ATOM     25  C   UNL d   1       0.880  -2.898   1.841  0.00  0.00     0.213 C 
ENDBRANCH   8  24
TORSDOF 5
