REMARK  1 active torsions:
REMARK  status: ('A' for Active; 'I' for Inactive)
REMARK    1  A    between atoms: C_12  and  C_10 
ROOT
ATOM      1  N   UNL d   1      -0.210  -0.262   0.020  0.00  0.00    -0.255 N 
ATOM      2  C   UNL d   1      -0.487   1.066   0.020  0.00  0.00     0.160 A 
ATOM      3  C   UNL d   1      -1.277  -1.133   0.023  0.00  0.00     0.271 A 
ATOM      4  C   UNL d   1      -2.517  -0.301   0.021  0.00  0.00     0.077 A 
ATOM      5  N   UNL d   1       0.572   1.827   0.006  0.00  0.00    -0.334 N 
ATOM      6  HN  UNL d   1       0.618   2.846   0.001  1.00  0.00     0.168 HD
ATOM      7  S   UNL d   1      -2.171   1.411   0.032  0.00  0.00    -0.048 SA
ATOM      8  C   UNL d   1       1.155  -0.401   0.014  0.00  0.00     0.071 A 
ATOM      9  C   UNL d   1       1.615   0.922   0.002  0.00  0.00     0.061 A 
ATOM     10  C   UNL d   1      -3.727  -0.877   0.001  0.00  0.00     0.036 C 
ATOM     11  O   UNL d   1      -1.148  -2.343   0.020  0.00  0.00    -0.266 OA
ATOM     12  C   UNL d   1       2.013  -1.506   0.016  0.00  0.00     0.032 A 
ATOM     13  C   UNL d   1       2.996   1.165  -0.011  0.00  0.00     0.032 A 
ATOM     14  C   UNL d   1       3.387  -1.237   0.009  0.00  0.00     0.002 A 
ATOM     15  C   UNL d   1       3.873   0.073  -0.006  0.00  0.00     0.002 A 
ENDROOT
BRANCH  10  16
ATOM     16  C   UNL d   1      -4.999  -0.151  -0.020  0.00  0.00    -0.035 A 
ATOM     17  C   UNL d   1      -5.586   0.202  -1.241  0.00  0.00     0.013 A 
ATOM     18  C   UNL d   1      -6.802   0.888  -1.264  0.00  0.00     0.020 A 
ATOM     19  C   UNL d   1      -7.431   1.222  -0.066  0.00  0.00     0.011 A 
ATOM     20  C   UNL d   1      -6.852   0.881   1.155  0.00  0.00     0.020 A 
ATOM     21 BR   UNL d   1      -9.084   2.139  -0.097  0.00  0.00    -0.051 Br
ATOM     22  C   UNL d   1      -5.634   0.196   1.178  0.00  0.00     0.013 A 
ENDBRANCH  10  16
TORSDOF 1
