REMARK  10 active torsions:
REMARK  status: ('A' for Active; 'I' for Inactive)
REMARK    1  A    between atoms: S_10  and  C_3 
REMARK    2  A    between atoms: C_11  and  C_4 
REMARK    3  A    between atoms: C_7  and  C_18 
REMARK       I    between atoms: N_19  and  C_7 
REMARK    4  A    between atoms: C_8  and  C_26 
REMARK    5  A    between atoms: C_18  and  S_10 
REMARK    6  A    between atoms: C_28  and  N_19 
REMARK    7  A    between atoms: O_27  and  C_22 
REMARK    8  A    between atoms: S_25  and  C_29 
REMARK    9  A    between atoms: C_26  and  S_25 
REMARK   10  A    between atoms: C_29  and  C_28 
ROOT
ATOM      1  N   UNL d   1       1.188   0.571  -0.069  0.00  0.00    -0.336 N 
ATOM      2  HN  UNL d   1       2.111   1.005  -0.069  1.00  0.00     0.168 HD
ATOM      3  C   UNL d   1       0.074   1.321  -0.020  0.00  0.00     0.145 A 
ATOM      4  C   UNL d   1       1.053  -0.773  -0.117  0.00  0.00     0.045 A 
ATOM      5  N   UNL d   1      -1.173   0.832  -0.013  0.00  0.00    -0.347 N 
ATOM      6  HN  UNL d   1      -1.993   1.439   0.017  1.00  0.00     0.167 HD
ATOM      7  C   UNL d   1      -0.194  -1.363  -0.099  0.00  0.00     0.047 A 
ATOM      8  C   UNL d   1      -1.276  -0.511  -0.047  0.00  0.00     0.092 A 
ENDROOT
BRANCH   3   9
ATOM      9  S   UNL d   1       0.354   3.072   0.042  0.00  0.00    -0.085 SA
BRANCH   9  10
ATOM     10  C   UNL d   1      -1.347   3.726   0.022  0.00  0.00     0.185 C 
BRANCH  10  11
ATOM     11  C   UNL d   1      -1.353   5.254   0.074  0.00  0.00     0.227 C 
ATOM     12  O   UNL d   1      -2.260   5.877   0.620  0.00  0.00    -0.273 OA
ATOM     13  N   UNL d   1      -0.324   5.889  -0.593  0.00  0.00    -0.360 N 
ATOM     14  H   UNL d   1       0.443   5.317  -0.932  0.00  0.00     0.162 HD
BRANCH  13  15
ATOM     15  C   UNL d   1      -0.157   7.332  -0.552  0.00  0.00     0.132 C 
BRANCH  15  16
ATOM     16  C   UNL d   1       1.062   7.826  -1.333  0.00  0.00     0.094 C 
BRANCH  16  17
ATOM     17  S   UNL d   1       1.096   7.320  -3.094  0.00  0.00    -0.161 SA
BRANCH  17  18
ATOM     18  C   UNL d   1      -0.459   8.067  -3.684  0.00  0.00     0.139 C 
BRANCH  18  19
ATOM     19  C   UNL d   1      -0.433   9.549  -3.628  0.00  0.00     0.061 A 
ATOM     20  O   UNL d   1      -0.924  10.132  -2.495  0.00  0.00    -0.326 OA
ATOM     21  C   UNL d   1      -0.814  11.476  -2.660  0.00  0.00     0.142 A 
ATOM     22  C   UNL d   1      -0.267  11.767  -3.887  0.00  0.00     0.027 A 
ATOM     23  C   UNL d   1      -0.020  10.523  -4.514  0.00  0.00     0.035 A 
ENDBRANCH  18  19
ENDBRANCH  17  18
ENDBRANCH  16  17
ENDBRANCH  15  16
ENDBRANCH  13  15
ENDBRANCH  10  11
ENDBRANCH   9  10
ENDBRANCH   3   9
BRANCH   4  24
ATOM     24  C   UNL d   1       2.319  -1.539  -0.188  0.00  0.00    -0.009 A 
ATOM     25  C   UNL d   1       3.511  -1.016   0.345  0.00  0.00     0.016 A 
ATOM     26  C   UNL d   1       4.726  -1.716   0.275  0.00  0.00     0.037 A 
ATOM     27  C   UNL d   1       4.776  -2.962  -0.340  0.00  0.00     0.068 A 
ATOM     28  C   UNL d   1       3.606  -3.511  -0.858  0.00  0.00     0.037 A 
ATOM     29  C   UNL d   1       2.397  -2.805  -0.795  0.00  0.00     0.016 A 
BRANCH  27  30
ATOM     30  O   UNL d   1       5.893  -3.743  -0.456  0.00  0.00    -0.356 OA
ATOM     31  C   UNL d   1       7.124  -3.035  -0.556  0.00  0.00     0.210 C 
ENDBRANCH  27  30
ENDBRANCH   4  24
TORSDOF 10
