REMARK  4 active torsions:
REMARK  status: ('A' for Active; 'I' for Inactive)
REMARK    1  A    between atoms: N_5  and  C_1 
REMARK    2  A    between atoms: C_10  and  C_4 
REMARK       I    between atoms: C_8  and  N_5 
REMARK    3  A    between atoms: C_9  and  C_8 
REMARK    4  A    between atoms: C_11  and  C_12 
ROOT
ATOM      1  N   UNL d   1      -2.656   0.912  -0.109  0.00  0.00    -0.303 N 
ATOM      2  C   UNL d   1      -3.872   0.336  -0.407  0.00  0.00     0.259 C 
ATOM      3  O   UNL d   1      -4.037  -0.786  -0.875  0.00  0.00    -0.267 OA
ATOM      4  H   UNL d   1      -2.550   1.890   0.098  0.00  0.00     0.171 HD
ENDROOT
BRANCH   1   5
ATOM      5  C   UNL d   1      -1.497   0.181  -0.116  0.00  0.00     0.152 A 
ATOM      6  N   UNL d   1      -1.331  -1.107  -0.221  0.00  0.00    -0.335 N 
ATOM      7  C   UNL d   1       0.014  -1.427  -0.117  0.00  0.00     0.057 A 
ATOM      8  HN  UNL d   1      -2.083  -1.782  -0.359  1.00  0.00     0.168 HD
ATOM      9  C   UNL d   1       0.863  -0.331  -0.016  0.00  0.00     0.010 A 
ATOM     10  S   UNL d   1      -0.084   1.107   0.094  0.00  0.00    -0.057 SA
ATOM     11  C   UNL d   1       2.349  -0.234   0.008  0.00  0.00     0.059 C 
BRANCH   7  12
ATOM     12  C   UNL d   1       0.416  -2.832  -0.133  0.00  0.00    -0.007 A 
ATOM     13  C   UNL d   1      -0.323  -3.751  -0.892  0.00  0.00     0.038 A 
ATOM     14  C   UNL d   1      -0.007  -5.114  -0.872  0.00  0.00     0.040 A 
ATOM     15 CL   UNL d   1      -0.976  -6.187  -1.820  0.00  0.00    -0.084 Cl
ATOM     16  C   UNL d   1       1.057  -5.591  -0.093  0.00  0.00    -0.040 A 
ATOM     17  C   UNL d   1       1.790  -4.674   0.670  0.00  0.00     0.009 A 
ATOM     18  C   UNL d   1       1.409  -7.051  -0.024  0.00  0.00     0.050 C 
ATOM     19  C   UNL d   1       1.465  -3.313   0.657  0.00  0.00     0.014 A 
ENDBRANCH   7  12
ENDBRANCH   1   5
BRANCH   2  20
ATOM     20  C   UNL d   1      -5.087   1.165  -0.162  0.00  0.00     0.048 A 
ATOM     21  C   UNL d   1      -5.093   2.401   0.499  0.00  0.00     0.032 A 
ATOM     22  C   UNL d   1      -6.302   3.082   0.724  0.00  0.00    -0.003 A 
ATOM     23  C   UNL d   1      -7.467   2.462   0.270  0.00  0.00     0.100 A 
ATOM     24  N   UNL d   1      -7.504   1.272  -0.371  0.00  0.00    -0.373 N 
ATOM     25  C   UNL d   1      -6.316   0.652  -0.570  0.00  0.00     0.104 A 
ATOM     26  HN  UNL d   1      -8.382   0.861  -0.689  1.00  0.00     0.164 HD
BRANCH  22  27
ATOM     27  C   UNL d   1      -6.368   4.373   1.426  0.00  0.00     0.016 A 
ATOM     28  S   UNL d   1      -5.125   5.547   1.230  0.00  0.00    -0.101 SA
ATOM     29  C   UNL d   1      -5.907   6.662   2.260  0.00  0.00     0.050 A 
ATOM     30  C   UNL d   1      -7.094   6.168   2.745  0.00  0.00     0.008 A 
ATOM     31  C   UNL d   1      -7.359   4.853   2.266  0.00  0.00     0.020 A 
ENDBRANCH  22  27
ENDBRANCH   2  20
TORSDOF 4
