REMARK  4 active torsions:
REMARK  status: ('A' for Active; 'I' for Inactive)
REMARK    1  A    between atoms: S_6  and  C_1 
REMARK    2  A    between atoms: C_13  and  S_6 
REMARK       I    between atoms: C_7  and  N_8 
REMARK    3  A    between atoms: C_15  and  C_7 
REMARK    4  A    between atoms: N_8  and  C_14 
ROOT
ATOM      1  C   UNL d   1       4.485  -3.083   0.461  0.00  0.00     0.096 C 
ATOM      2  C   UNL d   1       4.575  -3.496   1.787  0.00  0.00     0.085 C 
ATOM      3  N   UNL d   1       4.845  -3.891  -0.575  0.00  0.00    -0.349 N 
ATOM      4  HN  UNL d   1       4.788  -3.558  -1.537  1.00  0.00     0.166 HD
ATOM      5  C   UNL d   1       5.183  -4.745   2.086  0.00  0.00    -0.026 C 
ATOM      6  C   UNL d   1       5.479  -5.614   1.011  0.00  0.00    -0.002 A 
ATOM      7  C   UNL d   1       3.912  -2.777   2.826  0.00  0.00     0.103 C 
ATOM      8  C   UNL d   1       5.274  -5.134  -0.303  0.00  0.00     0.043 A 
ATOM      9  N   UNL d   1       3.297  -2.282   3.680  0.00  0.00    -0.191 NA
ATOM     10  C   UNL d   1       5.437  -5.165   3.511  0.00  0.00     0.050 C 
ATOM     11  C   UNL d   1       5.910  -6.949   1.186  0.00  0.00     0.014 A 
ATOM     12  C   UNL d   1       5.484  -5.999  -1.367  0.00  0.00     0.030 A 
ATOM     13  C   UNL d   1       6.089  -7.801   0.107  0.00  0.00     0.001 A 
ATOM     14  C   UNL d   1       5.875  -7.328  -1.182  0.00  0.00     0.002 A 
ENDROOT
BRANCH   1  15
ATOM     15  S   UNL d   1       3.754  -1.524  -0.057  0.00  0.00    -0.069 SA
BRANCH  15  16
ATOM     16  C   UNL d   1       5.212  -0.477  -0.190  0.00  0.00     0.033 A 
ATOM     17  C   UNL d   1       5.672   0.284   0.906  0.00  0.00     0.052 A 
ATOM     18  C   UNL d   1       6.838   1.044   0.801  0.00  0.00     0.031 A 
ATOM     19  C   UNL d   1       7.504   1.124  -0.423  0.00  0.00     0.002 A 
ATOM     20  C   UNL d   1       7.034   0.410  -1.524  0.00  0.00     0.002 A 
ATOM     21  C   UNL d   1       5.903  -0.406  -1.403  0.00  0.00     0.021 A 
BRANCH  17  22
ATOM     22  N   UNL d   1       4.843   0.398   2.035  0.00  0.00    -0.322 N 
ATOM     23  C   UNL d   1       5.258   0.388   3.348  0.00  0.00     0.256 C 
ATOM     24  O   UNL d   1       6.397   0.100   3.711  0.00  0.00    -0.267 OA
ATOM     25  H   UNL d   1       3.854   0.340   1.832  0.00  0.00     0.169 HD
BRANCH  23  26
ATOM     26  C   UNL d   1       4.214   0.770   4.351  0.00  0.00     0.032 A 
ATOM     27  C   UNL d   1       2.844   0.789   4.059  0.00  0.00     0.017 A 
ATOM     28  C   UNL d   1       1.933   1.343   4.959  0.00  0.00     0.007 A 
ATOM     29  C   UNL d   1       2.381   1.881   6.166  0.00  0.00    -0.062 A 
ATOM     30  C   UNL d   1       3.739   1.776   6.503  0.00  0.00     0.007 A 
ATOM     31  C   UNL d   1       1.426   2.641   7.035  0.00  0.00     0.048 C 
ATOM     32  C   UNL d   1       4.648   1.213   5.606  0.00  0.00     0.017 A 
ENDBRANCH  23  26
ENDBRANCH  17  22
ENDBRANCH  15  16
ENDBRANCH   1  15
TORSDOF 4
