REMARK  3 active torsions:
REMARK  status: ('A' for Active; 'I' for Inactive)
REMARK    1  A    between atoms: C_2  and  C_1 
REMARK    2  A    between atoms: N_10  and  C_2 
REMARK    3  A    between atoms: O_13  and  N_3 
ROOT
ATOM      1  C   UNL d   1      -1.281  -4.375  -0.036  0.00  0.00     0.007 A 
ATOM      2  C   UNL d   1      -2.499  -3.687  -0.023  0.00  0.00     0.038 A 
ATOM      3  C   UNL d   1      -1.267  -5.775  -0.035  0.00  0.00     0.038 A 
ATOM      4  C   UNL d   1      -3.695  -4.403  -0.021  0.00  0.00     0.036 A 
ATOM      5  C   UNL d   1      -2.473  -6.474  -0.026  0.00  0.00     0.036 A 
ATOM      6  C   UNL d   1      -3.690  -5.796  -0.023  0.00  0.00     0.047 A 
ATOM      7 CL   UNL d   1      -5.194  -3.559  -0.023  0.00  0.00    -0.084 Cl
ATOM      8 CL   UNL d   1      -2.457  -8.195  -0.014  0.00  0.00    -0.084 Cl
ENDROOT
BRANCH   1   9
ATOM      9  C   UNL d   1       0.003  -3.616  -0.040  0.00  0.00     0.108 C 
ATOM     10  N   UNL d   1       0.013  -2.409   0.449  0.00  0.00    -0.258 N 
ATOM     11  HN  UNL d   1      -0.800  -1.939   0.848  1.00  0.00     0.195 HD
BRANCH  10  12
ATOM     12  O   UNL d   1       1.295  -1.842   0.354  0.00  0.00    -0.289 OA
ATOM     13  H   UNL d   1       1.188  -1.014   0.860  0.00  0.00     0.244 HD
ENDBRANCH  10  12
BRANCH   9  14
ATOM     14  N   UNL d   1       1.129  -4.207  -0.564  0.00  0.00    -0.287 NA
ATOM     15  H   UNL d   1       0.986  -4.720  -1.428  0.00  0.00     0.125 HD
ATOM     16  H   UNL d   1       1.860  -3.504  -0.662  0.00  0.00     0.125 HD
ENDBRANCH   9  14
ENDBRANCH   1   9
TORSDOF 3
