REMARK  5 active torsions:
REMARK  status: ('A' for Active; 'I' for Inactive)
REMARK    1  A    between atoms: C_12  and  C_3 
REMARK    2  A    between atoms: S_13  and  C_6 
REMARK    3  A    between atoms: C_11  and  C_7 
REMARK    4  A    between atoms: O_19  and  C_12 
REMARK    5  A    between atoms: C_18  and  S_13 
ROOT
ATOM      1  C   UNL d   1      -0.310  -0.707   0.022  0.00  0.00     0.068 A 
ATOM      2  C   UNL d   1      -0.254   0.740   0.019  0.00  0.00     0.016 A 
ATOM      3  C   UNL d   1      -1.596  -1.207  -0.003  0.00  0.00     0.107 A 
ATOM      4  N   UNL d   1       0.814  -1.469   0.036  0.00  0.00    -0.350 N 
ATOM      5  HN  UNL d   1       0.795  -2.489   0.047  1.00  0.00     0.166 HD
ATOM      6  C   UNL d   1       0.927   1.496   0.030  0.00  0.00     0.020 A 
ATOM      7  C   UNL d   1       1.981  -0.740   0.032  0.00  0.00     0.118 A 
ATOM      8  S   UNL d   1      -2.735   0.092  -0.028  0.00  0.00    -0.093 SA
ATOM      9  C   UNL d   1       2.065   0.680   0.028  0.00  0.00     0.054 A 
ATOM     10  C   UNL d   1      -1.515   1.288  -0.012  0.00  0.00     0.065 A 
ENDROOT
BRANCH   6  11
ATOM     11  S   UNL d   1       0.999   3.253  -0.048  0.00  0.00    -0.090 SA
BRANCH  11  12
ATOM     12  C   UNL d   1       0.875   3.713   1.670  0.00  0.00     0.005 A 
ATOM     13  C   UNL d   1       1.878   3.370   2.585  0.00  0.00     0.020 A 
ATOM     14  C   UNL d   1       1.786   3.775   3.920  0.00  0.00     0.025 A 
ATOM     15  C   UNL d   1       0.695   4.530   4.342  0.00  0.00     0.034 A 
ATOM     16  C   UNL d   1      -0.303   4.889   3.439  0.00  0.00     0.025 A 
ATOM     17 CL   UNL d   1       0.585   5.031   5.984  0.00  0.00    -0.084 Cl
ATOM     18  C   UNL d   1      -0.211   4.484   2.103  0.00  0.00     0.020 A 
ENDBRANCH  11  12
ENDBRANCH   6  11
BRANCH   7  19
ATOM     19  C   UNL d   1       3.308  -1.500   0.025  0.00  0.00     0.432 C 
ATOM     20  F   UNL d   1       3.188  -2.856  -0.015  0.00  0.00    -0.165 F 
ATOM     21  F   UNL d   1       4.089  -1.164  -1.044  0.00  0.00    -0.165 F 
ATOM     22  F   UNL d   1       4.066  -1.223   1.127  0.00  0.00    -0.165 F 
ENDBRANCH   7  19
BRANCH   3  23
ATOM     23  C   UNL d   1      -2.123  -2.557  -0.016  0.00  0.00     0.302 C 
ATOM     24  O   UNL d   1      -3.314  -2.855  -0.038  0.00  0.00    -0.259 OA
BRANCH  23  25
ATOM     25  O   UNL d   1      -1.126  -3.488   0.000  0.00  0.00    -0.322 OA
ATOM     26  C   UNL d   1      -1.593  -4.838  -0.008  0.00  0.00     0.213 C 
ENDBRANCH  23  25
ENDBRANCH   3  23
TORSDOF 5
