REMARK  8 active torsions:
REMARK  status: ('A' for Active; 'I' for Inactive)
REMARK    1  A    between atoms: C_9  and  C_1 
REMARK    2  A    between atoms: C_2  and  C_3 
REMARK    3  A    between atoms: C_3  and  O_10 
REMARK    4  A    between atoms: O_10  and  N_4 
REMARK    5  A    between atoms: C_6  and  C_17 
REMARK    6  A    between atoms: C_23  and  C_7 
REMARK    7  A    between atoms: C_8  and  C_11 
REMARK    8  A    between atoms: N_21  and  C_8 
ROOT
ATOM      1  C   UNL d   1      -2.316  -0.830  -6.936  0.00  0.00     0.316 C 
ATOM      2  O   UNL d   1      -2.617  -0.630  -5.768  0.00  0.00    -0.257 OA
ENDROOT
BRANCH   1   3
ATOM      3  C   UNL d   1      -2.685  -2.072  -7.664  0.00  0.00     0.058 A 
ATOM      4  C   UNL d   1      -3.384  -3.102  -7.009  0.00  0.00     0.041 A 
ATOM      5  C   UNL d   1      -3.769  -4.243  -7.723  0.00  0.00     0.034 A 
ATOM      6  C   UNL d   1      -3.446  -4.298  -9.075  0.00  0.00     0.108 A 
ATOM      7  N   UNL d   1      -2.771  -3.328  -9.737  0.00  0.00    -0.373 N 
ATOM      8  C   UNL d   1      -2.410  -2.237  -9.017  0.00  0.00     0.105 A 
ATOM      9  HN  UNL d   1      -2.545  -3.414 -10.728  1.00  0.00     0.164 HD
BRANCH   5  10
ATOM     10  C   UNL d   1      -4.469  -5.333  -7.113  0.00  0.00    -0.060 C 
ATOM     11  C   UNL d   1      -5.040  -6.296  -6.670  0.00  0.00    -0.061 C 
BRANCH  11  12
ATOM     12  C   UNL d   1      -5.712  -7.473  -6.205  0.00  0.00     0.018 A 
ATOM     13  C   UNL d   1      -5.289  -8.736  -6.634  0.00  0.00     0.020 A 
ATOM     14  C   UNL d   1      -5.950  -9.885  -6.195  0.00  0.00     0.001 A 
ATOM     15  C   UNL d   1      -7.035  -9.775  -5.325  0.00  0.00     0.000 A 
ATOM     16  C   UNL d   1      -7.458  -8.518  -4.894  0.00  0.00     0.001 A 
ATOM     17  C   UNL d   1      -6.798  -7.367  -5.334  0.00  0.00     0.020 A 
ENDBRANCH  11  12
ENDBRANCH   5  10
ENDBRANCH   1   3
BRANCH   1  18
ATOM     18  O   UNL d   1      -1.610   0.015  -7.749  0.00  0.00    -0.193 OA
BRANCH  18  19
ATOM     19  N   UNL d   1      -2.183   1.306  -7.694  0.00  0.00    -0.246 N 
ATOM     20  C   UNL d   1      -1.500   2.168  -8.392  0.00  0.00     0.109 C 
ATOM     21  HN  UNL d   1      -3.029   1.535  -7.171  1.00  0.00     0.196 HD
BRANCH  20  22
ATOM     22  C   UNL d   1      -2.078   3.545  -8.582  0.00  0.00     0.004 A 
ATOM     23  C   UNL d   1      -1.742   4.313  -9.709  0.00  0.00     0.030 A 
ATOM     24  C   UNL d   1      -2.298   5.592  -9.903  0.00  0.00     0.048 A 
ATOM     25  C   UNL d   1      -3.215   6.082  -8.961  0.00  0.00     0.016 A 
ATOM     26  C   UNL d   1      -3.554   5.321  -7.841  0.00  0.00     0.002 A 
ATOM     27  C   UNL d   1      -2.987   4.058  -7.651  0.00  0.00     0.015 A 
BRANCH  24  28
ATOM     28  C   UNL d   1      -1.914   6.442 -11.092  0.00  0.00     0.417 C 
ATOM     29  F   UNL d   1      -1.004   5.846 -11.912  0.00  0.00    -0.166 F 
ATOM     30  F   UNL d   1      -1.354   7.627 -10.718  0.00  0.00    -0.166 F 
ATOM     31  F   UNL d   1      -2.976   6.763 -11.880  0.00  0.00    -0.166 F 
ENDBRANCH  24  28
ENDBRANCH  20  22
BRANCH  20  32
ATOM     32  N   UNL d   1      -0.278   1.884  -8.963  0.00  0.00    -0.286 NA
ATOM     33  H   UNL d   1       0.171   1.086  -8.524  0.00  0.00     0.125 HD
ATOM     34  H   UNL d   1       0.362   2.669  -9.040  0.00  0.00     0.125 HD
ENDBRANCH  20  32
ENDBRANCH  18  19
ENDBRANCH   1  18
TORSDOF 8
