REMARK  6 active torsions:
REMARK  status: ('A' for Active; 'I' for Inactive)
REMARK    1  A    between atoms: C_8  and  C_2 
REMARK    2  A    between atoms: S_19  and  C_5 
REMARK    3  A    between atoms: C_23  and  S_19 
REMARK    4  A    between atoms: C_20  and  C_23 
REMARK       I    between atoms: N_21  and  C_20 
REMARK    5  A    between atoms: C_25  and  N_21 
REMARK    6  A    between atoms: C_26  and  C_25 
ROOT
ATOM      1  N   UNL d   1      -1.048  -0.424  -0.419  0.00  0.00    -0.315 N 
ATOM      2  C   UNL d   1      -0.972   0.955  -0.341  0.00  0.00     0.134 A 
ATOM      3  N   UNL d   1       0.268   1.271   0.000  0.00  0.00    -0.283 N 
ATOM      4  HN  UNL d   1       0.635   2.219   0.087  1.00  0.00     0.188 HD
ATOM      5  C   UNL d   1       0.169  -0.887   0.003  0.00  0.00     0.163 A 
ATOM      6  N   UNL d   1       0.977   0.122   0.217  0.00  0.00    -0.278 N 
ATOM      7  HN  UNL d   1       1.956   0.062   0.495  1.00  0.00     0.189 HD
ATOM      8  C   UNL d   1      -2.119  -1.234  -0.945  0.00  0.00     0.160 C 
ENDROOT
BRANCH   5   9
ATOM      9  S   UNL d   1       0.548  -2.557   0.223  0.00  0.00    -0.083 SA
BRANCH   9  10
ATOM     10  C   UNL d   1       2.312  -2.591  -0.197  0.00  0.00     0.185 C 
BRANCH  10  11
ATOM     11  C   UNL d   1       3.178  -2.126   0.960  0.00  0.00     0.227 C 
ATOM     12  N   UNL d   1       3.492  -0.783   0.940  0.00  0.00    -0.356 N 
ATOM     13  H   UNL d   1       2.830  -0.178   0.458  0.00  0.00     0.162 HD
ATOM     14  O   UNL d   1       3.588  -2.901   1.821  0.00  0.00    -0.273 OA
BRANCH  12  15
ATOM     15  C   UNL d   1       4.194  -0.186   2.051  0.00  0.00     0.161 C 
BRANCH  15  16
ATOM     16  C   UNL d   1       4.745   1.173   1.707  0.00  0.00    -0.041 A 
ATOM     17  C   UNL d   1       3.891   2.264   1.488  0.00  0.00     0.009 A 
ATOM     18  C   UNL d   1       4.414   3.530   1.213  0.00  0.00     0.001 A 
ATOM     19  C   UNL d   1       5.793   3.718   1.150  0.00  0.00     0.000 A 
ATOM     20  C   UNL d   1       6.652   2.640   1.351  0.00  0.00     0.001 A 
ATOM     21  C   UNL d   1       6.131   1.373   1.624  0.00  0.00     0.009 A 
ENDBRANCH  15  16
ENDBRANCH  12  15
ENDBRANCH  10  11
ENDBRANCH   9  10
ENDBRANCH   5   9
BRANCH   2  22
ATOM     22  C   UNL d   1      -2.023   1.947  -0.616  0.00  0.00     0.012 A 
ATOM     23  C   UNL d   1      -3.380   1.686  -0.320  0.00  0.00     0.049 A 
ATOM     24  C   UNL d   1      -4.279   2.720  -0.647  0.00  0.00     0.086 A 
ATOM     25  N   UNL d   1      -5.610   2.750  -0.520  0.00  0.00    -0.240 N 
ATOM     26  C   UNL d   1      -3.844   3.989  -1.210  0.00  0.00     0.085 A 
ATOM     27  O   UNL d   1      -6.004   3.993  -0.991  0.00  0.00    -0.156 OA
ATOM     28  HN  UNL d   1      -6.211   2.012  -0.153  1.00  0.00     0.197 HD
ATOM     29  N   UNL d   1      -4.924   4.752  -1.410  0.00  0.00    -0.240 N 
ATOM     30  HN  UNL d   1      -4.947   5.697  -1.792  1.00  0.00     0.197 HD
ATOM     31  C   UNL d   1      -2.493   4.271  -1.463  0.00  0.00     0.035 A 
ATOM     32  C   UNL d   1      -1.613   3.213  -1.150  0.00  0.00     0.018 A 
ENDBRANCH   2  22
TORSDOF 6
