REMARK  4 active torsions:
REMARK  status: ('A' for Active; 'I' for Inactive)
REMARK    1  A    between atoms: C_5  and  C_1 
REMARK    2  A    between atoms: C_6  and  C_2 
REMARK    3  A    between atoms: O_9  and  N_3 
REMARK    4  A    between atoms: C_7  and  C_8 
ROOT
ATOM      1  C   UNL d   1      -2.044  -0.028   0.042  0.00  0.00     0.018 A 
ATOM      2  C   UNL d   1      -4.838   0.032  -0.065  0.00  0.00    -0.019 A 
ATOM      3  C   UNL d   1      -2.719   1.195  -0.013  0.00  0.00     0.021 A 
ATOM      4  C   UNL d   1      -2.769  -1.222   0.050  0.00  0.00     0.021 A 
ATOM      5  C   UNL d   1      -4.165  -1.192  -0.000  0.00  0.00     0.014 A 
ATOM      6  C   UNL d   1      -4.117   1.230  -0.068  0.00  0.00     0.014 A 
ENDROOT
BRANCH   1   7
ATOM      7  C   UNL d   1      -0.613  -0.052   0.076  0.00  0.00    -0.061 C 
ATOM      8  C   UNL d   1       0.588  -0.049   0.079  0.00  0.00    -0.061 C 
BRANCH   8   9
ATOM      9  C   UNL d   1       2.019  -0.024   0.047  0.00  0.00     0.018 A 
ATOM     10  C   UNL d   1       2.743  -1.217  -0.015  0.00  0.00     0.020 A 
ATOM     11  C   UNL d   1       4.137  -1.187  -0.079  0.00  0.00     0.001 A 
ATOM     12  C   UNL d   1       4.810   0.035  -0.080  0.00  0.00     0.000 A 
ATOM     13  C   UNL d   1       4.091   1.228  -0.009  0.00  0.00     0.001 A 
ATOM     14  C   UNL d   1       2.696   1.199   0.055  0.00  0.00     0.020 A 
ENDBRANCH   8   9
ENDBRANCH   1   7
BRANCH   2  15
ATOM     15  C   UNL d   1      -6.312   0.069  -0.140  0.00  0.00     0.125 C 
ATOM     16  N   UNL d   1      -7.017  -1.018  -0.148  0.00  0.00    -0.280 N 
ATOM     17  HN  UNL d   1      -6.642  -1.965  -0.101  1.00  0.00     0.193 HD
BRANCH  16  18
ATOM     18  O   UNL d   1      -8.373  -0.689  -0.232  0.00  0.00    -0.290 OA
ATOM     19  H   UNL d   1      -8.797  -1.567  -0.236  0.00  0.00     0.244 HD
ENDBRANCH  16  18
ENDBRANCH   2  15
TORSDOF 4
