REMARK  2 active torsions:
REMARK  status: ('A' for Active; 'I' for Inactive)
REMARK    1  A    between atoms: C_9  and  N_3 
REMARK    2  A    between atoms: C_10  and  C_9 
ROOT
ATOM      1  N   UNL d   1      -0.614   1.175   0.204  0.00  0.00    -0.274 N 
ATOM      2  C   UNL d   1      -1.364   0.028   0.149  0.00  0.00     0.329 C 
ATOM      3  N   UNL d   1      -0.639  -1.143  -0.018  0.00  0.00    -0.302 N 
ATOM      4  C   UNL d   1       1.470  -0.021  -0.040  0.00  0.00     0.128 C 
ATOM      5  C   UNL d   1       0.740   1.264   0.021  0.00  0.00     0.271 C 
ATOM      6  C   UNL d   1       0.745  -1.147  -0.063  0.00  0.00     0.124 C 
ATOM      7  C   UNL d   1       2.885  -0.037  -0.103  0.00  0.00     0.106 C 
ATOM      8  N   UNL d   1       4.043  -0.112  -0.156  0.00  0.00    -0.191 NA
ATOM      9  O   UNL d   1      -2.588   0.084   0.225  0.00  0.00    -0.246 OA
ATOM     10  O   UNL d   1       1.301   2.347  -0.097  0.00  0.00    -0.266 OA
ATOM     11  H   UNL d   1      -1.127   2.043   0.254  0.00  0.00     0.173 HD
ENDROOT
BRANCH   3  12
ATOM     12  C   UNL d   1      -1.369  -2.408  -0.133  0.00  0.00     0.198 C 
BRANCH  12  13
ATOM     13  C   UNL d   1      -1.472  -3.061   1.196  0.00  0.00     0.070 A 
ATOM     14  O   UNL d   1      -0.445  -3.886   1.555  0.00  0.00    -0.325 OA
ATOM     15  C   UNL d   1      -0.737  -4.363   2.792  0.00  0.00     0.142 A 
ATOM     16  C   UNL d   1      -1.937  -3.858   3.233  0.00  0.00     0.027 A 
ATOM     17  C   UNL d   1      -2.420  -3.025   2.196  0.00  0.00     0.036 A 
ENDBRANCH  12  13
ENDBRANCH   3  12
TORSDOF 2
