REMARK  3 active torsions:
REMARK  status: ('A' for Active; 'I' for Inactive)
REMARK    1  A    between atoms: C_7  and  N_1 
REMARK    2  A    between atoms: N_8  and  C_18 
REMARK    3  A    between atoms: C_19  and  C_13 
ROOT
ATOM      1  C   UNL d   1       1.275   2.314   0.113  0.00  0.00     0.059 A 
ATOM      2  C   UNL d   1       2.216   2.606  -0.882  0.00  0.00     0.034 A 
ATOM      3  C   UNL d   1       1.059   3.275   1.108  0.00  0.00     0.034 A 
ATOM      4  C   UNL d   1       2.730   4.757   0.138  0.00  0.00     0.032 A 
ATOM      5  C   UNL d   1       2.918   3.820  -0.879  0.00  0.00     0.032 A 
ATOM      6  C   UNL d   1       1.781   4.475   1.123  0.00  0.00     0.032 A 
ENDROOT
BRANCH   4   7
ATOM      7  N   UNL d   1       3.407   5.986   0.213  0.00  0.00    -0.365 N 
ATOM      8  C   UNL d   1       4.643   6.058  -0.160  0.00  0.00     0.099 C 
ATOM      9  HN  UNL d   1       2.926   6.817   0.559  1.00  0.00     0.165 HD
BRANCH   8  10
ATOM     10  C   UNL d   1       5.410   7.315  -0.053  0.00  0.00    -0.019 A 
ATOM     11  C   UNL d   1       4.861   8.436   0.577  0.00  0.00     0.038 A 
ATOM     12  C   UNL d   1       5.621   9.601   0.710  0.00  0.00     0.056 A 
ATOM     13 CL   UNL d   1       4.896  10.947   1.514  0.00  0.00    -0.083 Cl
ATOM     14  C   UNL d   1       6.928   9.644   0.207  0.00  0.00     0.055 A 
ATOM     15  C   UNL d   1       7.467   8.522  -0.431  0.00  0.00     0.026 A 
ATOM     16 CL   UNL d   1       7.930  11.044   0.348  0.00  0.00    -0.083 Cl
ATOM     17  C   UNL d   1       6.711   7.355  -0.561  0.00  0.00     0.014 A 
ENDBRANCH   8  10
ENDBRANCH   4   7
BRANCH   1  18
ATOM     18  N   UNL d   1       0.553   1.095   0.120  0.00  0.00    -0.224 N 
ATOM     19  C   UNL d   1       0.745  -0.022  -0.710  0.00  0.00     0.248 A 
ATOM     20  C   UNL d   1      -0.284  -1.011  -0.253  0.00  0.00     0.158 A 
ATOM     21  O   UNL d   1       1.551  -0.231  -1.604  0.00  0.00    -0.271 OA
ATOM     22  C   UNL d   1      -1.006  -0.217   0.785  0.00  0.00     0.009 A 
ATOM     23  N   UNL d   1      -0.498   0.953   1.009  0.00  0.00    -0.299 N 
ATOM     24  C   UNL d   1      -2.204  -0.756   1.487  0.00  0.00     0.065 C 
ATOM     25  HN  UNL d   1      -0.811   1.633   1.701  1.00  0.00     0.187 HD
ENDBRANCH   1  18
TORSDOF 3
