REMARK  3 active torsions:
REMARK  status: ('A' for Active; 'I' for Inactive)
REMARK    1  A    between atoms: C_2  and  C_1 
REMARK    2  A    between atoms: O_7  and  C_2 
REMARK    3  A    between atoms: C_10  and  O_7 
ROOT
ATOM      1  C   UNL d   1       1.082   0.082  -0.093  0.00  0.00     0.122 C 
ATOM      2  C   UNL d   1       0.377  -1.151  -0.215  0.00  0.00     0.106 C 
ATOM      3  C   UNL d   1       2.432   0.100  -0.101  0.00  0.00    -0.053 C 
ATOM      4  N   UNL d   1      -0.171  -2.172  -0.307  0.00  0.00    -0.191 NA
ATOM      5  C   UNL d   1       3.289  -1.136  -0.274  0.00  0.00     0.036 C 
ATOM      6  C   UNL d   1       3.340   1.299  -0.049  0.00  0.00     0.036 C 
ATOM      7  C   UNL d   1       4.667  -0.618  -0.672  0.00  0.00     0.005 C 
ATOM      8  C   UNL d   1       4.491   0.868  -0.946  0.00  0.00     0.005 C 
ENDROOT
BRANCH   1   9
ATOM      9  C   UNL d   1       0.263   1.309   0.119  0.00  0.00     0.304 C 
ATOM     10  O   UNL d   1       0.657   2.333   0.656  0.00  0.00    -0.258 OA
BRANCH   9  11
ATOM     11  O   UNL d   1      -1.010   1.072  -0.290  0.00  0.00    -0.317 OA
BRANCH  11  12
ATOM     12  C   UNL d   1      -2.025   1.934   0.244  0.00  0.00     0.174 C 
ATOM     13  C   UNL d   1      -2.480   1.357   1.573  0.00  0.00     0.034 C 
ENDBRANCH  11  12
ENDBRANCH   9  11
ENDBRANCH   1   9
TORSDOF 3
