REMARK  5 active torsions:
REMARK  status: ('A' for Active; 'I' for Inactive)
REMARK    1  A    between atoms: N_2  and  C_1 
REMARK    2  A    between atoms: N_6  and  C_1 
REMARK    3  A    between atoms: C_3  and  N_2 
REMARK    4  A    between atoms: C_12  and  N_6 
REMARK    5  A    between atoms: C_14  and  C_12 
ROOT
ATOM      1  C   UNL d   1       1.280  -0.037   0.029  0.00  0.00     0.172 C 
ATOM      2  S   UNL d   1       2.843  -0.576   0.266  0.00  0.00    -0.041 SA
ENDROOT
BRANCH   1   3
ATOM      3  N   UNL d   1       0.477   0.568   0.957  0.00  0.00    -0.333 N 
ATOM      4  H   UNL d   1      -0.444   0.158   1.034  0.00  0.00     0.168 HD
BRANCH   3   5
ATOM      5  C   UNL d   1       0.845   1.515   1.939  0.00  0.00     0.040 A 
ATOM      6  C   UNL d   1       0.115   1.628   3.135  0.00  0.00    -0.035 A 
ATOM      7  C   UNL d   1       0.363   2.724   3.985  0.00  0.00     0.015 A 
ATOM      8  C   UNL d   1      -0.916   0.626   3.580  0.00  0.00     0.050 C 
ATOM      9  C   UNL d   1       1.336   3.682   3.676  0.00  0.00    -0.061 A 
ATOM     10  C   UNL d   1       2.093   3.523   2.517  0.00  0.00     0.009 A 
ATOM     11  C   UNL d   1       1.517   4.884   4.554  0.00  0.00     0.048 C 
ATOM     12  C   UNL d   1       1.849   2.450   1.657  0.00  0.00     0.030 A 
ENDBRANCH   3   5
ENDBRANCH   1   3
BRANCH   1  13
ATOM     13  N   UNL d   1       0.688  -0.291  -1.178  0.00  0.00    -0.363 N 
ATOM     14  H   UNL d   1       1.289  -0.804  -1.812  0.00  0.00     0.162 HD
BRANCH  13  15
ATOM     15  C   UNL d   1      -0.299   0.565  -1.812  0.00  0.00     0.160 C 
BRANCH  15  16
ATOM     16  C   UNL d   1      -1.486  -0.228  -2.279  0.00  0.00    -0.038 A 
ATOM     17  C   UNL d   1      -2.652  -0.273  -1.510  0.00  0.00     0.025 A 
ATOM     18  C   UNL d   1      -3.721  -1.023  -1.971  0.00  0.00     0.088 A 
ATOM     19  N   UNL d   1      -3.704  -1.722  -3.125  0.00  0.00    -0.375 N 
ATOM     20  C   UNL d   1      -2.567  -1.675  -3.849  0.00  0.00     0.088 A 
ATOM     21  HN  UNL d   1      -4.513  -2.261  -3.435  1.00  0.00     0.164 HD
ATOM     22  C   UNL d   1      -1.444  -0.953  -3.473  0.00  0.00     0.025 A 
ENDBRANCH  15  16
ENDBRANCH  13  15
ENDBRANCH   1  13
TORSDOF 5
