REMARK  3 active torsions:
REMARK  status: ('A' for Active; 'I' for Inactive)
REMARK    1  A    between atoms: N_10  and  C_1 
REMARK    2  A    between atoms: N_11  and  C_6 
REMARK    3  A    between atoms: N_12  and  C_7 
ROOT
ATOM      1  C   UNL d   1      -1.270  -0.113   0.042  0.00  0.00     0.714 A 
ATOM      2  N   UNL d   1      -0.527  -1.214   0.086  0.00  0.00    -0.021 N 
ATOM      3  HN  UNL d   1      -0.955  -2.139   0.123  1.00  0.00     0.203 HD
ATOM      4  N   UNL d   1      -0.736   1.102   0.040  0.00  0.00    -0.021 N 
ATOM      5  HN  UNL d   1      -1.321   1.938   0.040  1.00  0.00     0.203 HD
ATOM      6  C   UNL d   1       0.788  -1.067   0.079  0.00  0.00     0.709 A 
ATOM      7  C   UNL d   1       0.585   1.187   0.036  0.00  0.00     0.709 A 
ATOM      8  N   UNL d   1       1.375   0.122   0.047  0.00  0.00    -0.021 N 
ATOM      9  HN  UNL d   1       2.391   0.214   0.032  1.00  0.00     0.203 HD
ENDROOT
BRANCH   1  10
ATOM     10  N   UNL d   1      -2.667  -0.231  -0.068  0.00  0.00    -0.182 N 
ATOM     11  C   UNL d   1      -3.470  -1.344   0.265  0.00  0.00     0.058 A 
ATOM     12  C   UNL d   1      -4.680  -1.601  -0.416  0.00  0.00    -0.031 A 
ATOM     13  C   UNL d   1      -3.106  -2.216   1.306  0.00  0.00     0.031 A 
ATOM     14  C   UNL d   1      -5.484  -2.692  -0.046  0.00  0.00     0.009 A 
ATOM     15  C   UNL d   1      -5.156  -0.702  -1.529  0.00  0.00     0.042 C 
ATOM     16  C   UNL d   1      -5.099  -3.538   0.990  0.00  0.00     0.001 A 
ATOM     17  C   UNL d   1      -3.910  -3.299   1.667  0.00  0.00     0.002 A 
ATOM     18  C   UNL d   1      -4.063   0.235  -2.019  0.00  0.00     0.025 C 
ATOM     19  C   UNL d   1      -3.331   0.834  -0.825  0.00  0.00     0.148 C 
ENDBRANCH   1  10
BRANCH   6  20
ATOM     20  N   UNL d   1       1.573  -2.193   0.077  0.00  0.00    -0.213 N 
ATOM     21  C   UNL d   1       3.032  -2.125   0.063  0.00  0.00     0.167 C 
ATOM     22  C   UNL d   1       3.575  -2.918  -1.135  0.00  0.00     0.188 C 
ATOM     23  O   UNL d   1       3.075  -4.266  -1.148  0.00  0.00    -0.388 OA
ATOM     24  C   UNL d   1       1.639  -4.264  -1.234  0.00  0.00     0.188 C 
ATOM     25  C   UNL d   1       0.998  -3.531  -0.043  0.00  0.00     0.167 C 
ENDBRANCH   6  20
BRANCH   7  26
ATOM     26  N   UNL d   1       1.139   2.436  -0.102  0.00  0.00    -0.213 N 
ATOM     27  C   UNL d   1       0.415   3.607   0.392  0.00  0.00     0.167 C 
ATOM     28  C   UNL d   1       0.786   4.815  -0.482  0.00  0.00     0.188 C 
ATOM     29  O   UNL d   1       2.211   5.015  -0.538  0.00  0.00    -0.388 OA
ATOM     30  C   UNL d   1       2.864   3.842  -1.060  0.00  0.00     0.188 C 
ATOM     31  C   UNL d   1       2.586   2.605  -0.189  0.00  0.00     0.167 C 
ENDBRANCH   7  26
TORSDOF 3
