REMARK  4 active torsions:
REMARK  status: ('A' for Active; 'I' for Inactive)
REMARK    1  A    between atoms: C_10  and  N_1 
REMARK    2  A    between atoms: C_11  and  N_2 
REMARK    3  A    between atoms: N_3  and  C_5 
REMARK    4  A    between atoms: C_5  and  N_4 
ROOT
ATOM      1  C   UNL d   1       1.525  -0.231  -1.783  0.00  0.00     0.542 C 
ENDROOT
BRANCH   1   2
ATOM      2  N   UNL d   1       2.538  -1.268  -1.960  0.00  0.00     0.119 N 
ATOM      3  C   UNL d   1       2.089  -2.592  -1.466  0.00  0.00     0.294 C 
ATOM      4  C   UNL d   1       1.062  -3.317  -2.363  0.00  0.00     0.153 C 
ATOM      5  N   UNL d   1       1.606  -3.442  -3.720  0.00  0.00    -0.378 N 
ATOM      6  C   UNL d   1       2.068  -2.191  -4.330  0.00  0.00     0.153 C 
ATOM      7  C   UNL d   1       2.988  -1.401  -3.364  0.00  0.00     0.294 C 
BRANCH   5   8
ATOM      8  C   UNL d   1       1.621  -4.658  -4.369  0.00  0.00     0.030 A 
ATOM      9  C   UNL d   1       2.697  -5.054  -5.176  0.00  0.00     0.029 A 
ATOM     10  C   UNL d   1       2.742  -6.319  -5.775  0.00  0.00     0.002 A 
ATOM     11  C   UNL d   1       1.696  -7.218  -5.592  0.00  0.00     0.000 A 
ATOM     12  C   UNL d   1       0.606  -6.845  -4.816  0.00  0.00     0.002 A 
ATOM     13  C   UNL d   1       0.574  -5.583  -4.213  0.00  0.00     0.029 A 
ENDBRANCH   5   8
ENDBRANCH   1   2
BRANCH   1  14
ATOM     14  N   UNL d   1       1.289  -0.007  -0.351  0.00  0.00     0.119 N 
ATOM     15  C   UNL d   1       2.508   0.449   0.363  0.00  0.00     0.294 C 
ATOM     16  C   UNL d   1       2.992   1.873   0.004  0.00  0.00     0.153 C 
ATOM     17  N   UNL d   1       1.895   2.847   0.142  0.00  0.00    -0.378 N 
ATOM     18  C   UNL d   1       0.611   2.461  -0.457  0.00  0.00     0.153 C 
ATOM     19  C   UNL d   1       0.229   1.002  -0.119  0.00  0.00     0.294 C 
BRANCH  17  20
ATOM     20  C   UNL d   1       2.001   3.840   1.101  0.00  0.00     0.030 A 
ATOM     21  C   UNL d   1       0.983   4.118   2.023  0.00  0.00     0.029 A 
ATOM     22  C   UNL d   1       1.113   5.142   2.970  0.00  0.00     0.002 A 
ATOM     23  C   UNL d   1       2.266   5.919   3.008  0.00  0.00     0.000 A 
ATOM     24  C   UNL d   1       3.291   5.666   2.105  0.00  0.00     0.002 A 
ATOM     25  C   UNL d   1       3.157   4.635   1.169  0.00  0.00     0.029 A 
ENDBRANCH  17  20
ENDBRANCH   1  14
TORSDOF 4
