REMARK  5 active torsions:
REMARK  status: ('A' for Active; 'I' for Inactive)
REMARK    1  A    between atoms: C_4  and  C_22 
REMARK       I    between atoms: C_6  and  N_8 
REMARK    2  A    between atoms: C_23  and  C_6 
REMARK    3  A    between atoms: N_8  and  C_11 
REMARK    4  A    between atoms: S_17  and  C_23 
REMARK    5  A    between atoms: C_22  and  S_17 
ROOT
ATOM      1  C   UNL d   1       4.835  -0.717  -0.178  0.00  0.00     0.231 C 
ATOM      2  N   UNL d   1       4.948   0.654  -0.308  0.00  0.00    -0.326 N 
ATOM      3  O   UNL d   1       3.791  -1.362  -0.273  0.00  0.00    -0.272 OA
ATOM      4  H   UNL d   1       5.863   1.032  -0.076  0.00  0.00     0.169 HD
ENDROOT
BRANCH   1   5
ATOM      5  C   UNL d   1       6.149  -1.459   0.052  0.00  0.00     0.177 C 
BRANCH   5   6
ATOM      6  S   UNL d   1       7.464  -0.433   0.789  0.00  0.00    -0.155 SA
BRANCH   6   7
ATOM      7  C   UNL d   1       8.727  -1.734   0.986  0.00  0.00     0.114 C 
BRANCH   7   8
ATOM      8  C   UNL d   1       9.964  -1.210   1.676  0.00  0.00    -0.027 A 
ATOM      9  C   UNL d   1      11.021  -0.593   0.986  0.00  0.00     0.042 A 
ATOM     10  C   UNL d   1      12.142  -0.111   1.671  0.00  0.00     0.048 A 
ATOM     11 CL   UNL d   1      10.998  -0.402  -0.732  0.00  0.00    -0.084 Cl
ATOM     12  C   UNL d   1      12.216  -0.244   3.054  0.00  0.00     0.035 A 
ATOM     13  C   UNL d   1      11.181  -0.850   3.761  0.00  0.00     0.024 A 
ATOM     14 CL   UNL d   1      13.595   0.346   3.897  0.00  0.00    -0.084 Cl
ATOM     15  C   UNL d   1      10.062  -1.327   3.077  0.00  0.00     0.011 A 
ENDBRANCH   7   8
ENDBRANCH   6   7
ENDBRANCH   5   6
ENDBRANCH   1   5
BRANCH   2  16
ATOM     16  C   UNL d   1       3.914   1.581  -0.553  0.00  0.00     0.037 A 
ATOM     17  C   UNL d   1       2.625   1.213  -0.954  0.00  0.00     0.069 A 
ATOM     18  C   UNL d   1       1.686   2.212  -1.126  0.00  0.00     0.107 A 
ATOM     19  C   UNL d   1       1.986   3.536  -0.921  0.00  0.00     0.105 A 
ATOM     20  O   UNL d   1       0.390   2.027  -1.498  0.00  0.00    -0.323 OA
ATOM     21  O   UNL d   1       0.917   4.351  -1.128  0.00  0.00    -0.323 OA
ATOM     22  C   UNL d   1       3.248   3.940  -0.550  0.00  0.00     0.042 A 
ATOM     23  C   UNL d   1      -0.101   3.382  -1.460  0.00  0.00     0.352 A 
ATOM     24  C   UNL d   1       4.222   2.948  -0.374  0.00  0.00     0.032 A 
ENDBRANCH   2  16
TORSDOF 5
