REMARK  6 active torsions:
REMARK  status: ('A' for Active; 'I' for Inactive)
REMARK       I    between atoms: C_3  and  N_9 
REMARK    1  A    between atoms: C_20  and  C_3 
REMARK    2  A    between atoms: C_5  and  C_21 
REMARK    3  A    between atoms: N_9  and  C_18 
REMARK    4  A    between atoms: S_16  and  C_20 
REMARK    5  A    between atoms: C_21  and  S_16 
REMARK    6  A    between atoms: C_18  and  C_17 
ROOT
ATOM      1  C   UNL d   1       5.999  -1.175  -0.021  0.00  0.00     0.227 C 
ATOM      2  N   UNL d   1       4.753  -0.597  -0.093  0.00  0.00    -0.356 N 
ATOM      3  O   UNL d   1       6.184  -2.390   0.020  0.00  0.00    -0.273 OA
ATOM      4  H   UNL d   1       4.682   0.413  -0.062  0.00  0.00     0.162 HD
ENDROOT
BRANCH   2   5
ATOM      5  C   UNL d   1       3.539  -1.373  -0.023  0.00  0.00     0.161 C 
BRANCH   5   6
ATOM      6  C   UNL d   1       2.965  -1.645  -1.389  0.00  0.00    -0.038 A 
ATOM      7  C   UNL d   1       2.041  -0.758  -1.964  0.00  0.00     0.048 A 
ATOM      8  C   UNL d   1       1.531  -1.067  -3.209  0.00  0.00     0.105 A 
ATOM      9  C   UNL d   1       1.907  -2.202  -3.887  0.00  0.00     0.105 A 
ATOM     10  O   UNL d   1       0.624  -0.327  -3.900  0.00  0.00    -0.323 OA
ATOM     11  O   UNL d   1       1.283  -2.320  -5.089  0.00  0.00    -0.323 OA
ATOM     12  C   UNL d   1       2.822  -3.089  -3.364  0.00  0.00     0.040 A 
ATOM     13  C   UNL d   1       0.494  -1.112  -5.104  0.00  0.00     0.352 A 
ATOM     14  C   UNL d   1       3.360  -2.800  -2.105  0.00  0.00     0.012 A 
ENDBRANCH   5   6
ENDBRANCH   2   5
BRANCH   1  15
ATOM     15  C   UNL d   1       7.154  -0.190   0.013  0.00  0.00     0.177 C 
BRANCH  15  16
ATOM     16  S   UNL d   1       7.072   0.875   1.490  0.00  0.00    -0.153 SA
BRANCH  16  17
ATOM     17  C   UNL d   1       7.215  -0.411   2.783  0.00  0.00     0.139 C 
BRANCH  17  18
ATOM     18  C   UNL d   1       7.202   0.203   4.138  0.00  0.00     0.061 A 
ATOM     19  O   UNL d   1       6.176  -0.163   4.962  0.00  0.00    -0.326 OA
ATOM     20  C   UNL d   1       6.356   0.490   6.138  0.00  0.00     0.142 A 
ATOM     21  C   UNL d   1       7.486   1.271   6.087  0.00  0.00     0.027 A 
ATOM     22  C   UNL d   1       8.038   1.082   4.797  0.00  0.00     0.035 A 
ENDBRANCH  17  18
ENDBRANCH  16  17
ENDBRANCH  15  16
ENDBRANCH   1  15
TORSDOF 6
