REMARK  2 active torsions:
REMARK  status: ('A' for Active; 'I' for Inactive)
REMARK    1  A    between atoms: C_5  and  C_1 
REMARK    2  A    between atoms: N_6  and  C_7 
ROOT
ATOM      1  C   UNL d   1      -1.474  -1.091  -0.005  0.00  0.00     0.124 A 
ATOM      2  N   UNL d   1      -0.157  -0.639  -0.117  0.00  0.00    -0.306 N 
ATOM      3  N   UNL d   1      -2.308  -0.063   0.025  0.00  0.00    -0.349 N 
ATOM      4  HN  UNL d   1      -3.327  -0.106   0.062  1.00  0.00     0.167 HD
ATOM      5  C   UNL d   1      -0.206   0.748  -0.032  0.00  0.00     0.056 A 
ATOM      6  C   UNL d   1      -1.539   1.069  -0.001  0.00  0.00     0.119 A 
ATOM      7  C   UNL d   1       1.054  -1.326  -0.271  0.00  0.00     0.099 A 
ATOM      8  C   UNL d   1       1.019   1.470  -0.014  0.00  0.00     0.031 A 
ATOM      9  C   UNL d   1       2.214  -0.648  -0.252  0.00  0.00     0.018 A 
ATOM     10  C   UNL d   1       2.183   0.797  -0.098  0.00  0.00     0.004 A 
ENDROOT
BRANCH   1  11
ATOM     11  C   UNL d   1      -1.908  -2.495   0.100  0.00  0.00     0.042 A 
ATOM     12  C   UNL d   1      -3.120  -2.960  -0.434  0.00  0.00     0.116 A 
ATOM     13  C   UNL d   1      -3.527  -4.301  -0.323  0.00  0.00     0.037 A 
ATOM     14  C   UNL d   1      -2.711  -5.210   0.344  0.00  0.00     0.002 A 
ATOM     15  C   UNL d   1      -1.524  -4.772   0.922  0.00  0.00     0.001 A 
ATOM     16  C   UNL d   1      -1.143  -3.428   0.823  0.00  0.00     0.018 A 
BRANCH  12  17
ATOM     17  N   UNL d   1      -4.012  -2.074  -1.159  0.00  0.00    -0.115 N 
ATOM     18  O   UNL d   1      -3.645  -1.706  -2.285  0.00  0.00    -0.532 OA
ATOM     19  O   UNL d   1      -5.127  -1.863  -0.655  0.00  0.00    -0.532 OA
ENDBRANCH  12  17
ENDBRANCH   1  11
TORSDOF 2
