REMARK  4 active torsions:
REMARK  status: ('A' for Active; 'I' for Inactive)
REMARK    1  A    between atoms: N_2  and  C_1 
REMARK    2  A    between atoms: N_3  and  C_1 
REMARK       I    between atoms: C_4  and  N_2 
REMARK    3  A    between atoms: O_8  and  C_4 
REMARK    4  A    between atoms: C_13  and  O_8 
ROOT
ATOM      1  C   UNL d   1       1.190  -0.094  -0.016  0.00  0.00     0.178 C 
ATOM      2  S   UNL d   1       2.731  -0.417   0.574  0.00  0.00    -0.041 SA
ENDROOT
BRANCH   1   3
ATOM      3  N   UNL d   1       0.689   1.197  -0.186  0.00  0.00    -0.279 N 
ATOM      4  C   UNL d   1       1.318   2.390   0.074  0.00  0.00     0.366 C 
ATOM      5  O   UNL d   1       2.497   2.665  -0.071  0.00  0.00    -0.238 OA
ATOM      6  H   UNL d   1      -0.298   1.280  -0.017  0.00  0.00     0.173 HD
BRANCH   4   7
ATOM      7  O   UNL d   1       0.366   3.277   0.478  0.00  0.00    -0.304 OA
BRANCH   7   8
ATOM      8  C   UNL d   1       0.862   4.458   1.128  0.00  0.00     0.176 C 
ATOM      9  C   UNL d   1       0.798   4.212   2.623  0.00  0.00     0.034 C 
ENDBRANCH   7   8
ENDBRANCH   4   7
ENDBRANCH   1   3
BRANCH   1  10
ATOM     10  N   UNL d   1       0.263  -1.096  -0.362  0.00  0.00    -0.354 N 
ATOM     11  C   UNL d   1       0.535  -2.539  -0.180  0.00  0.00     0.151 C 
ATOM     12  C   UNL d   1       0.732  -3.208  -1.543  0.00  0.00     0.187 C 
ATOM     13  O   UNL d   1      -0.438  -3.026  -2.361  0.00  0.00    -0.388 OA
ATOM     14  C   UNL d   1      -0.699  -1.631  -2.576  0.00  0.00     0.187 C 
ATOM     15  C   UNL d   1      -0.901  -0.886  -1.247  0.00  0.00     0.151 C 
ENDBRANCH   1  10
TORSDOF 4
