REMARK  4 active torsions:
REMARK  status: ('A' for Active; 'I' for Inactive)
REMARK    1  A    between atoms: C_12  and  C_3 
REMARK    2  A    between atoms: C_11  and  C_6 
REMARK    3  A    between atoms: O_13  and  C_11 
REMARK    4  A    between atoms: C_18  and  O_13 
ROOT
ATOM      1  C   UNL d   1      -0.507  -0.542   0.345  0.00  0.00     0.172 A 
ATOM      2  N   UNL d   1       0.180   0.634   0.391  0.00  0.00    -0.235 N 
ATOM      3  C   UNL d   1      -1.865   1.003   0.727  0.00  0.00     0.207 A 
ATOM      4  N   UNL d   1      -1.781  -0.380   0.550  0.00  0.00    -0.316 N 
ATOM      5  HN  UNL d   1      -2.524  -1.079   0.575  1.00  0.00     0.169 HD
ATOM      6  C   UNL d   1       1.918  -0.767   0.070  0.00  0.00     0.108 A 
ATOM      7  N   UNL d   1      -0.674   1.648   0.621  0.00  0.00    -0.273 N 
ATOM      8  HN  UNL d   1      -0.478   2.646   0.695  1.00  0.00     0.189 HD
ATOM      9  C   UNL d   1       1.552   0.527   0.234  0.00  0.00     0.056 A 
ATOM     10  S   UNL d   1       0.542  -1.890   0.080  0.00  0.00    -0.044 SA
ATOM     11  C   UNL d   1       2.383   1.762   0.296  0.00  0.00     0.072 C 
ENDROOT
BRANCH   6  12
ATOM     12  C   UNL d   1       3.321  -1.260   0.022  0.00  0.00     0.307 C 
ATOM     13  O   UNL d   1       4.278  -0.522   0.219  0.00  0.00    -0.258 OA
BRANCH  12  14
ATOM     14  O   UNL d   1       3.369  -2.631  -0.204  0.00  0.00    -0.275 OA
BRANCH  14  15
ATOM     15  C   UNL d   1       4.514  -3.420   0.068  0.00  0.00     0.079 A 
ATOM     16  C   UNL d   1       5.812  -2.928   0.168  0.00  0.00     0.038 A 
ATOM     17  C   UNL d   1       6.841  -3.773   0.595  0.00  0.00     0.009 A 
ATOM     18  C   UNL d   1       6.581  -5.112   0.911  0.00  0.00    -0.062 A 
ATOM     19  C   UNL d   1       5.292  -5.619   0.710  0.00  0.00     0.009 A 
ATOM     20  C   UNL d   1       7.678  -5.979   1.455  0.00  0.00     0.048 C 
ATOM     21  C   UNL d   1       4.259  -4.775   0.292  0.00  0.00     0.038 A 
ENDBRANCH  14  15
ENDBRANCH  12  14
ENDBRANCH   6  12
BRANCH   3  22
ATOM     22  C   UNL d   1      -3.164   1.723   1.033  0.00  0.00     0.450 C 
ATOM     23  F   UNL d   1      -4.230   0.881   1.110  0.00  0.00    -0.163 F 
ATOM     24  F   UNL d   1      -3.113   2.387   2.220  0.00  0.00    -0.163 F 
ATOM     25  F   UNL d   1      -3.473   2.649   0.083  0.00  0.00    -0.163 F 
ENDBRANCH   3  22
TORSDOF 4
