REMARK  3 active torsions:
REMARK  status: ('A' for Active; 'I' for Inactive)
REMARK    1  A    between atoms: N_13  and  C_5 
REMARK    2  A    between atoms: S_15  and  C_11 
REMARK    3  A    between atoms: C_14  and  C_12 
ROOT
ATOM      1  N   UNL d   1      -0.250  -0.522   0.097  0.00  0.00    -0.070 N 
ATOM      2  C   UNL d   1      -0.204   0.833   0.002  0.00  0.00     0.149 A 
ATOM      3  N   UNL d   1       0.987   1.477  -0.031  0.00  0.00    -0.321 N 
ATOM      4  HN  UNL d   1       1.042   2.495  -0.082  1.00  0.00     0.169 HD
ATOM      5  C   UNL d   1       0.935  -1.273   0.133  0.00  0.00     0.701 A 
ATOM      6  N   UNL d   1      -1.494  -1.052   0.098  0.00  0.00    -0.277 N 
ATOM      7  HN  UNL d   1      -1.764  -2.034   0.149  1.00  0.00     0.188 HD
ATOM      8  N   UNL d   1       2.076  -0.646   0.073  0.00  0.00    -0.169 N 
ATOM      9  HN  UNL d   1       2.957  -1.161   0.074  1.00  0.00     0.186 HD
ATOM     10  C   UNL d   1      -1.515   1.232  -0.042  0.00  0.00     0.083 A 
ATOM     11  C   UNL d   1       2.059   0.737   0.007  0.00  0.00     0.160 A 
ATOM     12  C   UNL d   1      -2.290   0.034   0.016  0.00  0.00     0.063 A 
ENDROOT
BRANCH  12  13
ATOM     13  C   UNL d   1      -3.753  -0.059  -0.001  0.00  0.00    -0.008 A 
ATOM     14  C   UNL d   1      -4.413  -1.135   0.606  0.00  0.00     0.014 A 
ATOM     15  C   UNL d   1      -5.812  -1.187   0.633  0.00  0.00     0.001 A 
ATOM     16  C   UNL d   1      -6.561  -0.169   0.046  0.00  0.00     0.000 A 
ATOM     17  C   UNL d   1      -5.918   0.897  -0.577  0.00  0.00     0.001 A 
ATOM     18  C   UNL d   1      -4.522   0.951  -0.602  0.00  0.00     0.014 A 
ENDBRANCH  12  13
BRANCH   5  19
ATOM     19  N   UNL d   1       0.854  -2.640   0.207  0.00  0.00    -0.233 N 
ATOM     20  H   UNL d   1      -0.047  -3.033  -0.060  0.00  0.00     0.174 HD
ATOM     21  H   UNL d   1       1.663  -3.141  -0.138  0.00  0.00     0.174 HD
ENDBRANCH   5  19
BRANCH  11  22
ATOM     22  S   UNL d   1       3.583   1.610  -0.035  0.00  0.00    -0.098 SA
ATOM     23  C   UNL d   1       4.774   0.264   0.033  0.00  0.00     0.099 C 
ENDBRANCH  11  22
TORSDOF 3
