REMARK  2 active torsions:
REMARK  status: ('A' for Active; 'I' for Inactive)
REMARK    1  A    between atoms: C_6  and  C_2 
REMARK       I    between atoms: C_7  and  N_8 
REMARK    2  A    between atoms: N_8  and  C_14 
ROOT
ATOM      1  N   UNL d   1      -1.632  -1.745  -0.365  0.00  0.00    -0.260 NA
ATOM      2  C   UNL d   1      -2.381  -0.549   0.069  0.00  0.00     0.239 A 
ATOM      3  O   UNL d   1      -1.501   0.576   0.337  0.00  0.00    -0.324 OA
ATOM      4  C   UNL d   1      -0.312  -1.269  -0.269  0.00  0.00     0.044 A 
ATOM      5  C   UNL d   1      -0.260   0.068   0.075  0.00  0.00     0.092 A 
ATOM      6  C   UNL d   1       0.846  -1.991  -0.484  0.00  0.00     0.033 A 
ATOM      7  C   UNL d   1       0.928   0.756   0.180  0.00  0.00     0.039 A 
ATOM      8  C   UNL d   1       2.079  -1.332  -0.359  0.00  0.00    -0.060 A 
ATOM      9  C   UNL d   1       2.110   0.045  -0.047  0.00  0.00     0.009 A 
ATOM     10  C   UNL d   1       3.366  -2.077  -0.562  0.00  0.00     0.048 C 
ATOM     11  H   UNL d   1      -1.764  -2.535   0.261  0.00  0.00     0.130 HD
ENDROOT
BRANCH   2  12
ATOM     12  C   UNL d   1      -3.237  -0.907   1.274  0.00  0.00    -0.015 A 
ATOM     13  C   UNL d   1      -2.759  -0.814   2.588  0.00  0.00     0.013 A 
ATOM     14  C   UNL d   1      -3.539  -1.260   3.665  0.00  0.00     0.030 A 
ATOM     15  C   UNL d   1      -4.807  -1.817   3.449  0.00  0.00     0.034 A 
ATOM     16  C   UNL d   1      -5.289  -1.897   2.145  0.00  0.00     0.030 A 
ATOM     17  C   UNL d   1      -4.513  -1.453   1.069  0.00  0.00     0.013 A 
BRANCH  15  18
ATOM     18  N   UNL d   1      -5.514  -2.289   4.578  0.00  0.00    -0.328 N 
ATOM     19  C   UNL d   1      -6.751  -2.909   4.588  0.00  0.00     0.218 C 
ATOM     20  O   UNL d   1      -7.470  -3.135   3.619  0.00  0.00    -0.274 OA
ATOM     21  C   UNL d   1      -7.198  -3.330   5.966  0.00  0.00     0.117 C 
ATOM     22  H   UNL d   1      -5.047  -2.178   5.468  0.00  0.00     0.169 HD
ENDBRANCH  15  18
ENDBRANCH   2  12
TORSDOF 2
