REMARK  7 active torsions:
REMARK  status: ('A' for Active; 'I' for Inactive)
REMARK    1  A    between atoms: S_17  and  C_2 
REMARK    2  A    between atoms: C_20  and  C_3 
REMARK    3  A    between atoms: C_10  and  C_11 
REMARK    4  A    between atoms: C_12  and  C_18 
REMARK    5  A    between atoms: C_13  and  S_19 
REMARK    6  A    between atoms: C_18  and  S_17 
REMARK    7  A    between atoms: S_19  and  C_20 
ROOT
ATOM      1  N   UNL d   1       0.878   0.115   0.015  0.00  0.00    -0.319 N 
ATOM      2  C   UNL d   1      -0.031   1.139  -0.025  0.00  0.00     0.162 A 
ATOM      3  C   UNL d   1       0.134  -1.050   0.006  0.00  0.00     0.109 A 
ATOM      4  N   UNL d   1      -1.246   0.645  -0.019  0.00  0.00    -0.278 N 
ATOM      5  HN  UNL d   1      -2.112   1.183  -0.027  1.00  0.00     0.189 HD
ATOM      6  N   UNL d   1      -1.146  -0.726  -0.000  0.00  0.00    -0.286 N 
ATOM      7  HN  UNL d   1      -1.928  -1.381   0.008  1.00  0.00     0.188 HD
ATOM      8  C   UNL d   1       2.316   0.193   0.041  0.00  0.00     0.159 C 
ENDROOT
BRANCH   3   9
ATOM      9  C   UNL d   1       0.680  -2.441  -0.057  0.00  0.00     0.157 C 
BRANCH   9  10
ATOM     10  S   UNL d   1       1.299  -2.998   1.570  0.00  0.00    -0.121 SA
BRANCH  10  11
ATOM     11  C   UNL d   1       1.945  -4.628   1.149  0.00  0.00     0.015 A 
ATOM     12  C   UNL d   1       3.337  -4.758   1.153  0.00  0.00     0.053 A 
ATOM     13  C   UNL d   1       3.906  -6.003   0.908  0.00  0.00     0.118 A 
ATOM     14  N   UNL d   1       3.142  -7.097   0.653  0.00  0.00    -0.352 N 
ATOM     15  C   UNL d   1       1.806  -6.986   0.670  0.00  0.00     0.044 A 
ATOM     16  HN  UNL d   1       3.580  -7.995   0.451  1.00  0.00     0.166 HD
ATOM     17  C   UNL d   1       1.134  -5.769   0.921  0.00  0.00     0.007 A 
ATOM     18  C   UNL d   1       1.065  -8.140   0.447  0.00  0.00     0.030 A 
ATOM     19  C   UNL d   1      -0.283  -5.781   0.950  0.00  0.00     0.015 A 
ATOM     20  C   UNL d   1      -1.005  -6.955   0.722  0.00  0.00     0.001 A 
ATOM     21  C   UNL d   1      -0.329  -8.137   0.467  0.00  0.00     0.002 A 
BRANCH  13  22
ATOM     22  C   UNL d   1       5.422  -6.147   0.947  0.00  0.00     0.432 C 
ATOM     23  F   UNL d   1       5.877  -7.413   0.732  0.00  0.00    -0.165 F 
ATOM     24  F   UNL d   1       6.039  -5.366   0.012  0.00  0.00    -0.165 F 
ATOM     25  F   UNL d   1       5.950  -5.761   2.146  0.00  0.00    -0.165 F 
ENDBRANCH  13  22
ENDBRANCH  10  11
ENDBRANCH   9  10
ENDBRANCH   3   9
BRANCH   2  26
ATOM     26  S   UNL d   1       0.383   2.820  -0.113  0.00  0.00    -0.088 SA
BRANCH  26  27
ATOM     27  C   UNL d   1      -1.273   3.575  -0.163  0.00  0.00     0.124 C 
BRANCH  27  28
ATOM     28  C   UNL d   1      -1.229   5.077  -0.355  0.00  0.00    -0.005 A 
ATOM     29  C   UNL d   1      -1.245   5.653  -1.643  0.00  0.00     0.042 A 
ATOM     30 CL   UNL d   1      -1.250   4.691  -3.082  0.00  0.00    -0.084 Cl
ATOM     31  C   UNL d   1      -1.260   7.044  -1.820  0.00  0.00     0.024 A 
ATOM     32  C   UNL d   1      -1.247   7.894  -0.720  0.00  0.00     0.003 A 
ATOM     33  C   UNL d   1      -1.201   7.351   0.561  0.00  0.00     0.024 A 
ATOM     34  C   UNL d   1      -1.187   5.961   0.742  0.00  0.00     0.042 A 
ATOM     35 CL   UNL d   1      -1.117   5.396   2.376  0.00  0.00    -0.084 Cl
ENDBRANCH  27  28
ENDBRANCH  26  27
ENDBRANCH   2  26
TORSDOF 7
