REMARK  3 active torsions:
REMARK  status: ('A' for Active; 'I' for Inactive)
REMARK    1  A    between atoms: C_4  and  C_1 
REMARK    2  A    between atoms: S_2  and  C_3 
REMARK    3  A    between atoms: C_5  and  S_2 
REMARK       I    between atoms: N_8  and  C_4 
ROOT
ATOM      1  C   UNL d   1       0.901  -0.691  -0.530  0.00  0.00     0.049 A 
ATOM      2  C   UNL d   1       0.709  -1.305   0.723  0.00  0.00     0.021 A 
ATOM      3  C   UNL d   1       0.570   0.674  -0.679  0.00  0.00     0.018 A 
ATOM      4  C   UNL d   1       0.121  -0.548   1.759  0.00  0.00     0.020 A 
ATOM      5  C   UNL d   1       0.021   1.412   0.370  0.00  0.00     0.001 A 
ATOM      6  C   UNL d   1      -0.213   0.796   1.589  0.00  0.00     0.001 A 
ENDROOT
BRANCH   2   7
ATOM      7  S   UNL d   1       1.127  -2.972   1.205  0.00  0.00    -0.089 SA
BRANCH   7   8
ATOM      8  C   UNL d   1       2.894  -3.193   0.946  0.00  0.00     0.016 A 
ATOM      9  C   UNL d   1       3.927  -2.212   1.041  0.00  0.00    -0.009 A 
ATOM     10  C   UNL d   1       5.246  -2.586   0.663  0.00  0.00    -0.025 A 
ATOM     11  C   UNL d   1       3.764  -0.882   1.503  0.00  0.00     0.013 A 
ATOM     12  C   UNL d   1       6.278  -1.634   0.633  0.00  0.00     0.012 A 
ATOM     13  C   UNL d   1       5.537  -3.916   0.329  0.00  0.00     0.012 A 
ATOM     14  C   UNL d   1       6.052  -0.314   1.014  0.00  0.00     0.001 A 
ATOM     15  C   UNL d   1       4.799   0.056   1.474  0.00  0.00     0.001 A 
ATOM     16  C   UNL d   1       4.545  -4.887   0.343  0.00  0.00     0.002 A 
ATOM     17  C   UNL d   1       3.235  -4.524   0.631  0.00  0.00     0.020 A 
ENDBRANCH   7   8
ENDBRANCH   2   7
BRANCH   1  18
ATOM     18  C   UNL d   1       1.395  -1.348  -1.775  0.00  0.00     0.252 C 
ATOM     19  O   UNL d   1       1.977  -0.683  -2.627  0.00  0.00    -0.268 OA
ATOM     20  N   UNL d   1       1.078  -2.676  -1.952  0.00  0.00    -0.361 N 
ATOM     21  C   UNL d   1       1.388  -3.376  -3.171  0.00  0.00     0.149 C 
ATOM     22  H   UNL d   1       0.688  -3.195  -1.175  0.00  0.00     0.162 HD
ENDBRANCH   1  18
TORSDOF 3
