REMARK  0 active torsions:
REMARK  status: ('A' for Active; 'I' for Inactive)
ROOT
ATOM      1  N   UNL d   1       1.268  -1.364  -0.015  0.00  0.00    -0.358 N 
ATOM      2  HN  UNL d   1       1.308  -2.383  -0.003  1.00  0.00     0.166 HD
ATOM      3  C   UNL d   1       0.070  -0.730   0.001  0.00  0.00     0.059 A 
ATOM      4  C   UNL d   1      -1.151  -1.423   0.027  0.00  0.00     0.034 A 
ATOM      5  C   UNL d   1       0.001   0.681  -0.015  0.00  0.00    -0.008 A 
ATOM      6  C   UNL d   1       2.412  -0.641  -0.045  0.00  0.00     0.005 A 
ATOM      7  C   UNL d   1       1.197   1.408  -0.032  0.00  0.00     0.015 A 
ATOM      8  I   UNL d   1      -1.196  -3.530   0.081  0.00  0.00    -0.042 I 
ATOM      9  C   UNL d   1       2.417   0.743  -0.046  0.00  0.00     0.025 A 
ATOM     10  C   UNL d   1      -2.429   0.625  -0.007  0.00  0.00     0.002 A 
ATOM     11  C   UNL d   1      -2.388  -0.763   0.020  0.00  0.00     0.020 A 
ATOM     12  C   UNL d   1      -1.239   1.345  -0.020  0.00  0.00     0.014 A 
ATOM     13  C   UNL d   1       3.702  -1.403  -0.095  0.00  0.00     0.068 C 
ENDROOT
TORSDOF 0
