REMARK  4 active torsions:
REMARK  status: ('A' for Active; 'I' for Inactive)
REMARK    1  A    between atoms: N_9  and  C_4 
REMARK    2  A    between atoms: C_10  and  C_5 
REMARK    3  A    between atoms: C_11  and  N_9 
REMARK    4  A    between atoms: C_12  and  C_11 
ROOT
ATOM      1  C   UNL d   1      -0.251  -1.326  -0.146  0.00  0.00     0.167 A 
ATOM      2  N   UNL d   1       1.040  -0.857  -0.118  0.00  0.00    -0.324 N 
ATOM      3  HN  UNL d   1       1.907  -1.392  -0.160  1.00  0.00     0.169 HD
ATOM      4  C   UNL d   1      -1.153  -0.285  -0.069  0.00  0.00     0.184 A 
ATOM      5  C   UNL d   1       0.892   0.451  -0.023  0.00  0.00     0.161 A 
ATOM      6  O   UNL d   1      -0.414   0.868   0.029  0.00  0.00    -0.273 OA
ATOM      7  C   UNL d   1      -0.513  -2.723  -0.207  0.00  0.00     0.122 C 
ATOM      8  N   UNL d   1      -0.753  -3.861  -0.251  0.00  0.00    -0.190 NA
ENDROOT
BRANCH   4   9
ATOM      9  N   UNL d   1      -2.493  -0.120  -0.042  0.00  0.00    -0.364 N 
ATOM     10  H   UNL d   1      -2.846   0.831  -0.007  0.00  0.00     0.162 HD
BRANCH   9  11
ATOM     11  C   UNL d   1      -3.428  -1.091  -0.591  0.00  0.00     0.160 C 
BRANCH  11  12
ATOM     12  C   UNL d   1      -3.704  -0.893  -2.068  0.00  0.00    -0.041 A 
ATOM     13  C   UNL d   1      -3.950  -2.014  -2.880  0.00  0.00     0.009 A 
ATOM     14  C   UNL d   1      -4.313  -1.864  -4.222  0.00  0.00     0.001 A 
ATOM     15  C   UNL d   1      -4.438  -0.591  -4.772  0.00  0.00     0.000 A 
ATOM     16  C   UNL d   1      -4.196   0.530  -3.984  0.00  0.00     0.001 A 
ATOM     17  C   UNL d   1      -3.838   0.382  -2.641  0.00  0.00     0.009 A 
ENDBRANCH  11  12
ENDBRANCH   9  11
ENDBRANCH   4   9
BRANCH   5  18
ATOM     18  C   UNL d   1       1.940   1.470   0.009  0.00  0.00     0.015 A 
ATOM     19  C   UNL d   1       3.276   1.067  -0.158  0.00  0.00     0.016 A 
ATOM     20  C   UNL d   1       4.317   1.997  -0.150  0.00  0.00     0.001 A 
ATOM     21  C   UNL d   1       4.037   3.348   0.030  0.00  0.00     0.000 A 
ATOM     22  C   UNL d   1       2.718   3.768   0.202  0.00  0.00     0.001 A 
ATOM     23  C   UNL d   1       1.674   2.834   0.191  0.00  0.00     0.016 A 
ENDBRANCH   5  18
TORSDOF 4
