REMARK  5 active torsions:
REMARK  status: ('A' for Active; 'I' for Inactive)
REMARK    1  A    between atoms: N_2  and  S_1 
REMARK    2  A    between atoms: C_10  and  S_1 
REMARK    3  A    between atoms: C_3  and  N_2 
REMARK       I    between atoms: C_4  and  N_13 
REMARK       I    between atoms: N_9  and  C_4 
REMARK    4  A    between atoms: C_14  and  N_9 
REMARK    5  A    between atoms: N_13  and  C_22 
ROOT
ATOM      1  C   UNL d   1       0.008   0.647   1.425  0.00  0.00     0.075 A 
ATOM      2  C   UNL d   1      -0.909  -0.217   2.029  0.00  0.00     0.027 A 
ATOM      3  C   UNL d   1       0.461   1.774   2.111  0.00  0.00     0.027 A 
ATOM      4  C   UNL d   1      -0.801   1.094   4.079  0.00  0.00     0.036 A 
ATOM      5  C   UNL d   1       0.038   2.002   3.424  0.00  0.00     0.031 A 
ATOM      6  C   UNL d   1      -1.312   0.011   3.354  0.00  0.00     0.031 A 
ENDROOT
BRANCH   1   7
ATOM      7  S   UNL d   1       0.803   0.176  -0.108  0.00  0.00     0.248 S 
ATOM      8  O   UNL d   1       2.125   0.768  -0.104  0.00  0.00    -0.205 OA
ATOM      9  O   UNL d   1       0.647  -1.261  -0.206  0.00  0.00    -0.205 OA
BRANCH   7  10
ATOM     10  N   UNL d   1      -0.146   0.832  -1.323  0.00  0.00    -0.151 NA
ATOM     11  H   UNL d   1      -1.097   0.492  -1.240  0.00  0.00     0.149 HD
BRANCH  10  12
ATOM     12  C   UNL d   1      -0.151   2.224  -1.335  0.00  0.00     0.171 A 
ATOM     13  N   UNL d   1       0.813   2.851  -2.003  0.00  0.00    -0.336 N 
ATOM     14  C   UNL d   1       0.799   4.199  -1.921  0.00  0.00     0.009 A 
ATOM     15  HN  UNL d   1       1.517   2.347  -2.542  1.00  0.00     0.168 HD
ATOM     16  C   UNL d   1       1.853   4.952  -2.679  0.00  0.00     0.068 C 
ATOM     17  C   UNL d   1      -0.135   4.881  -1.166  0.00  0.00     0.049 A 
ATOM     18  C   UNL d   1      -1.078   4.115  -0.499  0.00  0.00     0.009 A 
ATOM     19  N   UNL d   1      -1.112   2.772  -0.594  0.00  0.00    -0.336 N 
ATOM     20  C   UNL d   1      -2.092   4.762   0.392  0.00  0.00     0.068 C 
ATOM     21  HN  UNL d   1      -1.826   2.212  -0.128  1.00  0.00     0.168 HD
ENDBRANCH  10  12
ENDBRANCH   7  10
ENDBRANCH   1   7
BRANCH   4  22
ATOM     22  N   UNL d   1      -1.104   1.167   5.461  0.00  0.00    -0.309 N 
ATOM     23  C   UNL d   1      -0.676   2.150   6.339  0.00  0.00     0.325 C 
ATOM     24  N   UNL d   1      -1.043   1.866   7.651  0.00  0.00    -0.308 N 
ATOM     25  O   UNL d   1      -0.076   3.169   6.009  0.00  0.00    -0.247 OA
ATOM     26  H   UNL d   1      -1.845   1.269   7.750  0.00  0.00     0.170 HD
ATOM     27  H   UNL d   1      -1.592   0.382   5.856  0.00  0.00     0.170 HD
BRANCH  24  28
ATOM     28  C   UNL d   1      -0.774   2.773   8.708  0.00  0.00     0.042 A 
ATOM     29  C   UNL d   1      -1.744   3.040   9.690  0.00  0.00    -0.035 A 
ATOM     30  C   UNL d   1      -3.091   2.376   9.752  0.00  0.00     0.050 C 
ATOM     31  C   UNL d   1      -1.504   4.085  10.605  0.00  0.00     0.009 A 
ATOM     32  C   UNL d   1      -0.303   4.796  10.597  0.00  0.00     0.001 A 
ATOM     33  C   UNL d   1       0.691   4.458   9.689  0.00  0.00     0.002 A 
ATOM     34  C   UNL d   1       0.455   3.451   8.754  0.00  0.00     0.030 A 
ENDBRANCH  24  28
ENDBRANCH   4  22
TORSDOF 5
