REMARK  5 active torsions:
REMARK  status: ('A' for Active; 'I' for Inactive)
REMARK    1  A    between atoms: O_18  and  C_5 
REMARK    2  A    between atoms: C_6  and  C_9 
REMARK    3  A    between atoms: O_19  and  C_12 
REMARK    4  A    between atoms: O_20  and  C_13 
REMARK    5  A    between atoms: O_21  and  C_15 
ROOT
ATOM      1  C   UNL d   1       0.391   0.282   0.162  0.00  0.00     0.076 A 
ATOM      2  C   UNL d   1       1.842   0.508   0.277  0.00  0.00     0.167 C 
ATOM      3  C   UNL d   1      -0.069  -1.035   0.134  0.00  0.00     0.089 A 
ATOM      4  O   UNL d   1       0.764  -2.127   0.105  0.00  0.00    -0.340 OA
ATOM      5  C   UNL d   1      -0.519   1.342   0.112  0.00  0.00     0.085 A 
ATOM      6  C   UNL d   1       2.088  -1.839  -0.404  0.00  0.00     0.169 C 
ATOM      7  C   UNL d   1       2.704  -0.713   0.423  0.00  0.00     0.121 C 
ATOM      8  C   UNL d   1      -1.439  -1.293   0.120  0.00  0.00     0.074 A 
ATOM      9  C   UNL d   1      -1.888   1.089   0.066  0.00  0.00     0.074 A 
ATOM     10  C   UNL d   1      -2.336  -0.229   0.081  0.00  0.00     0.071 A 
ATOM     11  O   UNL d   1       2.288   1.651   0.312  0.00  0.00    -0.292 OA
ENDROOT
BRANCH   6  12
ATOM     12  C   UNL d   1       2.086  -1.664  -1.924  0.00  0.00    -0.026 A 
ATOM     13  C   UNL d   1       1.168  -2.383  -2.711  0.00  0.00     0.049 A 
ATOM     14  C   UNL d   1       1.129  -2.238  -4.105  0.00  0.00     0.099 A 
ATOM     15  C   UNL d   1       2.026  -1.386  -4.753  0.00  0.00     0.101 A 
ATOM     16  C   UNL d   1       2.961  -0.694  -3.976  0.00  0.00     0.040 A 
ATOM     17  C   UNL d   1       2.999  -0.832  -2.585  0.00  0.00     0.012 A 
BRANCH  14  18
ATOM     18  O   UNL d   1       0.191  -2.951  -4.799  0.00  0.00    -0.358 OA
ATOM     19  H   UNL d   1      -0.374  -3.432  -4.172  0.00  0.00     0.217 HD
ENDBRANCH  14  18
BRANCH  15  20
ATOM     20  O   UNL d   1       2.138  -1.114  -6.088  0.00  0.00    -0.353 OA
ATOM     21  C   UNL d   1       1.231  -1.750  -6.976  0.00  0.00     0.210 C 
ENDBRANCH  15  20
ENDBRANCH   6  12
BRANCH   5  22
ATOM     22  O   UNL d   1      -0.133   2.655   0.102  0.00  0.00    -0.360 OA
ATOM     23  H   UNL d   1       0.850   2.685   0.130  0.00  0.00     0.217 HD
ENDBRANCH   5  22
BRANCH  10  24
ATOM     24  O   UNL d   1      -3.667  -0.525   0.046  0.00  0.00    -0.361 OA
ATOM     25  H   UNL d   1      -4.172   0.306   0.024  0.00  0.00     0.217 HD
ENDBRANCH  10  24
TORSDOF 5
