REMARK  5 active torsions:
REMARK  status: ('A' for Active; 'I' for Inactive)
REMARK       I    between atoms: N_4  and  C_1 
REMARK    1  A    between atoms: C_19  and  N_2 
REMARK    2  A    between atoms: C_7  and  N_4 
REMARK    3  A    between atoms: C_6  and  C_8 
REMARK    4  A    between atoms: O_20  and  C_9 
REMARK    5  A    between atoms: C_10  and  C_19 
ROOT
ATOM      1  N   UNL d   1       4.190  -3.490  -5.210  0.00  0.00    -0.394 N 
ATOM      2  HN  UNL d   1       4.525  -3.706  -4.271  1.00  0.00     0.159 HD
ATOM      3  C   UNL d   1       3.119  -2.810  -5.432  0.00  0.00     0.094 C 
ENDROOT
BRANCH   3   4
ATOM      4  C   UNL d   1       2.273  -2.332  -4.322  0.00  0.00    -0.021 A 
ATOM      5  C   UNL d   1       2.629  -2.573  -2.993  0.00  0.00     0.015 A 
ATOM      6  C   UNL d   1       1.775  -2.179  -1.958  0.00  0.00     0.030 A 
ATOM      7  C   UNL d   1       0.549  -1.564  -2.248  0.00  0.00     0.034 A 
ATOM      8  C   UNL d   1       0.229  -1.283  -3.579  0.00  0.00     0.030 A 
ATOM      9  C   UNL d   1       1.085  -1.665  -4.616  0.00  0.00     0.015 A 
BRANCH   7  10
ATOM     10  N   UNL d   1      -0.305  -1.266  -1.164  0.00  0.00    -0.328 N 
ATOM     11  C   UNL d   1      -1.648  -0.934  -1.246  0.00  0.00     0.218 C 
ATOM     12  O   UNL d   1      -2.325  -0.900  -2.271  0.00  0.00    -0.274 OA
ATOM     13  C   UNL d   1      -2.282  -0.651   0.086  0.00  0.00     0.117 C 
ATOM     14  H   UNL d   1       0.070  -1.433  -0.240  0.00  0.00     0.169 HD
ENDBRANCH   7  10
ENDBRANCH   3   4
BRANCH   1  15
ATOM     15  C   UNL d   1       4.885  -3.926  -6.424  0.00  0.00     0.157 C 
BRANCH  15  16
ATOM     16  C   UNL d   1       6.110  -4.736  -6.073  0.00  0.00    -0.040 A 
ATOM     17  C   UNL d   1       5.984  -5.914  -5.324  0.00  0.00     0.011 A 
ATOM     18  C   UNL d   1       7.114  -6.658  -4.978  0.00  0.00     0.037 A 
ATOM     19  C   UNL d   1       8.382  -6.251  -5.391  0.00  0.00     0.068 A 
ATOM     20  C   UNL d   1       8.518  -5.076  -6.131  0.00  0.00     0.037 A 
ATOM     21  C   UNL d   1       7.388  -4.324  -6.471  0.00  0.00     0.011 A 
BRANCH  19  22
ATOM     22  O   UNL d   1       9.415  -7.048  -4.978  0.00  0.00    -0.356 OA
ATOM     23  C   UNL d   1      10.569  -7.037  -5.809  0.00  0.00     0.210 C 
ENDBRANCH  19  22
ENDBRANCH  15  16
ENDBRANCH   1  15
TORSDOF 5
