REMARK  4 active torsions:
REMARK  status: ('A' for Active; 'I' for Inactive)
REMARK    1  A    between atoms: C_2  and  C_1 
REMARK       I    between atoms: N_3  and  C_2 
REMARK    2  A    between atoms: C_11  and  N_3 
REMARK    3  A    between atoms: N_13  and  C_4 
REMARK    4  A    between atoms: C_12  and  C_11 
ROOT
ATOM      1  C   UNL d   1      -1.955   2.507   0.023  0.00  0.00     0.253 C 
ATOM      2  N   UNL d   1      -1.215   3.656  -0.144  0.00  0.00    -0.351 N 
ATOM      3  O   UNL d   1      -3.169   2.566   0.225  0.00  0.00    -0.268 OA
ATOM      4  H   UNL d   1      -0.220   3.679  -0.322  0.00  0.00     0.163 HD
ENDROOT
BRANCH   1   5
ATOM      5  C   UNL d   1      -1.254   1.177  -0.019  0.00  0.00     0.054 A 
ATOM      6  C   UNL d   1      -2.015  -0.019   0.047  0.00  0.00     0.021 A 
ATOM      7  C   UNL d   1      -1.354  -1.257   0.017  0.00  0.00     0.026 A 
ATOM      8  C   UNL d   1       0.037  -1.327  -0.018  0.00  0.00     0.026 A 
ATOM      9  C   UNL d   1       0.779  -0.152  -0.054  0.00  0.00     0.035 A 
ATOM     10  C   UNL d   1       0.148   1.093  -0.054  0.00  0.00     0.042 A 
ATOM     11 CL   UNL d   1       2.498  -0.237  -0.109  0.00  0.00    -0.084 Cl
BRANCH   6  12
ATOM     12  N   UNL d   1      -3.419  -0.037  -0.079  0.00  0.00    -0.302 NA
ATOM     13  H   UNL d   1      -3.828   0.880   0.145  0.00  0.00     0.124 HD
ATOM     14  H   UNL d   1      -3.878  -0.792   0.419  0.00  0.00     0.124 HD
ENDBRANCH   6  12
ENDBRANCH   1   5
BRANCH   2  15
ATOM     15  C   UNL d   1      -1.858   4.954  -0.115  0.00  0.00     0.179 C 
BRANCH  15  16
ATOM     16  C   UNL d   1      -0.872   6.098  -0.213  0.00  0.00     0.026 A 
ATOM     17  N   UNL d   1       0.453   5.802  -0.317  0.00  0.00    -0.368 N 
ATOM     18  C   UNL d   1       1.310   6.846  -0.398  0.00  0.00     0.088 A 
ATOM     19  HN  UNL d   1       0.784   4.837  -0.333  1.00  0.00     0.165 HD
ATOM     20  C   UNL d   1       0.917   8.175  -0.385  0.00  0.00     0.017 A 
ATOM     21  C   UNL d   1      -0.439   8.458  -0.283  0.00  0.00     0.003 A 
ATOM     22  C   UNL d   1      -1.349   7.409  -0.195  0.00  0.00     0.027 A 
ENDBRANCH  15  16
ENDBRANCH   2  15
TORSDOF 4
