REMARK  4 active torsions:
REMARK  status: ('A' for Active; 'I' for Inactive)
REMARK    1  A    between atoms: C_16  and  N_1 
REMARK    2  A    between atoms: C_8  and  C_2 
REMARK    3  A    between atoms: S_14  and  C_5 
REMARK    4  A    between atoms: C_18  and  C_16 
ROOT
ATOM      1  N   UNL d   1       0.658   0.599   0.552  0.00  0.00    -0.307 N 
ATOM      2  C   UNL d   1       1.081  -0.566  -0.074  0.00  0.00     0.135 A 
ATOM      3  N   UNL d   1       0.046  -1.060  -0.739  0.00  0.00    -0.283 N 
ATOM      4  HN  UNL d   1       0.063  -1.896  -1.323  1.00  0.00     0.188 HD
ATOM      5  C   UNL d   1      -0.678   0.712   0.266  0.00  0.00     0.160 A 
ATOM      6  N   UNL d   1      -1.052  -0.269  -0.516  0.00  0.00    -0.278 N 
ATOM      7  HN  UNL d   1      -1.988  -0.418  -0.892  1.00  0.00     0.189 HD
ENDROOT
BRANCH   2   8
ATOM      8  C   UNL d   1       2.409  -1.195  -0.065  0.00  0.00     0.011 A 
ATOM      9  C   UNL d   1       3.297  -1.099   1.010  0.00  0.00     0.029 A 
ATOM     10  C   UNL d   1       4.540  -1.756   1.004  0.00  0.00    -0.009 A 
ATOM     11  C   UNL d   1       5.425  -1.639   2.083  0.00  0.00     0.015 A 
ATOM     12  C   UNL d   1       4.917  -2.562  -0.086  0.00  0.00     0.042 A 
ATOM     13  C   UNL d   1       6.630  -2.325   2.063  0.00  0.00     0.018 A 
ATOM     14  C   UNL d   1       6.910  -3.104   0.955  0.00  0.00     0.088 A 
ATOM     15  N   UNL d   1       6.087  -3.226  -0.110  0.00  0.00    -0.365 N 
ATOM     16  HN  UNL d   1       6.346  -3.805  -0.909  1.00  0.00     0.165 HD
ATOM     17  C   UNL d   1       4.030  -2.665  -1.147  0.00  0.00     0.031 A 
ATOM     18  C   UNL d   1       2.796  -1.998  -1.145  0.00  0.00     0.017 A 
ENDBRANCH   2   8
BRANCH   1  19
ATOM     19  C   UNL d   1       1.477   1.572   1.252  0.00  0.00     0.159 C 
BRANCH  19  20
ATOM     20  C   UNL d   1       1.542   1.408   2.751  0.00  0.00    -0.017 C 
ATOM     21  C   UNL d   1       1.002   0.434   3.501  0.00  0.00     0.008 C 
ENDBRANCH  19  20
ENDBRANCH   1  19
BRANCH   5  22
ATOM     22  S   UNL d   1      -1.737   1.960   0.829  0.00  0.00    -0.105 SA
ATOM     23  H   UNL d   1      -0.980   2.505   1.788  0.00  0.00     0.110 HD
ENDBRANCH   5  22
TORSDOF 4
