REMARK  5 active torsions:
REMARK  status: ('A' for Active; 'I' for Inactive)
REMARK    1  A    between atoms: C_7  and  C_1 
REMARK    2  A    between atoms: N_11  and  C_2 
REMARK    3  A    between atoms: C_6  and  C_7 
REMARK    4  A    between atoms: C_16  and  N_11 
REMARK    5  A    between atoms: O_25  and  C_22 
ROOT
ATOM      1  C   UNL d   1       1.324  -1.137   0.032  0.00  0.00     0.087 A 
ATOM      2  C   UNL d   1       0.497   1.236   0.102  0.00  0.00     0.098 A 
ATOM      3  C   UNL d   1      -0.528   0.302   0.063  0.00  0.00     0.106 A 
ATOM      4  S   UNL d   1       2.016   0.426   0.065  0.00  0.00    -0.064 SA
ATOM      5  C   UNL d   1      -0.056  -1.050   0.027  0.00  0.00     0.071 A 
ATOM      6  C   UNL d   1      -1.906   0.684   0.055  0.00  0.00     0.104 C 
ATOM      7  N   UNL d   1      -3.023   1.010   0.048  0.00  0.00    -0.191 NA
ATOM      8  N   UNL d   1      -0.866  -2.134   0.013  0.00  0.00    -0.397 N 
ATOM      9  H   UNL d   1      -1.882  -2.092   0.014  0.00  0.00     0.156 HD
ATOM     10  H   UNL d   1      -0.498  -3.085  -0.049  0.00  0.00     0.156 HD
ENDROOT
BRANCH   2  11
ATOM     11  N   UNL d   1       0.377   2.594   0.226  0.00  0.00    -0.349 N 
ATOM     12  H   UNL d   1      -0.516   3.002   0.497  0.00  0.00     0.166 HD
BRANCH  11  13
ATOM     13  C   UNL d   1       1.258   3.582  -0.275  0.00  0.00     0.035 A 
ATOM     14  C   UNL d   1       2.075   3.357  -1.390  0.00  0.00     0.066 A 
ATOM     15  C   UNL d   1       2.989   4.313  -1.834  0.00  0.00     0.070 A 
ATOM     16  C   UNL d   1       3.079   5.529  -1.159  0.00  0.00     0.037 A 
ATOM     17  C   UNL d   1       2.262   5.783  -0.057  0.00  0.00     0.005 A 
ATOM     18  C   UNL d   1       1.361   4.811   0.387  0.00  0.00     0.029 A 
BRANCH  15  19
ATOM     19  O   UNL d   1       3.824   4.162  -2.909  0.00  0.00    -0.356 OA
ATOM     20  C   UNL d   1       3.733   2.920  -3.603  0.00  0.00     0.210 C 
ENDBRANCH  15  19
ENDBRANCH  11  13
ENDBRANCH   2  11
BRANCH   1  21
ATOM     21  C   UNL d   1       2.150  -2.345  -0.061  0.00  0.00     0.225 C 
ATOM     22  O   UNL d   1       1.761  -3.357  -0.638  0.00  0.00    -0.284 OA
BRANCH  21  23
ATOM     23  C   UNL d   1       3.470  -2.289   0.553  0.00  0.00     0.128 A 
ATOM     24  O   UNL d   1       3.679  -1.524   1.675  0.00  0.00    -0.306 OA
ATOM     25  C   UNL d   1       4.981  -1.664   2.033  0.00  0.00     0.086 A 
ATOM     26  C   UNL d   1       5.595  -1.020   3.105  0.00  0.00     0.040 A 
ATOM     27  C   UNL d   1       5.626  -2.545   1.174  0.00  0.00     0.002 A 
ATOM     28  C   UNL d   1       6.952  -1.298   3.303  0.00  0.00     0.026 A 
ATOM     29  C   UNL d   1       7.634  -2.177   2.458  0.00  0.00     0.035 A 
ATOM     30  C   UNL d   1       6.990  -2.814   1.388  0.00  0.00     0.038 A 
ATOM     31 CL   UNL d   1       9.306  -2.487   2.735  0.00  0.00    -0.084 Cl
ATOM     32  C   UNL d   1       4.642  -2.960   0.241  0.00  0.00     0.055 A 
ENDBRANCH  21  23
ENDBRANCH   1  21
TORSDOF 5
