REMARK  6 active torsions:
REMARK  status: ('A' for Active; 'I' for Inactive)
REMARK    1  A    between atoms: C_11  and  C_4 
REMARK    2  A    between atoms: C_12  and  C_5 
REMARK    3  A    between atoms: O_22  and  C_9 
REMARK    4  A    between atoms: O_23  and  C_10 
REMARK    5  A    between atoms: O_24  and  C_16 
REMARK    6  A    between atoms: O_25  and  C_17 
ROOT
ATOM      1  C   UNL d   1       1.950   0.277   0.096  0.00  0.00     0.021 C 
ATOM      2  C   UNL d   1      -0.394   1.289   0.087  0.00  0.00     0.021 C 
ATOM      3  C   UNL d   1       1.088   1.488   0.237  0.00  0.00     0.188 C 
ATOM      4  C   UNL d   1       3.284   0.470   0.131  0.00  0.00     0.024 C 
ATOM      5  C   UNL d   1      -1.165   2.393   0.126  0.00  0.00     0.024 C 
ATOM      6  N   UNL d   1      -0.024  -1.098   0.565  0.00  0.00     0.092 N 
ATOM      7  C   UNL d   1       1.287  -1.052  -0.087  0.00  0.00     0.315 C 
ATOM      8  C   UNL d   1      -0.896  -0.117  -0.084  0.00  0.00     0.315 C 
ATOM      9  O   UNL d   1       1.566   2.601   0.444  0.00  0.00    -0.287 OA
ATOM     10  C   UNL d   1      -0.596  -2.442   0.471  0.00  0.00     0.310 C 
ENDROOT
BRANCH   4  11
ATOM     11  C   UNL d   1       4.261  -0.602  -0.072  0.00  0.00    -0.033 A 
ATOM     12  C   UNL d   1       4.688  -1.387   1.004  0.00  0.00     0.051 A 
ATOM     13  C   UNL d   1       5.654  -2.391   0.831  0.00  0.00     0.102 A 
ATOM     14  C   UNL d   1       6.155  -2.633  -0.462  0.00  0.00     0.101 A 
ATOM     15  C   UNL d   1       5.712  -1.848  -1.536  0.00  0.00     0.040 A 
ATOM     16  C   UNL d   1       4.771  -0.838  -1.347  0.00  0.00     0.014 A 
BRANCH  13  17
ATOM     17  O   UNL d   1       6.164  -3.123   1.871  0.00  0.00    -0.353 OA
ATOM     18  C   UNL d   1       5.702  -2.827   3.183  0.00  0.00     0.210 C 
ENDBRANCH  13  17
BRANCH  14  19
ATOM     19  O   UNL d   1       7.112  -3.543  -0.831  0.00  0.00    -0.353 OA
ATOM     20  C   UNL d   1       7.188  -4.745  -0.077  0.00  0.00     0.210 C 
ENDBRANCH  14  19
ENDBRANCH   4  11
BRANCH   5  21
ATOM     21  C   UNL d   1      -2.626   2.343   0.017  0.00  0.00    -0.033 A 
ATOM     22  C   UNL d   1      -3.392   2.196   1.179  0.00  0.00     0.051 A 
ATOM     23  C   UNL d   1      -4.781   2.010   1.113  0.00  0.00     0.102 A 
ATOM     24  C   UNL d   1      -5.408   2.042  -0.145  0.00  0.00     0.101 A 
ATOM     25  C   UNL d   1      -4.633   2.206  -1.304  0.00  0.00     0.040 A 
ATOM     26  C   UNL d   1      -3.249   2.350  -1.228  0.00  0.00     0.014 A 
BRANCH  23  27
ATOM     27  O   UNL d   1      -5.551   1.746   2.215  0.00  0.00    -0.353 OA
ATOM     28  C   UNL d   1      -4.895   1.632   3.473  0.00  0.00     0.210 C 
ENDBRANCH  23  27
BRANCH  24  29
ATOM     29  O   UNL d   1      -6.741   1.865  -0.416  0.00  0.00    -0.353 OA
ATOM     30  C   UNL d   1      -7.663   2.310   0.571  0.00  0.00     0.210 C 
ENDBRANCH  24  29
ENDBRANCH   5  21
TORSDOF 6
