REMARK  4 active torsions:
REMARK  status: ('A' for Active; 'I' for Inactive)
REMARK    1  A    between atoms: C_3  and  N_1 
REMARK    2  A    between atoms: C_2  and  C_3 
REMARK    3  A    between atoms: C_4  and  C_5 
REMARK    4  A    between atoms: O_13  and  C_7 
ROOT
ATOM      1  N   UNL d   1       1.336  -0.063   0.685  0.00  0.00     0.092 N 
ATOM      2  C   UNL d   1      -1.522   0.051  -0.295  0.00  0.00     0.025 C 
ATOM      3  C   UNL d   1      -0.811   1.294   0.264  0.00  0.00     0.040 C 
ATOM      4  C   UNL d   1      -0.920  -1.184   0.380  0.00  0.00     0.040 C 
ATOM      5  C   UNL d   1       0.723   1.225   0.324  0.00  0.00     0.273 C 
ATOM      6  C   UNL d   1       0.595  -1.250   0.217  0.00  0.00     0.273 C 
ENDROOT
BRANCH   1   7
ATOM      7  C   UNL d   1       2.714  -0.163   0.134  0.00  0.00     0.312 C 
BRANCH   7   8
ATOM      8  C   UNL d   1       3.746   0.805   0.677  0.00  0.00    -0.008 A 
ATOM      9  C   UNL d   1       4.420   1.740  -0.130  0.00  0.00     0.042 A 
ATOM     10 CL   UNL d   1       4.003   2.009  -1.788  0.00  0.00    -0.084 Cl
ATOM     11  C   UNL d   1       5.488   2.488   0.381  0.00  0.00     0.024 A 
ATOM     12  C   UNL d   1       5.893   2.321   1.703  0.00  0.00     0.002 A 
ATOM     13  C   UNL d   1       5.216   1.426   2.525  0.00  0.00     0.001 A 
ATOM     14  C   UNL d   1       4.149   0.678   2.019  0.00  0.00     0.011 A 
ENDBRANCH   7   8
ENDBRANCH   1   7
BRANCH   2  15
ATOM     15  C   UNL d   1      -1.603  -0.080  -1.822  0.00  0.00    -0.021 A 
ATOM     16  C   UNL d   1      -2.797  -0.495  -2.462  0.00  0.00     0.074 A 
ATOM     17  C   UNL d   1      -2.823  -0.699  -3.850  0.00  0.00     0.037 A 
ATOM     18  C   UNL d   1      -1.696  -0.449  -4.630  0.00  0.00     0.003 A 
ATOM     19  C   UNL d   1      -0.533  -0.005  -4.022  0.00  0.00     0.001 A 
ATOM     20  C   UNL d   1      -0.489   0.169  -2.638  0.00  0.00     0.010 A 
BRANCH  16  21
ATOM     21  O   UNL d   1      -3.900  -0.709  -1.669  0.00  0.00    -0.355 OA
ATOM     22  C   UNL d   1      -5.164  -0.611  -2.325  0.00  0.00     0.210 C 
ENDBRANCH  16  21
ENDBRANCH   2  15
TORSDOF 4
