REMARK  5 active torsions:
REMARK  status: ('A' for Active; 'I' for Inactive)
REMARK    1  A    between atoms: C_3  and  S_1 
REMARK    2  A    between atoms: C_4  and  S_1 
REMARK    3  A    between atoms: C_5  and  C_2 
REMARK       I    between atoms: N_9  and  C_5 
REMARK    4  A    between atoms: C_13  and  C_6 
REMARK    5  A    between atoms: O_14  and  C_13 
ROOT
ATOM      1  C   UNL d   1       0.476   1.507   2.005  0.00  0.00     0.051 A 
ATOM      2  C   UNL d   1       0.476   0.281   1.317  0.00  0.00     0.052 A 
ATOM      3  C   UNL d   1      -0.044   1.558   3.321  0.00  0.00     0.018 A 
ATOM      4  C   UNL d   1      -0.000  -0.863   1.996  0.00  0.00     0.022 A 
ATOM      5  C   UNL d   1      -0.510   0.414   3.968  0.00  0.00     0.001 A 
ATOM      6  C   UNL d   1      -0.479  -0.803   3.306  0.00  0.00     0.002 A 
ENDROOT
BRANCH   2   7
ATOM      7  S   UNL d   1       1.127  -0.072  -0.336  0.00  0.00     0.086 S 
ATOM      8  O   UNL d   1       2.547   0.417  -0.302  0.00  0.00    -0.247 OA
BRANCH   7   9
ATOM      9  C   UNL d   1       0.181   1.133  -1.313  0.00  0.00     0.045 A 
ATOM     10  C   UNL d   1      -1.221   1.103  -1.466  0.00  0.00    -0.015 A 
ATOM     11  C   UNL d   1      -1.837   2.128  -2.219  0.00  0.00     0.011 A 
ATOM     12  C   UNL d   1      -1.086   3.097  -2.885  0.00  0.00     0.001 A 
ATOM     13  C   UNL d   1       0.297   3.051  -2.829  0.00  0.00     0.001 A 
ATOM     14  C   UNL d   1       0.921   2.076  -2.053  0.00  0.00     0.022 A 
BRANCH  10  15
ATOM     15  C   UNL d   1      -2.128   0.054  -0.872  0.00  0.00     0.204 C 
BRANCH  15  16
ATOM     16  O   UNL d   1      -1.586  -1.254  -1.004  0.00  0.00    -0.396 OA
ATOM     17  H   UNL d   1      -1.547  -1.446  -1.958  0.00  0.00     0.209 HD
ENDBRANCH  15  16
ENDBRANCH  10  15
ENDBRANCH   7   9
ENDBRANCH   2   7
BRANCH   1  18
ATOM     18  C   UNL d   1       1.005   2.817   1.532  0.00  0.00     0.252 C 
ATOM     19  O   UNL d   1       0.392   3.842   1.796  0.00  0.00    -0.268 OA
ATOM     20  N   UNL d   1       2.234   2.812   0.916  0.00  0.00    -0.361 N 
ATOM     21  C   UNL d   1       2.884   4.037   0.526  0.00  0.00     0.149 C 
ATOM     22  H   UNL d   1       2.641   1.931   0.606  0.00  0.00     0.162 HD
ENDBRANCH   1  18
TORSDOF 5
