REMARK  5 active torsions:
REMARK  status: ('A' for Active; 'I' for Inactive)
REMARK       I    between atoms: C_2  and  N_1 
REMARK       I    between atoms: C_3  and  N_1 
REMARK    1  A    between atoms: C_7  and  N_1 
REMARK       I    between atoms: N_4  and  C_2 
REMARK    2  A    between atoms: C_8  and  C_3 
REMARK    3  A    between atoms: C_11  and  N_4 
REMARK    4  A    between atoms: C_13  and  C_7 
REMARK    5  A    between atoms: O_18  and  C_12 
ROOT
ATOM      1  N   UNL d   1       2.199  -0.630  -3.790  0.00  0.00    -0.197 NA
ATOM      2  C   UNL d   1       1.824  -1.168  -2.832  0.00  0.00     0.068 C 
ATOM      3  C   UNL d   1       1.381  -1.823  -1.604  0.00  0.00     0.227 C 
ENDROOT
BRANCH   3   4
ATOM      4  C   UNL d   1       0.409  -0.921  -0.867  0.00  0.00     0.241 C 
ATOM      5  N   UNL d   1       0.899   0.148  -0.114  0.00  0.00    -0.265 N 
ATOM      6  C   UNL d   1       0.048   0.884   0.733  0.00  0.00     0.329 C 
ATOM      7  N   UNL d   1      -1.255   1.028   0.286  0.00  0.00    -0.308 N 
ATOM      8  O   UNL d   1       0.446   1.338   1.806  0.00  0.00    -0.246 OA
ATOM      9  H   UNL d   1      -1.611   0.252  -0.268  0.00  0.00     0.170 HD
ATOM     10  O   UNL d   1      -0.801  -1.152  -0.986  0.00  0.00    -0.272 OA
BRANCH   5  11
ATOM     11  C   UNL d   1       2.321   0.238   0.239  0.00  0.00     0.175 C 
BRANCH  11  12
ATOM     12  C   UNL d   1       2.915   1.629   0.315  0.00  0.00    -0.040 A 
ATOM     13  C   UNL d   1       3.690   1.983   1.433  0.00  0.00     0.009 A 
ATOM     14  C   UNL d   1       4.315   3.228   1.503  0.00  0.00     0.001 A 
ATOM     15  C   UNL d   1       4.175   4.133   0.456  0.00  0.00     0.000 A 
ATOM     16  C   UNL d   1       3.405   3.798  -0.657  0.00  0.00     0.001 A 
ATOM     17  C   UNL d   1       2.780   2.550  -0.733  0.00  0.00     0.009 A 
ENDBRANCH  11  12
ENDBRANCH   5  11
BRANCH   7  18
ATOM     18  C   UNL d   1      -2.200   1.893   0.878  0.00  0.00     0.036 A 
ATOM     19  C   UNL d   1      -1.818   3.083   1.502  0.00  0.00     0.032 A 
ATOM     20  C   UNL d   1      -2.763   3.890   2.140  0.00  0.00     0.039 A 
ATOM     21  C   UNL d   1      -4.101   3.508   2.168  0.00  0.00     0.068 A 
ATOM     22  C   UNL d   1      -4.500   2.361   1.474  0.00  0.00     0.039 A 
ATOM     23  C   UNL d   1      -3.554   1.561   0.822  0.00  0.00     0.032 A 
BRANCH  21  24
ATOM     24  O   UNL d   1      -5.092   4.198   2.810  0.00  0.00    -0.356 OA
ATOM     25  C   UNL d   1      -4.671   4.890   3.985  0.00  0.00     0.210 C 
ENDBRANCH  21  24
ENDBRANCH   7  18
ENDBRANCH   3   4
TORSDOF 5
