REMARK  4 active torsions:
REMARK  status: ('A' for Active; 'I' for Inactive)
REMARK    1  A    between atoms: C_4  and  S_1 
REMARK    2  A    between atoms: C_5  and  S_1 
REMARK    3  A    between atoms: N_3  and  C_2 
REMARK    4  A    between atoms: C_7  and  C_5 
ROOT
ATOM      1  C   UNL d   1       1.654  -4.224  -1.292  0.00  0.00     0.215 A 
ATOM      2  O   UNL d   1       1.516  -2.910  -0.968  0.00  0.00    -0.292 OA
ATOM      3  C   UNL d   1       0.722  -2.868   0.147  0.00  0.00     0.069 A 
ATOM      4  C   UNL d   1       0.965  -5.034  -0.421  0.00  0.00     0.065 A 
ATOM      5  C   UNL d   1       0.358  -4.154   0.511  0.00  0.00     0.038 A 
ENDROOT
BRANCH   3   6
ATOM      6  C   UNL d   1       0.369  -1.510   0.640  0.00  0.00     0.210 C 
BRANCH   6   7
ATOM      7  S   UNL d   1       0.793  -1.342   2.368  0.00  0.00     0.202 S 
ATOM      8  O   UNL d   1      -0.045  -2.302   3.079  0.00  0.00    -0.223 OA
ATOM      9  O   UNL d   1       2.239  -1.495   2.457  0.00  0.00    -0.223 OA
BRANCH   7  10
ATOM     10  C   UNL d   1       0.301   0.378   2.832  0.00  0.00     0.292 C 
ATOM     11 CL   UNL d   1      -0.545   1.212   1.501  0.00  0.00    -0.067 Cl
ATOM     12 CL   UNL d   1      -0.795   0.311   4.244  0.00  0.00    -0.067 Cl
ATOM     13 CL   UNL d   1       1.754   1.318   3.269  0.00  0.00    -0.067 Cl
ENDBRANCH   7  10
ENDBRANCH   6   7
ENDBRANCH   3   6
BRANCH   1  14
ATOM     14  N   UNL d   1       2.429  -4.519  -2.455  0.00  0.00    -0.090 N 
ATOM     15  O   UNL d   1       2.479  -5.710  -2.793  0.00  0.00    -0.530 OA
ATOM     16  O   UNL d   1       2.975  -3.575  -3.040  0.00  0.00    -0.530 OA
ENDBRANCH   1  14
TORSDOF 4
