REMARK  7 active torsions:
REMARK  status: ('A' for Active; 'I' for Inactive)
REMARK    1  A    between atoms: C_5  and  C_1 
REMARK    2  A    between atoms: C_8  and  C_2 
REMARK       I    between atoms: N_16  and  C_8 
REMARK    3  A    between atoms: C_9  and  C_20 
REMARK    4  A    between atoms: C_23  and  N_16 
REMARK    5  A    between atoms: S_18  and  C_24 
REMARK    6  A    between atoms: C_20  and  S_18 
REMARK    7  A    between atoms: C_24  and  C_23 
ROOT
ATOM      1  C   UNL d   1      -1.168  -0.806   0.506  0.00  0.00     0.085 A 
ATOM      2  C   UNL d   1       0.024  -1.338  -0.099  0.00  0.00     0.092 A 
ATOM      3  N   UNL d   1      -1.097   0.535   0.553  0.00  0.00    -0.259 N 
ATOM      4  HN  UNL d   1      -1.786   1.165   0.961  1.00  0.00     0.195 HD
ATOM      5  O   UNL d   1       0.079   0.893  -0.052  0.00  0.00    -0.241 OA
ATOM      6  C   UNL d   1       0.759  -0.216  -0.434  0.00  0.00     0.090 A 
ATOM      7  C   UNL d   1       2.045   0.058  -1.106  0.00  0.00     0.080 C 
ENDROOT
BRANCH   2   8
ATOM      8  C   UNL d   1       0.371  -2.724  -0.334  0.00  0.00     0.256 C 
ATOM      9  O   UNL d   1      -0.466  -3.575  -0.615  0.00  0.00    -0.267 OA
ATOM     10  N   UNL d   1       1.702  -3.033  -0.147  0.00  0.00    -0.356 N 
ATOM     11  H   UNL d   1       2.273  -2.372   0.367  0.00  0.00     0.162 HD
BRANCH  10  12
ATOM     12  C   UNL d   1       2.142  -4.418  -0.125  0.00  0.00     0.133 C 
BRANCH  12  13
ATOM     13  C   UNL d   1       3.660  -4.557   0.001  0.00  0.00     0.094 C 
BRANCH  13  14
ATOM     14  S   UNL d   1       4.253  -3.779   1.550  0.00  0.00    -0.161 SA
BRANCH  14  15
ATOM     15  C   UNL d   1       6.018  -4.230   1.447  0.00  0.00     0.139 C 
BRANCH  15  16
ATOM     16  C   UNL d   1       6.693  -3.534   0.325  0.00  0.00     0.061 A 
ATOM     17  O   UNL d   1       6.831  -4.242  -0.835  0.00  0.00    -0.326 OA
ATOM     18  C   UNL d   1       7.449  -3.424  -1.726  0.00  0.00     0.142 A 
ATOM     19  C   UNL d   1       7.718  -2.203  -1.151  0.00  0.00     0.027 A 
ATOM     20  C   UNL d   1       7.232  -2.276   0.175  0.00  0.00     0.035 A 
ENDBRANCH  15  16
ENDBRANCH  14  15
ENDBRANCH  13  14
ENDBRANCH  12  13
ENDBRANCH  10  12
ENDBRANCH   2   8
BRANCH   1  21
ATOM     21  C   UNL d   1      -2.297  -1.507   1.133  0.00  0.00     0.015 A 
ATOM     22  C   UNL d   1      -3.635  -1.088   1.002  0.00  0.00     0.046 A 
ATOM     23 CL   UNL d   1      -4.132   0.214  -0.028  0.00  0.00    -0.083 Cl
ATOM     24  C   UNL d   1      -4.659  -1.747   1.699  0.00  0.00     0.025 A 
ATOM     25  C   UNL d   1      -4.372  -2.841   2.514  0.00  0.00     0.002 A 
ATOM     26  C   UNL d   1      -3.060  -3.281   2.636  0.00  0.00     0.001 A 
ATOM     27  C   UNL d   1      -2.032  -2.615   1.962  0.00  0.00     0.015 A 
ENDBRANCH   1  21
TORSDOF 7
