REMARK  2 active torsions:
REMARK  status: ('A' for Active; 'I' for Inactive)
REMARK       I    between atoms: C_5  and  N_1 
REMARK    1  A    between atoms: C_8  and  C_2 
REMARK    2  A    between atoms: C_10  and  C_5 
ROOT
ATOM      1  N   UNL d   1      -1.202  -1.547  -0.025  0.00  0.00    -0.279 N 
ATOM      2  C   UNL d   1      -2.287  -0.585   0.260  0.00  0.00     0.272 A 
ATOM      3  C   UNL d   1      -0.034  -0.773  -0.071  0.00  0.00     0.075 A 
ATOM      4  O   UNL d   1      -1.711   0.741   0.390  0.00  0.00    -0.319 OA
ATOM      5  C   UNL d   1      -1.285  -2.912  -0.288  0.00  0.00     0.260 C 
ATOM      6  C   UNL d   1      -0.376   0.545   0.158  0.00  0.00     0.099 A 
ATOM      7  C   UNL d   1       1.286  -1.127  -0.293  0.00  0.00     0.056 A 
ATOM      8  O   UNL d   1      -0.326  -3.629  -0.565  0.00  0.00    -0.267 OA
ATOM      9  C   UNL d   1       0.550   1.570   0.164  0.00  0.00     0.041 A 
ATOM     10  C   UNL d   1       2.245  -0.108  -0.278  0.00  0.00     0.036 A 
ATOM     11  C   UNL d   1       1.883   1.233  -0.058  0.00  0.00     0.026 A 
ATOM     12 CL   UNL d   1       3.906  -0.495  -0.519  0.00  0.00    -0.084 Cl
ENDROOT
BRANCH   2  13
ATOM     13  C   UNL d   1      -3.146  -0.849   1.485  0.00  0.00    -0.009 A 
ATOM     14  C   UNL d   1      -2.773  -1.738   2.505  0.00  0.00     0.013 A 
ATOM     15  C   UNL d   1      -3.688  -2.102   3.496  0.00  0.00     0.024 A 
ATOM     16  C   UNL d   1      -4.954  -1.525   3.517  0.00  0.00     0.034 A 
ATOM     17  C   UNL d   1      -5.305  -0.564   2.574  0.00  0.00     0.024 A 
ATOM     18 CL   UNL d   1      -6.100  -2.018   4.702  0.00  0.00    -0.084 Cl
ATOM     19  C   UNL d   1      -4.406  -0.227   1.562  0.00  0.00     0.013 A 
ENDBRANCH   2  13
BRANCH   5  20
ATOM     20  C   UNL d   1      -2.600  -3.597  -0.111  0.00  0.00     0.032 C 
ATOM     21  C   UNL d   1      -3.776  -3.124  -0.697  0.00  0.00     0.017 C 
ATOM     22  C   UNL d   1      -5.012  -3.611  -0.262  0.00  0.00     0.001 C 
ATOM     23  C   UNL d   1      -5.069  -4.628   0.691  0.00  0.00     0.000 C 
ATOM     24  C   UNL d   1      -3.892  -5.192   1.181  0.00  0.00     0.001 C 
ATOM     25  C   UNL d   1      -2.657  -4.680   0.778  0.00  0.00     0.017 C 
ENDBRANCH   5  20
TORSDOF 2
