REMARK  6 active torsions:
REMARK  status: ('A' for Active; 'I' for Inactive)
REMARK    1  A    between atoms: C_7  and  N_1 
REMARK    2  A    between atoms: C_2  and  N_14 
REMARK    3  A    between atoms: N_3  and  C_2 
REMARK    4  A    between atoms: C_4  and  N_3 
REMARK    5  A    between atoms: N_14  and  N_8 
REMARK    6  A    between atoms: C_20  and  C_21 
ROOT
ATOM      1  N   UNL d   1      -2.400  -2.493  -6.523  0.00  0.00    -0.277 N 
ATOM      2  H   UNL d   1      -1.928  -2.087  -5.727  0.00  0.00     0.189 HD
ENDROOT
BRANCH   1   3
ATOM      3  C   UNL d   1      -1.688  -3.322  -7.361  0.00  0.00     0.186 C 
ATOM      4  S   UNL d   1      -2.120  -3.760  -8.912  0.00  0.00    -0.040 SA
BRANCH   3   5
ATOM      5  N   UNL d   1      -0.540  -3.852  -6.822  0.00  0.00    -0.361 N 
ATOM      6  H   UNL d   1      -0.045  -4.474  -7.454  0.00  0.00     0.162 HD
BRANCH   5   7
ATOM      7  C   UNL d   1      -0.314  -4.029  -5.397  0.00  0.00     0.092 C 
ATOM      8  C   UNL d   1       0.567  -5.244  -5.005  0.00  0.00     0.031 C 
ATOM      9  C   UNL d   1       1.973  -5.081  -5.541  0.00  0.00    -0.024 C 
ATOM     10  C   UNL d   1       0.834  -4.882  -3.538  0.00  0.00     0.019 C 
ATOM     11  C   UNL d   1       2.543  -4.075  -4.861  0.00  0.00    -0.026 C 
ATOM     12  C   UNL d   1       1.514  -3.553  -3.888  0.00  0.00     0.010 C 
ATOM     13  C   UNL d   1       0.422  -2.839  -4.716  0.00  0.00     0.034 C 
ENDBRANCH   5   7
ENDBRANCH   3   5
ENDBRANCH   1   3
BRANCH   1  14
ATOM     14  N   UNL d   1      -3.754  -2.389  -6.602  0.00  0.00    -0.309 N 
ATOM     15  C   UNL d   1      -4.300  -1.587  -5.746  0.00  0.00     0.118 C 
ATOM     16  HN  UNL d   1      -4.302  -2.907  -7.290  1.00  0.00     0.186 HD
BRANCH  15  17
ATOM     17  C   UNL d   1      -5.766  -1.478  -5.631  0.00  0.00    -0.019 A 
ATOM     18  C   UNL d   1      -6.593  -2.420  -6.257  0.00  0.00     0.015 A 
ATOM     19  C   UNL d   1      -7.979  -2.338  -6.114  0.00  0.00     0.037 A 
ATOM     20  C   UNL d   1      -8.533  -1.302  -5.350  0.00  0.00     0.102 A 
ATOM     21  C   UNL d   1      -7.707  -0.356  -4.723  0.00  0.00     0.037 A 
ATOM     22  C   UNL d   1      -6.319  -0.449  -4.861  0.00  0.00     0.015 A 
BRANCH  20  23
ATOM     23  N   UNL d   1      -9.991  -1.210  -5.202  0.00  0.00    -0.116 N 
ATOM     24  O   UNL d   1     -10.443  -0.254  -4.556  0.00  0.00    -0.532 OA
ATOM     25  O   UNL d   1     -10.681  -2.091  -5.726  0.00  0.00    -0.532 OA
ENDBRANCH  20  23
ENDBRANCH  15  17
ENDBRANCH   1  14
TORSDOF 6
