REMARK  4 active torsions:
REMARK  status: ('A' for Active; 'I' for Inactive)
REMARK    1  A    between atoms: C_5  and  C_1 
REMARK    2  A    between atoms: C_2  and  C_6 
REMARK    3  A    between atoms: C_15  and  C_3 
REMARK    4  A    between atoms: C_14  and  C_4 
REMARK       I    between atoms: N_9  and  C_5 
REMARK       I    between atoms: C_6  and  N_8 
REMARK       I    between atoms: C_7  and  N_9 
REMARK       I    between atoms: N_8  and  C_7 
ROOT
ATOM      1  C   UNL d   1       0.586  -2.964  -0.137  0.00  0.00     0.266 C 
ATOM      2  C   UNL d   1      -0.982  -7.567   0.483  0.00  0.00     0.266 C 
ATOM      3  C   UNL d   1      -0.137  -5.389  -0.247  0.00  0.00     0.333 C 
ATOM      4  N   UNL d   1      -1.209  -6.189   0.204  0.00  0.00    -0.270 N 
ATOM      5  N   UNL d   1      -0.342  -4.004  -0.414  0.00  0.00    -0.270 N 
ATOM      6  O   UNL d   1       0.940  -5.868  -0.603  0.00  0.00    -0.246 OA
ATOM      7  O   UNL d   1       0.080  -7.951   0.972  0.00  0.00    -0.267 OA
ATOM      8  O   UNL d   1       0.168  -1.799  -0.053  0.00  0.00    -0.267 OA
ATOM      9  C   UNL d   1      -2.457  -5.634   0.661  0.00  0.00     0.164 C 
ATOM     10  C   UNL d   1      -1.563  -3.466  -1.016  0.00  0.00     0.164 C 
ENDROOT
BRANCH   1  11
ATOM     11  C   UNL d   1       2.025  -3.164  -0.054  0.00  0.00     0.093 A 
ATOM     12  C   UNL d   1       2.910  -3.955   0.753  0.00  0.00     0.088 A 
ATOM     13  N   UNL d   1       4.188  -3.596   0.511  0.00  0.00    -0.259 N 
ATOM     14  O   UNL d   1       4.170  -2.626  -0.444  0.00  0.00    -0.241 OA
ATOM     15  HN  UNL d   1       5.017  -3.982   0.962  1.00  0.00     0.195 HD
ATOM     16  C   UNL d   1       2.892  -2.340  -0.764  0.00  0.00     0.090 A 
ATOM     17  C   UNL d   1       2.717  -1.229  -1.724  0.00  0.00     0.080 C 
BRANCH  12  18
ATOM     18  C   UNL d   1       2.667  -4.927   1.829  0.00  0.00     0.054 A 
ATOM     19  C   UNL d   1       1.563  -4.763   2.679  0.00  0.00     0.130 A 
ATOM     20  F   UNL d   1       0.672  -3.784   2.470  0.00  0.00    -0.205 F 
ATOM     21  C   UNL d   1       1.354  -5.580   3.791  0.00  0.00     0.043 A 
ATOM     22  C   UNL d   1       2.260  -6.587   4.094  0.00  0.00     0.005 A 
ATOM     23  C   UNL d   1       3.357  -6.789   3.263  0.00  0.00     0.025 A 
ATOM     24  C   UNL d   1       3.554  -5.982   2.130  0.00  0.00     0.049 A 
ATOM     25 CL   UNL d   1       4.928  -6.409   1.158  0.00  0.00    -0.083 Cl
ENDBRANCH  12  18
ENDBRANCH   1  11
BRANCH   2  26
ATOM     26  C   UNL d   1      -2.040  -8.581   0.237  0.00  0.00     0.093 C 
ATOM     27  C   UNL d   1      -1.807  -9.905  -0.326  0.00  0.00     0.088 C 
ATOM     28  N   UNL d   1      -2.966 -10.558  -0.490  0.00  0.00    -0.259 N 
ATOM     29  O   UNL d   1      -3.925  -9.801   0.099  0.00  0.00    -0.241 OA
ATOM     30  HN  UNL d   1      -3.100 -11.450  -0.965  1.00  0.00     0.195 HD
ATOM     31  C   UNL d   1      -3.387  -8.658   0.595  0.00  0.00     0.090 C 
ATOM     32  C   UNL d   1      -4.382  -7.920   1.403  0.00  0.00     0.080 C 
BRANCH  27  33
ATOM     33  C   UNL d   1      -0.586 -10.578  -0.759  0.00  0.00     0.054 A 
ATOM     34  C   UNL d   1       0.265  -9.942  -1.666  0.00  0.00     0.130 A 
ATOM     35  F   UNL d   1      -0.008  -8.701  -2.098  0.00  0.00    -0.205 F 
ATOM     36  C   UNL d   1       1.388 -10.591  -2.191  0.00  0.00     0.043 A 
ATOM     37  C   UNL d   1       1.666 -11.906  -1.830  0.00  0.00     0.005 A 
ATOM     38  C   UNL d   1       0.835 -12.561  -0.929  0.00  0.00     0.025 A 
ATOM     39  C   UNL d   1      -0.275 -11.902  -0.384  0.00  0.00     0.049 A 
ATOM     40 CL   UNL d   1      -1.205 -12.804   0.770  0.00  0.00    -0.083 Cl
ENDBRANCH  27  33
ENDBRANCH   2  26
TORSDOF 4
