REMARK  5 active torsions:
REMARK  status: ('A' for Active; 'I' for Inactive)
REMARK    1  A    between atoms: C_2  and  N_1 
REMARK    2  A    between atoms: C_3  and  C_4 
REMARK    3  A    between atoms: C_7  and  C_3 
REMARK    4  A    between atoms: C_5  and  C_8 
REMARK    5  A    between atoms: O_19  and  C_7 
ROOT
ATOM      1  C   UNL d   1       1.963  -1.139   2.389  0.00  0.00     0.227 C 
ATOM      2  C   UNL d   1       2.814  -2.309   2.684  0.00  0.00     0.079 C 
ATOM      3  N   UNL d   1       3.465  -3.248   2.908  0.00  0.00    -0.196 NA
ENDROOT
BRANCH   1   4
ATOM      4  C   UNL d   1       0.590  -1.580   1.863  0.00  0.00     0.002 A 
ATOM      5  C   UNL d   1       0.047  -1.194   0.619  0.00  0.00     0.111 A 
ATOM      6  C   UNL d   1      -1.212  -1.646   0.182  0.00  0.00     0.052 A 
ATOM      7  C   UNL d   1      -1.980  -2.488   0.997  0.00  0.00     0.050 A 
ATOM      8  C   UNL d   1      -1.462  -2.871   2.241  0.00  0.00     0.017 A 
ATOM      9  C   UNL d   1      -0.204  -2.429   2.663  0.00  0.00     0.012 A 
BRANCH   5  10
ATOM     10  N   UNL d   1       0.756  -0.287  -0.274  0.00  0.00    -0.115 N 
ATOM     11  O   UNL d   1       1.127   0.794   0.201  0.00  0.00    -0.532 OA
ATOM     12  O   UNL d   1       0.935  -0.665  -1.437  0.00  0.00    -0.532 OA
ENDBRANCH   5  10
BRANCH   7  13
ATOM     13  C   UNL d   1      -3.346  -2.975   0.573  0.00  0.00     0.417 C 
ATOM     14  F   UNL d   1      -3.734  -2.503  -0.643  0.00  0.00    -0.166 F 
ATOM     15  F   UNL d   1      -3.408  -4.331   0.488  0.00  0.00    -0.166 F 
ATOM     16  F   UNL d   1      -4.322  -2.606   1.447  0.00  0.00    -0.166 F 
ENDBRANCH   7  13
ENDBRANCH   1   4
BRANCH   1  17
ATOM     17  C   UNL d   1       1.850  -0.272   3.639  0.00  0.00     0.280 C 
ATOM     18  O   UNL d   1       0.798   0.049   4.181  0.00  0.00    -0.263 OA
BRANCH  17  19
ATOM     19  O   UNL d   1       3.082   0.112   4.087  0.00  0.00    -0.325 OA
ATOM     20  C   UNL d   1       3.055   0.845   5.316  0.00  0.00     0.213 C 
ENDBRANCH  17  19
ENDBRANCH   1  17
TORSDOF 5
