REMARK  5 active torsions:
REMARK  status: ('A' for Active; 'I' for Inactive)
REMARK    1  A    between atoms: C_3  and  S_1 
REMARK    2  A    between atoms: N_12  and  S_1 
REMARK    3  A    between atoms: C_9  and  C_2 
REMARK    4  A    between atoms: C_4  and  C_10 
REMARK    5  A    between atoms: C_20  and  N_12 
ROOT
ATOM      1  C   UNL d   1       0.505   0.490  -1.719  0.00  0.00     0.116 A 
ATOM      2  S   UNL d   1       0.827   2.087  -2.240  0.00  0.00    -0.075 SA
ATOM      3  C   UNL d   1      -0.004   1.854  -3.714  0.00  0.00     0.035 A 
ATOM      4  C   UNL d   1      -0.161  -0.231  -2.692  0.00  0.00     0.034 A 
ATOM      5  C   UNL d   1      -0.452   0.555  -3.845  0.00  0.00     0.023 A 
ENDROOT
BRANCH   1   6
ATOM      6  S   UNL d   1       1.074   0.040  -0.095  0.00  0.00     0.252 S 
ATOM      7  O   UNL d   1       0.299  -1.129   0.265  0.00  0.00    -0.205 OA
ATOM      8  O   UNL d   1       1.032   1.236   0.715  0.00  0.00    -0.205 OA
BRANCH   6   9
ATOM      9  N   UNL d   1       2.708  -0.413  -0.206  0.00  0.00    -0.181 NA
ATOM     10  H   UNL d   1       3.094  -0.417   0.739  0.00  0.00     0.146 HD
BRANCH   9  11
ATOM     11  C   UNL d   1       2.998  -1.597  -0.948  0.00  0.00     0.022 A 
ATOM     12  C   UNL d   1       3.380  -1.473  -2.283  0.00  0.00     0.026 A 
ATOM     13  C   UNL d   1       3.695  -2.613  -3.026  0.00  0.00     0.026 A 
ATOM     14  C   UNL d   1       3.612  -3.871  -2.432  0.00  0.00     0.034 A 
ATOM     15  C   UNL d   1       3.199  -4.000  -1.107  0.00  0.00     0.026 A 
ATOM     16 CL   UNL d   1       4.031  -5.271  -3.340  0.00  0.00    -0.084 Cl
ATOM     17  C   UNL d   1       2.885  -2.860  -0.362  0.00  0.00     0.026 A 
ENDBRANCH   9  11
ENDBRANCH   6   9
ENDBRANCH   1   6
BRANCH   3  18
ATOM     18  C   UNL d   1      -0.235   2.928  -4.734  0.00  0.00     0.074 A 
ATOM     19  C   UNL d   1       0.186   4.275  -4.659  0.00  0.00     0.077 A 
ATOM     20  C   UNL d   1      -0.325   4.859  -5.796  0.00  0.00     0.184 A 
ATOM     21  O   UNL d   1      -0.984   3.917  -6.521  0.00  0.00    -0.233 OA
ATOM     22  N   UNL d   1      -0.925   2.703  -5.861  0.00  0.00    -0.260 N 
ATOM     23  HN  UNL d   1      -1.325   1.817  -6.169  1.00  0.00     0.195 HD
BRANCH  20  24
ATOM     24  C   UNL d   1      -0.314   6.224  -6.348  0.00  0.00     0.441 C 
ATOM     25  F   UNL d   1       0.419   7.070  -5.577  0.00  0.00    -0.164 F 
ATOM     26  F   UNL d   1       0.220   6.273  -7.594  0.00  0.00    -0.164 F 
ATOM     27  F   UNL d   1      -1.561   6.754  -6.426  0.00  0.00    -0.164 F 
ENDBRANCH  20  24
ENDBRANCH   3  18
TORSDOF 5
