REMARK  9 active torsions:
REMARK  status: ('A' for Active; 'I' for Inactive)
REMARK    1  A    between atoms: N_3  and  C_1 
REMARK    2  A    between atoms: N_6  and  C_1 
REMARK    3  A    between atoms: C_2  and  N_3 
REMARK       I    between atoms: C_4  and  N_8 
REMARK    4  A    between atoms: C_10  and  C_4 
REMARK    5  A    between atoms: N_8  and  N_6 
REMARK    6  A    between atoms: C_16  and  C_10 
REMARK    7  A    between atoms: C_15  and  O_24 
REMARK    8  A    between atoms: O_24  and  C_16 
REMARK    9  A    between atoms: O_25  and  C_17 
ROOT
ATOM      1  C   UNL d   1      -1.742  -2.244   0.761  0.00  0.00     0.238 C 
ATOM      2  N   UNL d   1      -2.621  -1.633   1.635  0.00  0.00    -0.268 N 
ATOM      3  O   UNL d   1      -1.459  -1.753  -0.330  0.00  0.00    -0.272 OA
ATOM      4  H   UNL d   1      -2.981  -2.060   2.484  0.00  0.00     0.190 HD
ENDROOT
BRANCH   2   5
ATOM      5  N   UNL d   1      -3.217  -0.459   1.178  0.00  0.00    -0.274 N 
ATOM      6  H   UNL d   1      -2.820  -0.092   0.314  0.00  0.00     0.189 HD
BRANCH   5   7
ATOM      7  C   UNL d   1      -4.447  -0.026   1.609  0.00  0.00     0.191 C 
ATOM      8  S   UNL d   1      -5.117  -0.385   3.095  0.00  0.00    -0.039 SA
BRANCH   7   9
ATOM      9  N   UNL d   1      -5.084   0.833   0.747  0.00  0.00    -0.331 N 
ATOM     10  H   UNL d   1      -5.712   1.514   1.168  0.00  0.00     0.168 HD
BRANCH   9  11
ATOM     11  C   UNL d   1      -5.094   0.759  -0.670  0.00  0.00     0.057 A 
ATOM     12  C   UNL d   1      -4.828  -0.450  -1.331  0.00  0.00     0.055 A 
ATOM     13  C   UNL d   1      -4.888  -0.524  -2.722  0.00  0.00     0.036 A 
ATOM     14 CL   UNL d   1      -4.594  -2.027  -3.507  0.00  0.00    -0.084 Cl
ATOM     15  C   UNL d   1      -5.207   0.601  -3.476  0.00  0.00     0.026 A 
ATOM     16  C   UNL d   1      -5.487   1.807  -2.829  0.00  0.00     0.028 A 
ATOM     17  C   UNL d   1      -5.453   1.882  -1.433  0.00  0.00     0.060 A 
ATOM     18 CL   UNL d   1      -5.811   3.396  -0.682  0.00  0.00    -0.082 Cl
ENDBRANCH   9  11
ENDBRANCH   7   9
ENDBRANCH   5   7
ENDBRANCH   2   5
BRANCH   1  19
ATOM     19  C   UNL d   1      -1.228  -3.585   1.218  0.00  0.00     0.131 C 
BRANCH  19  20
ATOM     20  C   UNL d   1       0.262  -3.691   0.928  0.00  0.00     0.185 C 
BRANCH  20  21
ATOM     21  O   UNL d   1       0.963  -2.951   1.933  0.00  0.00    -0.351 OA
BRANCH  21  22
ATOM     22  C   UNL d   1       2.329  -2.983   1.865  0.00  0.00     0.068 A 
ATOM     23  C   UNL d   1       3.078  -3.321   0.738  0.00  0.00     0.039 A 
ATOM     24  C   UNL d   1       4.477  -3.327   0.792  0.00  0.00     0.039 A 
ATOM     25  C   UNL d   1       5.136  -2.996   1.975  0.00  0.00     0.068 A 
ATOM     26  C   UNL d   1       4.388  -2.618   3.090  0.00  0.00     0.039 A 
ATOM     27  C   UNL d   1       2.992  -2.613   3.035  0.00  0.00     0.039 A 
BRANCH  25  28
ATOM     28  O   UNL d   1       6.493  -2.973   2.142  0.00  0.00    -0.356 OA
ATOM     29  C   UNL d   1       7.236  -3.814   1.266  0.00  0.00     0.210 C 
ENDBRANCH  25  28
ENDBRANCH  21  22
ENDBRANCH  20  21
ENDBRANCH  19  20
ENDBRANCH   1  19
TORSDOF 9
