REMARK  4 active torsions:
REMARK  status: ('A' for Active; 'I' for Inactive)
REMARK    1  A    between atoms: N_4  and  C_1 
REMARK    2  A    between atoms: N_5  and  C_1 
REMARK    3  A    between atoms: C_2  and  N_5 
REMARK    4  A    between atoms: C_3  and  N_4 
ROOT
ATOM      1  C   UNL d   1       1.044   0.303   0.124  0.00  0.00     0.176 C 
ATOM      2  S   UNL d   1       2.495   0.833   0.774  0.00  0.00    -0.041 SA
ENDROOT
BRANCH   1   3
ATOM      3  N   UNL d   1       0.561   0.626  -1.116  0.00  0.00    -0.331 N 
ATOM      4  H   UNL d   1      -0.403   0.934  -1.080  0.00  0.00     0.168 HD
BRANCH   3   5
ATOM      5  C   UNL d   1       1.269   0.943  -2.306  0.00  0.00     0.062 A 
ATOM      6  C   UNL d   1       2.306   0.132  -2.826  0.00  0.00     0.061 A 
ATOM      7 CL   UNL d   1       2.976  -1.248  -2.025  0.00  0.00    -0.082 Cl
ATOM      8  C   UNL d   1       2.778   0.335  -4.130  0.00  0.00     0.026 A 
ATOM      9  C   UNL d   1       2.246   1.339  -4.929  0.00  0.00     0.002 A 
ATOM     10  C   UNL d   1       1.267   2.179  -4.412  0.00  0.00     0.009 A 
ATOM     11  C   UNL d   1       0.780   2.007  -3.105  0.00  0.00    -0.034 A 
ATOM     12  C   UNL d   1      -0.222   3.023  -2.616  0.00  0.00     0.050 C 
ENDBRANCH   3   5
ENDBRANCH   1   3
BRANCH   1  13
ATOM     13  N   UNL d   1       0.164  -0.323   0.971  0.00  0.00    -0.331 N 
ATOM     14  H   UNL d   1       0.396  -0.173   1.951  0.00  0.00     0.168 HD
BRANCH  13  15
ATOM     15  C   UNL d   1      -1.073  -0.988   0.748  0.00  0.00     0.062 A 
ATOM     16  C   UNL d   1      -2.021  -0.942   1.794  0.00  0.00     0.061 A 
ATOM     17 CL   UNL d   1      -1.671  -0.131   3.287  0.00  0.00    -0.082 Cl
ATOM     18  C   UNL d   1      -3.286  -1.524   1.662  0.00  0.00     0.026 A 
ATOM     19  C   UNL d   1      -3.626  -2.176   0.484  0.00  0.00     0.002 A 
ATOM     20  C   UNL d   1      -2.684  -2.290  -0.534  0.00  0.00     0.009 A 
ATOM     21  C   UNL d   1      -1.390  -1.746  -0.398  0.00  0.00    -0.034 A 
ATOM     22  C   UNL d   1      -0.401  -2.139  -1.457  0.00  0.00     0.050 C 
ENDBRANCH  13  15
ENDBRANCH   1  13
TORSDOF 4
