REMARK  7 active torsions:
REMARK  status: ('A' for Active; 'I' for Inactive)
REMARK    1  A    between atoms: C_8  and  N_1 
REMARK    2  A    between atoms: C_2  and  C_5 
REMARK    3  A    between atoms: C_5  and  O_15 
REMARK    4  A    between atoms: O_15  and  C_20 
REMARK    5  A    between atoms: O_19  and  C_16 
REMARK    6  A    between atoms: C_21  and  O_19 
REMARK    7  A    between atoms: C_20  and  C_21 
ROOT
ATOM      1  C   UNL d   1      -1.589  -2.917   5.176  0.00  0.00     0.202 C 
ENDROOT
BRANCH   1   2
ATOM      2  C   UNL d   1      -2.552  -3.803   5.964  0.00  0.00     0.205 C 
BRANCH   2   3
ATOM      3  O   UNL d   1      -2.061  -4.053   7.290  0.00  0.00    -0.314 OA
BRANCH   3   4
ATOM      4  C   UNL d   1      -2.308  -3.080   8.213  0.00  0.00     0.317 C 
ATOM      5  O   UNL d   1      -2.893  -2.030   7.974  0.00  0.00    -0.257 OA
BRANCH   4   6
ATOM      6  C   UNL d   1      -1.759  -3.452   9.497  0.00  0.00     0.151 A 
ATOM      7  O   UNL d   1      -1.104  -4.648   9.644  0.00  0.00    -0.297 OA
ATOM      8  C   UNL d   1      -0.687  -4.727  10.934  0.00  0.00     0.122 A 
ATOM      9 BR   UNL d   1       0.262  -6.168  11.643  0.00  0.00    -0.023 Br
ATOM     10  C   UNL d   1      -1.059  -3.601  11.630  0.00  0.00     0.048 A 
ATOM     11  C   UNL d   1      -1.755  -2.781  10.707  0.00  0.00     0.047 A 
ENDBRANCH   4   6
ENDBRANCH   3   4
ENDBRANCH   2   3
ENDBRANCH   1   2
BRANCH   1  12
ATOM     12  O   UNL d   1      -2.077  -2.776   3.842  0.00  0.00    -0.349 OA
BRANCH  12  13
ATOM     13  C   UNL d   1      -1.354  -1.981   2.995  0.00  0.00     0.069 A 
ATOM     14  C   UNL d   1      -1.899  -1.843   1.713  0.00  0.00     0.039 A 
ATOM     15  C   UNL d   1      -1.269  -1.052   0.748  0.00  0.00     0.039 A 
ATOM     16  C   UNL d   1      -0.078  -0.394   1.073  0.00  0.00     0.103 A 
ATOM     17  C   UNL d   1       0.481  -0.531   2.350  0.00  0.00     0.039 A 
ATOM     18  C   UNL d   1      -0.161  -1.325   3.307  0.00  0.00     0.039 A 
BRANCH  16  19
ATOM     19  N   UNL d   1       0.590   0.447   0.072  0.00  0.00    -0.116 N 
ATOM     20  O   UNL d   1       1.635   1.023   0.408  0.00  0.00    -0.532 OA
ATOM     21  O   UNL d   1       0.070   0.533  -1.050  0.00  0.00    -0.532 OA
ENDBRANCH  16  19
ENDBRANCH  12  13
ENDBRANCH   1  12
TORSDOF 7
