REMARK  3 active torsions:
REMARK  status: ('A' for Active; 'I' for Inactive)
REMARK    1  A    between atoms: C_8  and  C_3 
REMARK    2  A    between atoms: S_4  and  C_10 
REMARK    3  A    between atoms: C_12  and  C_5 
ROOT
ATOM      1  N   UNL d   1       1.444  -0.596  -0.054  0.00  0.00    -0.349 N 
ATOM      2  HN  UNL d   1       2.334  -1.093  -0.095  1.00  0.00     0.166 HD
ATOM      3  C   UNL d   1       0.257  -1.176  -0.041  0.00  0.00     0.085 A 
ATOM      4  C   UNL d   1       1.311   0.785  -0.003  0.00  0.00     0.050 A 
ATOM      5  S   UNL d   1      -1.075  -0.081   0.047  0.00  0.00    -0.081 SA
ATOM      6  C   UNL d   1       0.008   1.239   0.034  0.00  0.00     0.082 A 
ENDROOT
BRANCH   3   7
ATOM      7  C   UNL d   1       0.027  -2.632  -0.060  0.00  0.00     0.001 A 
ATOM      8  C   UNL d   1       0.960  -3.493   0.541  0.00  0.00     0.054 A 
ATOM      9  C   UNL d   1       0.763  -4.877   0.530  0.00  0.00     0.103 A 
ATOM     10  O   UNL d   1       1.724  -5.646   1.139  0.00  0.00    -0.346 OA
ATOM     11  C   UNL d   1      -0.376  -5.420  -0.070  0.00  0.00     0.102 A 
ATOM     12  C   UNL d   1       1.609  -7.022   0.761  0.00  0.00     0.202 C 
ATOM     13  C   UNL d   1       0.164  -7.486   0.827  0.00  0.00     0.202 C 
ATOM     14  O   UNL d   1      -0.646  -6.763  -0.106  0.00  0.00    -0.346 OA
ATOM     15  C   UNL d   1      -1.298  -4.585  -0.689  0.00  0.00     0.040 A 
ATOM     16  C   UNL d   1      -1.098  -3.201  -0.684  0.00  0.00     0.017 A 
ENDBRANCH   3   7
BRANCH   4  17
ATOM     17  C   UNL d   1       2.470   1.672  -0.014  0.00  0.00    -0.009 A 
ATOM     18  C   UNL d   1       3.639   1.288  -0.689  0.00  0.00     0.015 A 
ATOM     19  C   UNL d   1       4.759   2.127  -0.713  0.00  0.00     0.024 A 
ATOM     20  C   UNL d   1       4.708   3.361  -0.058  0.00  0.00     0.058 A 
ATOM     21  C   UNL d   1       3.562   3.753   0.631  0.00  0.00     0.024 A 
ATOM     22  C   UNL d   1       2.448   2.909   0.652  0.00  0.00     0.015 A 
BRANCH  20  23
ATOM     23  S   UNL d   1       6.139   4.414  -0.060  0.00  0.00     0.171 S 
ATOM     24  O   UNL d   1       5.785   5.649   0.620  0.00  0.00    -0.223 OA
ATOM     25  O   UNL d   1       7.251   3.606   0.401  0.00  0.00    -0.223 OA
ATOM     26  C   UNL d   1       6.405   4.803  -1.767  0.00  0.00     0.167 C 
ENDBRANCH  20  23
ENDBRANCH   4  17
TORSDOF 3
