REMARK  2 active torsions:
REMARK  status: ('A' for Active; 'I' for Inactive)
REMARK       I    between atoms: N_3  and  C_1 
REMARK       I    between atoms: N_6  and  C_1 
REMARK    1  A    between atoms: C_2  and  N_4 
REMARK    2  A    between atoms: C_13  and  N_6 
ROOT
ATOM      1  C   UNL d   1      -1.254  -2.699  -4.548  0.00  0.00     0.124 A 
ATOM      2  C   UNL d   1      -1.528  -4.074  -4.461  0.00  0.00     0.088 A 
ATOM      3  C   UNL d   1      -1.189  -4.858  -3.314  0.00  0.00     0.103 C 
ATOM      4  N   UNL d   1      -0.907  -5.518  -2.397  0.00  0.00    -0.191 NA
ATOM      5  N   UNL d   1      -1.705  -1.984  -5.610  0.00  0.00    -0.351 N 
ATOM      6  HN  UNL d   1      -1.519  -0.984  -5.674  1.00  0.00     0.166 HD
ATOM      7  C   UNL d   1      -2.251  -4.702  -5.483  0.00  0.00     0.028 A 
ATOM      8  C   UNL d   1      -2.405  -2.613  -6.581  0.00  0.00     0.090 A 
ATOM      9  C   UNL d   1      -2.701  -3.960  -6.564  0.00  0.00     0.019 A 
ENDROOT
BRANCH   1  10
ATOM     10  N   UNL d   1      -0.632  -1.994  -3.542  0.00  0.00    -0.363 N 
ATOM     11  C   UNL d   1      -0.888  -0.555  -3.409  0.00  0.00     0.144 C 
ATOM     12  C   UNL d   1      -0.940  -0.219  -1.900  0.00  0.00     0.147 C 
ATOM     13  N   UNL d   1       0.254  -0.707  -1.177  0.00  0.00    -0.331 N 
ATOM     14  C   UNL d   1       0.857  -0.122  -0.072  0.00  0.00     0.323 C 
ATOM     15  C   UNL d   1       0.601  -2.117  -1.452  0.00  0.00     0.147 C 
ATOM     16  N   UNL d   1       0.553   1.204   0.136  0.00  0.00    -0.309 N 
ATOM     17  O   UNL d   1       1.653  -0.760   0.613  0.00  0.00    -0.247 OA
ATOM     18  H   UNL d   1       0.087   1.679  -0.615  0.00  0.00     0.170 HD
ATOM     19  C   UNL d   1       0.656  -2.400  -2.963  0.00  0.00     0.144 C 
BRANCH  16  20
ATOM     20  C   UNL d   1       1.148   2.050   1.099  0.00  0.00     0.038 A 
ATOM     21  C   UNL d   1       1.892   1.589   2.186  0.00  0.00     0.054 A 
ATOM     22  C   UNL d   1       2.569   2.488   3.015  0.00  0.00     0.042 A 
ATOM     23 CL   UNL d   1       3.510   1.839   4.313  0.00  0.00    -0.084 Cl
ATOM     24  C   UNL d   1       2.500   3.868   2.783  0.00  0.00    -0.040 A 
ATOM     25  C   UNL d   1       1.690   4.330   1.737  0.00  0.00     0.011 A 
ATOM     26  C   UNL d   1       3.289   4.848   3.603  0.00  0.00     0.050 C 
ATOM     27  C   UNL d   1       1.014   3.429   0.909  0.00  0.00     0.030 A 
ENDBRANCH  16  20
ENDBRANCH   1  10
TORSDOF 2
