REMARK  4 active torsions:
REMARK  status: ('A' for Active; 'I' for Inactive)
REMARK    1  A    between atoms: C_2  and  C_1 
REMARK       I    between atoms: N_3  and  C_2 
REMARK       I    between atoms: C_6  and  N_3 
REMARK    2  A    between atoms: C_8  and  C_16 
REMARK    3  A    between atoms: N_13  and  C_9 
REMARK    4  A    between atoms: C_16  and  N_13 
ROOT
ATOM      1  C   UNL d   1       0.902   0.012  -0.078  0.00  0.00     0.127 C 
ATOM      2  C   UNL d   1       0.187   1.234  -0.462  0.00  0.00     0.106 C 
ATOM      3  N   UNL d   1      -0.407   2.179  -0.742  0.00  0.00    -0.191 NA
ATOM      4  C   UNL d   1       2.257  -0.002  -0.091  0.00  0.00     0.111 C 
ENDROOT
BRANCH   1   5
ATOM      5  C   UNL d   1       0.134  -1.259   0.310  0.00  0.00     0.270 C 
ATOM      6  N   UNL d   1      -1.260  -1.128   0.260  0.00  0.00    -0.293 N 
ATOM      7  C   UNL d   1      -2.300  -1.983   0.553  0.00  0.00     0.220 C 
ATOM      8  H   UNL d   1      -1.651  -0.248  -0.050  0.00  0.00     0.172 HD
ATOM      9  O   UNL d   1      -3.453  -1.563   0.385  0.00  0.00    -0.274 OA
ATOM     10  C   UNL d   1      -2.073  -3.383   1.053  0.00  0.00     0.117 C 
ATOM     11  O   UNL d   1       0.712  -2.296   0.630  0.00  0.00    -0.266 OA
ENDBRANCH   1   5
BRANCH   4  12
ATOM     12  N   UNL d   1       3.018   1.079  -0.517  0.00  0.00    -0.393 N 
ATOM     13  H   UNL d   1       3.608   0.892  -1.329  0.00  0.00     0.159 HD
BRANCH  12  14
ATOM     14  C   UNL d   1       3.604   2.097   0.359  0.00  0.00     0.165 C 
BRANCH  14  15
ATOM     15  C   UNL d   1       4.409   3.092  -0.428  0.00  0.00    -0.000 A 
ATOM     16  S   UNL d   1       6.093   2.867  -0.645  0.00  0.00    -0.105 SA
ATOM     17  C   UNL d   1       6.209   4.237  -1.662  0.00  0.00     0.050 A 
ATOM     18  C   UNL d   1       4.994   4.863  -1.827  0.00  0.00     0.008 A 
ATOM     19  C   UNL d   1       3.955   4.207  -1.106  0.00  0.00     0.017 A 
ENDBRANCH  14  15
ENDBRANCH  12  14
ENDBRANCH   4  12
TORSDOF 4
