REMARK  6 active torsions:
REMARK  status: ('A' for Active; 'I' for Inactive)
REMARK    1  A    between atoms: C_8  and  N_1 
REMARK    2  A    between atoms: C_7  and  C_4 
REMARK    3  A    between atoms: C_5  and  C_11 
REMARK    4  A    between atoms: C_17  and  C_6 
REMARK    5  A    between atoms: O_21  and  C_15 
REMARK    6  A    between atoms: O_22  and  C_19 
ROOT
ATOM      1  N   UNL d   1       1.054   0.010  -5.755  0.00  0.00    -0.355 N 
ATOM      2  HN  UNL d   1       1.057   1.028  -5.696  1.00  0.00     0.166 HD
ATOM      3  C   UNL d   1       1.032  -2.816  -5.903  0.00  0.00    -0.019 A 
ATOM      4  C   UNL d   1       0.743  -0.743  -4.673  0.00  0.00     0.043 A 
ATOM      5  C   UNL d   1       1.362  -0.614  -6.915  0.00  0.00     0.043 A 
ATOM      6  C   UNL d   1       0.757  -2.138  -4.710  0.00  0.00     0.042 A 
ATOM      7  C   UNL d   1       1.353  -2.007  -7.008  0.00  0.00     0.042 A 
ENDROOT
BRANCH   3   8
ATOM      8  C   UNL d   1       0.957  -4.306  -6.039  0.00  0.00     0.010 A 
ATOM      9  C   UNL d   1       0.068  -5.134  -5.306  0.00  0.00     0.079 A 
ATOM     10  C   UNL d   1       0.001  -6.512  -5.572  0.00  0.00     0.040 A 
ATOM     11  C   UNL d   1       0.794  -7.099  -6.556  0.00  0.00     0.039 A 
ATOM     12  C   UNL d   1       1.681  -6.321  -7.281  0.00  0.00     0.069 A 
ATOM     13  C   UNL d   1       1.777  -4.954  -6.996  0.00  0.00     0.051 A 
BRANCH   9  14
ATOM     14  O   UNL d   1      -0.775  -4.544  -4.393  0.00  0.00    -0.355 OA
ATOM     15  C   UNL d   1      -1.268  -5.375  -3.345  0.00  0.00     0.210 C 
ENDBRANCH   9  14
BRANCH  12  16
ATOM     16  O   UNL d   1       2.484  -6.756  -8.298  0.00  0.00    -0.356 OA
ATOM     17  C   UNL d   1       2.338  -8.117  -8.687  0.00  0.00     0.210 C 
ENDBRANCH  12  16
ENDBRANCH   3   8
BRANCH   4  18
ATOM     18  C   UNL d   1       0.312   0.016  -3.482  0.00  0.00    -0.007 A 
ATOM     19  C   UNL d   1      -0.455   1.188  -3.631  0.00  0.00     0.049 A 
ATOM     20  C   UNL d   1      -0.897   1.903  -2.511  0.00  0.00     0.103 A 
ATOM     21  C   UNL d   1      -0.584   1.468  -1.218  0.00  0.00     0.036 A 
ATOM     22  C   UNL d   1       0.179   0.313  -1.055  0.00  0.00     0.003 A 
ATOM     23  C   UNL d   1       0.621  -0.401  -2.174  0.00  0.00     0.014 A 
BRANCH  20  24
ATOM     24  N   UNL d   1      -1.705   3.114  -2.691  0.00  0.00    -0.116 N 
ATOM     25  O   UNL d   1      -1.988   3.459  -3.848  0.00  0.00    -0.532 OA
ATOM     26  O   UNL d   1      -2.067   3.723  -1.673  0.00  0.00    -0.532 OA
ENDBRANCH  20  24
ENDBRANCH   4  18
BRANCH   5  27
ATOM     27  C   UNL d   1       1.680   0.264  -8.066  0.00  0.00    -0.009 A 
ATOM     28  C   UNL d   1       2.224   1.549  -7.871  0.00  0.00     0.013 A 
ATOM     29  C   UNL d   1       2.525   2.387  -8.951  0.00  0.00     0.001 A 
ATOM     30  C   UNL d   1       2.291   1.962 -10.254  0.00  0.00     0.000 A 
ATOM     31  C   UNL d   1       1.750   0.699 -10.478  0.00  0.00     0.001 A 
ATOM     32  C   UNL d   1       1.447  -0.133  -9.397  0.00  0.00     0.013 A 
ENDBRANCH   5  27
TORSDOF 6
