REMARK  9 active torsions:
REMARK  status: ('A' for Active; 'I' for Inactive)
REMARK    1  A    between atoms: C_4  and  N_1 
REMARK       I    between atoms: C_2  and  N_7 
REMARK       I    between atoms: N_8  and  C_2 
REMARK    2  A    between atoms: C_3  and  C_20 
REMARK       I    between atoms: N_9  and  C_3 
REMARK    3  A    between atoms: C_21  and  N_5 
REMARK    4  A    between atoms: N_7  and  N_9 
REMARK    5  A    between atoms: C_17  and  N_8 
REMARK    6  A    between atoms: S_18  and  C_25 
REMARK    7  A    between atoms: C_20  and  S_18 
REMARK    8  A    between atoms: C_22  and  C_21 
REMARK    9  A    between atoms: C_25  and  C_22 
ROOT
ATOM      1  S   UNL d   1       3.336  -2.712  -4.149  0.00  0.00    -0.160 SA
ENDROOT
BRANCH   1   2
ATOM      2  C   UNL d   1       2.326  -1.250  -3.714  0.00  0.00     0.076 C 
BRANCH   2   3
ATOM      3  C   UNL d   1       2.255  -1.171  -2.194  0.00  0.00     0.040 C 
BRANCH   3   4
ATOM      4  C   UNL d   1       1.488   0.058  -1.696  0.00  0.00     0.273 C 
BRANCH   4   5
ATOM      5  N   UNL d   1       0.088   0.146  -2.139  0.00  0.00     0.091 N 
ATOM      6  C   UNL d   1      -0.734  -1.016  -1.720  0.00  0.00     0.292 C 
ATOM      7  C   UNL d   1      -0.912  -1.171  -0.192  0.00  0.00     0.153 C 
ATOM      8  N   UNL d   1      -1.427   0.077   0.389  0.00  0.00    -0.377 N 
ATOM      9  C   UNL d   1      -0.774   1.326  -0.033  0.00  0.00     0.153 C 
ATOM     10  C   UNL d   1      -0.557   1.361  -1.567  0.00  0.00     0.292 C 
BRANCH   8  11
ATOM     11  C   UNL d   1      -2.581   0.058   1.149  0.00  0.00     0.031 A 
ATOM     12  C   UNL d   1      -3.576   1.035   1.012  0.00  0.00     0.053 A 
ATOM     13  C   UNL d   1      -4.747   0.983   1.772  0.00  0.00     0.036 A 
ATOM     14 CL   UNL d   1      -5.957   2.191   1.554  0.00  0.00    -0.084 Cl
ATOM     15  C   UNL d   1      -4.953  -0.040   2.692  0.00  0.00     0.024 A 
ATOM     16  C   UNL d   1      -3.978  -1.017   2.851  0.00  0.00     0.004 A 
ATOM     17  C   UNL d   1      -2.812  -0.965   2.083  0.00  0.00     0.029 A 
ENDBRANCH   8  11
ENDBRANCH   4   5
ENDBRANCH   3   4
ENDBRANCH   2   3
ENDBRANCH   1   2
BRANCH   1  18
ATOM     18  C   UNL d   1       3.241  -2.599  -5.960  0.00  0.00     0.178 C 
BRANCH  18  19
ATOM     19  C   UNL d   1       3.932  -1.376  -6.535  0.00  0.00     0.245 C 
ATOM     20  N   UNL d   1       4.967  -0.838  -5.780  0.00  0.00    -0.265 N 
ATOM     21  H   UNL d   1       5.410  -1.452  -5.100  0.00  0.00     0.190 HD
ATOM     22  O   UNL d   1       3.639  -0.939  -7.649  0.00  0.00    -0.271 OA
BRANCH  20  23
ATOM     23  N   UNL d   1       5.797   0.067  -6.455  0.00  0.00    -0.249 N 
ATOM     24  C   UNL d   1       6.327   1.205  -5.894  0.00  0.00     0.339 C 
ATOM     25  N   UNL d   1       6.244   1.284  -4.529  0.00  0.00    -0.308 N 
ATOM     26  O   UNL d   1       6.853   2.023  -6.647  0.00  0.00    -0.245 OA
ATOM     27  H   UNL d   1       5.671   0.576  -4.100  0.00  0.00     0.170 HD
ATOM     28  H   UNL d   1       5.688   0.105  -7.470  0.00  0.00     0.192 HD
BRANCH  25  29
ATOM     29  C   UNL d   1       6.841   2.252  -3.693  0.00  0.00     0.036 A 
ATOM     30  C   UNL d   1       7.641   3.297  -4.164  0.00  0.00     0.029 A 
ATOM     31  C   UNL d   1       8.259   4.186  -3.279  0.00  0.00     0.002 A 
ATOM     32  C   UNL d   1       8.080   4.043  -1.907  0.00  0.00     0.000 A 
ATOM     33  C   UNL d   1       7.268   3.021  -1.422  0.00  0.00     0.002 A 
ATOM     34  C   UNL d   1       6.647   2.133  -2.310  0.00  0.00     0.029 A 
ENDBRANCH  25  29
ENDBRANCH  20  23
ENDBRANCH  18  19
ENDBRANCH   1  18
TORSDOF 9
