REMARK  5 active torsions:
REMARK  status: ('A' for Active; 'I' for Inactive)
REMARK    1  A    between atoms: N_2  and  C_1 
REMARK    2  A    between atoms: C_3  and  N_9 
REMARK    3  A    between atoms: S_10  and  C_6 
REMARK    4  A    between atoms: N_9  and  C_12 
REMARK    5  A    between atoms: C_13  and  S_10 
ROOT
ATOM      1  C   UNL d   1       4.610   1.997   1.021  0.00  0.00     0.028 A 
ATOM      2  C   UNL d   1       4.984   1.484  -0.250  0.00  0.00     0.027 A 
ATOM      3  C   UNL d   1       5.167   3.231   1.393  0.00  0.00     0.025 A 
ATOM      4  C   UNL d   1       5.949   2.148  -1.032  0.00  0.00     0.021 A 
ATOM      5  C   UNL d   1       6.529   3.336  -0.597  0.00  0.00     0.001 A 
ATOM      6  C   UNL d   1       6.122   3.887   0.607  0.00  0.00     0.002 A 
ENDROOT
BRANCH   1   7
ATOM      7  N   UNL d   1       3.560   1.397   1.732  0.00  0.00    -0.261 NA
ATOM      8  H   UNL d   1       2.694   1.654   1.261  0.00  0.00     0.130 HD
BRANCH   7   9
ATOM      9  C   UNL d   1       3.366   1.436   3.177  0.00  0.00     0.244 A 
ATOM     10  O   UNL d   1       4.060   2.466   3.894  0.00  0.00    -0.291 OA
ATOM     11  C   UNL d   1       4.805   1.960   4.921  0.00  0.00     0.295 A 
ATOM     12  O   UNL d   1       5.449   2.600   5.729  0.00  0.00    -0.259 OA
ATOM     13  C   UNL d   1       4.654   0.514   4.882  0.00  0.00     0.049 A 
ATOM     14  C   UNL d   1       3.824   0.187   3.829  0.00  0.00     0.002 A 
ATOM     15  C   UNL d   1       5.187  -0.434   5.739  0.00  0.00     0.018 A 
ATOM     16  C   UNL d   1       3.494  -1.136   3.589  0.00  0.00     0.012 A 
ATOM     17  C   UNL d   1       4.026  -2.120   4.428  0.00  0.00     0.001 A 
ATOM     18  C   UNL d   1       4.864  -1.771   5.502  0.00  0.00     0.001 A 
ENDBRANCH   7   9
ENDBRANCH   1   7
BRANCH   2  19
ATOM     19  S   UNL d   1       4.091   0.170  -1.087  0.00  0.00    -0.086 SA
BRANCH  19  20
ATOM     20  C   UNL d   1       4.635  -1.374  -0.385  0.00  0.00     0.038 A 
ATOM     21  C   UNL d   1       5.934  -1.899  -0.365  0.00  0.00     0.121 A 
ATOM     22  C   UNL d   1       6.214  -3.218   0.029  0.00  0.00     0.061 A 
ATOM     23  C   UNL d   1       5.165  -4.043   0.408  0.00  0.00     0.036 A 
ATOM     24  C   UNL d   1       3.859  -3.561   0.409  0.00  0.00     0.025 A 
ATOM     25 CL   UNL d   1       5.468  -5.680   0.838  0.00  0.00    -0.084 Cl
ATOM     26  C   UNL d   1       3.601  -2.241   0.015  0.00  0.00     0.023 A 
BRANCH  21  27
ATOM     27  N   UNL d   1       7.054  -1.129  -0.845  0.00  0.00    -0.114 N 
ATOM     28  O   UNL d   1       7.713  -0.513   0.004  0.00  0.00    -0.532 OA
ATOM     29  O   UNL d   1       7.318  -1.215  -2.050  0.00  0.00    -0.532 OA
ENDBRANCH  21  27
ENDBRANCH  19  20
ENDBRANCH   2  19
TORSDOF 5
