REMARK  3 active torsions:
REMARK  status: ('A' for Active; 'I' for Inactive)
REMARK    1  A    between atoms: C_7  and  C_1 
REMARK    2  A    between atoms: O_9  and  C_4 
REMARK    3  A    between atoms: C_11  and  C_7 
ROOT
ATOM      1  C   UNL d   1      -1.379  -1.431  -0.046  0.00  0.00     0.048 A 
ATOM      2  C   UNL d   1      -1.938  -0.041   0.054  0.00  0.00     0.257 A 
ATOM      3  N   UNL d   1      -1.052   1.028  -0.004  0.00  0.00    -0.317 N 
ATOM      4  C   UNL d   1      -0.046  -1.602  -0.123  0.00  0.00     0.090 A 
ATOM      5  C   UNL d   1       0.876  -0.460  -0.082  0.00  0.00     0.025 A 
ATOM      6  C   UNL d   1       0.360   0.842  -0.036  0.00  0.00     0.050 A 
ATOM      7  O   UNL d   1      -3.153   0.111   0.179  0.00  0.00    -0.267 OA
ATOM      8  C   UNL d   1      -1.602   2.375   0.022  0.00  0.00     0.159 C 
ATOM      9  C   UNL d   1       2.269  -0.652  -0.081  0.00  0.00     0.016 A 
ATOM     10  C   UNL d   1       1.252   1.928  -0.001  0.00  0.00     0.031 A 
ATOM     11  C   UNL d   1       3.143   0.432  -0.031  0.00  0.00     0.001 A 
ATOM     12  C   UNL d   1       2.634   1.724   0.007  0.00  0.00     0.002 A 
ENDROOT
BRANCH   1  13
ATOM     13  C   UNL d   1      -2.395  -2.549   0.029  0.00  0.00     0.085 C 
BRANCH  13  14
ATOM     14  C   UNL d   1      -2.940  -2.956  -1.324  0.00  0.00    -0.054 A 
ATOM     15  C   UNL d   1      -2.392  -4.036  -2.031  0.00  0.00     0.007 A 
ATOM     16  C   UNL d   1      -2.842  -4.345  -3.315  0.00  0.00     0.001 A 
ATOM     17  C   UNL d   1      -3.857  -3.592  -3.900  0.00  0.00     0.000 A 
ATOM     18  C   UNL d   1      -4.437  -2.542  -3.194  0.00  0.00     0.001 A 
ATOM     19  C   UNL d   1      -3.984  -2.227  -1.913  0.00  0.00     0.007 A 
ENDBRANCH  13  14
ENDBRANCH   1  13
BRANCH   4  20
ATOM     20  O   UNL d   1       0.563  -2.835  -0.247  0.00  0.00    -0.359 OA
ATOM     21  H   UNL d   1      -0.091  -3.477  -0.561  0.00  0.00     0.217 HD
ENDBRANCH   4  20
TORSDOF 3
