REMARK  4 active torsions:
REMARK  status: ('A' for Active; 'I' for Inactive)
REMARK       I    between atoms: N_2  and  C_1 
REMARK    1  A    between atoms: O_4  and  C_1 
REMARK    2  A    between atoms: C_5  and  N_2 
REMARK    3  A    between atoms: C_7  and  O_4 
REMARK    4  A    between atoms: C_6  and  C_5 
ROOT
ATOM      1  C   UNL d   1       0.559  -0.775  -0.687  0.00  0.00     0.360 C 
ATOM      2  N   UNL d   1       0.408   0.525  -1.055  0.00  0.00    -0.333 N 
ATOM      3  O   UNL d   1       0.076  -1.195   0.358  0.00  0.00    -0.239 OA
ATOM      4  H   UNL d   1      -0.148   1.070  -0.414  0.00  0.00     0.165 HD
ENDROOT
BRANCH   2   5
ATOM      5  C   UNL d   1       0.969   1.184  -2.210  0.00  0.00     0.163 C 
BRANCH   5   6
ATOM      6  C   UNL d   1      -0.120   1.788  -3.060  0.00  0.00    -0.040 A 
ATOM      7  C   UNL d   1      -0.570   3.098  -2.837  0.00  0.00     0.009 A 
ATOM      8  C   UNL d   1      -1.597   3.638  -3.617  0.00  0.00     0.001 A 
ATOM      9  C   UNL d   1      -2.185   2.872  -4.623  0.00  0.00     0.000 A 
ATOM     10  C   UNL d   1      -1.751   1.567  -4.847  0.00  0.00     0.001 A 
ATOM     11  C   UNL d   1      -0.728   1.026  -4.067  0.00  0.00     0.009 A 
ENDBRANCH   5   6
ENDBRANCH   2   5
BRANCH   1  12
ATOM     12  O   UNL d   1       1.281  -1.517  -1.564  0.00  0.00    -0.304 OA
BRANCH  12  13
ATOM     13  C   UNL d   1       1.520  -2.878  -1.170  0.00  0.00     0.176 C 
ATOM     14  C   UNL d   1       0.352  -3.773  -1.544  0.00  0.00     0.034 C 
ENDBRANCH  12  13
ENDBRANCH   1  12
TORSDOF 4
