REMARK  3 active torsions:
REMARK  status: ('A' for Active; 'I' for Inactive)
REMARK    1  A    between atoms: N_2  and  S_1 
REMARK    2  A    between atoms: C_4  and  S_1 
REMARK    3  A    between atoms: C_3  and  C_5 
ROOT
ATOM      1  C   UNL d   1       0.592  -0.538   1.577  0.00  0.00     0.075 A 
ATOM      2  C   UNL d   1      -1.158  -0.616   3.254  0.00  0.00     0.049 A 
ATOM      3  C   UNL d   1      -0.731  -0.294   1.959  0.00  0.00     0.041 A 
ATOM      4  C   UNL d   1       1.505  -1.106   2.468  0.00  0.00     0.025 A 
ATOM      5  C   UNL d   1      -0.240  -1.200   4.144  0.00  0.00     0.016 A 
ATOM      6  C   UNL d   1       1.081  -1.443   3.753  0.00  0.00     0.002 A 
ENDROOT
BRANCH   1   7
ATOM      7  S   UNL d   1       1.119  -0.011  -0.039  0.00  0.00     0.243 S 
ATOM      8  O   UNL d   1       0.677   1.360  -0.181  0.00  0.00    -0.206 OA
ATOM      9  O   UNL d   1       2.507  -0.378  -0.216  0.00  0.00    -0.206 OA
BRANCH   7  10
ATOM     10  N   UNL d   1       0.174  -0.986  -1.074  0.00  0.00    -0.206 NA
ATOM     11  C   UNL d   1       0.557  -2.415  -1.171  0.00  0.00     0.107 C 
ATOM     12  C   UNL d   1       1.447  -2.484  -2.398  0.00  0.00     0.017 C 
ATOM     13  C   UNL d   1       0.868  -1.446  -3.343  0.00  0.00     0.017 C 
ATOM     14  C   UNL d   1       0.063  -0.487  -2.472  0.00  0.00     0.107 C 
ENDBRANCH   7  10
ENDBRANCH   1   7
BRANCH   2  15
ATOM     15  C   UNL d   1      -2.567  -0.319   3.707  0.00  0.00     0.417 C 
ATOM     16  F   UNL d   1      -3.341   0.254   2.743  0.00  0.00    -0.166 F 
ATOM     17  F   UNL d   1      -3.233  -1.438   4.103  0.00  0.00    -0.166 F 
ATOM     18  F   UNL d   1      -2.602   0.533   4.769  0.00  0.00    -0.166 F 
ENDBRANCH   2  15
TORSDOF 3
