REMARK  6 active torsions:
REMARK  status: ('A' for Active; 'I' for Inactive)
REMARK    1  A    between atoms: C_5  and  C_1 
REMARK    2  A    between atoms: S_7  and  C_5 
REMARK    3  A    between atoms: C_12  and  S_7 
REMARK    4  A    between atoms: C_8  and  C_12 
REMARK    5  A    between atoms: O_13  and  C_8 
REMARK    6  A    between atoms: C_16  and  O_13 
ROOT
ATOM      1  C   UNL d   1       2.440  -0.148   0.054  0.00  0.00     0.085 A 
ATOM      2  S   UNL d   1       1.686   1.406   0.040  0.00  0.00    -0.083 SA
ATOM      3  C   UNL d   1       1.471  -1.140   0.043  0.00  0.00     0.067 A 
ATOM      4  C   UNL d   1       0.114  -0.625   0.026  0.00  0.00     0.004 A 
ATOM      5  C   UNL d   1       0.101   0.767   0.017  0.00  0.00     0.017 A 
ATOM      6 CL   UNL d   1       1.712  -2.848   0.030  0.00  0.00    -0.082 Cl
ATOM      7  C   UNL d   1      -1.144  -1.289   0.010  0.00  0.00     0.014 A 
ATOM      8  C   UNL d   1      -1.101   1.503  -0.007  0.00  0.00     0.020 A 
ATOM      9  C   UNL d   1      -2.340  -0.566  -0.012  0.00  0.00     0.001 A 
ATOM     10  C   UNL d   1      -2.318   0.821  -0.022  0.00  0.00     0.001 A 
ENDROOT
BRANCH   1  11
ATOM     11  C   UNL d   1       3.901  -0.125   0.061  0.00  0.00     0.228 C 
ATOM     12  O   UNL d   1       4.579   0.893  -0.052  0.00  0.00    -0.279 OA
BRANCH  11  13
ATOM     13  S   UNL d   1       4.743  -1.669   0.192  0.00  0.00    -0.077 SA
BRANCH  13  14
ATOM     14  C   UNL d   1       6.348  -1.065   0.795  0.00  0.00     0.193 C 
BRANCH  14  15
ATOM     15  C   UNL d   1       6.237  -0.385   2.144  0.00  0.00     0.268 C 
ATOM     16  O   UNL d   1       5.221  -0.268   2.816  0.00  0.00    -0.264 OA
BRANCH  15  17
ATOM     17  O   UNL d   1       7.465   0.107   2.488  0.00  0.00    -0.321 OA
BRANCH  17  18
ATOM     18  C   UNL d   1       7.483   1.009   3.604  0.00  0.00     0.174 C 
ATOM     19  C   UNL d   1       7.282   2.420   3.079  0.00  0.00     0.034 C 
ENDBRANCH  17  18
ENDBRANCH  15  17
ENDBRANCH  14  15
ENDBRANCH  13  14
ENDBRANCH  11  13
ENDBRANCH   1  11
TORSDOF 6
