REMARK  2 active torsions:
REMARK  status: ('A' for Active; 'I' for Inactive)
REMARK    1  A    between atoms: C_4  and  C_1 
REMARK       I    between atoms: C_2  and  N_3 
REMARK    2  A    between atoms: N_3  and  C_6 
ROOT
ATOM      1  C   UNL d   1       1.404  -0.239   0.124  0.00  0.00    -0.048 A 
ATOM      2  C   UNL d   1       0.568  -1.372   0.042  0.00  0.00     0.037 A 
ATOM      3  C   UNL d   1      -0.826  -1.272  -0.008  0.00  0.00     0.035 A 
ATOM      4  C   UNL d   1       0.785   1.020   0.079  0.00  0.00     0.008 A 
ATOM      5  C   UNL d   1      -0.605   1.137   0.008  0.00  0.00     0.003 A 
ATOM      6  C   UNL d   1      -1.407  -0.003  -0.023  0.00  0.00     0.029 A 
ENDROOT
BRANCH   3   7
ATOM      7  N   UNL d   1      -1.688  -2.391  -0.028  0.00  0.00    -0.328 N 
ATOM      8  C   UNL d   1      -1.328  -3.727   0.010  0.00  0.00     0.218 C 
ATOM      9  O   UNL d   1      -0.193  -4.190   0.021  0.00  0.00    -0.274 OA
ATOM     10  C   UNL d   1      -2.513  -4.660   0.043  0.00  0.00     0.117 C 
ATOM     11  H   UNL d   1      -2.677  -2.179  -0.046  0.00  0.00     0.169 HD
ENDBRANCH   3   7
BRANCH   1  12
ATOM     12  C   UNL d   1       2.932  -0.400   0.228  0.00  0.00    -0.024 C 
ATOM     13  C   UNL d   1       3.518  -0.465  -1.195  0.00  0.00     0.019 C 
ATOM     14  C   UNL d   1       3.596   0.771   0.988  0.00  0.00     0.019 C 
ATOM     15  C   UNL d   1       3.336  -1.690   0.985  0.00  0.00     0.019 C 
ENDBRANCH   1  12
TORSDOF 2
