REMARK  0 active torsions:
REMARK  status: ('A' for Active; 'I' for Inactive)
ROOT
ATOM      1  C   UNL d   1      -0.706   1.243   0.000  0.00  0.00     0.053 A 
ATOM      2  C   UNL d   1      -1.416   0.021  -0.001  0.00  0.00     0.074 A 
ATOM      3  C   UNL d   1       0.708   1.239   0.000  0.00  0.00     0.074 A 
ATOM      4  C   UNL d   1      -0.703  -1.190   0.000  0.00  0.00     0.058 A 
ATOM      5  C   UNL d   1       1.393   0.013  -0.001  0.00  0.00     0.058 A 
ATOM      6  C   UNL d   1       0.691  -1.192  -0.000  0.00  0.00     0.051 A 
ATOM      7  I   UNL d   1      -1.774   3.104   0.004  0.00  0.00    -0.041 I 
ATOM      8 CL   UNL d   1       1.628   2.716   0.003  0.00  0.00    -0.081 Cl
ATOM      9 CL   UNL d   1      -3.155  -0.029  -0.005  0.00  0.00    -0.081 Cl
ATOM     10 CL   UNL d   1      -1.482  -2.736   0.002  0.00  0.00    -0.082 Cl
ATOM     11 CL   UNL d   1       3.121  -0.095  -0.005  0.00  0.00    -0.082 Cl
ENDROOT
TORSDOF 0
