REMARK  6 active torsions:
REMARK  status: ('A' for Active; 'I' for Inactive)
REMARK    1  A    between atoms: N_2  and  C_1 
REMARK    2  A    between atoms: N_3  and  C_1 
REMARK    3  A    between atoms: C_6  and  N_2 
REMARK    4  A    between atoms: N_5  and  N_3 
REMARK    5  A    between atoms: C_9  and  N_5 
REMARK    6  A    between atoms: O_10  and  C_8 
ROOT
ATOM      1  C   UNL d   1       1.055   0.105  -0.044  0.00  0.00     0.191 C 
ATOM      2  S   UNL d   1       2.640   0.417  -0.478  0.00  0.00    -0.039 SA
ENDROOT
BRANCH   1   3
ATOM      3  N   UNL d   1       0.412  -1.115   0.037  0.00  0.00    -0.332 N 
ATOM      4  H   UNL d   1      -0.535  -1.078  -0.326  0.00  0.00     0.168 HD
BRANCH   3   5
ATOM      5  C   UNL d   1       0.989  -2.394   0.184  0.00  0.00     0.036 A 
ATOM      6  C   UNL d   1       2.152  -2.599   0.936  0.00  0.00     0.066 A 
ATOM      7  C   UNL d   1       2.692  -3.879   1.083  0.00  0.00     0.070 A 
ATOM      8  C   UNL d   1       2.052  -4.961   0.478  0.00  0.00     0.037 A 
ATOM      9  C   UNL d   1       0.873  -4.773  -0.244  0.00  0.00     0.005 A 
ATOM     10  C   UNL d   1       0.333  -3.493  -0.376  0.00  0.00     0.029 A 
BRANCH   7  11
ATOM     11  O   UNL d   1       3.819  -4.196   1.792  0.00  0.00    -0.356 OA
ATOM     12  C   UNL d   1       4.506  -3.116   2.417  0.00  0.00     0.210 C 
ENDBRANCH   7  11
ENDBRANCH   3   5
ENDBRANCH   1   3
BRANCH   1  13
ATOM     13  N   UNL d   1       0.241   1.189   0.223  0.00  0.00    -0.276 N 
ATOM     14  H   UNL d   1       0.742   2.073   0.292  0.00  0.00     0.189 HD
BRANCH  13  15
ATOM     15  N   UNL d   1      -0.776   1.051   1.173  0.00  0.00    -0.299 N 
ATOM     16  H   UNL d   1      -0.948   0.111   1.526  0.00  0.00     0.187 HD
BRANCH  15  17
ATOM     17  C   UNL d   1      -1.908   1.873   1.012  0.00  0.00     0.048 A 
ATOM     18  C   UNL d   1      -1.978   2.915   0.076  0.00  0.00     0.031 A 
ATOM     19  C   UNL d   1      -3.072   3.785   0.040  0.00  0.00     0.002 A 
ATOM     20  C   UNL d   1      -4.107   3.642   0.958  0.00  0.00     0.000 A 
ATOM     21  C   UNL d   1      -4.049   2.628   1.909  0.00  0.00     0.002 A 
ATOM     22  C   UNL d   1      -2.955   1.756   1.938  0.00  0.00     0.031 A 
ENDBRANCH  15  17
ENDBRANCH  13  15
ENDBRANCH   1  13
TORSDOF 6
