REMARK  7 active torsions:
REMARK  status: ('A' for Active; 'I' for Inactive)
REMARK    1  A    between atoms: C_2  and  C_1 
REMARK    2  A    between atoms: N_6  and  C_1 
REMARK    3  A    between atoms: C_4  and  C_3 
REMARK    4  A    between atoms: C_10  and  C_5 
REMARK    5  A    between atoms: C_11  and  C_5 
REMARK    6  A    between atoms: O_8  and  C_7 
REMARK    7  A    between atoms: C_9  and  O_8 
ROOT
ATOM      1  C   UNL d   1       0.734  -0.126   0.173  0.00  0.00     0.043 C 
ATOM      2  C   UNL d   1       0.137   1.083   0.069  0.00  0.00     0.031 C 
ENDROOT
BRANCH   1   3
ATOM      3  C   UNL d   1       2.225  -0.027   0.085  0.00  0.00     0.024 A 
ATOM      4  C   UNL d   1       2.911  -0.181  -1.136  0.00  0.00     0.091 A 
ATOM      5  C   UNL d   1       4.306  -0.093  -1.199  0.00  0.00     0.038 A 
ATOM      6  C   UNL d   1       5.035   0.186  -0.046  0.00  0.00     0.003 A 
ATOM      7  C   UNL d   1       4.374   0.348   1.173  0.00  0.00     0.001 A 
ATOM      8  C   UNL d   1       2.979   0.243   1.240  0.00  0.00     0.016 A 
BRANCH   4   9
ATOM      9  O   UNL d   1       2.162  -0.553  -2.277  0.00  0.00    -0.278 OA
BRANCH   9  10
ATOM     10  C   UNL d   1       2.475  -0.031  -3.528  0.00  0.00     0.260 C 
ATOM     11  O   UNL d   1       3.294   0.840  -3.780  0.00  0.00    -0.265 OA
ATOM     12  C   UNL d   1       1.624  -0.717  -4.558  0.00  0.00     0.126 C 
ENDBRANCH   9  10
ENDBRANCH   4   9
ENDBRANCH   1   3
BRANCH   1  13
ATOM     13  N   UNL d   1       0.191  -1.421   0.238  0.00  0.00    -0.376 N 
ATOM     14  C   UNL d   1      -1.245  -1.732   0.333  0.00  0.00     0.149 C 
ATOM     15  C   UNL d   1      -1.617  -2.903  -0.578  0.00  0.00     0.187 C 
ATOM     16  O   UNL d   1      -0.851  -4.075  -0.276  0.00  0.00    -0.388 OA
ATOM     17  C   UNL d   1       0.549  -3.779  -0.397  0.00  0.00     0.187 C 
ATOM     18  C   UNL d   1       0.979  -2.640   0.545  0.00  0.00     0.149 C 
ENDBRANCH   1  13
BRANCH   2  19
ATOM     19  C   UNL d   1      -1.267   1.440  -0.062  0.00  0.00     0.015 C 
ATOM     20  C   UNL d   1      -2.303   1.349   0.807  0.00  0.00    -0.016 C 
BRANCH  20  21
ATOM     21  C   UNL d   1      -2.180   0.871   2.220  0.00  0.00    -0.025 A 
ATOM     22  C   UNL d   1      -1.070   1.173   3.023  0.00  0.00     0.012 A 
ATOM     23  C   UNL d   1      -0.978   0.694   4.334  0.00  0.00     0.001 A 
ATOM     24  C   UNL d   1      -2.005  -0.073   4.876  0.00  0.00     0.000 A 
ATOM     25  C   UNL d   1      -3.128  -0.362   4.107  0.00  0.00     0.001 A 
ATOM     26  C   UNL d   1      -3.215   0.110   2.794  0.00  0.00     0.012 A 
ENDBRANCH  20  21
BRANCH  20  27
ATOM     27  C   UNL d   1      -3.628   1.626   0.182  0.00  0.00    -0.025 A 
ATOM     28  C   UNL d   1      -4.267   0.648  -0.604  0.00  0.00     0.012 A 
ATOM     29  C   UNL d   1      -5.533   0.874  -1.143  0.00  0.00     0.001 A 
ATOM     30  C   UNL d   1      -6.172   2.093  -0.915  0.00  0.00     0.000 A 
ATOM     31  C   UNL d   1      -5.542   3.076  -0.154  0.00  0.00     0.001 A 
ATOM     32  C   UNL d   1      -4.277   2.846   0.394  0.00  0.00     0.012 A 
ENDBRANCH  20  27
ENDBRANCH   2  19
TORSDOF 7
