REMARK  1 active torsions:
REMARK  status: ('A' for Active; 'I' for Inactive)
REMARK    1  A    between atoms: C_8  and  C_3 
ROOT
ATOM      1  N   UNL d   1      -2.271   0.305   0.018  0.00  0.00    -0.308 N 
ATOM      2  HN  UNL d   1      -3.270   0.104   0.052  1.00  0.00     0.170 HD
ATOM      3  C   UNL d   1      -1.856   1.538  -0.008  0.00  0.00     0.126 A 
ATOM      4  C   UNL d   1      -1.361  -0.728  -0.001  0.00  0.00     0.259 A 
ATOM      5  N   UNL d   1      -0.524   1.886  -0.048  0.00  0.00    -0.340 N 
ATOM      6  C   UNL d   1       0.093  -0.430  -0.011  0.00  0.00     0.059 A 
ATOM      7  C   UNL d   1       0.468   0.913  -0.027  0.00  0.00     0.049 A 
ATOM      8  O   UNL d   1      -1.709  -1.905  -0.005  0.00  0.00    -0.267 OA
ATOM      9  C   UNL d   1       1.054  -1.446  -0.002  0.00  0.00     0.019 A 
ATOM     10  C   UNL d   1       1.825   1.242  -0.028  0.00  0.00     0.030 A 
ATOM     11  C   UNL d   1       2.408  -1.110  -0.001  0.00  0.00     0.001 A 
ATOM     12  C   UNL d   1       2.792   0.232  -0.011  0.00  0.00     0.002 A 
ATOM     13  H   UNL d   1      -0.270   2.864  -0.042  0.00  0.00     0.167 HD
ENDROOT
BRANCH   3  14
ATOM     14  C   UNL d   1      -2.909   2.555   0.013  0.00  0.00     0.049 A 
ATOM     15  S   UNL d   1      -2.508   4.221  -0.097  0.00  0.00    -0.098 SA
ATOM     16  C   UNL d   1      -4.149   4.693  -0.022  0.00  0.00     0.050 A 
ATOM     17  C   UNL d   1      -4.992   3.611   0.095  0.00  0.00     0.009 A 
ATOM     18  C   UNL d   1      -4.277   2.379   0.113  0.00  0.00     0.023 A 
ENDBRANCH   3  14
TORSDOF 1
