REMARK  5 active torsions:
REMARK  status: ('A' for Active; 'I' for Inactive)
REMARK    1  A    between atoms: S_2  and  C_1 
REMARK    2  A    between atoms: C_14  and  S_2 
REMARK    3  A    between atoms: C_11  and  C_4 
REMARK    4  A    between atoms: C_5  and  C_18 
REMARK       I    between atoms: N_15  and  C_11 
REMARK    5  A    between atoms: C_26  and  N_15 
ROOT
ATOM      1  C   UNL d   1       0.416  -2.373   0.043  0.00  0.00     0.263 C 
ATOM      2  N   UNL d   1      -0.606  -3.311   0.141  0.00  0.00    -0.323 N 
ATOM      3  O   UNL d   1       0.197  -1.181  -0.158  0.00  0.00    -0.267 OA
ATOM      4  H   UNL d   1      -0.358  -4.236   0.473  0.00  0.00     0.169 HD
ENDROOT
BRANCH   2   5
ATOM      5  C   UNL d   1      -1.970  -3.083  -0.189  0.00  0.00     0.035 A 
ATOM      6  C   UNL d   1      -2.391  -1.954  -0.893  0.00  0.00     0.030 A 
ATOM      7  C   UNL d   1      -3.717  -1.804  -1.301  0.00  0.00     0.016 A 
ATOM      8  C   UNL d   1      -4.676  -2.787  -1.031  0.00  0.00    -0.002 A 
ATOM      9  C   UNL d   1      -4.275  -3.888  -0.259  0.00  0.00     0.016 A 
ATOM     10  C   UNL d   1      -2.934  -4.041   0.149  0.00  0.00     0.030 A 
BRANCH   8  11
ATOM     11  C   UNL d   1      -6.043  -2.688  -1.573  0.00  0.00     0.085 A 
ATOM     12  N   UNL d   1      -7.126  -3.207  -1.030  0.00  0.00    -0.349 N 
ATOM     13  C   UNL d   1      -8.239  -2.922  -1.814  0.00  0.00     0.050 A 
ATOM     14  HN  UNL d   1      -7.144  -3.741  -0.161  1.00  0.00     0.166 HD
ATOM     15  C   UNL d   1      -9.572  -3.285  -1.536  0.00  0.00     0.031 A 
ATOM     16  C   UNL d   1      -7.982  -2.208  -2.983  0.00  0.00     0.034 A 
ATOM     17  C   UNL d   1     -10.594  -2.926  -2.425  0.00  0.00     0.009 A 
ATOM     18  C   UNL d   1     -10.316  -2.211  -3.594  0.00  0.00    -0.061 A 
ATOM     19  C   UNL d   1      -8.996  -1.843  -3.884  0.00  0.00     0.028 A 
ATOM     20  C   UNL d   1     -11.427  -1.842  -4.534  0.00  0.00     0.048 C 
ATOM     21  S   UNL d   1      -6.303  -1.899  -3.089  0.00  0.00    -0.070 SA
ENDBRANCH   8  11
ENDBRANCH   2   5
BRANCH   1  22
ATOM     22  C   UNL d   1       1.802  -2.844   0.232  0.00  0.00     0.080 A 
ATOM     23  C   UNL d   1       2.961  -2.052   0.212  0.00  0.00    -0.017 A 
ATOM     24  C   UNL d   1       4.142  -2.844   0.478  0.00  0.00     0.078 A 
ATOM     25  C   UNL d   1       2.916  -0.573  -0.063  0.00  0.00     0.051 C 
ATOM     26  C   UNL d   1       3.831  -4.183   0.634  0.00  0.00     0.075 A 
ATOM     27  S   UNL d   1       2.165  -4.497   0.466  0.00  0.00    -0.094 SA
BRANCH  24  28
ATOM     28  S   UNL d   1       5.802  -2.291   0.587  0.00  0.00     0.207 S 
ATOM     29  O   UNL d   1       6.596  -3.487   0.361  0.00  0.00    -0.217 OA
ATOM     30  O   UNL d   1       5.913  -1.143  -0.284  0.00  0.00    -0.217 OA
BRANCH  28  31
ATOM     31  C   UNL d   1       6.049  -1.778   2.272  0.00  0.00     0.064 A 
ATOM     32  C   UNL d   1       6.596  -2.680   3.195  0.00  0.00     0.025 A 
ATOM     33  C   UNL d   1       6.811  -2.277   4.516  0.00  0.00     0.025 A 
ATOM     34  C   UNL d   1       6.498  -0.975   4.904  0.00  0.00     0.034 A 
ATOM     35  C   UNL d   1       5.995  -0.062   3.976  0.00  0.00     0.025 A 
ATOM     36 CL   UNL d   1       6.733  -0.492   6.539  0.00  0.00    -0.084 Cl
ATOM     37  C   UNL d   1       5.777  -0.459   2.652  0.00  0.00     0.025 A 
ENDBRANCH  28  31
ENDBRANCH  24  28
ENDBRANCH   1  22
TORSDOF 5
