REMARK  4 active torsions:
REMARK  status: ('A' for Active; 'I' for Inactive)
REMARK    1  A    between atoms: C_3  and  S_1 
REMARK    2  A    between atoms: N_11  and  S_1 
REMARK       I    between atoms: C_2  and  N_8 
REMARK       I    between atoms: N_5  and  C_2 
REMARK    3  A    between atoms: C_4  and  N_5 
REMARK    4  A    between atoms: N_8  and  C_18 
ROOT
ATOM      1  C   UNL d   1      -1.719  -0.265  -6.047  0.00  0.00     0.325 C 
ATOM      2  N   UNL d   1      -2.523   0.089  -7.126  0.00  0.00    -0.309 N 
ATOM      3  N   UNL d   1      -1.288   0.836  -5.328  0.00  0.00    -0.309 N 
ATOM      4  O   UNL d   1      -1.398  -1.421  -5.793  0.00  0.00    -0.247 OA
ATOM      5  H   UNL d   1      -2.723   1.068  -7.250  0.00  0.00     0.170 HD
ATOM      6  H   UNL d   1      -1.624   1.742  -5.614  0.00  0.00     0.170 HD
ENDROOT
BRANCH   3   7
ATOM      7  C   UNL d   1      -0.265   0.829  -4.344  0.00  0.00     0.036 A 
ATOM      8  C   UNL d   1       0.354  -0.338  -3.878  0.00  0.00     0.031 A 
ATOM      9  C   UNL d   1       1.489  -0.283  -3.063  0.00  0.00     0.027 A 
ATOM     10  C   UNL d   1       2.001   0.954  -2.683  0.00  0.00     0.074 A 
ATOM     11  C   UNL d   1       1.345   2.130  -3.057  0.00  0.00     0.027 A 
ATOM     12  C   UNL d   1       0.208   2.064  -3.877  0.00  0.00     0.031 A 
BRANCH  10  13
ATOM     13  S   UNL d   1       3.585   1.032  -1.896  0.00  0.00     0.239 S 
ATOM     14  O   UNL d   1       4.181   2.317  -2.178  0.00  0.00    -0.206 OA
ATOM     15  O   UNL d   1       4.291  -0.208  -2.118  0.00  0.00    -0.206 OA
BRANCH  13  16
ATOM     16  N   UNL d   1       3.196   1.057  -0.266  0.00  0.00    -0.225 NA
ATOM     17  H   UNL d   1       3.499   1.943   0.138  0.00  0.00     0.136 HD
ATOM     18  H   UNL d   1       3.614   0.243   0.188  0.00  0.00     0.136 HD
ENDBRANCH  13  16
ENDBRANCH  10  13
ENDBRANCH   3   7
BRANCH   2  19
ATOM     19  C   UNL d   1      -2.981  -0.791  -8.143  0.00  0.00     0.039 A 
ATOM     20  C   UNL d   1      -2.769  -2.177  -8.130  0.00  0.00     0.053 A 
ATOM     21  C   UNL d   1      -3.186  -2.975  -9.197  0.00  0.00     0.037 A 
ATOM     22 CL   UNL d   1      -2.883  -4.671  -9.158  0.00  0.00    -0.084 Cl
ATOM     23  C   UNL d   1      -3.829  -2.417 -10.290  0.00  0.00     0.048 A 
ATOM     24  C   UNL d   1      -4.067  -1.046 -10.300  0.00  0.00     0.037 A 
ATOM     25  C   UNL d   1      -3.653  -0.235  -9.237  0.00  0.00     0.053 A 
ATOM     26 CL   UNL d   1      -4.869  -0.338 -11.649  0.00  0.00    -0.084 Cl
ENDBRANCH   2  19
TORSDOF 4
