REMARK  9 active torsions:
REMARK  status: ('A' for Active; 'I' for Inactive)
REMARK    1  A    between atoms: N_2  and  S_1 
REMARK    2  A    between atoms: C_3  and  S_1 
REMARK    3  A    between atoms: C_5  and  N_2 
REMARK    4  A    between atoms: C_12  and  N_2 
REMARK    5  A    between atoms: C_8  and  C_5 
REMARK    6  A    between atoms: O_22  and  C_9 
REMARK    7  A    between atoms: C_10  and  C_11 
REMARK       I    between atoms: N_21  and  C_10 
REMARK    8  A    between atoms: C_11  and  C_12 
REMARK    9  A    between atoms: O_23  and  C_14 
ROOT
ATOM      1  N   UNL d   1       0.330  -1.444  -0.662  0.00  0.00    -0.200 NA
ENDROOT
BRANCH   1   2
ATOM      2  S   UNL d   1       1.077  -0.011  -0.041  0.00  0.00     0.244 S 
ATOM      3  O   UNL d   1       0.880   1.025  -1.036  0.00  0.00    -0.206 OA
ATOM      4  O   UNL d   1       2.404  -0.359   0.417  0.00  0.00    -0.206 OA
BRANCH   2   5
ATOM      5  C   UNL d   1       0.156   0.451   1.403  0.00  0.00     0.077 A 
ATOM      6  C   UNL d   1       0.135  -0.399   2.514  0.00  0.00     0.064 A 
ATOM      7  C   UNL d   1      -0.584  -0.037   3.665  0.00  0.00     0.102 A 
ATOM      8  C   UNL d   1      -1.263   1.198   3.688  0.00  0.00     0.101 A 
ATOM      9  C   UNL d   1      -1.195   2.049   2.574  0.00  0.00     0.041 A 
ATOM     10  C   UNL d   1      -0.492   1.683   1.432  0.00  0.00     0.028 A 
BRANCH   7  11
ATOM     11  O   UNL d   1      -0.649  -0.829   4.780  0.00  0.00    -0.353 OA
ATOM     12  C   UNL d   1      -0.018  -2.102   4.749  0.00  0.00     0.210 C 
ENDBRANCH   7  11
BRANCH   8  13
ATOM     13  O   UNL d   1      -2.026   1.743   4.689  0.00  0.00    -0.353 OA
ATOM     14  C   UNL d   1      -2.297   0.977   5.850  0.00  0.00     0.210 C 
ENDBRANCH   8  13
ENDBRANCH   2   5
ENDBRANCH   1   2
BRANCH   1  15
ATOM     15  C   UNL d   1      -1.167  -1.316  -0.760  0.00  0.00     0.172 C 
BRANCH  15  16
ATOM     16  C   UNL d   1      -1.817  -2.594  -1.180  0.00  0.00     0.066 A 
ATOM     17  O   UNL d   1      -2.600  -2.526  -2.297  0.00  0.00    -0.326 OA
ATOM     18  C   UNL d   1      -3.103  -3.767  -2.514  0.00  0.00     0.142 A 
ATOM     19  C   UNL d   1      -2.659  -4.640  -1.549  0.00  0.00     0.027 A 
ATOM     20  C   UNL d   1      -1.827  -3.885  -0.685  0.00  0.00     0.036 A 
ENDBRANCH  15  16
ENDBRANCH   1  15
BRANCH   1  21
ATOM     21  C   UNL d   1       0.895  -1.817  -2.032  0.00  0.00     0.117 C 
BRANCH  21  22
ATOM     22  C   UNL d   1       2.400  -2.057  -2.051  0.00  0.00     0.118 C 
BRANCH  22  23
ATOM     23  C   UNL d   1       2.859  -2.421  -3.448  0.00  0.00     0.218 C 
ATOM     24  O   UNL d   1       2.099  -2.512  -4.405  0.00  0.00    -0.274 OA
ATOM     25  N   UNL d   1       4.220  -2.621  -3.531  0.00  0.00    -0.365 N 
ATOM     26  C   UNL d   1       4.881  -2.916  -4.779  0.00  0.00     0.149 C 
ATOM     27  H   UNL d   1       4.789  -2.492  -2.704  0.00  0.00     0.161 HD
ENDBRANCH  22  23
ENDBRANCH  21  22
ENDBRANCH   1  21
TORSDOF 9
