REMARK  3 active torsions:
REMARK  status: ('A' for Active; 'I' for Inactive)
REMARK    1  A    between atoms: C_6  and  C_1 
REMARK    2  A    between atoms: C_7  and  C_6 
REMARK    3  A    between atoms: O_13  and  C_7 
ROOT
ATOM      1  C   UNL d   1       1.705  -0.964   0.003  0.00  0.00    -0.031 A 
ATOM      2  C   UNL d   1       0.299  -0.607   0.004  0.00  0.00    -0.010 A 
ATOM      3  S   UNL d   1       1.626   1.612   0.000  0.00  0.00    -0.101 SA
ATOM      4  C   UNL d   1       2.510   0.159   0.003  0.00  0.00     0.058 A 
ATOM      5  C   UNL d   1       0.120   0.781   0.001  0.00  0.00     0.015 A 
ATOM      6  C   UNL d   1      -0.865  -1.419   0.008  0.00  0.00     0.037 A 
ATOM      7  C   UNL d   1      -1.161   1.368  -0.000  0.00  0.00     0.021 A 
ATOM      8  C   UNL d   1      -2.135  -0.837   0.004  0.00  0.00     0.035 A 
ATOM      9  C   UNL d   1      -2.286   0.541   0.000  0.00  0.00     0.025 A 
ATOM     10 CL   UNL d   1      -3.531  -1.846   0.001  0.00  0.00    -0.084 Cl
ENDROOT
BRANCH   1  11
ATOM     11  C   UNL d   1       2.242  -2.370   0.000  0.00  0.00     0.151 C 
BRANCH  11  12
ATOM     12  C   UNL d   1       2.458  -2.925   1.393  0.00  0.00     0.262 C 
ATOM     13  O   UNL d   1       2.222  -2.353   2.448  0.00  0.00    -0.265 OA
BRANCH  12  14
ATOM     14  O   UNL d   1       2.974  -4.188   1.296  0.00  0.00    -0.326 OA
ATOM     15  C   UNL d   1       3.235  -4.806   2.558  0.00  0.00     0.213 C 
ENDBRANCH  12  14
ENDBRANCH  11  12
ENDBRANCH   1  11
TORSDOF 3
