REMARK  6 active torsions:
REMARK  status: ('A' for Active; 'I' for Inactive)
REMARK       I    between atoms: C_2  and  N_1 
REMARK    1  A    between atoms: C_5  and  C_2 
REMARK    2  A    between atoms: C_4  and  N_3 
REMARK    3  A    between atoms: C_6  and  C_5 
REMARK    4  A    between atoms: C_16  and  C_6 
REMARK    5  A    between atoms: C_7  and  C_16 
REMARK    6  A    between atoms: O_17  and  C_7 
ROOT
ATOM      1  N   UNL d   1      -1.264  -0.084   0.006  0.00  0.00    -0.349 N 
ATOM      2  C   UNL d   1      -2.361  -0.039   0.855  0.00  0.00     0.220 C 
ATOM      3  N   UNL d   1       1.608  -0.307   0.006  0.00  0.00    -0.364 N 
ATOM      4  C   UNL d   1      -0.631  -1.374  -0.293  0.00  0.00     0.145 C 
ATOM      5  C   UNL d   1      -0.449   1.064  -0.425  0.00  0.00     0.145 C 
ATOM      6  C   UNL d   1       0.774  -1.480   0.334  0.00  0.00     0.144 C 
ATOM      7  C   UNL d   1       0.960   1.004   0.204  0.00  0.00     0.144 C 
ATOM      8  O   UNL d   1      -2.805  -1.059   1.384  0.00  0.00    -0.273 OA
ENDROOT
BRANCH   2   9
ATOM      9  C   UNL d   1      -3.006   1.328   1.103  0.00  0.00     0.112 C 
BRANCH   9  10
ATOM     10  C   UNL d   1      -4.311   1.354   1.959  0.00  0.00    -0.030 C 
ATOM     11  C   UNL d   1      -4.768   2.825   2.105  0.00  0.00     0.016 C 
ATOM     12  C   UNL d   1      -5.454   0.610   1.231  0.00  0.00     0.016 C 
BRANCH  10  13
ATOM     13  C   UNL d   1      -4.144   0.718   3.366  0.00  0.00     0.119 C 
BRANCH  13  14
ATOM     14  C   UNL d   1      -2.959   1.220   4.165  0.00  0.00     0.140 C 
ATOM     15  O   UNL d   1      -2.565   2.375   4.188  0.00  0.00    -0.650 OA
BRANCH  14  16
ATOM     16  O   UNL d   1      -2.371   0.255   4.912  0.00  0.00    -0.776 OA
ATOM     17  H   UNL d   1      -2.763  -0.630   4.788  0.00  0.00     0.167 HD
ENDBRANCH  14  16
ENDBRANCH  13  14
ENDBRANCH  10  13
ENDBRANCH   9  10
ENDBRANCH   2   9
BRANCH   3  18
ATOM     18  C   UNL d   1       2.586  -0.412  -0.977  0.00  0.00     0.102 A 
ATOM     19  N   UNL d   1       2.710   0.564  -1.899  0.00  0.00    -0.352 N 
ATOM     20  C   UNL d   1       3.729   0.488  -2.793  0.00  0.00     0.089 A 
ATOM     21  HN  UNL d   1       2.052   1.343  -1.925  1.00  0.00     0.166 HD
ATOM     22  C   UNL d   1       4.659  -0.531  -2.822  0.00  0.00     0.017 A 
ATOM     23  C   UNL d   1       4.536  -1.538  -1.881  0.00  0.00     0.005 A 
ATOM     24  C   UNL d   1       3.493  -1.478  -0.957  0.00  0.00     0.048 A 
ENDBRANCH   3  18
TORSDOF 6
