REMARK  1 active torsions:
REMARK  status: ('A' for Active; 'I' for Inactive)
REMARK    1  A    between atoms: O_14  and  C_8 
ROOT
ATOM      1  C   UNL d   1      -0.108  -1.342  -0.001  0.00  0.00     0.085 A 
ATOM      2  C   UNL d   1       0.317   0.007   0.000  0.00  0.00     0.072 A 
ATOM      3  N   UNL d   1      -1.430  -1.649  -0.002  0.00  0.00    -0.351 N 
ATOM      4  HN  UNL d   1      -1.737  -2.622  -0.003  1.00  0.00     0.166 HD
ATOM      5  C   UNL d   1       0.865  -2.345  -0.001  0.00  0.00     0.097 A 
ATOM      6  N   UNL d   1      -0.602   1.005   0.001  0.00  0.00    -0.352 N 
ATOM      7  HN  UNL d   1      -0.304   1.981   0.001  1.00  0.00     0.166 HD
ATOM      8  C   UNL d   1       2.230  -2.043  -0.000  0.00  0.00     0.101 A 
ATOM      9  C   UNL d   1       1.696   0.315   0.000  0.00  0.00     0.006 A 
ATOM     10  C   UNL d   1       2.667  -0.715  -0.000  0.00  0.00     0.011 A 
ATOM     11  C   UNL d   1      -2.326  -0.649  -0.002  0.00  0.00     0.059 A 
ATOM     12  C   UNL d   1      -1.908   0.692  -0.000  0.00  0.00     0.059 A 
ATOM     13 CL   UNL d   1       0.399  -4.022   0.001  0.00  0.00    -0.079 Cl
ATOM     14  C   UNL d   1       2.151   1.652   0.000  0.00  0.00     0.014 A 
ATOM     15  C   UNL d   1       4.037  -0.376  -0.001  0.00  0.00     0.015 A 
ATOM     16  C   UNL d   1      -2.864   1.701   0.001  0.00  0.00     0.032 A 
ATOM     17  C   UNL d   1      -3.687  -0.933  -0.004  0.00  0.00     0.032 A 
ATOM     18  C   UNL d   1       4.455   0.953  -0.001  0.00  0.00     0.001 A 
ATOM     19  C   UNL d   1       3.511   1.969  -0.000  0.00  0.00     0.001 A 
ATOM     20  C   UNL d   1      -4.229   1.410   0.000  0.00  0.00     0.002 A 
ATOM     21  C   UNL d   1      -4.643   0.084  -0.003  0.00  0.00     0.002 A 
ENDROOT
BRANCH   8  22
ATOM     22  O   UNL d   1       3.171  -3.047   0.000  0.00  0.00    -0.358 OA
ATOM     23  H   UNL d   1       2.698  -3.901  -0.000  0.00  0.00     0.217 HD
ENDBRANCH   8  22
TORSDOF 1
