REMARK  7 active torsions:
REMARK  status: ('A' for Active; 'I' for Inactive)
REMARK    1  A    between atoms: C_4  and  C_1 
REMARK       I    between atoms: C_2  and  N_3 
REMARK    2  A    between atoms: C_6  and  C_2 
REMARK    3  A    between atoms: N_3  and  C_5 
REMARK    4  A    between atoms: O_7  and  C_4 
REMARK    5  A    between atoms: C_11  and  O_7 
REMARK    6  A    between atoms: C_8  and  C_11 
REMARK    7  A    between atoms: C_13  and  C_8 
ROOT
ATOM      1  C   UNL d   1       0.874  -0.033  -0.005  0.00  0.00     0.066 A 
ATOM      2  C   UNL d   1       0.352  -1.337  -0.037  0.00  0.00     0.051 A 
ATOM      3  C   UNL d   1       0.025   1.062  -0.271  0.00  0.00     0.020 A 
ATOM      4  C   UNL d   1      -1.030  -1.504  -0.237  0.00  0.00     0.030 A 
ATOM      5  C   UNL d   1      -1.332   0.872  -0.521  0.00  0.00     0.001 A 
ATOM      6  C   UNL d   1      -1.864  -0.410  -0.479  0.00  0.00     0.002 A 
ENDROOT
BRANCH   1   7
ATOM      7  C   UNL d   1       2.201   0.281   0.582  0.00  0.00     0.296 C 
ATOM      8  O   UNL d   1       2.663  -0.282   1.565  0.00  0.00    -0.259 OA
BRANCH   7   9
ATOM      9  O   UNL d   1       2.727   1.378  -0.027  0.00  0.00    -0.310 OA
BRANCH   9  10
ATOM     10  C   UNL d   1       3.751   2.015   0.740  0.00  0.00     0.263 C 
BRANCH  10  11
ATOM     11  C   UNL d   1       3.146   2.838   1.881  0.00  0.00     0.183 C 
ATOM     12  O   UNL d   1       1.947   3.118   1.923  0.00  0.00    -0.290 OA
BRANCH  11  13
ATOM     13  C   UNL d   1       4.053   3.393   2.928  0.00  0.00     0.012 A 
ATOM     14  C   UNL d   1       3.612   4.503   3.666  0.00  0.00     0.015 A 
ATOM     15  C   UNL d   1       4.432   5.076   4.640  0.00  0.00     0.001 A 
ATOM     16  C   UNL d   1       5.692   4.539   4.891  0.00  0.00     0.000 A 
ATOM     17  C   UNL d   1       6.130   3.425   4.176  0.00  0.00     0.001 A 
ATOM     18  C   UNL d   1       5.315   2.851   3.196  0.00  0.00     0.015 A 
ENDBRANCH  11  13
ENDBRANCH  10  11
ENDBRANCH   9  10
ENDBRANCH   7   9
ENDBRANCH   1   7
BRANCH   2  19
ATOM     19  N   UNL d   1       1.085  -2.536   0.127  0.00  0.00    -0.322 N 
ATOM     20  C   UNL d   1       2.399  -2.741  -0.256  0.00  0.00     0.256 C 
ATOM     21  O   UNL d   1       3.088  -1.962  -0.905  0.00  0.00    -0.267 OA
ATOM     22  H   UNL d   1       0.538  -3.370   0.293  0.00  0.00     0.169 HD
BRANCH  20  23
ATOM     23  C   UNL d   1       2.926  -4.105   0.057  0.00  0.00     0.032 A 
ATOM     24  C   UNL d   1       3.858  -4.691  -0.810  0.00  0.00     0.018 A 
ATOM     25  C   UNL d   1       4.333  -5.983  -0.563  0.00  0.00     0.025 A 
ATOM     26  C   UNL d   1       3.884  -6.685   0.555  0.00  0.00     0.034 A 
ATOM     27  C   UNL d   1       2.975  -6.102   1.436  0.00  0.00     0.025 A 
ATOM     28 CL   UNL d   1       4.457  -8.280   0.852  0.00  0.00    -0.084 Cl
ATOM     29  C   UNL d   1       2.500  -4.810   1.193  0.00  0.00     0.018 A 
ENDBRANCH  20  23
ENDBRANCH   2  19
TORSDOF 7
