REMARK  6 active torsions:
REMARK  status: ('A' for Active; 'I' for Inactive)
REMARK    1  A    between atoms: C_2  and  N_1 
REMARK       I    between atoms: C_3  and  N_1 
REMARK    2  A    between atoms: N_7  and  C_2 
REMARK    3  A    between atoms: C_4  and  C_3 
REMARK    4  A    between atoms: C_5  and  C_15 
REMARK    5  A    between atoms: C_17  and  C_6 
REMARK    6  A    between atoms: C_8  and  N_7 
ROOT
ATOM      1  C   UNL d   1       3.039   1.387   0.326  0.00  0.00     0.049 A 
ATOM      2  N   UNL d   1       4.994   2.813   0.363  0.00  0.00    -0.373 N 
ATOM      3  HN  UNL d   1       5.860   3.139  -0.066  1.00  0.00     0.164 HD
ATOM      4  C   UNL d   1       2.630   1.895   1.566  0.00  0.00     0.040 A 
ATOM      5  C   UNL d   1       3.406   2.865   2.197  0.00  0.00     0.034 A 
ATOM      6  C   UNL d   1       4.207   1.888  -0.235  0.00  0.00     0.104 A 
ATOM      7  C   UNL d   1       4.571   3.283   1.562  0.00  0.00     0.108 A 
ENDROOT
BRANCH   1   8
ATOM      8  C   UNL d   1       2.201   0.380  -0.373  0.00  0.00     0.259 C 
ATOM      9  N   UNL d   1       2.889  -0.561  -1.135  0.00  0.00    -0.299 N 
ATOM     10  H   UNL d   1       3.895  -0.581  -1.051  0.00  0.00     0.171 HD
ATOM     11  O   UNL d   1       1.001   0.346  -0.131  0.00  0.00    -0.267 OA
BRANCH   9  12
ATOM     12  C   UNL d   1       2.426  -1.399  -2.139  0.00  0.00     0.179 C 
ATOM     13  S   UNL d   1       0.985  -1.278  -2.967  0.00  0.00    -0.040 SA
BRANCH  12  14
ATOM     14  N   UNL d   1       3.335  -2.354  -2.535  0.00  0.00    -0.332 N 
ATOM     15  H   UNL d   1       3.193  -2.731  -3.471  0.00  0.00     0.168 HD
BRANCH  14  16
ATOM     16  C   UNL d   1       4.235  -3.093  -1.725  0.00  0.00     0.056 A 
ATOM     17  C   UNL d   1       5.263  -3.835  -2.328  0.00  0.00     0.060 A 
ATOM     18 CL   UNL d   1       5.547  -3.750  -4.032  0.00  0.00    -0.082 Cl
ATOM     19  C   UNL d   1       6.108  -4.638  -1.556  0.00  0.00     0.026 A 
ATOM     20  C   UNL d   1       5.920  -4.723  -0.177  0.00  0.00     0.002 A 
ATOM     21  C   UNL d   1       4.899  -3.997   0.431  0.00  0.00     0.002 A 
ATOM     22  C   UNL d   1       4.062  -3.186  -0.337  0.00  0.00     0.031 A 
ENDBRANCH  14  16
ENDBRANCH  12  14
ENDBRANCH   9  12
ENDBRANCH   1   8
BRANCH   5  23
ATOM     23  C   UNL d   1       3.029   3.452   3.447  0.00  0.00    -0.060 C 
ATOM     24  C   UNL d   1       2.785   4.028   4.470  0.00  0.00    -0.061 C 
BRANCH  24  25
ATOM     25  C   UNL d   1       2.563   4.797   5.659  0.00  0.00     0.018 A 
ATOM     26  C   UNL d   1       2.663   6.191   5.606  0.00  0.00     0.020 A 
ATOM     27  C   UNL d   1       2.475   6.952   6.760  0.00  0.00     0.001 A 
ATOM     28  C   UNL d   1       2.188   6.322   7.971  0.00  0.00     0.000 A 
ATOM     29  C   UNL d   1       2.087   4.931   8.026  0.00  0.00     0.001 A 
ATOM     30  C   UNL d   1       2.275   4.168   6.871  0.00  0.00     0.020 A 
ENDBRANCH  24  25
ENDBRANCH   5  23
TORSDOF 6
