REMARK  5 active torsions:
REMARK  status: ('A' for Active; 'I' for Inactive)
REMARK    1  A    between atoms: C_2  and  S_1 
REMARK    2  A    between atoms: C_4  and  S_1 
REMARK    3  A    between atoms: C_6  and  C_5 
REMARK       I    between atoms: N_11  and  C_6 
REMARK    4  A    between atoms: C_15  and  C_7 
REMARK    5  A    between atoms: O_16  and  C_15 
ROOT
ATOM      1  C   UNL d   1       1.050   0.916  -1.577  0.00  0.00     0.048 C 
ATOM      2  C   UNL d   1      -0.031   0.784  -2.524  0.00  0.00     0.009 C 
ATOM      3  C   UNL d   1      -1.001  -0.268  -2.619  0.00  0.00     0.044 C 
ATOM      4  C   UNL d   1      -0.188   1.821  -3.486  0.00  0.00    -0.024 C 
ATOM      5  C   UNL d   1       1.750   2.135  -1.494  0.00  0.00     0.022 C 
ATOM      6  C   UNL d   1      -1.870  -0.404  -3.710  0.00  0.00     0.018 C 
ATOM      7  C   UNL d   1       1.465   3.190  -2.352  0.00  0.00     0.002 C 
ATOM      8  C   UNL d   1      -1.888   0.561  -4.699  0.00  0.00     0.002 C 
ATOM      9  C   UNL d   1      -1.089   1.692  -4.557  0.00  0.00     0.012 C 
ATOM     10  C   UNL d   1       0.533   3.016  -3.364  0.00  0.00     0.012 C 
ENDROOT
BRANCH   1  11
ATOM     11  S   UNL d   1       1.483  -0.351  -0.332  0.00  0.00     0.086 S 
ATOM     12  O   UNL d   1       2.409   0.327   0.641  0.00  0.00    -0.247 OA
BRANCH  11  13
ATOM     13  C   UNL d   1       2.516  -1.547  -1.255  0.00  0.00     0.045 A 
ATOM     14  C   UNL d   1       3.522  -2.313  -0.601  0.00  0.00    -0.015 A 
ATOM     15  C   UNL d   1       4.227  -3.299  -1.336  0.00  0.00     0.011 A 
ATOM     16  C   UNL d   1       3.921  -3.578  -2.663  0.00  0.00     0.001 A 
ATOM     17  C   UNL d   1       2.911  -2.868  -3.288  0.00  0.00     0.001 A 
ATOM     18  C   UNL d   1       2.223  -1.865  -2.595  0.00  0.00     0.022 A 
BRANCH  14  19
ATOM     19  C   UNL d   1       3.970  -2.149   0.839  0.00  0.00     0.204 C 
BRANCH  19  20
ATOM     20  O   UNL d   1       2.912  -1.985   1.770  0.00  0.00    -0.396 OA
ATOM     21  H   UNL d   1       2.778  -1.012   1.816  0.00  0.00     0.209 HD
ENDBRANCH  19  20
ENDBRANCH  14  19
ENDBRANCH  11  13
ENDBRANCH   1  11
BRANCH   3  22
ATOM     22  C   UNL d   1      -1.286  -1.165  -1.483  0.00  0.00     0.252 C 
ATOM     23  O   UNL d   1      -1.213  -2.380  -1.619  0.00  0.00    -0.268 OA
ATOM     24  N   UNL d   1      -1.661  -0.509  -0.330  0.00  0.00    -0.361 N 
ATOM     25  C   UNL d   1      -1.862  -1.209   0.906  0.00  0.00     0.149 C 
ATOM     26  H   UNL d   1      -1.700   0.506  -0.327  0.00  0.00     0.162 HD
ENDBRANCH   3  22
TORSDOF 5
