REMARK  3 active torsions:
REMARK  status: ('A' for Active; 'I' for Inactive)
REMARK    1  A    between atoms: C_4  and  C_2 
REMARK    2  A    between atoms: C_9  and  C_3 
REMARK       I    between atoms: N_7  and  C_4 
REMARK    3  A    between atoms: C_8  and  N_7 
ROOT
ATOM      1  S   UNL d   1      -0.905  -0.008  -0.496  0.00  0.00    -0.084 SA
ATOM      2  C   UNL d   1       0.220   1.244  -0.200  0.00  0.00     0.073 A 
ATOM      3  C   UNL d   1       0.253  -1.242  -0.179  0.00  0.00     0.016 A 
ATOM      4  C   UNL d   1       1.471   0.726   0.091  0.00  0.00     0.026 A 
ATOM      5  C   UNL d   1       1.491  -0.690   0.095  0.00  0.00     0.021 A 
ENDROOT
BRANCH   2   6
ATOM      6  C   UNL d   1      -0.100   2.670  -0.219  0.00  0.00     0.263 C 
ATOM      7  N   UNL d   1      -1.414   3.008  -0.516  0.00  0.00    -0.322 N 
ATOM      8  H   UNL d   1      -2.053   2.233  -0.641  0.00  0.00     0.169 HD
ATOM      9  O   UNL d   1       0.768   3.493   0.059  0.00  0.00    -0.267 OA
BRANCH   7  10
ATOM     10  C   UNL d   1      -1.962   4.314  -0.496  0.00  0.00     0.038 A 
ATOM     11  C   UNL d   1      -1.187   5.477  -0.420  0.00  0.00     0.053 A 
ATOM     12  C   UNL d   1      -1.791   6.732  -0.314  0.00  0.00     0.037 A 
ATOM     13 CL   UNL d   1      -0.810   8.141  -0.188  0.00  0.00    -0.084 Cl
ATOM     14  C   UNL d   1      -3.174   6.853  -0.298  0.00  0.00     0.048 A 
ATOM     15  C   UNL d   1      -3.950   5.703  -0.417  0.00  0.00     0.037 A 
ATOM     16  C   UNL d   1      -3.355   4.441  -0.528  0.00  0.00     0.053 A 
ATOM     17 CL   UNL d   1      -5.665   5.839  -0.400  0.00  0.00    -0.084 Cl
ENDBRANCH   7  10
ENDBRANCH   2   6
BRANCH   3  18
ATOM     18  C   UNL d   1      -0.111  -2.669  -0.165  0.00  0.00    -0.019 A 
ATOM     19  C   UNL d   1      -0.995  -3.231  -1.097  0.00  0.00     0.014 A 
ATOM     20  C   UNL d   1      -1.303  -4.597  -1.055  0.00  0.00     0.024 A 
ATOM     21  C   UNL d   1      -0.726  -5.412  -0.084  0.00  0.00     0.034 A 
ATOM     22  C   UNL d   1       0.160  -4.877   0.844  0.00  0.00     0.024 A 
ATOM     23 CL   UNL d   1      -1.107  -7.088  -0.031  0.00  0.00    -0.084 Cl
ATOM     24  C   UNL d   1       0.465  -3.514   0.801  0.00  0.00     0.014 A 
ENDBRANCH   3  18
TORSDOF 3
