REMARK  3 active torsions:
REMARK  status: ('A' for Active; 'I' for Inactive)
REMARK    1  A    between atoms: C_14  and  C_4 
REMARK    2  A    between atoms: C_12  and  C_11 
REMARK    3  A    between atoms: O_16  and  C_12 
ROOT
ATOM      1  N   UNL d   1       0.244   0.667  -0.033  0.00  0.00    -0.240 N 
ATOM      2  C   UNL d   1       0.433  -0.691   0.036  0.00  0.00     0.175 A 
ATOM      3  C   UNL d   1      -0.980   1.304  -0.177  0.00  0.00     0.257 A 
ATOM      4  C   UNL d   1       1.534   1.198   0.033  0.00  0.00     0.141 A 
ATOM      5  N   UNL d   1       2.395   0.192   0.064  0.00  0.00    -0.282 N 
ATOM      6  HN  UNL d   1       3.411   0.283   0.077  1.00  0.00     0.188 HD
ATOM      7  N   UNL d   1       1.706  -0.985   0.078  0.00  0.00    -0.277 N 
ATOM      8  HN  UNL d   1       2.109  -1.921   0.113  1.00  0.00     0.189 HD
ATOM      9  C   UNL d   1      -2.193   0.474  -0.096  0.00  0.00     0.100 A 
ATOM     10  S   UNL d   1      -0.824  -1.869   0.016  0.00  0.00    -0.046 SA
ATOM     11  C   UNL d   1      -2.224  -0.860  -0.013  0.00  0.00     0.088 A 
ATOM     12  O   UNL d   1      -1.065   2.509  -0.366  0.00  0.00    -0.268 OA
ENDROOT
BRANCH   4  13
ATOM     13  C   UNL d   1       1.957   2.606   0.034  0.00  0.00     0.010 A 
ATOM     14  C   UNL d   1       1.278   3.616   0.725  0.00  0.00     0.015 A 
ATOM     15  C   UNL d   1       1.707   4.946   0.659  0.00  0.00     0.001 A 
ATOM     16  C   UNL d   1       2.854   5.277  -0.055  0.00  0.00     0.000 A 
ATOM     17  C   UNL d   1       3.583   4.278  -0.692  0.00  0.00     0.001 A 
ATOM     18  C   UNL d   1       3.137   2.953  -0.647  0.00  0.00     0.015 A 
ENDBRANCH   4  13
BRANCH  11  19
ATOM     19  C   UNL d   1      -3.539  -1.590   0.039  0.00  0.00     0.300 C 
ATOM     20  O   UNL d   1      -3.654  -2.804   0.093  0.00  0.00    -0.259 OA
BRANCH  19  21
ATOM     21  O   UNL d   1      -4.584  -0.719   0.008  0.00  0.00    -0.322 OA
ATOM     22  C   UNL d   1      -5.869  -1.349   0.021  0.00  0.00     0.213 C 
ENDBRANCH  19  21
ENDBRANCH  11  19
TORSDOF 3
