REMARK  2 active torsions:
REMARK  status: ('A' for Active; 'I' for Inactive)
REMARK    1  A    between atoms: S_5  and  C_2 
REMARK    2  A    between atoms: C_7  and  S_5 
ROOT
ATOM      1  C   UNL d   1       0.050   0.448  -0.944  0.00  0.00     0.100 A 
ATOM      2  C   UNL d   1       0.308   1.466  -0.011  0.00  0.00     0.029 A 
ATOM      3  C   UNL d   1      -0.694   0.666  -2.145  0.00  0.00     0.104 C 
ATOM      4  N   UNL d   1      -1.288   0.841  -3.129  0.00  0.00    -0.191 NA
ATOM      5  C   UNL d   1       0.584  -0.828  -0.731  0.00  0.00     0.138 A 
ATOM      6  F   UNL d   1       0.349  -1.815  -1.609  0.00  0.00    -0.204 F 
ATOM      7  C   UNL d   1       1.134   1.178   1.093  0.00  0.00     0.021 A 
ATOM      8  C   UNL d   1       1.674  -0.098   1.280  0.00  0.00     0.004 A 
ATOM      9  C   UNL d   1       1.391  -1.107   0.367  0.00  0.00     0.044 A 
ENDROOT
BRANCH   2  10
ATOM     10  S   UNL d   1      -0.201   3.173  -0.199  0.00  0.00    -0.089 SA
BRANCH  10  11
ATOM     11  C   UNL d   1      -1.972   3.121   0.001  0.00  0.00     0.005 A 
ATOM     12  C   UNL d   1      -2.562   3.129   1.270  0.00  0.00     0.020 A 
ATOM     13  C   UNL d   1      -3.953   3.226   1.403  0.00  0.00     0.025 A 
ATOM     14  C   UNL d   1      -4.756   3.312   0.267  0.00  0.00     0.034 A 
ATOM     15  C   UNL d   1      -4.182   3.297  -1.000  0.00  0.00     0.025 A 
ATOM     16 CL   UNL d   1      -6.462   3.466   0.429  0.00  0.00    -0.084 Cl
ATOM     17  C   UNL d   1      -2.793   3.215  -1.130  0.00  0.00     0.020 A 
ENDBRANCH  10  11
ENDBRANCH   2  10
TORSDOF 2
