REMARK  2 active torsions:
REMARK  status: ('A' for Active; 'I' for Inactive)
REMARK       I    between atoms: C_2  and  N_1 
REMARK       I    between atoms: N_5  and  C_2 
REMARK    1  A    between atoms: C_4  and  C_3 
REMARK    2  A    between atoms: C_13  and  N_5 
ROOT
ATOM      1  N   UNL d   1       1.043  -0.513  -0.112  0.00  0.00    -0.300 N 
ATOM      2  C   UNL d   1       2.147  -1.226  -0.510  0.00  0.00     0.325 C 
ATOM      3  C   UNL d   1      -0.173  -1.216   0.204  0.00  0.00     0.268 C 
ATOM      4  N   UNL d   1       3.246  -0.463  -0.848  0.00  0.00    -0.309 N 
ATOM      5  O   UNL d   1      -1.246  -0.272   0.049  0.00  0.00    -0.360 OA
ATOM      6  O   UNL d   1       2.112  -2.449  -0.575  0.00  0.00    -0.247 OA
ATOM      7  C   UNL d   1       0.812   0.903  -0.124  0.00  0.00     0.157 C 
ATOM      8  C   UNL d   1      -0.693   1.021  -0.221  0.00  0.00     0.191 C 
ATOM      9  H   UNL d   1       3.291   0.463  -0.451  0.00  0.00     0.170 HD
ENDROOT
BRANCH   4  10
ATOM     10  C   UNL d   1       4.382  -0.907  -1.568  0.00  0.00     0.036 A 
ATOM     11  C   UNL d   1       4.441  -2.141  -2.223  0.00  0.00     0.031 A 
ATOM     12  C   UNL d   1       5.543  -2.485  -3.015  0.00  0.00     0.026 A 
ATOM     13  C   UNL d   1       6.600  -1.595  -3.153  0.00  0.00     0.034 A 
ATOM     14  C   UNL d   1       6.577  -0.376  -2.479  0.00  0.00     0.026 A 
ATOM     15 CL   UNL d   1       7.923  -1.988  -4.178  0.00  0.00    -0.084 Cl
ATOM     16  C   UNL d   1       5.470  -0.033  -1.690  0.00  0.00     0.031 A 
ENDBRANCH   4  10
BRANCH   3  17
ATOM     17  C   UNL d   1      -0.189  -1.638   1.648  0.00  0.00     0.031 A 
ATOM     18  S   UNL d   1      -0.220  -3.307   2.054  0.00  0.00    -0.102 SA
ATOM     19  C   UNL d   1      -0.262  -2.970   3.729  0.00  0.00     0.050 A 
ATOM     20  C   UNL d   1      -0.256  -1.618   3.986  0.00  0.00     0.008 A 
ATOM     21  C   UNL d   1      -0.212  -0.851   2.787  0.00  0.00     0.019 A 
ENDBRANCH   3  17
TORSDOF 2
