REMARK  8 active torsions:
REMARK  status: ('A' for Active; 'I' for Inactive)
REMARK    1  A    between atoms: O_15  and  C_1 
REMARK    2  A    between atoms: C_3  and  C_2 
REMARK       I    between atoms: N_7  and  C_3 
REMARK    3  A    between atoms: O_17  and  C_4 
REMARK    4  A    between atoms: O_16  and  C_5 
REMARK       I    between atoms: C_6  and  N_8 
REMARK    5  A    between atoms: C_11  and  C_6 
REMARK    6  A    between atoms: N_8  and  N_7 
REMARK    7  A    between atoms: C_14  and  C_11 
REMARK    8  A    between atoms: C_18  and  C_11 
ROOT
ATOM      1  C   UNL d   1      -2.536   0.681   0.148  0.00  0.00     0.270 C 
ATOM      2  N   UNL d   1      -3.332   1.776  -0.128  0.00  0.00    -0.263 N 
ATOM      3  O   UNL d   1      -1.318   0.693  -0.020  0.00  0.00    -0.266 OA
ATOM      4  H   UNL d   1      -4.344   1.736  -0.228  0.00  0.00     0.190 HD
ENDROOT
BRANCH   2   5
ATOM      5  N   UNL d   1      -2.722   2.955  -0.583  0.00  0.00    -0.267 N 
ATOM      6  C   UNL d   1      -3.473   3.828  -1.341  0.00  0.00     0.244 C 
ATOM      7  O   UNL d   1      -4.634   3.562  -1.661  0.00  0.00    -0.271 OA
ATOM      8  H   UNL d   1      -1.778   3.136  -0.257  0.00  0.00     0.190 HD
BRANCH   6   9
ATOM      9  C   UNL d   1      -2.831   5.176  -1.692  0.00  0.00     0.112 C 
BRANCH   9  10
ATOM     10  C   UNL d   1      -3.109   6.196  -0.592  0.00  0.00    -0.045 A 
ATOM     11  C   UNL d   1      -2.222   6.421   0.471  0.00  0.00     0.008 A 
ATOM     12  C   UNL d   1      -2.509   7.380   1.446  0.00  0.00     0.001 A 
ATOM     13  C   UNL d   1      -3.689   8.116   1.380  0.00  0.00     0.000 A 
ATOM     14  C   UNL d   1      -4.591   7.886   0.345  0.00  0.00     0.001 A 
ATOM     15  C   UNL d   1      -4.306   6.930  -0.630  0.00  0.00     0.008 A 
ENDBRANCH   9  10
BRANCH   9  16
ATOM     16  C   UNL d   1      -1.349   5.118  -2.106  0.00  0.00     0.014 C 
ATOM     17  C   UNL d   1      -1.115   4.319  -3.380  0.00  0.00     0.006 C 
ENDBRANCH   9  16
ENDBRANCH   6   9
ENDBRANCH   2   5
BRANCH   1  18
ATOM     18  C   UNL d   1      -3.205  -0.531   0.711  0.00  0.00     0.039 A 
ATOM     19  C   UNL d   1      -4.481  -0.490   1.277  0.00  0.00     0.057 A 
ATOM     20  C   UNL d   1      -5.017  -1.605   1.943  0.00  0.00     0.105 A 
ATOM     21  C   UNL d   1      -4.262  -2.787   2.030  0.00  0.00     0.135 A 
ATOM     22  C   UNL d   1      -3.014  -2.867   1.370  0.00  0.00     0.105 A 
ATOM     23  C   UNL d   1      -2.483  -1.727   0.749  0.00  0.00     0.057 A 
BRANCH  20  24
ATOM     24  O   UNL d   1      -6.263  -1.337   2.447  0.00  0.00    -0.353 OA
ATOM     25  C   UNL d   1      -6.895  -2.292   3.285  0.00  0.00     0.210 C 
ENDBRANCH  20  24
BRANCH  21  26
ATOM     26  O   UNL d   1      -4.790  -3.875   2.680  0.00  0.00    -0.351 OA
ATOM     27  C   UNL d   1      -3.942  -4.430   3.689  0.00  0.00     0.210 C 
ENDBRANCH  21  26
BRANCH  22  28
ATOM     28  O   UNL d   1      -2.370  -4.081   1.396  0.00  0.00    -0.353 OA
ATOM     29  C   UNL d   1      -1.356  -4.295   0.421  0.00  0.00     0.210 C 
ENDBRANCH  22  28
ENDBRANCH   1  18
TORSDOF 8
