REMARK  7 active torsions:
REMARK  status: ('A' for Active; 'I' for Inactive)
REMARK    1  A    between atoms: N_2  and  C_1 
REMARK    2  A    between atoms: N_4  and  C_1 
REMARK    3  A    between atoms: C_8  and  N_2 
REMARK    4  A    between atoms: C_10  and  N_2 
REMARK    5  A    between atoms: C_3  and  C_5 
REMARK    6  A    between atoms: C_14  and  N_4 
REMARK    7  A    between atoms: C_17  and  C_10 
ROOT
ATOM      1  N   UNL d   1       0.137   0.221   1.174  0.00  0.00    -0.320 N 
ENDROOT
BRANCH   1   2
ATOM      2  C   UNL d   1       0.723  -0.107  -0.050  0.00  0.00     0.179 C 
ATOM      3  S   UNL d   1       0.351  -1.457  -0.999  0.00  0.00    -0.040 SA
BRANCH   2   4
ATOM      4  N   UNL d   1       1.813   0.599  -0.493  0.00  0.00    -0.333 N 
ATOM      5  H   UNL d   1       2.325   0.078  -1.199  0.00  0.00     0.168 HD
BRANCH   4   6
ATOM      6  C   UNL d   1       2.060   1.989  -0.520  0.00  0.00     0.035 A 
ATOM      7  C   UNL d   1       1.243   2.946   0.078  0.00  0.00     0.045 A 
ATOM      8  C   UNL d   1       1.504   4.320  -0.088  0.00  0.00     0.050 A 
ATOM      9  C   UNL d   1       2.590   4.725  -0.882  0.00  0.00     0.016 A 
ATOM     10  C   UNL d   1       3.417   3.772  -1.477  0.00  0.00     0.003 A 
ATOM     11  C   UNL d   1       3.154   2.417  -1.284  0.00  0.00     0.029 A 
BRANCH   8  12
ATOM     12  C   UNL d   1       0.618   5.359   0.551  0.00  0.00     0.417 C 
ATOM     13  F   UNL d   1      -0.347   4.832   1.355  0.00  0.00    -0.166 F 
ATOM     14  F   UNL d   1       1.317   6.228   1.333  0.00  0.00    -0.166 F 
ATOM     15  F   UNL d   1      -0.035   6.124  -0.367  0.00  0.00    -0.166 F 
ENDBRANCH   8  12
ENDBRANCH   4   6
ENDBRANCH   2   4
ENDBRANCH   1   2
BRANCH   1  16
ATOM     16  C   UNL d   1      -1.286   0.068   1.440  0.00  0.00     0.037 A 
ATOM     17  C   UNL d   1      -1.799  -0.066   2.747  0.00  0.00     0.033 A 
ATOM     18  C   UNL d   1      -3.157  -0.302   2.982  0.00  0.00     0.044 A 
ATOM     19  C   UNL d   1      -4.038  -0.352   1.917  0.00  0.00     0.116 A 
ATOM     20  C   UNL d   1      -3.587  -0.140   0.625  0.00  0.00     0.044 A 
ATOM     21  F   UNL d   1      -5.336  -0.594   2.140  0.00  0.00    -0.206 F 
ATOM     22  C   UNL d   1      -2.224   0.083   0.392  0.00  0.00     0.033 A 
ENDBRANCH   1  16
BRANCH   1  23
ATOM     23  C   UNL d   1       1.038   0.471   2.323  0.00  0.00     0.170 C 
BRANCH  23  24
ATOM     24  C   UNL d   1       1.237  -0.703   3.271  0.00  0.00    -0.037 A 
ATOM     25  C   UNL d   1       1.494  -0.440   4.629  0.00  0.00     0.048 A 
ATOM     26  C   UNL d   1       1.683  -1.512   5.475  0.00  0.00     0.105 A 
ATOM     27  O   UNL d   1       1.967  -1.435   6.803  0.00  0.00    -0.323 OA
ATOM     28  C   UNL d   1       1.613  -2.811   5.032  0.00  0.00     0.105 A 
ATOM     29  C   UNL d   1       2.265  -2.820   7.080  0.00  0.00     0.352 C 
ATOM     30  O   UNL d   1       1.849  -3.709   6.025  0.00  0.00    -0.323 OA
ATOM     31  C   UNL d   1       1.351  -3.114   3.718  0.00  0.00     0.040 A 
ATOM     32  C   UNL d   1       1.183  -2.047   2.831  0.00  0.00     0.012 A 
ENDBRANCH  23  24
ENDBRANCH   1  23
TORSDOF 7
