REMARK  4 active torsions:
REMARK  status: ('A' for Active; 'I' for Inactive)
REMARK    1  A    between atoms: C_6  and  C_1 
REMARK    2  A    between atoms: N_19  and  C_2 
REMARK       I    between atoms: N_11  and  C_6 
REMARK    3  A    between atoms: C_7  and  C_13 
REMARK    4  A    between atoms: C_12  and  N_11 
ROOT
ATOM      1  C   UNL d   1       2.457   0.071   0.276  0.00  0.00     0.102 A 
ATOM      2  C   UNL d   1       1.604   1.156   0.117  0.00  0.00     0.062 A 
ATOM      3  C   UNL d   1       0.204   0.806   0.163  0.00  0.00     0.032 A 
ATOM      4  S   UNL d   1       1.585  -1.363   0.562  0.00  0.00    -0.064 SA
ATOM      5  C   UNL d   1       0.094  -0.573   0.346  0.00  0.00     0.088 A 
ATOM      6  N   UNL d   1      -1.031  -1.313   0.357  0.00  0.00    -0.354 N 
ATOM      7  HN  UNL d   1      -1.024  -2.321   0.517  1.00  0.00     0.166 HD
ATOM      8  C   UNL d   1      -1.023   1.521   0.032  0.00  0.00    -0.045 A 
ATOM      9  C   UNL d   1      -2.207   0.756   0.005  0.00  0.00     0.032 A 
ATOM     10  C   UNL d   1      -2.162  -0.624   0.142  0.00  0.00     0.006 A 
ATOM     11  C   UNL d   1      -1.200   3.012  -0.094  0.00  0.00     0.049 C 
ATOM     12  C   UNL d   1      -3.430  -1.421   0.046  0.00  0.00     0.068 C 
ENDROOT
BRANCH   1  13
ATOM     13  C   UNL d   1       3.916   0.090   0.207  0.00  0.00     0.265 C 
ATOM     14  N   UNL d   1       4.562  -1.135   0.296  0.00  0.00    -0.321 N 
ATOM     15  H   UNL d   1       3.969  -1.962   0.311  0.00  0.00     0.169 HD
ATOM     16  O   UNL d   1       4.518   1.152   0.026  0.00  0.00    -0.267 OA
BRANCH  14  17
ATOM     17  C   UNL d   1       5.954  -1.367   0.151  0.00  0.00     0.057 A 
ATOM     18  C   UNL d   1       6.892  -0.329   0.198  0.00  0.00     0.047 A 
ATOM     19  C   UNL d   1       8.252  -0.547  -0.073  0.00  0.00     0.050 A 
ATOM     20  C   UNL d   1       8.686  -1.850  -0.344  0.00  0.00     0.018 A 
ATOM     21  C   UNL d   1       7.777  -2.910  -0.332  0.00  0.00     0.027 A 
ATOM     22  C   UNL d   1       6.421  -2.671  -0.084  0.00  0.00     0.060 A 
ATOM     23 CL   UNL d   1       5.334  -4.017  -0.120  0.00  0.00    -0.082 Cl
BRANCH  19  24
ATOM     24  C   UNL d   1       9.218   0.614  -0.108  0.00  0.00     0.417 C 
ATOM     25  F   UNL d   1       8.647   1.815   0.184  0.00  0.00    -0.166 F 
ATOM     26  F   UNL d   1      10.243   0.465   0.775  0.00  0.00    -0.166 F 
ATOM     27  F   UNL d   1       9.795   0.765  -1.332  0.00  0.00    -0.166 F 
ENDBRANCH  19  24
ENDBRANCH  14  17
ENDBRANCH   1  13
BRANCH   2  28
ATOM     28  N   UNL d   1       2.096   2.394  -0.112  0.00  0.00    -0.397 N 
ATOM     29  H   UNL d   1       3.109   2.547  -0.159  0.00  0.00     0.156 HD
ATOM     30  H   UNL d   1       1.562   3.248  -0.165  0.00  0.00     0.156 HD
ENDBRANCH   2  28
TORSDOF 4
