REMARK  4 active torsions:
REMARK  status: ('A' for Active; 'I' for Inactive)
REMARK    1  A    between atoms: C_12  and  C_3 
REMARK    2  A    between atoms: C_13  and  C_4 
REMARK    3  A    between atoms: C_14  and  C_10 
REMARK    4  A    between atoms: O_25  and  C_21 
ROOT
ATOM      1  C   UNL d   1       0.016  -0.827   0.070  0.00  0.00     0.141 A 
ATOM      2  N   UNL d   1      -0.280   0.533   0.042  0.00  0.00    -0.242 N 
ATOM      3  C   UNL d   1      -2.183  -0.492  -0.011  0.00  0.00     0.147 A 
ATOM      4  C   UNL d   1      -1.187  -1.513   0.025  0.00  0.00     0.053 A 
ATOM      5  N   UNL d   1      -1.623   0.736   0.024  0.00  0.00    -0.287 N 
ATOM      6  HN  UNL d   1      -2.108   1.633   0.035  1.00  0.00     0.187 HD
ATOM      7  N   UNL d   1       1.298  -1.287   0.107  0.00  0.00    -0.343 N 
ATOM      8  HN  UNL d   1       1.501  -2.285   0.156  1.00  0.00     0.167 HD
ATOM      9  C   UNL d   1       0.745   1.498   0.018  0.00  0.00     0.045 A 
ATOM     10  C   UNL d   1       2.037   1.089   0.025  0.00  0.00     0.021 A 
ATOM     11  C   UNL d   1       2.252  -0.404   0.076  0.00  0.00     0.020 A 
ATOM     12  C   UNL d   1       0.346   2.951  -0.022  0.00  0.00     0.071 C 
ATOM     13  C   UNL d   1       3.658  -0.969   0.072  0.00  0.00     0.069 C 
ENDROOT
BRANCH   4  14
ATOM     14  C   UNL d   1      -1.256  -2.971   0.003  0.00  0.00    -0.020 A 
ATOM     15  C   UNL d   1      -0.335  -3.703  -0.764  0.00  0.00     0.015 A 
ATOM     16  C   UNL d   1      -0.331  -5.100  -0.764  0.00  0.00     0.037 A 
ATOM     17  C   UNL d   1      -1.275  -5.798  -0.019  0.00  0.00     0.068 A 
ATOM     18  C   UNL d   1      -2.212  -5.082   0.730  0.00  0.00     0.037 A 
ATOM     19  C   UNL d   1      -2.194  -3.680   0.757  0.00  0.00     0.015 A 
BRANCH  17  20
ATOM     20  O   UNL d   1      -1.385  -7.159   0.054  0.00  0.00    -0.356 OA
ATOM     21  C   UNL d   1      -0.370  -7.914  -0.600  0.00  0.00     0.210 C 
ENDBRANCH  17  20
ENDBRANCH   4  14
BRANCH   3  22
ATOM     22  C   UNL d   1      -3.681  -0.641  -0.098  0.00  0.00     0.434 C 
ATOM     23  F   UNL d   1      -4.090  -1.910  -0.363  0.00  0.00    -0.165 F 
ATOM     24  F   UNL d   1      -4.293  -0.282   1.065  0.00  0.00    -0.165 F 
ATOM     25  F   UNL d   1      -4.221   0.134  -1.078  0.00  0.00    -0.165 F 
ENDBRANCH   3  22
BRANCH  10  26
ATOM     26  C   UNL d   1       3.171   2.019  -0.008  0.00  0.00    -0.022 A 
ATOM     27  C   UNL d   1       3.761   2.449   1.187  0.00  0.00     0.012 A 
ATOM     28  C   UNL d   1       4.880   3.282   1.156  0.00  0.00     0.001 A 
ATOM     29  C   UNL d   1       5.410   3.694  -0.066  0.00  0.00     0.000 A 
ATOM     30  C   UNL d   1       4.820   3.279  -1.260  0.00  0.00     0.001 A 
ATOM     31  C   UNL d   1       3.702   2.444  -1.232  0.00  0.00     0.012 A 
ENDBRANCH  10  26
TORSDOF 4
