REMARK  4 active torsions:
REMARK  status: ('A' for Active; 'I' for Inactive)
REMARK    1  A    between atoms: C_13  and  C_7 
REMARK    2  A    between atoms: C_14  and  C_7 
REMARK    3  A    between atoms: C_15  and  C_8 
REMARK    4  A    between atoms: C_16  and  C_8 
ROOT
ATOM      1  C   UNL d   1       2.294  -0.337  -0.256  0.00  0.00    -0.058 C 
ATOM      2  C   UNL d   1      -1.147   1.130  -0.110  0.00  0.00    -0.041 C 
ATOM      3  C   UNL d   1       0.237   0.547  -0.182  0.00  0.00     0.036 C 
ATOM      4  C   UNL d   1      -0.031  -0.930   0.157  0.00  0.00     0.025 C 
ATOM      5  C   UNL d   1       1.582   0.763   0.523  0.00  0.00     0.025 C 
ATOM      6  C   UNL d   1       1.410  -1.505   0.162  0.00  0.00     0.024 C 
ATOM      7  C   UNL d   1       3.428  -0.280  -0.981  0.00  0.00    -0.013 C 
ATOM      8  C   UNL d   1      -1.540   2.400   0.117  0.00  0.00    -0.009 C 
ATOM      9  C   UNL d   1      -1.976   0.006  -0.586  0.00  0.00     0.005 C 
ATOM     10  C   UNL d   1      -1.276  -1.149  -0.620  0.00  0.00    -0.020 C 
ATOM     11  C   UNL d   1       1.748   0.108   1.922  0.00  0.00     0.010 C 
ATOM     12  C   UNL d   1       1.834  -1.429   1.640  0.00  0.00     0.010 C 
ENDROOT
BRANCH   7  13
ATOM     13  C   UNL d   1       4.085   1.032  -1.172  0.00  0.00    -0.025 A 
ATOM     14  C   UNL d   1       5.021   1.500  -0.240  0.00  0.00     0.012 A 
ATOM     15  C   UNL d   1       5.654   2.729  -0.431  0.00  0.00     0.001 A 
ATOM     16  C   UNL d   1       5.354   3.500  -1.553  0.00  0.00     0.000 A 
ATOM     17  C   UNL d   1       4.417   3.046  -2.481  0.00  0.00     0.001 A 
ATOM     18  C   UNL d   1       3.782   1.816  -2.291  0.00  0.00     0.012 A 
ENDBRANCH   7  13
BRANCH   7  19
ATOM     19  C   UNL d   1       4.065  -1.542  -1.403  0.00  0.00    -0.025 A 
ATOM     20  C   UNL d   1       3.786  -2.128  -2.640  0.00  0.00     0.012 A 
ATOM     21  C   UNL d   1       4.432  -3.308  -3.016  0.00  0.00     0.001 A 
ATOM     22  C   UNL d   1       5.356  -3.908  -2.159  0.00  0.00     0.000 A 
ATOM     23  C   UNL d   1       5.637  -3.331  -0.921  0.00  0.00     0.001 A 
ATOM     24  C   UNL d   1       4.993  -2.155  -0.547  0.00  0.00     0.012 A 
ENDBRANCH   7  19
BRANCH   8  25
ATOM     25  C   UNL d   1      -0.513   3.463   0.206  0.00  0.00    -0.025 A 
ATOM     26  C   UNL d   1       0.045   3.962  -0.982  0.00  0.00     0.012 A 
ATOM     27  C   UNL d   1       0.940   5.031  -0.954  0.00  0.00     0.001 A 
ATOM     28  C   UNL d   1       1.287   5.609   0.263  0.00  0.00     0.000 A 
ATOM     29  C   UNL d   1       0.745   5.115   1.451  0.00  0.00     0.001 A 
ATOM     30  C   UNL d   1      -0.155   4.046   1.425  0.00  0.00     0.012 A 
ENDBRANCH   8  25
BRANCH   8  31
ATOM     31  C   UNL d   1      -2.980   2.760   0.036  0.00  0.00    -0.025 A 
ATOM     32  C   UNL d   1      -3.766   2.822   1.192  0.00  0.00     0.012 A 
ATOM     33  C   UNL d   1      -5.110   3.197   1.105  0.00  0.00     0.001 A 
ATOM     34  C   UNL d   1      -5.674   3.511  -0.134  0.00  0.00     0.000 A 
ATOM     35  C   UNL d   1      -4.891   3.451  -1.290  0.00  0.00     0.001 A 
ATOM     36  C   UNL d   1      -3.550   3.078  -1.200  0.00  0.00     0.012 A 
ENDBRANCH   8  31
TORSDOF 4
