REMARK  4 active torsions:
REMARK  status: ('A' for Active; 'I' for Inactive)
REMARK    1  A    between atoms: C_8  and  C_1 
REMARK    2  A    between atoms: C_3  and  C_14 
REMARK       I    between atoms: N_13  and  C_8 
REMARK    3  A    between atoms: C_14  and  C_9 
REMARK    4  A    between atoms: N_15  and  N_13 
REMARK       I    between atoms: C_16  and  N_15 
ROOT
ATOM      1  C   UNL d   1       1.195   0.822  -0.073  0.00  0.00     0.109 A 
ATOM      2  N   UNL d   1       1.387  -0.564  -0.140  0.00  0.00    -0.349 N 
ATOM      3  HN  UNL d   1       2.291  -1.023  -0.248  1.00  0.00     0.166 HD
ATOM      4  C   UNL d   1       0.230  -1.192  -0.044  0.00  0.00     0.055 A 
ATOM      5  C   UNL d   1      -0.129   1.203   0.076  0.00  0.00     0.086 A 
ATOM      6  S   UNL d   1      -1.147  -0.168   0.099  0.00  0.00    -0.086 SA
ENDROOT
BRANCH   4   7
ATOM      7  C   UNL d   1       0.062  -2.688   0.004  0.00  0.00     0.106 C 
BRANCH   7   8
ATOM      8  C   UNL d   1      -0.107  -3.305  -1.360  0.00  0.00    -0.012 A 
ATOM      9  C   UNL d   1       0.925  -3.749  -2.155  0.00  0.00     0.082 A 
ATOM     10  S   UNL d   1       0.440  -4.372  -3.644  0.00  0.00    -0.077 SA
ATOM     11 CL   UNL d   1       2.608  -3.736  -1.787  0.00  0.00    -0.076 Cl
ATOM     12  C   UNL d   1      -1.220  -4.097  -3.289  0.00  0.00     0.017 A 
ATOM     13  C   UNL d   1      -1.385  -3.534  -2.017  0.00  0.00    -0.009 A 
ATOM     14  C   UNL d   1      -2.317  -4.385  -4.127  0.00  0.00     0.021 A 
ATOM     15  C   UNL d   1      -2.714  -3.279  -1.582  0.00  0.00     0.037 A 
ATOM     16  C   UNL d   1      -3.801  -3.569  -2.411  0.00  0.00     0.035 A 
ATOM     17  C   UNL d   1      -3.609  -4.111  -3.672  0.00  0.00     0.025 A 
ATOM     18 CL   UNL d   1      -5.399  -3.249  -1.855  0.00  0.00    -0.084 Cl
ENDBRANCH   7   8
ENDBRANCH   4   7
BRANCH   1  19
ATOM     19  C   UNL d   1       2.312   1.770  -0.128  0.00  0.00     0.287 C 
ATOM     20  N   UNL d   1       3.542   1.177  -0.300  0.00  0.00    -0.262 N 
ATOM     21  H   UNL d   1       3.638   0.166  -0.404  0.00  0.00     0.190 HD
ATOM     22  O   UNL d   1       2.170   2.990  -0.012  0.00  0.00    -0.264 OA
BRANCH  20  23
ATOM     23  N   UNL d   1       4.701   1.968  -0.309  0.00  0.00    -0.268 N 
ATOM     24  C   UNL d   1       5.819   1.497  -0.963  0.00  0.00     0.232 C 
ATOM     25  O   UNL d   1       5.873   0.398  -1.511  0.00  0.00    -0.272 OA
ATOM     26  C   UNL d   1       7.000   2.430  -0.913  0.00  0.00     0.119 C 
ATOM     27  H   UNL d   1       4.558   2.966  -0.151  0.00  0.00     0.190 HD
ENDBRANCH  20  23
ENDBRANCH   1  19
TORSDOF 4
