REMARK  6 active torsions:
REMARK  status: ('A' for Active; 'I' for Inactive)
REMARK    1  A    between atoms: N_2  and  C_1 
REMARK    2  A    between atoms: N_3  and  C_1 
REMARK    3  A    between atoms: C_4  and  N_2 
REMARK    4  A    between atoms: C_6  and  N_3 
REMARK    5  A    between atoms: O_14  and  C_11 
REMARK    6  A    between atoms: C_17  and  O_14 
ROOT
ATOM      1  C   UNL d   1       1.089   0.535  -0.371  0.00  0.00     0.172 C 
ATOM      2  S   UNL d   1       2.712   0.937  -0.461  0.00  0.00    -0.041 SA
ENDROOT
BRANCH   1   3
ATOM      3  N   UNL d   1       0.612  -0.728  -0.731  0.00  0.00    -0.362 N 
ATOM      4  H   UNL d   1      -0.390  -0.824  -0.816  0.00  0.00     0.162 HD
BRANCH   3   5
ATOM      5  C   UNL d   1       1.414  -1.833  -1.258  0.00  0.00     0.088 C 
ATOM      6  C   UNL d   1       2.269  -2.572  -0.199  0.00  0.00     0.009 C 
ATOM      7  C   UNL d   1       2.603  -3.866  -0.943  0.00  0.00     0.011 C 
ATOM      8  C   UNL d   1       1.382  -3.096   0.949  0.00  0.00     0.007 C 
ATOM      9  C   UNL d   1       1.135  -4.234  -1.149  0.00  0.00    -0.012 C 
ATOM     10  C   UNL d   1       0.577  -2.984  -1.861  0.00  0.00     0.030 C 
ATOM     11  C   UNL d   1       0.613  -4.250   0.295  0.00  0.00     0.005 C 
ENDBRANCH   3   5
ENDBRANCH   1   3
BRANCH   1  12
ATOM     12  N   UNL d   1       0.034   1.333   0.059  0.00  0.00    -0.331 N 
ATOM     13  H   UNL d   1      -0.840   0.845   0.229  0.00  0.00     0.168 HD
BRANCH  12  14
ATOM     14  C   UNL d   1      -0.083   2.718   0.372  0.00  0.00     0.068 A 
ATOM     15  C   UNL d   1      -1.343   3.166   0.840  0.00  0.00     0.095 A 
ATOM     16  C   UNL d   1      -1.561   4.532   1.079  0.00  0.00     0.039 A 
ATOM     17  C   UNL d   1      -0.528   5.452   0.916  0.00  0.00     0.003 A 
ATOM     18  C   UNL d   1       0.720   5.014   0.498  0.00  0.00     0.002 A 
ATOM     19  C   UNL d   1       0.934   3.663   0.214  0.00  0.00     0.032 A 
BRANCH  15  20
ATOM     20  O   UNL d   1      -2.306   2.194   1.030  0.00  0.00    -0.349 OA
BRANCH  20  21
ATOM     21  C   UNL d   1      -3.484   2.608   1.732  0.00  0.00     0.171 C 
ATOM     22  C   UNL d   1      -4.258   1.377   2.166  0.00  0.00     0.034 C 
ENDBRANCH  20  21
ENDBRANCH  15  20
ENDBRANCH  12  14
ENDBRANCH   1  12
TORSDOF 6
