REMARK  7 active torsions:
REMARK  status: ('A' for Active; 'I' for Inactive)
REMARK    1  A    between atoms: O_5  and  C_1 
REMARK       I    between atoms: N_6  and  C_1 
REMARK    2  A    between atoms: N_2  and  C_3 
REMARK    3  A    between atoms: C_4  and  O_5 
REMARK    4  A    between atoms: C_9  and  N_6 
REMARK    5  A    between atoms: O_10  and  C_12 
REMARK    6  A    between atoms: C_13  and  O_10 
REMARK    7  A    between atoms: C_12  and  C_11 
ROOT
ATOM      1  C   UNL d   1       0.731   0.130  -0.466  0.00  0.00     0.370 C 
ATOM      2  N   UNL d   1       0.042  -0.322  -1.570  0.00  0.00    -0.302 N 
ATOM      3  O   UNL d   1       1.930   0.085  -0.256  0.00  0.00    -0.238 OA
ATOM      4  H   UNL d   1      -0.843   0.152  -1.685  0.00  0.00     0.171 HD
ENDROOT
BRANCH   2   5
ATOM      5  C   UNL d   1       0.657  -0.853  -2.709  0.00  0.00     0.036 A 
ATOM      6  C   UNL d   1       1.674  -1.802  -2.618  0.00  0.00     0.030 A 
ATOM      7  C   UNL d   1       2.331  -2.228  -3.771  0.00  0.00     0.011 A 
ATOM      8  C   UNL d   1       2.005  -1.677  -5.020  0.00  0.00    -0.034 A 
ATOM      9  C   UNL d   1       0.938  -0.773  -5.109  0.00  0.00     0.011 A 
ATOM     10  C   UNL d   1       0.244  -0.389  -3.960  0.00  0.00     0.030 A 
BRANCH   8  11
ATOM     11  C   UNL d   1       2.924  -1.901  -6.194  0.00  0.00     0.214 C 
BRANCH  11  12
ATOM     12  O   UNL d   1       4.017  -1.020  -5.952  0.00  0.00    -0.347 OA
BRANCH  12  13
ATOM     13  C   UNL d   1       5.051  -0.984  -6.832  0.00  0.00     0.069 A 
ATOM     14  C   UNL d   1       5.177  -1.744  -7.992  0.00  0.00     0.037 A 
ATOM     15  C   UNL d   1       6.305  -1.587  -8.804  0.00  0.00     0.003 A 
ATOM     16  C   UNL d   1       7.303  -0.675  -8.458  0.00  0.00     0.000 A 
ATOM     17  C   UNL d   1       7.181   0.082  -7.298  0.00  0.00     0.003 A 
ATOM     18  C   UNL d   1       6.057  -0.076  -6.487  0.00  0.00     0.037 A 
ENDBRANCH  12  13
ENDBRANCH  11  12
ENDBRANCH   8  11
ENDBRANCH   2   5
BRANCH   1  19
ATOM     19  O   UNL d   1      -0.192   0.753   0.362  0.00  0.00    -0.259 OA
BRANCH  19  20
ATOM     20  C   UNL d   1       0.026   2.034   0.927  0.00  0.00     0.107 A 
ATOM     21  C   UNL d   1      -0.556   2.323   2.183  0.00  0.00     0.064 A 
ATOM     22  C   UNL d   1      -0.533   3.680   2.560  0.00  0.00     0.032 A 
ATOM     23  C   UNL d   1       0.063   4.673   1.772  0.00  0.00     0.002 A 
ATOM     24  C   UNL d   1       0.681   4.336   0.575  0.00  0.00     0.003 A 
ATOM     25  C   UNL d   1       0.655   3.014   0.143  0.00  0.00     0.040 A 
BRANCH  21  26
ATOM     26  N   UNL d   1      -1.063   1.360   3.041  0.00  0.00    -0.375 N 
ATOM     27  C   UNL d   1      -1.130   1.590   4.496  0.00  0.00     0.149 C 
ATOM     28  C   UNL d   1      -0.834   0.276   5.243  0.00  0.00     0.187 C 
ATOM     29  O   UNL d   1      -1.680  -0.802   4.810  0.00  0.00    -0.388 OA
ATOM     30  C   UNL d   1      -1.524  -1.015   3.395  0.00  0.00     0.187 C 
ATOM     31  C   UNL d   1      -1.919   0.244   2.607  0.00  0.00     0.149 C 
ENDBRANCH  21  26
ENDBRANCH  19  20
ENDBRANCH   1  19
TORSDOF 7
