REMARK  3 active torsions:
REMARK  status: ('A' for Active; 'I' for Inactive)
REMARK    1  A    between atoms: C_8  and  C_3 
REMARK    2  A    between atoms: C_9  and  N_4 
REMARK    3  A    between atoms: O_12  and  C_7 
REMARK       I    between atoms: N_13  and  C_8 
ROOT
ATOM      1  N   UNL d   1      -0.667   1.137   0.090  0.00  0.00    -0.283 N 
ATOM      2  HN  UNL d   1      -1.157   2.028   0.168  1.00  0.00     0.188 HD
ATOM      3  C   UNL d   1      -1.316   0.012   0.084  0.00  0.00     0.149 A 
ATOM      4  N   UNL d   1       0.719   1.085  -0.013  0.00  0.00    -0.220 N 
ATOM      5  C   UNL d   1       1.436  -0.119  -0.064  0.00  0.00     0.269 A 
ATOM      6  C   UNL d   1       0.630  -1.358  -0.059  0.00  0.00     0.115 A 
ATOM      7  C   UNL d   1      -0.698  -1.334   0.004  0.00  0.00     0.104 A 
ATOM      8  O   UNL d   1       2.658  -0.259  -0.091  0.00  0.00    -0.266 OA
ENDROOT
BRANCH   4   9
ATOM      9  C   UNL d   1       1.342   2.378  -0.103  0.00  0.00     0.060 A 
ATOM     10  C   UNL d   1       2.626   2.554  -0.644  0.00  0.00     0.031 A 
ATOM     11  C   UNL d   1       3.204   3.825  -0.751  0.00  0.00     0.002 A 
ATOM     12  C   UNL d   1       2.513   4.947  -0.310  0.00  0.00     0.000 A 
ATOM     13  C   UNL d   1       1.241   4.801   0.234  0.00  0.00     0.002 A 
ATOM     14  C   UNL d   1       0.660   3.531   0.327  0.00  0.00     0.031 A 
ENDBRANCH   4   9
BRANCH   3  15
ATOM     15  C   UNL d   1      -2.843   0.071   0.144  0.00  0.00     0.270 C 
ATOM     16  O   UNL d   1      -3.505  -0.956   0.170  0.00  0.00    -0.266 OA
ATOM     17  N   UNL d   1      -3.386   1.325   0.147  0.00  0.00    -0.365 N 
ATOM     18  H   UNL d   1      -2.785   2.138   0.085  0.00  0.00     0.159 HD
ATOM     19  H   UNL d   1      -4.390   1.436   0.144  0.00  0.00     0.159 HD
ENDBRANCH   3  15
BRANCH   7  20
ATOM     20  O   UNL d   1      -1.428  -2.507  -0.001  0.00  0.00    -0.358 OA
ATOM     21  H   UNL d   1      -2.385  -2.284   0.057  0.00  0.00     0.217 HD
ENDBRANCH   7  20
TORSDOF 3
