REMARK  4 active torsions:
REMARK  status: ('A' for Active; 'I' for Inactive)
REMARK       I    between atoms: N_4  and  C_1 
REMARK       I    between atoms: N_6  and  C_1 
REMARK    1  A    between atoms: C_2  and  O_9 
REMARK    2  A    between atoms: C_8  and  N_4 
REMARK    3  A    between atoms: C_17  and  N_6 
REMARK    4  A    between atoms: O_9  and  C_18 
ROOT
ATOM      1  C   UNL d   1       1.086  -0.049  -0.077  0.00  0.00     0.325 C 
ATOM      2  N   UNL d   1       0.554   1.182  -0.437  0.00  0.00    -0.309 N 
ATOM      3  N   UNL d   1       0.187  -0.784   0.680  0.00  0.00    -0.309 N 
ATOM      4  O   UNL d   1       2.216  -0.428  -0.359  0.00  0.00    -0.247 OA
ATOM      5  H   UNL d   1      -0.334   1.424  -0.029  0.00  0.00     0.170 HD
ATOM      6  H   UNL d   1      -0.774  -0.482   0.662  0.00  0.00     0.170 HD
ENDROOT
BRANCH   2   7
ATOM      7  C   UNL d   1       1.231   2.221  -1.117  0.00  0.00     0.039 A 
ATOM      8  C   UNL d   1       2.497   2.077  -1.690  0.00  0.00     0.069 A 
ATOM      9  C   UNL d   1       3.148   3.172  -2.256  0.00  0.00     0.104 A 
ATOM     10  O   UNL d   1       4.416   2.950  -2.733  0.00  0.00    -0.346 OA
ATOM     11  C   UNL d   1       2.521   4.418  -2.308  0.00  0.00     0.102 A 
ATOM     12  C   UNL d   1       5.136   4.180  -2.849  0.00  0.00     0.202 C 
ATOM     13  C   UNL d   1       4.296   5.212  -3.581  0.00  0.00     0.202 C 
ATOM     14  O   UNL d   1       3.108   5.534  -2.845  0.00  0.00    -0.346 OA
ATOM     15  C   UNL d   1       1.246   4.568  -1.772  0.00  0.00     0.042 A 
ATOM     16  C   UNL d   1       0.602   3.473  -1.180  0.00  0.00     0.032 A 
ENDBRANCH   2   7
BRANCH   3  17
ATOM     17  C   UNL d   1       0.467  -1.955   1.418  0.00  0.00     0.036 A 
ATOM     18  C   UNL d   1       1.745  -2.502   1.561  0.00  0.00     0.032 A 
ATOM     19  C   UNL d   1       1.968  -3.624   2.369  0.00  0.00     0.039 A 
ATOM     20  C   UNL d   1       0.913  -4.206   3.068  0.00  0.00     0.078 A 
ATOM     21  C   UNL d   1      -0.373  -3.691   2.897  0.00  0.00     0.039 A 
ATOM     22  C   UNL d   1      -0.597  -2.572   2.083  0.00  0.00     0.032 A 
BRANCH  20  23
ATOM     23  O   UNL d   1       1.002  -5.258   3.932  0.00  0.00    -0.255 OA
BRANCH  23  24
ATOM     24  C   UNL d   1       2.298  -5.636   4.369  0.00  0.00     0.530 C 
ATOM     25  F   UNL d   1       3.009  -4.576   4.809  0.00  0.00    -0.144 F 
ATOM     26  F   UNL d   1       2.171  -6.505   5.396  0.00  0.00    -0.144 F 
ATOM     27  F   UNL d   1       2.975  -6.254   3.377  0.00  0.00    -0.144 F 
ENDBRANCH  23  24
ENDBRANCH  20  23
ENDBRANCH   3  17
TORSDOF 4
