REMARK  3 active torsions:
REMARK  status: ('A' for Active; 'I' for Inactive)
REMARK    1  A    between atoms: N_7  and  C_1 
REMARK    2  A    between atoms: C_3  and  N_2 
REMARK    3  A    between atoms: C_11  and  N_7 
ROOT
ATOM      1  C   UNL d   1      -0.504  -1.256  -3.075  0.00  0.00    -0.086 C 
ATOM      2  C   UNL d   1      -0.750  -2.184  -3.803  0.00  0.00     0.015 C 
ATOM      3  C   UNL d   1      -0.198  -0.104  -2.186  0.00  0.00     0.088 C 
ATOM      4  C   UNL d   1      -1.516   0.616  -1.874  0.00  0.00     0.052 C 
ATOM      5  C   UNL d   1       0.753   0.848  -2.934  0.00  0.00     0.052 C 
ENDROOT
BRANCH   3   6
ATOM      6  N   UNL d   1       0.471  -0.655  -0.990  0.00  0.00    -0.348 N 
ATOM      7  H   UNL d   1       1.003  -1.492  -1.203  0.00  0.00     0.163 HD
BRANCH   6   8
ATOM      8  C   UNL d   1       1.090   0.040   0.011  0.00  0.00     0.169 C 
ATOM      9  N   UNL d   1       0.444   1.153   0.460  0.00  0.00    -0.362 N 
ATOM     10  H   UNL d   1      -0.560   1.034   0.491  0.00  0.00     0.162 HD
ATOM     11  S   UNL d   1       2.555  -0.544   0.551  0.00  0.00    -0.041 SA
BRANCH   9  12
ATOM     12  C   UNL d   1       0.964   2.168   1.388  0.00  0.00     0.092 C 
ATOM     13  C   UNL d   1      -0.009   3.370   1.615  0.00  0.00     0.031 C 
ATOM     14  C   UNL d   1      -1.339   2.848   2.123  0.00  0.00    -0.024 C 
ATOM     15  C   UNL d   1       0.519   3.934   2.941  0.00  0.00     0.019 C 
ATOM     16  C   UNL d   1      -1.126   2.366   3.356  0.00  0.00    -0.026 C 
ATOM     17  C   UNL d   1       0.327   2.613   3.691  0.00  0.00     0.010 C 
ATOM     18  C   UNL d   1       1.201   1.666   2.847  0.00  0.00     0.034 C 
ENDBRANCH   9  12
ENDBRANCH   6   8
ENDBRANCH   3   6
TORSDOF 3
