REMARK  3 active torsions:
REMARK  status: ('A' for Active; 'I' for Inactive)
REMARK    1  A    between atoms: C_12  and  C_2 
REMARK    2  A    between atoms: C_16  and  C_10 
REMARK    3  A    between atoms: C_13  and  C_11 
ROOT
ATOM      1  N   UNL d   1       0.286   0.618   0.022  0.00  0.00    -0.235 N 
ATOM      2  C   UNL d   1      -0.830   1.446   0.017  0.00  0.00     0.144 A 
ATOM      3  C   UNL d   1       0.131  -0.771   0.052  0.00  0.00     0.130 A 
ATOM      4  N   UNL d   1       1.597   0.953   0.009  0.00  0.00    -0.295 N 
ATOM      5  HN  UNL d   1       1.989   1.894   0.008  1.00  0.00     0.187 HD
ATOM      6  N   UNL d   1      -1.092  -1.375   0.089  0.00  0.00    -0.340 N 
ATOM      7  HN  UNL d   1      -1.184  -2.390   0.127  1.00  0.00     0.167 HD
ATOM      8  C   UNL d   1      -2.063   0.898   0.037  0.00  0.00     0.067 A 
ATOM      9  C   UNL d   1       1.397  -1.304   0.039  0.00  0.00     0.077 A 
ATOM     10  C   UNL d   1       2.275  -0.201  -0.003  0.00  0.00     0.037 A 
ATOM     11  C   UNL d   1      -2.135  -0.598   0.072  0.00  0.00     0.046 A 
ENDROOT
BRANCH  11  12
ATOM     12  C   UNL d   1      -3.491  -1.214   0.127  0.00  0.00    -0.006 A 
ATOM     13  C   UNL d   1      -3.642  -2.408   0.849  0.00  0.00     0.053 A 
ATOM     14  C   UNL d   1      -4.896  -2.975   0.906  0.00  0.00     0.105 A 
ATOM     15  O   UNL d   1      -5.225  -4.115   1.571  0.00  0.00    -0.323 OA
ATOM     16  C   UNL d   1      -5.977  -2.409   0.271  0.00  0.00     0.105 A 
ATOM     17  C   UNL d   1      -6.641  -4.187   1.306  0.00  0.00     0.352 A 
ATOM     18  O   UNL d   1      -7.118  -3.124   0.454  0.00  0.00    -0.323 OA
ATOM     19  C   UNL d   1      -5.861  -1.249  -0.464  0.00  0.00     0.040 A 
ATOM     20  C   UNL d   1      -4.600  -0.644  -0.538  0.00  0.00     0.016 A 
ENDBRANCH  11  12
BRANCH   2  21
ATOM     21  C   UNL d   1      -0.638   2.916   0.001  0.00  0.00     0.434 C 
ATOM     22  F   UNL d   1       0.633   3.374  -0.037  0.00  0.00    -0.165 F 
ATOM     23  F   UNL d   1      -1.273   3.467  -1.072  0.00  0.00    -0.165 F 
ATOM     24  F   UNL d   1      -1.216   3.485   1.096  0.00  0.00    -0.165 F 
ENDBRANCH   2  21
BRANCH  10  25
ATOM     25  C   UNL d   1       3.795  -0.204  -0.015  0.00  0.00    -0.007 C 
ATOM     26  C   UNL d   1       4.321  -0.212   1.433  0.00  0.00     0.021 C 
ATOM     27  C   UNL d   1       4.339  -1.448  -0.749  0.00  0.00     0.021 C 
ATOM     28  C   UNL d   1       4.356   1.042  -0.736  0.00  0.00     0.021 C 
ENDBRANCH  10  25
TORSDOF 3
