REMARK  6 active torsions:
REMARK  status: ('A' for Active; 'I' for Inactive)
REMARK    1  A    between atoms: N_24  and  C_5 
REMARK    2  A    between atoms: C_6  and  N_23 
REMARK    3  A    between atoms: C_25  and  C_19 
REMARK    4  A    between atoms: C_26  and  C_20 
REMARK    5  A    between atoms: C_27  and  C_21 
REMARK    6  A    between atoms: C_28  and  C_22 
ROOT
ATOM      1  N   UNL d   1      -0.038   5.756   0.042  0.00  0.00    -0.363 N 
ATOM      2  N   UNL d   1      -0.640   2.904  -0.096  0.00  0.00    -0.363 N 
ATOM      3  C   UNL d   1       0.647   3.468  -0.601  0.00  0.00     0.144 C 
ATOM      4  C   UNL d   1      -1.339   5.251   0.540  0.00  0.00     0.144 C 
ATOM      5  C   UNL d   1       0.476   4.924  -1.067  0.00  0.00     0.144 C 
ATOM      6  C   UNL d   1      -1.219   3.768   0.974  0.00  0.00     0.144 C 
ENDROOT
BRANCH   1   7
ATOM      7  C   UNL d   1       0.520   7.002   0.395  0.00  0.00     0.129 A 
ATOM      8  N   UNL d   1      -0.306   8.104   0.772  0.00  0.00    -0.224 N 
ATOM      9  C   UNL d   1       0.267   9.329   1.138  0.00  0.00     0.131 A 
ATOM     10  N   UNL d   1      -1.668   8.177   0.828  0.00  0.00    -0.294 N 
ATOM     11  C   UNL d   1      -0.776  10.169   1.442  0.00  0.00     0.077 A 
ATOM     12  N   UNL d   1       1.614   9.544   1.165  0.00  0.00    -0.337 N 
ATOM     13  C   UNL d   1      -1.953   9.417   1.236  0.00  0.00     0.037 A 
ATOM     14  C   UNL d   1       2.378   8.542   0.822  0.00  0.00     0.121 A 
ATOM     15  HN  UNL d   1       2.006  10.445   1.439  1.00  0.00     0.167 HD
ATOM     16  C   UNL d   1       1.852   7.200   0.407  0.00  0.00     0.084 A 
ATOM     17  HN  UNL d   1      -2.332   7.437   0.603  1.00  0.00     0.187 HD
BRANCH  13  18
ATOM     18  C   UNL d   1      -3.394   9.847   1.464  0.00  0.00    -0.007 C 
ATOM     19  C   UNL d   1      -3.789   9.563   2.927  0.00  0.00     0.021 C 
ATOM     20  C   UNL d   1      -3.571  11.353   1.186  0.00  0.00     0.021 C 
ATOM     21  C   UNL d   1      -4.367   9.084   0.538  0.00  0.00     0.021 C 
ENDBRANCH  13  18
BRANCH  14  22
ATOM     22  C   UNL d   1       3.900   8.707   0.836  0.00  0.00     0.432 C 
ATOM     23  F   UNL d   1       4.559   7.563   0.493  0.00  0.00    -0.165 F 
ATOM     24  F   UNL d   1       4.323   9.659  -0.038  0.00  0.00    -0.165 F 
ATOM     25  F   UNL d   1       4.373   9.061   2.062  0.00  0.00    -0.165 F 
ENDBRANCH  14  22
ENDBRANCH   1   7
BRANCH   2  26
ATOM     26  C   UNL d   1      -0.802   1.499   0.003  0.00  0.00     0.129 A 
ATOM     27  N   UNL d   1       0.314   0.635   0.209  0.00  0.00    -0.224 N 
ATOM     28  C   UNL d   1       0.146  -0.753   0.245  0.00  0.00     0.131 A 
ATOM     29  N   UNL d   1       1.620   0.966   0.415  0.00  0.00    -0.294 N 
ATOM     30  N   UNL d   1      -1.070  -1.355   0.106  0.00  0.00    -0.337 N 
ATOM     31  C   UNL d   1       1.399  -1.289   0.425  0.00  0.00     0.077 A 
ATOM     32  C   UNL d   1      -2.103  -0.572  -0.064  0.00  0.00     0.121 A 
ATOM     33  HN  UNL d   1      -1.169  -2.370   0.133  1.00  0.00     0.167 HD
ATOM     34  C   UNL d   1      -2.017   0.927  -0.119  0.00  0.00     0.084 A 
ATOM     35  C   UNL d   1       2.281  -0.191   0.518  0.00  0.00     0.037 A 
ATOM     36  HN  UNL d   1       2.012   1.905   0.477  1.00  0.00     0.187 HD
BRANCH  32  37
ATOM     37  C   UNL d   1      -3.494  -1.187  -0.229  0.00  0.00     0.432 C 
ATOM     38  F   UNL d   1      -4.472  -0.251  -0.391  0.00  0.00    -0.165 F 
ATOM     39  F   UNL d   1      -3.571  -2.005  -1.314  0.00  0.00    -0.165 F 
ATOM     40  F   UNL d   1      -3.860  -1.932   0.849  0.00  0.00    -0.165 F 
ENDBRANCH  32  37
BRANCH  35  41
ATOM     41  C   UNL d   1       3.784  -0.193   0.743  0.00  0.00    -0.007 C 
ATOM     42  C   UNL d   1       4.083  -0.207   2.255  0.00  0.00     0.021 C 
ATOM     43  C   UNL d   1       4.437  -1.431   0.096  0.00  0.00     0.021 C 
ATOM     44  C   UNL d   1       4.446   1.060   0.126  0.00  0.00     0.021 C 
ENDBRANCH  35  41
ENDBRANCH   2  26
TORSDOF 6
