REMARK  4 active torsions:
REMARK  status: ('A' for Active; 'I' for Inactive)
REMARK    1  A    between atoms: C_5  and  C_1 
REMARK    2  A    between atoms: N_2  and  C_5 
REMARK    3  A    between atoms: C_6  and  C_7 
REMARK    4  A    between atoms: O_18  and  C_8 
ROOT
ATOM      1  N   UNL d   1      -3.357  -0.847  -0.191  0.00  0.00     0.092 N 
ATOM      2  C   UNL d   1      -4.803   1.497  -0.175  0.00  0.00     0.025 C 
ATOM      3  C   UNL d   1      -4.859   0.619   1.100  0.00  0.00     0.040 C 
ATOM      4  C   UNL d   1      -4.953   0.607  -1.430  0.00  0.00     0.040 C 
ATOM      5  C   UNL d   1      -4.214  -0.766   0.983  0.00  0.00     0.273 C 
ATOM      6  C   UNL d   1      -4.147  -0.708  -1.409  0.00  0.00     0.273 C 
ENDROOT
BRANCH   1   7
ATOM      7  C   UNL d   1      -2.483  -2.026  -0.172  0.00  0.00     0.312 C 
BRANCH   7   8
ATOM      8  C   UNL d   1      -1.156  -1.784   0.544  0.00  0.00    -0.008 A 
ATOM      9  C   UNL d   1      -0.269  -2.835   0.828  0.00  0.00     0.043 A 
ATOM     10  C   UNL d   1       0.993  -2.589   1.382  0.00  0.00     0.048 A 
ATOM     11 CL   UNL d   1      -0.677  -4.481   0.488  0.00  0.00    -0.084 Cl
ATOM     12  C   UNL d   1       1.389  -1.281   1.656  0.00  0.00     0.035 A 
ATOM     13  C   UNL d   1       0.533  -0.223   1.400  0.00  0.00     0.024 A 
ATOM     14 CL   UNL d   1       2.957  -0.974   2.301  0.00  0.00    -0.084 Cl
ATOM     15  C   UNL d   1      -0.726  -0.476   0.857  0.00  0.00     0.012 A 
ENDBRANCH   7   8
ENDBRANCH   1   7
BRANCH   2  16
ATOM     16  C   UNL d   1      -3.611   2.463  -0.160  0.00  0.00    -0.021 A 
ATOM     17  C   UNL d   1      -3.634   3.679   0.556  0.00  0.00     0.074 A 
ATOM     18  C   UNL d   1      -2.499   4.503   0.612  0.00  0.00     0.037 A 
ATOM     19  C   UNL d   1      -1.327   4.151  -0.058  0.00  0.00     0.003 A 
ATOM     20  C   UNL d   1      -1.307   2.996  -0.818  0.00  0.00     0.001 A 
ATOM     21  C   UNL d   1      -2.432   2.171  -0.874  0.00  0.00     0.010 A 
BRANCH  17  22
ATOM     22  O   UNL d   1      -4.781   4.247   1.051  0.00  0.00    -0.355 OA
ATOM     23  C   UNL d   1      -5.289   3.646   2.234  0.00  0.00     0.210 C 
ENDBRANCH  17  22
ENDBRANCH   2  16
TORSDOF 4
