REMARK  6 active torsions:
REMARK  status: ('A' for Active; 'I' for Inactive)
REMARK    1  A    between atoms: C_8  and  N_1 
REMARK    2  A    between atoms: C_7  and  C_3 
REMARK    3  A    between atoms: C_13  and  N_5 
REMARK    4  A    between atoms: C_10  and  C_8 
REMARK    5  A    between atoms: O_16  and  C_10 
REMARK    6  A    between atoms: C_19  and  O_16 
ROOT
ATOM      1  N   UNL d   1      -0.684   1.120   0.030  0.00  0.00    -0.256 N 
ATOM      2  C   UNL d   1      -1.353  -0.074  -0.199  0.00  0.00     0.332 C 
ATOM      3  C   UNL d   1       1.489  -0.019   0.109  0.00  0.00     0.085 C 
ATOM      4  C   UNL d   1       0.686   1.234   0.192  0.00  0.00     0.266 C 
ATOM      5  N   UNL d   1      -0.583  -1.228  -0.030  0.00  0.00    -0.304 N 
ATOM      6  C   UNL d   1       0.796  -1.165   0.047  0.00  0.00     0.116 C 
ATOM      7  O   UNL d   1      -2.543  -0.110  -0.508  0.00  0.00    -0.246 OA
ATOM      8  O   UNL d   1       1.238   2.320   0.377  0.00  0.00    -0.267 OA
ENDROOT
BRANCH   1   9
ATOM      9  C   UNL d   1      -1.468   2.354   0.031  0.00  0.00     0.248 C 
BRANCH   9  10
ATOM     10  C   UNL d   1      -1.438   3.107  -1.291  0.00  0.00     0.277 C 
ATOM     11  O   UNL d   1      -2.102   4.114  -1.502  0.00  0.00    -0.263 OA
BRANCH  10  12
ATOM     12  O   UNL d   1      -0.602   2.522  -2.195  0.00  0.00    -0.321 OA
BRANCH  12  13
ATOM     13  C   UNL d   1      -0.685   3.014  -3.538  0.00  0.00     0.174 C 
ATOM     14  C   UNL d   1      -1.729   2.189  -4.267  0.00  0.00     0.034 C 
ENDBRANCH  12  13
ENDBRANCH  10  12
ENDBRANCH   9  10
ENDBRANCH   1   9
BRANCH   5  15
ATOM     15  C   UNL d   1      -1.265  -2.542  -0.081  0.00  0.00     0.086 C 
ATOM     16  C   UNL d   1      -1.105  -3.211  -1.444  0.00  0.00     0.032 C 
ATOM     17  C   UNL d   1      -0.842  -3.480   1.059  0.00  0.00     0.032 C 
ENDBRANCH   5  15
BRANCH   3  18
ATOM     18  C   UNL d   1       2.994  -0.038   0.097  0.00  0.00     0.111 C 
ATOM     19  S   UNL d   1       4.018  -1.367   0.064  0.00  0.00    -0.060 SA
ATOM     20  N   UNL d   1       3.597   1.187   0.089  0.00  0.00    -0.389 N 
ATOM     21  H   UNL d   1       3.064   2.057   0.141  0.00  0.00     0.157 HD
ATOM     22  H   UNL d   1       4.607   1.255   0.078  0.00  0.00     0.157 HD
ENDBRANCH   3  18
TORSDOF 6
