REMARK  2 active torsions:
REMARK  status: ('A' for Active; 'I' for Inactive)
REMARK    1  A    between atoms: C_6  and  C_1 
REMARK    2  A    between atoms: C_8  and  C_3 
ROOT
ATOM      1  C   UNL d   1      -0.792   0.931   0.022  0.00  0.00     0.184 A 
ATOM      2  C   UNL d   1      -1.299  -0.332  -0.173  0.00  0.00     0.077 A 
ATOM      3  C   UNL d   1      -0.199  -1.193   0.036  0.00  0.00     0.074 A 
ATOM      4  N   UNL d   1       0.905  -0.496   0.341  0.00  0.00    -0.260 N 
ATOM      5  HN  UNL d   1       1.832  -0.870   0.541  1.00  0.00     0.195 HD
ATOM      6  O   UNL d   1       0.528   0.836   0.329  0.00  0.00    -0.233 OA
ENDROOT
BRANCH   3   7
ATOM      7  C   UNL d   1      -0.204  -2.688  -0.064  0.00  0.00     0.033 A 
ATOM      8  S   UNL d   1      -1.583  -3.616  -0.468  0.00  0.00    -0.100 SA
ATOM      9  C   UNL d   1      -0.705  -5.081  -0.376  0.00  0.00     0.050 A 
ATOM     10  C   UNL d   1       0.612  -4.871  -0.031  0.00  0.00     0.008 A 
ATOM     11  C   UNL d   1       0.902  -3.486   0.152  0.00  0.00     0.021 A 
ENDBRANCH   3   7
BRANCH   1  12
ATOM     12  C   UNL d   1      -1.361   2.287  -0.035  0.00  0.00     0.441 C 
ATOM     13  F   UNL d   1      -2.692   2.260  -0.308  0.00  0.00    -0.164 F 
ATOM     14  F   UNL d   1      -1.220   2.955   1.138  0.00  0.00    -0.164 F 
ATOM     15  F   UNL d   1      -0.783   3.047  -0.999  0.00  0.00    -0.164 F 
ENDBRANCH   1  12
TORSDOF 2
