REMARK  4 active torsions:
REMARK  status: ('A' for Active; 'I' for Inactive)
REMARK    1  A    between atoms: C_7  and  C_1 
REMARK       I    between atoms: N_14  and  C_7 
REMARK    2  A    between atoms: N_12  and  N_14 
REMARK    3  A    between atoms: C_19  and  C_16 
REMARK    4  A    between atoms: O_21  and  C_20 
ROOT
ATOM      1  C   UNL d   1       2.109   2.484   0.057  0.00  0.00     0.289 C 
ATOM      2  N   UNL d   1       3.481   2.736  -0.018  0.00  0.00    -0.265 N 
ATOM      3  O   UNL d   1       1.307   3.417   0.088  0.00  0.00    -0.264 OA
ATOM      4  H   UNL d   1       4.162   2.000  -0.067  0.00  0.00     0.190 HD
ENDROOT
BRANCH   1   5
ATOM      5  C   UNL d   1       1.682   1.093   0.084  0.00  0.00     0.132 A 
ATOM      6  N   UNL d   1       0.339   0.701   0.163  0.00  0.00    -0.302 N 
ATOM      7  C   UNL d   1       0.317  -0.690   0.149  0.00  0.00     0.113 A 
ATOM      8  C   UNL d   1      -0.844   1.449   0.243  0.00  0.00     0.099 A 
ATOM      9  C   UNL d   1      -0.946  -1.345   0.216  0.00  0.00     0.056 A 
ATOM     10  N   UNL d   1       1.524  -1.193   0.071  0.00  0.00    -0.344 N 
ATOM     11  C   UNL d   1      -2.087  -0.629   0.294  0.00  0.00    -0.057 A 
ATOM     12  C   UNL d   1      -2.035   0.829   0.308  0.00  0.00     0.024 A 
ATOM     13  C   UNL d   1      -3.428  -1.297   0.370  0.00  0.00     0.048 C 
ATOM     14  C   UNL d   1       2.377  -0.117   0.030  0.00  0.00     0.040 A 
ATOM     15  HN  UNL d   1       1.778  -2.180   0.047  1.00  0.00     0.167 HD
ATOM     16  C   UNL d   1       3.825  -0.421  -0.072  0.00  0.00     0.071 C 
ENDBRANCH   1   5
BRANCH   2  17
ATOM     17  N   UNL d   1       3.891   4.030  -0.188  0.00  0.00    -0.308 N 
ATOM     18  C   UNL d   1       5.162   4.254  -0.287  0.00  0.00     0.118 C 
ATOM     19  HN  UNL d   1       3.217   4.794  -0.236  1.00  0.00     0.186 HD
BRANCH  18  20
ATOM     20  C   UNL d   1       5.654   5.622  -0.580  0.00  0.00    -0.017 A 
ATOM     21  C   UNL d   1       4.740   6.678  -0.709  0.00  0.00     0.049 A 
ATOM     22  C   UNL d   1       5.178   7.938  -1.113  0.00  0.00     0.069 A 
ATOM     23  C   UNL d   1       6.540   8.142  -1.353  0.00  0.00     0.037 A 
ATOM     24  C   UNL d   1       7.457   7.101  -1.190  0.00  0.00     0.004 A 
ATOM     25  C   UNL d   1       7.016   5.834  -0.804  0.00  0.00     0.013 A 
BRANCH  22  26
ATOM     26  O   UNL d   1       4.385   9.032  -1.330  0.00  0.00    -0.356 OA
ATOM     27  C   UNL d   1       2.983   8.852  -1.155  0.00  0.00     0.210 C 
ENDBRANCH  22  26
ENDBRANCH  18  20
ENDBRANCH   2  17
TORSDOF 4
