REMARK  2 active torsions:
REMARK  status: ('A' for Active; 'I' for Inactive)
REMARK    1  A    between atoms: C_3  and  C_1 
REMARK    2  A    between atoms: C_5  and  C_3 
ROOT
ATOM      1  C   UNL d   1      -1.199   0.636   0.945  0.00  0.00    -0.052 A 
ATOM      2  C   UNL d   1      -1.788  -0.635   0.947  0.00  0.00     0.007 A 
ATOM      3  C   UNL d   1      -2.023   1.769   0.869  0.00  0.00     0.007 A 
ATOM      4  C   UNL d   1      -3.408   1.631   0.795  0.00  0.00     0.001 A 
ATOM      5  C   UNL d   1      -3.175  -0.770   0.881  0.00  0.00     0.001 A 
ATOM      6  C   UNL d   1      -3.985   0.362   0.802  0.00  0.00     0.000 A 
ENDROOT
BRANCH   1   7
ATOM      7  C   UNL d   1       0.305   0.784   0.997  0.00  0.00     0.107 C 
BRANCH   7   8
ATOM      8  C   UNL d   1       1.001   0.702  -0.352  0.00  0.00     0.075 C 
ATOM      9  S   UNL d   1       2.578   0.169  -0.499  0.00  0.00    -0.066 SA
ATOM     10  N   UNL d   1       0.349   1.160  -1.458  0.00  0.00    -0.393 N 
ATOM     11  H   UNL d   1       0.801   1.087  -2.361  0.00  0.00     0.156 HD
ATOM     12  H   UNL d   1      -0.643   1.371  -1.451  0.00  0.00     0.156 HD
ENDBRANCH   7   8
ENDBRANCH   1   7
TORSDOF 2
