REMARK  6 active torsions:
REMARK  status: ('A' for Active; 'I' for Inactive)
REMARK    1  A    between atoms: C_2  and  S_1 
REMARK    2  A    between atoms: N_6  and  S_1 
REMARK    3  A    between atoms: C_10  and  N_6 
REMARK    4  A    between atoms: C_9  and  C_8 
REMARK       I    between atoms: N_13  and  C_9 
REMARK    5  A    between atoms: C_20  and  N_13 
REMARK    6  A    between atoms: C_14  and  C_20 
ROOT
ATOM      1  N   UNL d   1       0.232   0.302   1.273  0.00  0.00    -0.279 N 
ATOM      2  H   UNL d   1      -0.317   1.163   1.290  0.00  0.00     0.179 HD
ENDROOT
BRANCH   1   3
ATOM      3  S   UNL d   1      -0.300  -0.779   0.094  0.00  0.00     0.270 S 
ATOM      4  O   UNL d   1      -0.286  -0.048  -1.154  0.00  0.00    -0.200 OA
ATOM      5  O   UNL d   1       0.452  -2.010   0.230  0.00  0.00    -0.200 OA
BRANCH   3   6
ATOM      6  C   UNL d   1      -2.021  -1.222   0.381  0.00  0.00     0.128 C 
ATOM      7  S   UNL d   1      -3.157  -0.180  -0.366  0.00  0.00    -0.075 SA
ATOM      8  C   UNL d   1      -4.465  -1.249  -0.082  0.00  0.00     0.017 A 
ATOM      9  C   UNL d   1      -5.780  -1.131  -0.580  0.00  0.00     0.021 A 
ATOM     10  C   UNL d   1      -4.079  -2.311   0.738  0.00  0.00    -0.009 A 
ATOM     11  C   UNL d   1      -6.719  -2.113  -0.259  0.00  0.00     0.025 A 
ATOM     12  C   UNL d   1      -6.367  -3.165   0.571  0.00  0.00     0.035 A 
ATOM     13  C   UNL d   1      -5.070  -3.268   1.085  0.00  0.00     0.037 A 
ATOM     14 CL   UNL d   1      -7.532  -4.374   0.954  0.00  0.00    -0.084 Cl
ATOM     15  C   UNL d   1      -2.659  -2.259   1.054  0.00  0.00    -0.020 C 
ATOM     16  C   UNL d   1      -1.991  -3.289   1.911  0.00  0.00     0.051 C 
ENDBRANCH   3   6
ENDBRANCH   1   3
BRANCH   1  17
ATOM     17  C   UNL d   1       0.612  -0.223   2.550  0.00  0.00     0.058 A 
ATOM     18  C   UNL d   1       1.946  -0.527   2.884  0.00  0.00     0.059 A 
ATOM     19  C   UNL d   1       2.238  -1.024   4.166  0.00  0.00     0.019 A 
ATOM     20  C   UNL d   1       1.227  -1.225   5.103  0.00  0.00     0.001 A 
ATOM     21  C   UNL d   1      -0.090  -0.915   4.773  0.00  0.00     0.002 A 
ATOM     22  C   UNL d   1      -0.395  -0.418   3.503  0.00  0.00     0.031 A 
BRANCH  18  23
ATOM     23  C   UNL d   1       3.130  -0.196   2.047  0.00  0.00     0.253 C 
ATOM     24  N   UNL d   1       3.115  -0.565   0.723  0.00  0.00    -0.356 N 
ATOM     25  H   UNL d   1       2.341  -1.107   0.356  0.00  0.00     0.162 HD
ATOM     26  O   UNL d   1       4.087   0.355   2.585  0.00  0.00    -0.268 OA
BRANCH  24  27
ATOM     27  C   UNL d   1       4.194  -0.205  -0.167  0.00  0.00     0.127 C 
BRANCH  27  28
ATOM     28  C   UNL d   1       4.601  -1.378  -1.004  0.00  0.00     0.003 A 
ATOM     29  C   UNL d   1       5.018  -2.688  -0.380  0.00  0.00     0.007 A 
ATOM     30  C   UNL d   1       6.049  -1.811  -1.029  0.00  0.00     0.007 A 
ENDBRANCH  27  28
ENDBRANCH  24  27
ENDBRANCH  18  23
ENDBRANCH   1  17
TORSDOF 6
