REMARK  4 active torsions:
REMARK  status: ('A' for Active; 'I' for Inactive)
REMARK    1  A    between atoms: C_6  and  C_1 
REMARK    2  A    between atoms: C_10  and  C_4 
REMARK       I    between atoms: N_8  and  C_6 
REMARK    3  A    between atoms: N_9  and  N_8 
REMARK    4  A    between atoms: C_12  and  N_9 
ROOT
ATOM      1  C   UNL d   1      -0.250  -1.403   0.018  0.00  0.00     0.093 A 
ATOM      2  N   UNL d   1      -0.401   0.856  -0.297  0.00  0.00    -0.259 N 
ATOM      3  HN  UNL d   1      -0.189   1.821  -0.551  1.00  0.00     0.195 HD
ATOM      4  C   UNL d   1       0.373  -0.219  -0.531  0.00  0.00     0.083 A 
ATOM      5  O   UNL d   1      -1.520   0.414   0.343  0.00  0.00    -0.241 OA
ATOM      6  C   UNL d   1      -1.452  -0.925   0.524  0.00  0.00     0.090 A 
ATOM      7  C   UNL d   1      -2.635  -1.494   1.201  0.00  0.00     0.080 C 
ENDROOT
BRANCH   1   8
ATOM      8  C   UNL d   1       0.257  -2.771   0.038  0.00  0.00     0.271 C 
ATOM      9  N   UNL d   1      -0.676  -3.773   0.278  0.00  0.00    -0.282 N 
ATOM     10  H   UNL d   1      -1.539  -3.594   0.766  0.00  0.00     0.184 HD
ATOM     11  O   UNL d   1       1.437  -3.053  -0.159  0.00  0.00    -0.266 OA
BRANCH   9  12
ATOM     12  N   UNL d   1      -0.205  -5.097   0.387  0.00  0.00    -0.203 NA
ATOM     13  H   UNL d   1       0.784  -5.155   0.106  0.00  0.00     0.153 HD
BRANCH  12  14
ATOM     14  C   UNL d   1      -0.992  -6.061  -0.300  0.00  0.00     0.028 A 
ATOM     15  C   UNL d   1      -2.384  -5.945  -0.462  0.00  0.00     0.032 A 
ATOM     16  C   UNL d   1      -3.141  -6.970  -1.052  0.00  0.00    -0.060 A 
ATOM     17  C   UNL d   1      -4.629  -6.839  -1.213  0.00  0.00     0.048 C 
ATOM     18  C   UNL d   1      -2.502  -8.145  -1.459  0.00  0.00     0.007 A 
ATOM     19  C   UNL d   1      -1.130  -8.291  -1.274  0.00  0.00     0.002 A 
ATOM     20  C   UNL d   1      -0.387  -7.266  -0.687  0.00  0.00     0.025 A 
ENDBRANCH  12  14
ENDBRANCH   9  12
ENDBRANCH   1   8
BRANCH   4  21
ATOM     21  C   UNL d   1       1.615  -0.024  -1.296  0.00  0.00    -0.006 A 
ATOM     22  C   UNL d   1       2.294   1.207  -1.228  0.00  0.00     0.014 A 
ATOM     23  C   UNL d   1       3.431   1.452  -2.004  0.00  0.00     0.001 A 
ATOM     24  C   UNL d   1       3.916   0.464  -2.855  0.00  0.00     0.000 A 
ATOM     25  C   UNL d   1       3.258  -0.761  -2.936  0.00  0.00     0.001 A 
ATOM     26  C   UNL d   1       2.109  -0.998  -2.174  0.00  0.00     0.014 A 
ENDBRANCH   4  21
TORSDOF 4
