REMARK  9 active torsions:
REMARK  status: ('A' for Active; 'I' for Inactive)
REMARK    1  A    between atoms: O_15  and  C_1 
REMARK    2  A    between atoms: C_2  and  N_11 
REMARK    3  A    between atoms: N_8  and  C_2 
REMARK    4  A    between atoms: O_17  and  C_3 
REMARK    5  A    between atoms: O_16  and  C_4 
REMARK    6  A    between atoms: N_11  and  N_5 
REMARK    7  A    between atoms: C_18  and  N_8 
REMARK    8  A    between atoms: C_14  and  C_12 
REMARK    9  A    between atoms: C_19  and  C_18 
ROOT
ATOM      1  N   UNL d   1      -3.683  -0.693  -0.330  0.00  0.00    -0.309 N 
ATOM      2  HN  UNL d   1      -3.308  -1.631  -0.470  1.00  0.00     0.186 HD
ATOM      3  C   UNL d   1      -2.914   0.327  -0.147  0.00  0.00     0.118 C 
ENDROOT
BRANCH   1   4
ATOM      4  N   UNL d   1      -5.021  -0.449  -0.324  0.00  0.00    -0.277 N 
ATOM      5  H   UNL d   1      -5.365   0.488  -0.151  0.00  0.00     0.189 HD
BRANCH   4   6
ATOM      6  C   UNL d   1      -5.929  -1.463  -0.504  0.00  0.00     0.186 C 
ATOM      7  S   UNL d   1      -5.645  -2.928  -1.258  0.00  0.00    -0.040 SA
BRANCH   6   8
ATOM      8  N   UNL d   1      -7.174  -1.249   0.024  0.00  0.00    -0.364 N 
ATOM      9  H   UNL d   1      -7.793  -2.035  -0.129  0.00  0.00     0.162 HD
BRANCH   8  10
ATOM     10  C   UNL d   1      -7.482  -0.390   1.164  0.00  0.00     0.154 C 
BRANCH  10  11
ATOM     11  C   UNL d   1      -8.494   0.712   0.854  0.00  0.00     0.139 C 
ATOM     12  O   UNL d   1      -7.994   1.614  -0.154  0.00  0.00    -0.384 OA
ATOM     13  C   UNL d   1      -9.084   1.937  -1.035  0.00  0.00     0.168 C 
ATOM     14  C   UNL d   1     -10.352   1.422  -0.383  0.00  0.00     0.029 C 
ATOM     15  C   UNL d   1      -9.848   0.218   0.370  0.00  0.00     0.035 C 
ENDBRANCH  10  11
ENDBRANCH   8  10
ENDBRANCH   6   8
ENDBRANCH   4   6
ENDBRANCH   1   4
BRANCH   3  16
ATOM     16  C   UNL d   1      -1.452   0.167  -0.020  0.00  0.00    -0.014 A 
ATOM     17  C   UNL d   1      -0.881  -1.107  -0.030  0.00  0.00     0.052 A 
ATOM     18  C   UNL d   1       0.493  -1.270   0.171  0.00  0.00     0.105 A 
ATOM     19  C   UNL d   1       1.307  -0.139   0.357  0.00  0.00     0.135 A 
ATOM     20  C   UNL d   1       0.735   1.153   0.279  0.00  0.00     0.105 A 
ATOM     21  C   UNL d   1      -0.651   1.297   0.136  0.00  0.00     0.052 A 
BRANCH  18  22
ATOM     22  O   UNL d   1       0.895  -2.578   0.091  0.00  0.00    -0.353 OA
ATOM     23  C   UNL d   1       1.953  -2.975   0.951  0.00  0.00     0.210 C 
ENDBRANCH  18  22
BRANCH  19  24
ATOM     24  O   UNL d   1       2.665  -0.311   0.456  0.00  0.00    -0.351 OA
ATOM     25  C   UNL d   1       3.249   0.270   1.623  0.00  0.00     0.210 C 
ENDBRANCH  19  24
BRANCH  20  26
ATOM     26  O   UNL d   1       1.597   2.222   0.344  0.00  0.00    -0.353 OA
ATOM     27  C   UNL d   1       1.131   3.458  -0.185  0.00  0.00     0.210 C 
ENDBRANCH  20  26
ENDBRANCH   3  16
TORSDOF 9
