REMARK  3 active torsions:
REMARK  status: ('A' for Active; 'I' for Inactive)
REMARK    1  A    between atoms: C_3  and  C_1 
REMARK    2  A    between atoms: C_2  and  C_13 
REMARK       I    between atoms: N_12  and  C_3 
REMARK    3  A    between atoms: C_13  and  N_12 
ROOT
ATOM      1  C   UNL d   1       0.612   3.561   0.015  0.00  0.00     0.162 C 
ENDROOT
BRANCH   1   2
ATOM      2  C   UNL d   1       1.174   4.948   0.041  0.00  0.00    -0.022 A 
ATOM      3  C   UNL d   1       0.400   6.176   0.063  0.00  0.00    -0.009 A 
ATOM      4  C   UNL d   1       1.226   7.306   0.019  0.00  0.00     0.015 A 
ATOM      5  C   UNL d   1      -1.003   6.394   0.104  0.00  0.00     0.037 A 
ATOM      6  C   UNL d   1       0.703   8.616   0.005  0.00  0.00     0.021 A 
ATOM      7  S   UNL d   1       2.889   6.872  -0.020  0.00  0.00    -0.101 SA
ATOM      8  C   UNL d   1      -0.680   8.794   0.042  0.00  0.00     0.025 A 
ATOM      9  C   UNL d   1      -1.521   7.693   0.092  0.00  0.00     0.035 A 
ATOM     10 CL   UNL d   1      -3.226   7.929   0.137  0.00  0.00    -0.084 Cl
ATOM     11  C   UNL d   1       2.531   5.212   0.001  0.00  0.00     0.060 A 
ENDBRANCH   1   2
BRANCH   1  12
ATOM     12  N   UNL d   1       0.565   3.024   1.352  0.00  0.00    -0.351 N 
ATOM     13  C   UNL d   1       0.258   1.695   1.553  0.00  0.00     0.277 C 
ATOM     14  O   UNL d   1       0.036   0.936   0.610  0.00  0.00    -0.265 OA
ATOM     15  H   UNL d   1       0.668   3.636   2.153  0.00  0.00     0.163 HD
BRANCH  13  16
ATOM     16  C   UNL d   1       0.216   1.260   2.927  0.00  0.00     0.167 A 
ATOM     17  O   UNL d   1       0.498   2.144   3.928  0.00  0.00    -0.233 OA
ATOM     18  N   UNL d   1       0.405   1.501   5.154  0.00  0.00    -0.272 N 
ATOM     19  C   UNL d   1       0.068   0.241   4.868  0.00  0.00     0.117 A 
ATOM     20  HN  UNL d   1       0.560   1.905   6.077  1.00  0.00     0.194 HD
ATOM     21  C   UNL d   1      -0.065   0.033   3.486  0.00  0.00     0.064 A 
ENDBRANCH  13  16
ENDBRANCH   1  12
TORSDOF 3
