REMARK  6 active torsions:
REMARK  status: ('A' for Active; 'I' for Inactive)
REMARK    1  A    between atoms: O_2  and  C_1 
REMARK    2  A    between atoms: C_3  and  C_1 
REMARK    3  A    between atoms: C_8  and  O_2 
REMARK    4  A    between atoms: O_5  and  C_9 
REMARK    5  A    between atoms: C_14  and  O_5 
REMARK    6  A    between atoms: N_11  and  C_10 
ROOT
ATOM      1  C   UNL d   1      -1.123   1.128   0.485  0.00  0.00     0.079 A 
ATOM      2  C   UNL d   1      -3.900   1.124   0.705  0.00  0.00     0.076 A 
ATOM      3  C   UNL d   1      -1.764   0.051   1.094  0.00  0.00     0.040 A 
ATOM      4  C   UNL d   1      -1.852   2.245   0.072  0.00  0.00     0.040 A 
ATOM      5  C   UNL d   1      -3.245   2.241   0.182  0.00  0.00     0.040 A 
ATOM      6  C   UNL d   1      -3.154   0.057   1.217  0.00  0.00     0.040 A 
ENDROOT
BRANCH   1   7
ATOM      7  O   UNL d   1       0.275   1.188   0.311  0.00  0.00    -0.275 OA
BRANCH   7   8
ATOM      8  C   UNL d   1       0.971   0.056  -0.097  0.00  0.00     0.298 C 
ATOM      9  O   UNL d   1       0.510  -1.050  -0.326  0.00  0.00    -0.259 OA
BRANCH   8  10
ATOM     10  C   UNL d   1       2.422   0.371  -0.242  0.00  0.00     0.040 A 
ATOM     11  C   UNL d   1       3.296  -0.677  -0.561  0.00  0.00     0.019 A 
ATOM     12  C   UNL d   1       4.667  -0.440  -0.705  0.00  0.00     0.024 A 
ATOM     13  C   UNL d   1       5.185   0.851  -0.579  0.00  0.00     0.005 A 
ATOM     14  C   UNL d   1       4.319   1.884  -0.212  0.00  0.00     0.024 A 
ATOM     15  C   UNL d   1       2.945   1.656  -0.063  0.00  0.00     0.019 A 
BRANCH  13  16
ATOM     16  N   UNL d   1       6.568   1.058  -0.584  0.00  0.00    -0.303 NA
ATOM     17  H   UNL d   1       6.846   2.011  -0.795  0.00  0.00     0.124 HD
ATOM     18  H   UNL d   1       7.089   0.377  -1.129  0.00  0.00     0.124 HD
ENDBRANCH  13  16
ENDBRANCH   8  10
ENDBRANCH   7   8
ENDBRANCH   1   7
BRANCH   2  19
ATOM     19  O   UNL d   1      -5.277   1.163   0.723  0.00  0.00    -0.311 OA
BRANCH  19  20
ATOM     20  C   UNL d   1      -5.977   0.011   0.421  0.00  0.00     0.076 A 
ATOM     21  C   UNL d   1      -7.225  -0.132   1.033  0.00  0.00     0.037 A 
ATOM     22  C   UNL d   1      -7.987  -1.281   0.811  0.00  0.00     0.003 A 
ATOM     23  C   UNL d   1      -7.506  -2.288  -0.026  0.00  0.00     0.000 A 
ATOM     24  C   UNL d   1      -6.282  -2.128  -0.673  0.00  0.00     0.003 A 
ATOM     25  C   UNL d   1      -5.531  -0.969  -0.471  0.00  0.00     0.037 A 
ENDBRANCH  19  20
ENDBRANCH   2  19
TORSDOF 6
