REMARK  4 active torsions:
REMARK  status: ('A' for Active; 'I' for Inactive)
REMARK    1  A    between atoms: N_8  and  C_1 
REMARK    2  A    between atoms: C_2  and  C_3 
REMARK       I    between atoms: C_6  and  N_7 
REMARK    3  A    between atoms: C_12  and  C_6 
REMARK    4  A    between atoms: C_13  and  C_14 
ROOT
ATOM      1  C   UNL d   1       2.111   5.976   1.120  0.00  0.00     0.253 C 
ATOM      2  N   UNL d   1       0.927   5.385   0.664  0.00  0.00    -0.347 N 
ATOM      3  N   UNL d   1       0.180   2.555   0.070  0.00  0.00    -0.266 NA
ATOM      4  C   UNL d   1       0.218   4.511   1.611  0.00  0.00     0.141 C 
ATOM      5  C   UNL d   1       0.520   3.013   1.443  0.00  0.00     0.117 C 
ATOM      6  O   UNL d   1       2.566   5.732   2.244  0.00  0.00    -0.267 OA
ATOM      7  C   UNL d   1       1.001   4.208  -1.584  0.00  0.00     0.035 C 
ATOM      8  C   UNL d   1       0.422   5.317  -0.712  0.00  0.00     0.127 C 
ATOM      9  C   UNL d   1       1.235   2.860  -0.910  0.00  0.00     0.098 C 
ENDROOT
BRANCH   1  10
ATOM     10  C   UNL d   1       2.902   6.903   0.271  0.00  0.00     0.032 C 
ATOM     11  C   UNL d   1       2.323   7.846  -0.576  0.00  0.00     0.017 C 
ATOM     12  C   UNL d   1       3.123   8.604  -1.438  0.00  0.00     0.009 C 
ATOM     13  C   UNL d   1       4.526   8.518  -1.409  0.00  0.00    -0.051 C 
ATOM     14  C   UNL d   1       5.096   7.680  -0.438  0.00  0.00     0.009 C 
ATOM     15  C   UNL d   1       4.296   6.876   0.383  0.00  0.00     0.017 C 
BRANCH  13  16
ATOM     16  C   UNL d   1       5.368   9.296  -2.434  0.00  0.00    -0.024 C 
ATOM     17  C   UNL d   1       6.890   9.196  -2.191  0.00  0.00     0.019 C 
ATOM     18  C   UNL d   1       5.087   8.720  -3.840  0.00  0.00     0.019 C 
ATOM     19  C   UNL d   1       4.999  10.794  -2.420  0.00  0.00     0.019 C 
ENDBRANCH  13  16
ENDBRANCH   1  10
BRANCH   3  20
ATOM     20  C   UNL d   1      -0.215   1.202   0.025  0.00  0.00     0.104 A 
ATOM     21  N   UNL d   1       0.205   0.369   1.009  0.00  0.00    -0.354 N 
ATOM     22  C   UNL d   1      -0.232  -0.912   1.014  0.00  0.00     0.105 A 
ATOM     23  HN  UNL d   1       0.839   0.703   1.735  1.00  0.00     0.166 HD
ATOM     24  C   UNL d   1      -1.085  -1.446   0.065  0.00  0.00     0.065 A 
ATOM     25  C   UNL d   1      -1.505  -0.600  -0.964  0.00  0.00     0.044 A 
ATOM     26  C   UNL d   1      -1.074   0.729  -0.989  0.00  0.00     0.073 A 
ATOM     27 CL   UNL d   1      -1.689   1.742  -2.248  0.00  0.00    -0.081 Cl
BRANCH  24  28
ATOM     28  C   UNL d   1      -1.533  -2.867   0.183  0.00  0.00     0.418 C 
ATOM     29  F   UNL d   1      -2.378  -3.254  -0.811  0.00  0.00    -0.166 F 
ATOM     30  F   UNL d   1      -0.493  -3.744   0.152  0.00  0.00    -0.166 F 
ATOM     31  F   UNL d   1      -2.193  -3.109   1.349  0.00  0.00    -0.166 F 
ENDBRANCH  24  28
ENDBRANCH   3  20
TORSDOF 4
