REMARK  1 active torsions:
REMARK  status: ('A' for Active; 'I' for Inactive)
REMARK    1  A    between atoms: N_14  and  N_6 
ROOT
ATOM      1  C   UNL d   1      -0.079   1.771  -0.084  0.00  0.00     0.065 A 
ATOM      2  C   UNL d   1       1.118   0.897  -0.042  0.00  0.00     0.005 A 
ATOM      3  C   UNL d   1      -1.261   0.864  -0.074  0.00  0.00     0.005 A 
ATOM      4  C   UNL d   1       0.679  -0.434  -0.011  0.00  0.00    -0.012 A 
ATOM      5  C   UNL d   1      -0.766  -0.457  -0.023  0.00  0.00    -0.012 A 
ATOM      6  N   UNL d   1       0.040   3.062  -0.119  0.00  0.00    -0.322 N 
ATOM      7  HN  UNL d   1       0.958   3.507  -0.132  1.00  0.00     0.180 HD
ATOM      8  C   UNL d   1      -1.639  -1.535   0.008  0.00  0.00     0.014 A 
ATOM      9  C   UNL d   1       1.606  -1.463   0.022  0.00  0.00     0.014 A 
ATOM     10  C   UNL d   1       2.454   1.252  -0.029  0.00  0.00     0.033 A 
ATOM     11  C   UNL d   1      -2.620   1.129  -0.107  0.00  0.00     0.033 A 
ATOM     12  C   UNL d   1      -3.492   0.039  -0.066  0.00  0.00     0.011 A 
ATOM     13  C   UNL d   1       3.381   0.213   0.009  0.00  0.00     0.011 A 
ATOM     14  C   UNL d   1      -3.013  -1.280  -0.009  0.00  0.00     0.020 A 
ATOM     15  C   UNL d   1       2.968  -1.132   0.031  0.00  0.00     0.020 A 
ATOM     16 BR   UNL d   1      -5.359   0.344  -0.078  0.00  0.00    -0.051 Br
ATOM     17 BR   UNL d   1       5.230   0.614   0.029  0.00  0.00    -0.051 Br
ENDROOT
BRANCH   6  18
ATOM     18  N   UNL d   1      -1.087   3.798  -0.138  0.00  0.00    -0.249 NA
ATOM     19  H   UNL d   1      -0.839   4.785  -0.222  0.00  0.00     0.143 HD
ATOM     20  H   UNL d   1      -1.582   3.724   0.755  0.00  0.00     0.143 HD
ENDBRANCH   6  18
TORSDOF 1
