REMARK  7 active torsions:
REMARK  status: ('A' for Active; 'I' for Inactive)
REMARK    1  A    between atoms: N_14  and  C_3 
REMARK    2  A    between atoms: C_12  and  C_10 
REMARK    3  A    between atoms: C_16  and  C_11 
REMARK    4  A    between atoms: C_13  and  O_19 
REMARK    5  A    between atoms: N_17  and  N_14 
REMARK       I    between atoms: C_15  and  N_17 
REMARK       I    between atoms: N_18  and  C_15 
REMARK    6  A    between atoms: C_27  and  N_18 
REMARK    7  A    between atoms: O_19  and  C_28 
ROOT
ATOM      1  N   UNL d   1       0.127   0.422   0.190  0.00  0.00    -0.222 N 
ATOM      2  C   UNL d   1      -0.052  -0.962   0.092  0.00  0.00     0.131 A 
ATOM      3  C   UNL d   1      -1.007   1.281   0.252  0.00  0.00     0.141 A 
ATOM      4  N   UNL d   1       1.461   0.746   0.190  0.00  0.00    -0.294 N 
ATOM      5  HN  UNL d   1       1.873   1.675   0.266  1.00  0.00     0.187 HD
ATOM      6  N   UNL d   1      -1.275  -1.562   0.055  0.00  0.00    -0.337 N 
ATOM      7  HN  UNL d   1      -1.372  -2.575  -0.006  1.00  0.00     0.167 HD
ATOM      8  C   UNL d   1       1.200  -1.510   0.041  0.00  0.00     0.077 A 
ATOM      9  C   UNL d   1      -2.229   0.715   0.196  0.00  0.00     0.085 A 
ATOM     10  C   UNL d   1      -2.318  -0.777   0.101  0.00  0.00     0.121 A 
ATOM     11  C   UNL d   1       2.107  -0.427   0.068  0.00  0.00     0.037 A 
ENDROOT
BRANCH   3  12
ATOM     12  N   UNL d   1      -0.810   2.655   0.376  0.00  0.00    -0.297 N 
ATOM     13  H   UNL d   1       0.164   2.948   0.181  0.00  0.00     0.183 HD
BRANCH  12  14
ATOM     14  N   UNL d   1      -1.777   3.585  -0.096  0.00  0.00    -0.153 NA
ATOM     15  C   UNL d   1      -1.280   4.815  -0.528  0.00  0.00     0.317 C 
ATOM     16  N   UNL d   1      -2.308   5.650  -0.927  0.00  0.00    -0.312 N 
ATOM     17  O   UNL d   1      -0.076   5.056  -0.552  0.00  0.00    -0.252 OA
ATOM     18  H   UNL d   1      -3.203   5.202  -1.060  0.00  0.00     0.170 HD
ATOM     19  H   UNL d   1      -2.590   3.654   0.508  0.00  0.00     0.157 HD
BRANCH  16  20
ATOM     20  C   UNL d   1      -2.199   6.984  -1.375  0.00  0.00     0.036 A 
ATOM     21  C   UNL d   1      -1.020   7.730  -1.307  0.00  0.00     0.032 A 
ATOM     22  C   UNL d   1      -0.972   9.048  -1.788  0.00  0.00     0.039 A 
ATOM     23  C   UNL d   1      -2.097   9.624  -2.370  0.00  0.00     0.078 A 
ATOM     24  C   UNL d   1      -3.291   8.902  -2.391  0.00  0.00     0.039 A 
ATOM     25  C   UNL d   1      -3.347   7.592  -1.904  0.00  0.00     0.032 A 
BRANCH  23  26
ATOM     26  O   UNL d   1      -2.173  10.871  -2.909  0.00  0.00    -0.255 OA
BRANCH  26  27
ATOM     27  C   UNL d   1      -1.006  11.445  -3.483  0.00  0.00     0.530 C 
ATOM     28  F   UNL d   1      -0.033  10.552  -3.760  0.00  0.00    -0.144 F 
ATOM     29  F   UNL d   1      -1.356  12.041  -4.647  0.00  0.00    -0.144 F 
ATOM     30  F   UNL d   1      -0.513  12.393  -2.658  0.00  0.00    -0.144 F 
ENDBRANCH  26  27
ENDBRANCH  23  26
ENDBRANCH  16  20
ENDBRANCH  12  14
ENDBRANCH   3  12
BRANCH  10  31
ATOM     31  C   UNL d   1      -3.721  -1.382   0.068  0.00  0.00     0.432 C 
ATOM     32  F   UNL d   1      -4.702  -0.437   0.126  0.00  0.00    -0.165 F 
ATOM     33  F   UNL d   1      -3.951  -2.094  -1.067  0.00  0.00    -0.165 F 
ATOM     34  F   UNL d   1      -3.943  -2.222   1.114  0.00  0.00    -0.165 F 
ENDBRANCH  10  31
BRANCH  11  35
ATOM     35  C   UNL d   1       3.630  -0.542   0.003  0.00  0.00    -0.007 C 
ATOM     36  C   UNL d   1       4.185  -0.896   1.398  0.00  0.00     0.021 C 
ATOM     37  C   UNL d   1       4.039  -1.660  -0.988  0.00  0.00     0.021 C 
ATOM     38  C   UNL d   1       4.307   0.755  -0.481  0.00  0.00     0.021 C 
ENDBRANCH  11  35
TORSDOF 7
