REMARK  5 active torsions:
REMARK  status: ('A' for Active; 'I' for Inactive)
REMARK       I    between atoms: N_2  and  C_1 
REMARK    1  A    between atoms: C_7  and  C_1 
REMARK    2  A    between atoms: C_8  and  N_2 
REMARK    3  A    between atoms: C_19  and  N_2 
REMARK    4  A    between atoms: C_4  and  C_8 
REMARK    5  A    between atoms: C_15  and  C_19 
ROOT
ATOM      1  N   UNL d   1       2.381   4.733  -3.051  0.00  0.00    -0.197 NA
ATOM      2  C   UNL d   1       1.861   4.066  -2.260  0.00  0.00     0.060 C 
ATOM      3  C   UNL d   1       1.177   3.229  -1.264  0.00  0.00     0.143 C 
ENDROOT
BRANCH   3   4
ATOM      4  C   UNL d   1       0.940   1.819  -1.815  0.00  0.00     0.140 C 
BRANCH   4   5
ATOM      5  N   UNL d   1       0.267   0.932  -0.848  0.00  0.00    -0.342 N 
ATOM      6  C   UNL d   1       1.091   0.249   0.064  0.00  0.00     0.254 C 
ATOM      7  O   UNL d   1       2.314   0.417   0.042  0.00  0.00    -0.267 OA
BRANCH   6   8
ATOM      8  C   UNL d   1       0.563  -0.663   1.131  0.00  0.00     0.032 A 
ATOM      9  C   UNL d   1      -0.590  -1.444   1.012  0.00  0.00     0.018 A 
ATOM     10  C   UNL d   1      -1.052  -2.228   2.074  0.00  0.00     0.025 A 
ATOM     11  C   UNL d   1      -0.321  -2.296   3.253  0.00  0.00     0.034 A 
ATOM     12  C   UNL d   1       0.881  -1.604   3.365  0.00  0.00     0.025 A 
ATOM     13 CL   UNL d   1      -0.901  -3.245   4.562  0.00  0.00    -0.084 Cl
ATOM     14  C   UNL d   1       1.319  -0.791   2.311  0.00  0.00     0.018 A 
ENDBRANCH   6   8
BRANCH   5  15
ATOM     15  C   UNL d   1      -1.193   1.051  -0.779  0.00  0.00     0.172 C 
BRANCH  15  16
ATOM     16  C   UNL d   1      -1.889   0.040  -1.651  0.00  0.00     0.000 A 
ATOM     17  S   UNL d   1      -3.607  -0.037  -1.593  0.00  0.00    -0.105 SA
ATOM     18  C   UNL d   1      -3.649  -1.432  -2.578  0.00  0.00     0.050 A 
ATOM     19  C   UNL d   1      -2.392  -1.809  -2.991  0.00  0.00     0.008 A 
ATOM     20  C   UNL d   1      -1.379  -0.940  -2.487  0.00  0.00     0.017 A 
ENDBRANCH  15  16
ENDBRANCH   5  15
ENDBRANCH   4   5
ENDBRANCH   3   4
TORSDOF 5
