REMARK  4 active torsions:
REMARK  status: ('A' for Active; 'I' for Inactive)
REMARK    1  A    between atoms: C_2  and  C_3 
REMARK    2  A    between atoms: C_6  and  C_13 
REMARK    3  A    between atoms: O_22  and  C_13 
REMARK    4  A    between atoms: C_24  and  O_28 
ROOT
ATOM      1  C   UNL d   1       4.316  -0.471   0.502  0.00  0.00     0.033 C 
ATOM      2  C   UNL d   1       0.390  -0.032   0.239  0.00  0.00    -0.036 C 
ATOM      3  C   UNL d   1       4.338  -0.828   2.027  0.00  0.00     0.049 C 
ATOM      4  C   UNL d   1       1.889   0.293   0.634  0.00  0.00    -0.001 C 
ATOM      5  C   UNL d   1       2.874  -0.726  -0.017  0.00  0.00    -0.001 C 
ATOM      6  C   UNL d   1       0.285  -0.156  -1.317  0.00  0.00    -0.004 C 
ATOM      7  C   UNL d   1       3.526   0.305   2.712  0.00  0.00     0.021 C 
ATOM      8  C   UNL d   1       2.103   0.495   2.162  0.00  0.00     0.007 C 
ATOM      9  C   UNL d   1      -0.555   1.133   0.644  0.00  0.00     0.012 C 
ATOM     10  C   UNL d   1       2.705  -0.730  -1.544  0.00  0.00     0.006 C 
ATOM     11  C   UNL d   1       1.287  -1.141  -1.916  0.00  0.00     0.006 C 
ATOM     12  C   UNL d   1      -1.142  -0.478  -1.786  0.00  0.00     0.037 C 
ATOM     13  C   UNL d   1      -2.006   0.928   0.179  0.00  0.00     0.032 C 
ATOM     14  C   UNL d   1      -2.145   0.570  -1.304  0.00  0.00     0.118 C 
ATOM     15  C   UNL d   1      -0.082  -1.330   0.953  0.00  0.00     0.016 C 
ATOM     16  C   UNL d   1       3.684  -2.183   2.404  0.00  0.00     0.027 C 
ENDROOT
BRANCH   1  17
ATOM     17  C   UNL d   1       5.394  -1.100  -0.352  0.00  0.00     0.013 C 
ATOM     18  C   UNL d   1       5.969  -0.464  -1.392  0.00  0.00     0.081 C 
ATOM     19  N   UNL d   1       5.686   0.760  -1.960  0.00  0.00    -0.352 N 
ATOM     20  C   UNL d   1       6.969  -1.171  -2.285  0.00  0.00     0.210 C 
ATOM     21  C   UNL d   1       6.176   0.759  -3.271  0.00  0.00     0.047 A 
ATOM     22  H   UNL d   1       4.818   1.231  -1.746  0.00  0.00     0.166 HD
ATOM     23  C   UNL d   1       5.959   1.687  -4.269  0.00  0.00     0.030 A 
ATOM     24  C   UNL d   1       7.029  -0.330  -3.494  0.00  0.00     0.043 A 
ATOM     25  C   UNL d   1       6.582   1.476  -5.508  0.00  0.00     0.002 A 
ATOM     26  C   UNL d   1       7.439   0.376  -5.715  0.00  0.00     0.001 A 
ATOM     27  C   UNL d   1       7.676  -0.546  -4.693  0.00  0.00     0.018 A 
ATOM     28  O   UNL d   1       7.531  -2.229  -2.092  0.00  0.00    -0.285 OA
ENDBRANCH   1  17
BRANCH   3  29
ATOM     29  C   UNL d   1       5.774  -0.802   2.579  0.00  0.00     0.149 C 
ATOM     30  O   UNL d   1       6.294   0.190   3.076  0.00  0.00    -0.649 OA
BRANCH  29  31
ATOM     31  O   UNL d   1       6.457  -1.960   2.474  0.00  0.00    -0.776 OA
ATOM     32  H   UNL d   1       6.009  -2.696   2.025  0.00  0.00     0.167 HD
ENDBRANCH  29  31
ENDBRANCH   3  29
BRANCH  14  33
ATOM     33  O   UNL d   1      -2.009   1.749  -2.097  0.00  0.00    -0.396 OA
ATOM     34  H   UNL d   1      -1.148   2.154  -1.905  0.00  0.00     0.210 HD
ENDBRANCH  14  33
TORSDOF 4
