REMARK  8 active torsions:
REMARK  status: ('A' for Active; 'I' for Inactive)
REMARK    1  A    between atoms: C_3  and  C_1 
REMARK    2  A    between atoms: O_9  and  C_2 
REMARK    3  A    between atoms: N_22  and  C_3 
REMARK    4  A    between atoms: C_4  and  C_8 
REMARK    5  A    between atoms: O_15  and  N_5 
REMARK    6  A    between atoms: C_7  and  O_15 
REMARK       I    between atoms: N_14  and  C_7 
REMARK    7  A    between atoms: C_17  and  O_9 
REMARK    8  A    between atoms: C_23  and  N_14 
ROOT
ATOM      1  C   UNL d   1      -3.225  -2.006  -0.279  0.00  0.00     0.124 A 
ATOM      2  C   UNL d   1      -3.768  -3.288  -0.244  0.00  0.00     0.178 A 
ATOM      3  N   UNL d   1      -3.984  -0.870  -0.333  0.00  0.00    -0.358 N 
ATOM      4  HN  UNL d   1      -3.573   0.061  -0.405  1.00  0.00     0.165 HD
ATOM      5  N   UNL d   1      -5.119  -3.462  -0.185  0.00  0.00    -0.343 N 
ATOM      6  HN  UNL d   1      -5.541  -4.390  -0.136  1.00  0.00     0.167 HD
ATOM      7  C   UNL d   1      -5.316  -1.070  -0.285  0.00  0.00     0.105 A 
ATOM      8  C   UNL d   1      -5.870  -2.336  -0.195  0.00  0.00     0.107 A 
ENDROOT
BRANCH   1   9
ATOM      9  C   UNL d   1      -1.790  -1.707  -0.023  0.00  0.00     0.130 C 
ATOM     10  N   UNL d   1      -1.449  -1.675   1.230  0.00  0.00    -0.243 N 
ATOM     11  HN  UNL d   1      -2.055  -1.973   1.994  1.00  0.00     0.196 HD
BRANCH  10  12
ATOM     12  O   UNL d   1      -0.135  -1.175   1.409  0.00  0.00    -0.179 OA
BRANCH  12  13
ATOM     13  C   UNL d   1      -0.061  -0.351   2.530  0.00  0.00     0.387 C 
ATOM     14  N   UNL d   1      -1.298   0.072   2.959  0.00  0.00    -0.301 N 
ATOM     15  H   UNL d   1      -2.041  -0.281   2.365  0.00  0.00     0.171 HD
ATOM     16  O   UNL d   1       1.024  -0.025   2.988  0.00  0.00    -0.236 OA
BRANCH  14  17
ATOM     17  C   UNL d   1      -1.647   0.805   4.104  0.00  0.00     0.036 A 
ATOM     18  C   UNL d   1      -0.733   1.173   5.091  0.00  0.00     0.029 A 
ATOM     19  C   UNL d   1      -1.170   1.817   6.252  0.00  0.00     0.002 A 
ATOM     20  C   UNL d   1      -2.520   2.115   6.427  0.00  0.00     0.000 A 
ATOM     21  C   UNL d   1      -3.435   1.782   5.431  0.00  0.00     0.002 A 
ATOM     22  C   UNL d   1      -3.000   1.129   4.275  0.00  0.00     0.029 A 
ENDBRANCH  14  17
ENDBRANCH  12  13
ENDBRANCH  10  12
BRANCH   9  23
ATOM     23  N   UNL d   1      -0.985  -1.320  -1.071  0.00  0.00    -0.285 NA
ATOM     24  H   UNL d   1      -1.460  -0.810  -1.812  0.00  0.00     0.125 HD
ATOM     25  H   UNL d   1      -0.142  -0.841  -0.763  0.00  0.00     0.125 HD
ENDBRANCH   9  23
ENDBRANCH   1   9
BRANCH   2  26
ATOM     26  O   UNL d   1      -2.944  -4.402  -0.247  0.00  0.00    -0.291 OA
BRANCH  26  27
ATOM     27  C   UNL d   1      -3.439  -5.592  -0.752  0.00  0.00     0.078 A 
ATOM     28  C   UNL d   1      -2.978  -6.772  -0.156  0.00  0.00     0.053 A 
ATOM     29  C   UNL d   1      -3.405  -8.030  -0.622  0.00  0.00     0.050 A 
ATOM     30  C   UNL d   1      -4.302  -8.087  -1.701  0.00  0.00     0.016 A 
ATOM     31  C   UNL d   1      -4.743  -6.917  -2.314  0.00  0.00     0.004 A 
ATOM     32  C   UNL d   1      -4.296  -5.676  -1.855  0.00  0.00     0.037 A 
BRANCH  29  33
ATOM     33  C   UNL d   1      -2.913  -9.315  -0.004  0.00  0.00     0.417 C 
ATOM     34  F   UNL d   1      -2.099  -9.133   1.072  0.00  0.00    -0.166 F 
ATOM     35  F   UNL d   1      -3.931 -10.111   0.429  0.00  0.00    -0.166 F 
ATOM     36  F   UNL d   1      -2.202 -10.073  -0.886  0.00  0.00    -0.166 F 
ENDBRANCH  29  33
ENDBRANCH  26  27
ENDBRANCH   2  26
TORSDOF 8
