REMARK  16 active torsions:
REMARK  status: ('A' for Active; 'I' for Inactive)
REMARK    1  A    between atoms: C_5  and  S_1 
REMARK    2  A    between atoms: N_9  and  S_1 
REMARK    3  A    between atoms: S_2  and  C_6 
REMARK    4  A    between atoms: N_10  and  S_2 
REMARK    5  A    between atoms: C_22  and  N_9 
REMARK    6  A    between atoms: C_23  and  N_9 
REMARK    7  A    between atoms: C_24  and  N_10 
REMARK    8  A    between atoms: C_25  and  N_10 
REMARK    9  A    between atoms: C_26  and  C_22 
REMARK   10  A    between atoms: C_27  and  C_23 
REMARK   11  A    between atoms: C_28  and  C_24 
REMARK   12  A    between atoms: C_29  and  C_25 
REMARK   13  A    between atoms: C_30  and  C_26 
REMARK   14  A    between atoms: C_31  and  C_27 
REMARK   15  A    between atoms: C_32  and  C_28 
REMARK   16  A    between atoms: C_33  and  C_29 
ROOT
ATOM      1  C   UNL d   1       0.263   2.650  -2.936  0.00  0.00    -0.041 A 
ATOM      2  C   UNL d   1      -0.175   3.994  -4.820  0.00  0.00    -0.041 A 
ATOM      3  C   UNL d   1       0.519   0.721  -1.565  0.00  0.00     0.080 A 
ATOM      4  C   UNL d   1      -0.959   4.672  -6.961  0.00  0.00     0.075 A 
ATOM      5  C   UNL d   1      -0.318   1.851  -3.944  0.00  0.00    -0.019 A 
ATOM      6  C   UNL d   1      -0.618   2.679  -5.083  0.00  0.00    -0.019 A 
ATOM      7  C   UNL d   1       0.398   4.082  -3.418  0.00  0.00     0.078 A 
ATOM      8  C   UNL d   1       0.662   2.104  -1.729  0.00  0.00     0.033 A 
ATOM      9  C   UNL d   1      -0.315   4.999  -5.761  0.00  0.00     0.033 A 
ATOM     10  C   UNL d   1      -1.254   2.355  -6.265  0.00  0.00     0.014 A 
ATOM     11  C   UNL d   1      -0.477   0.490  -3.778  0.00  0.00     0.014 A 
ATOM     12  C   UNL d   1      -0.011  -0.076  -2.597  0.00  0.00     0.026 A 
ATOM     13  C   UNL d   1      -1.474   3.377  -7.184  0.00  0.00     0.026 A 
ENDROOT
BRANCH   3  14
ATOM     14  S   UNL d   1       1.200  -0.067  -0.120  0.00  0.00     0.260 S 
ATOM     15  O   UNL d   1       1.863   0.984   0.636  0.00  0.00    -0.200 OA
ATOM     16  O   UNL d   1       1.963  -1.211  -0.564  0.00  0.00    -0.200 OA
BRANCH  14  17
ATOM     17  N   UNL d   1      -0.146  -0.619   0.795  0.00  0.00    -0.307 N 
BRANCH  17  18
ATOM     18  C   UNL d   1      -1.165  -1.504   0.127  0.00  0.00     0.135 C 
BRANCH  18  19
ATOM     19  C   UNL d   1      -0.617  -2.835  -0.409  0.00  0.00     0.024 C 
BRANCH  19  20
ATOM     20  C   UNL d   1      -1.654  -3.711  -1.153  0.00  0.00    -0.021 C 
ATOM     21  C   UNL d   1      -2.318  -3.013  -2.343  0.00  0.00     0.009 C 
ATOM     22  C   UNL d   1      -0.974  -4.990  -1.657  0.00  0.00     0.009 C 
ENDBRANCH  19  20
ENDBRANCH  18  19
ENDBRANCH  17  18
BRANCH  17  23
ATOM     23  C   UNL d   1       0.191  -1.101   2.173  0.00  0.00     0.135 C 
BRANCH  23  24
ATOM     24  C   UNL d   1       0.594   0.016   3.143  0.00  0.00     0.024 C 
BRANCH  24  25
ATOM     25  C   UNL d   1      -0.411   1.177   3.273  0.00  0.00    -0.021 C 
ATOM     26  C   UNL d   1      -1.723   0.717   3.910  0.00  0.00     0.009 C 
ATOM     27  C   UNL d   1       0.202   2.307   4.107  0.00  0.00     0.009 C 
ENDBRANCH  24  25
ENDBRANCH  23  24
ENDBRANCH  17  23
ENDBRANCH  14  17
ENDBRANCH   3  14
BRANCH   4  28
ATOM     28  S   UNL d   1      -1.321   5.954  -8.144  0.00  0.00     0.243 S 
ATOM     29  O   UNL d   1      -2.697   5.765  -8.554  0.00  0.00    -0.206 OA
ATOM     30  O   UNL d   1      -0.892   7.205  -7.548  0.00  0.00    -0.206 OA
BRANCH  28  31
ATOM     31  N   UNL d   1      -0.315   5.640  -9.551  0.00  0.00    -0.206 NA
BRANCH  31  32
ATOM     32  C   UNL d   1      -0.472   4.227 -10.052  0.00  0.00     0.108 C 
BRANCH  32  33
ATOM     33  C   UNL d   1       0.366   3.851 -11.276  0.00  0.00     0.019 C 
BRANCH  33  34
ATOM     34  C   UNL d   1       0.199   2.360 -11.653  0.00  0.00    -0.022 C 
ATOM     35  C   UNL d   1      -1.253   2.001 -11.992  0.00  0.00     0.009 C 
ATOM     36  C   UNL d   1       1.099   2.023 -12.842  0.00  0.00     0.009 C 
ENDBRANCH  33  34
ENDBRANCH  32  33
ENDBRANCH  31  32
BRANCH  31  37
ATOM     37  C   UNL d   1      -0.619   6.628 -10.655  0.00  0.00     0.108 C 
BRANCH  37  38
ATOM     38  C   UNL d   1      -0.281   8.082 -10.330  0.00  0.00     0.019 C 
BRANCH  38  39
ATOM     39  C   UNL d   1       1.181   8.329  -9.919  0.00  0.00    -0.022 C 
ATOM     40  C   UNL d   1       2.160   7.971 -11.039  0.00  0.00     0.009 C 
ATOM     41  C   UNL d   1       1.356   9.796  -9.523  0.00  0.00     0.009 C 
ENDBRANCH  38  39
ENDBRANCH  37  38
ENDBRANCH  31  37
ENDBRANCH  28  31
ENDBRANCH   4  28
TORSDOF 16
