REMARK  8 active torsions:
REMARK  status: ('A' for Active; 'I' for Inactive)
REMARK    1  A    between atoms: C_10  and  S_1 
REMARK    2  A    between atoms: N_11  and  S_1 
REMARK    3  A    between atoms: C_2  and  N_3 
REMARK       I    between atoms: N_3  and  C_6 
REMARK    4  A    between atoms: C_6  and  C_14 
REMARK    5  A    between atoms: C_24  and  N_11 
REMARK    6  A    between atoms: C_25  and  N_11 
REMARK    7  A    between atoms: C_27  and  C_24 
REMARK    8  A    between atoms: C_26  and  C_25 
ROOT
ATOM      1  C   UNL d   1       0.570   1.711   0.045  0.00  0.00     0.074 A 
ATOM      2  C   UNL d   1      -0.380   4.348   0.098  0.00  0.00     0.032 A 
ATOM      3  C   UNL d   1      -0.805   1.948   0.020  0.00  0.00     0.026 A 
ATOM      4  C   UNL d   1       1.471   2.773   0.172  0.00  0.00     0.026 A 
ATOM      5  C   UNL d   1       0.995   4.089   0.198  0.00  0.00     0.018 A 
ATOM      6  C   UNL d   1      -1.274   3.265   0.043  0.00  0.00     0.018 A 
ENDROOT
BRANCH   2   7
ATOM      7  C   UNL d   1      -0.944   5.736   0.067  0.00  0.00     0.256 C 
ATOM      8  N   UNL d   1      -0.032   6.767  -0.056  0.00  0.00    -0.320 N 
ATOM      9  H   UNL d   1       0.787   6.548  -0.616  0.00  0.00     0.169 HD
ATOM     10  O   UNL d   1      -2.164   5.895   0.056  0.00  0.00    -0.267 OA
BRANCH   8  11
ATOM     11  C   UNL d   1      -0.344   8.158   0.025  0.00  0.00     0.082 A 
ATOM     12  C   UNL d   1      -1.181   8.726   1.016  0.00  0.00     0.084 A 
ATOM     13  C   UNL d   1      -1.358  10.123   1.056  0.00  0.00     0.059 A 
ATOM     14 CL   UNL d   1      -1.841   7.771   2.312  0.00  0.00    -0.080 Cl
ATOM     15 CL   UNL d   1      -2.343  10.910   2.245  0.00  0.00    -0.082 Cl
ATOM     16  C   UNL d   1      -0.695  10.954   0.151  0.00  0.00     0.051 A 
ATOM     17  C   UNL d   1       0.142  10.405  -0.818  0.00  0.00     0.059 A 
ATOM     18  C   UNL d   1       0.317   9.016  -0.885  0.00  0.00     0.084 A 
ATOM     19 CL   UNL d   1       0.946  11.501  -1.886  0.00  0.00    -0.082 Cl
ATOM     20 CL   UNL d   1       1.340   8.319  -2.114  0.00  0.00    -0.080 Cl
ENDBRANCH   8  11
ENDBRANCH   2   7
BRANCH   1  21
ATOM     21  S   UNL d   1       1.179   0.040   0.021  0.00  0.00     0.243 S 
ATOM     22  O   UNL d   1       0.226  -0.760   0.757  0.00  0.00    -0.206 OA
ATOM     23  O   UNL d   1       2.575   0.074   0.404  0.00  0.00    -0.206 OA
BRANCH  21  24
ATOM     24  N   UNL d   1       1.130  -0.419  -1.666  0.00  0.00    -0.206 NA
BRANCH  24  25
ATOM     25  C   UNL d   1       1.893   0.533  -2.550  0.00  0.00     0.107 C 
BRANCH  25  26
ATOM     26  C   UNL d   1       1.851   0.209  -4.048  0.00  0.00     0.011 C 
ATOM     27  C   UNL d   1       0.447   0.066  -4.616  0.00  0.00     0.006 C 
ENDBRANCH  25  26
ENDBRANCH  24  25
BRANCH  24  28
ATOM     28  C   UNL d   1       1.560  -1.852  -1.869  0.00  0.00     0.107 C 
BRANCH  28  29
ATOM     29  C   UNL d   1       0.553  -2.881  -1.358  0.00  0.00     0.011 C 
ATOM     30  C   UNL d   1      -0.847  -2.687  -1.921  0.00  0.00     0.006 C 
ENDBRANCH  28  29
ENDBRANCH  24  28
ENDBRANCH  21  24
ENDBRANCH   1  21
TORSDOF 8
