REMARK  2 active torsions:
REMARK  status: ('A' for Active; 'I' for Inactive)
REMARK    1  A    between atoms: C_7  and  N_1 
REMARK    2  A    between atoms: C_9  and  C_4 
ROOT
ATOM      1  N   UNL d   1       1.099   0.025   0.083  0.00  0.00    -0.365 N 
ATOM      2  HN  UNL d   1       0.604  -0.663  -0.484  1.00  0.00     0.165 HD
ATOM      3  C   UNL d   1       0.438   0.878   0.798  0.00  0.00     0.099 C 
ENDROOT
BRANCH   1   4
ATOM      4  C   UNL d   1       2.504   0.052   0.095  0.00  0.00     0.032 A 
ATOM      5  C   UNL d   1       3.261   1.229   0.063  0.00  0.00     0.036 A 
ATOM      6  C   UNL d   1       4.668   1.197   0.065  0.00  0.00    -0.054 A 
ATOM      7  C   UNL d   1       5.431   2.493   0.055  0.00  0.00     0.049 C 
ATOM      8  C   UNL d   1       5.331  -0.045   0.075  0.00  0.00    -0.056 A 
ATOM      9  C   UNL d   1       4.571  -1.223   0.070  0.00  0.00     0.009 A 
ATOM     10  C   UNL d   1       6.832  -0.136   0.091  0.00  0.00     0.049 C 
ATOM     11  C   UNL d   1       3.176  -1.170   0.079  0.00  0.00     0.030 A 
ENDBRANCH   1   4
BRANCH   3  12
ATOM     12  C   UNL d   1      -1.039   0.858   0.842  0.00  0.00    -0.021 A 
ATOM     13  C   UNL d   1      -1.754  -0.168   0.214  0.00  0.00     0.014 A 
ATOM     14  C   UNL d   1      -3.150  -0.187   0.283  0.00  0.00     0.024 A 
ATOM     15  C   UNL d   1      -3.821   0.819   0.975  0.00  0.00     0.034 A 
ATOM     16  C   UNL d   1      -3.112   1.847   1.598  0.00  0.00     0.024 A 
ATOM     17 CL   UNL d   1      -5.540   0.791   1.064  0.00  0.00    -0.084 Cl
ATOM     18  C   UNL d   1      -1.716   1.867   1.535  0.00  0.00     0.014 A 
ENDBRANCH   3  12
TORSDOF 2
