REMARK  3 active torsions:
REMARK  status: ('A' for Active; 'I' for Inactive)
REMARK    1  A    between atoms: N_3  and  S_1 
REMARK    2  A    between atoms: C_7  and  S_1 
REMARK    3  A    between atoms: C_6  and  N_3 
ROOT
ATOM      1  N   UNL d   1       0.555  -0.235  -1.137  0.00  0.00    -0.310 N 
ATOM      2  H   UNL d   1       0.886  -1.168  -1.352  0.00  0.00     0.172 HD
ENDROOT
BRANCH   1   3
ATOM      3  S   UNL d   1      -0.445  -0.255   0.222  0.00  0.00     0.259 S 
ATOM      4  O   UNL d   1      -0.385  -1.610   0.724  0.00  0.00    -0.201 OA
ATOM      5  O   UNL d   1      -1.704   0.392  -0.067  0.00  0.00    -0.201 OA
BRANCH   3   6
ATOM      6  C   UNL d   1       0.422   0.767   1.389  0.00  0.00     0.079 A 
ATOM      7  C   UNL d   1      -0.074   2.041   1.695  0.00  0.00     0.027 A 
ATOM      8  C   UNL d   1       0.520   2.789   2.716  0.00  0.00     0.025 A 
ATOM      9  C   UNL d   1       1.600   2.256   3.421  0.00  0.00     0.034 A 
ATOM     10  C   UNL d   1       2.093   0.986   3.118  0.00  0.00     0.025 A 
ATOM     11 CL   UNL d   1       2.315   3.166   4.694  0.00  0.00    -0.084 Cl
ATOM     12  C   UNL d   1       1.502   0.233   2.103  0.00  0.00     0.027 A 
ENDBRANCH   3   6
ENDBRANCH   1   3
BRANCH   1  13
ATOM     13  C   UNL d   1       0.312   0.701  -2.261  0.00  0.00     0.097 C 
ATOM     14  C   UNL d   1      -1.005   0.410  -2.992  0.00  0.00     0.061 C 
ATOM     15  C   UNL d   1      -0.894  -0.610  -4.134  0.00  0.00     0.225 C 
ATOM     16  C   UNL d   1      -0.243  -1.935  -3.716  0.00  0.00     0.038 C 
ATOM     17  N   UNL d   1       0.071  -0.168  -5.134  0.00  0.00     0.093 N 
ATOM     18  C   UNL d   1       1.254  -1.733  -3.994  0.00  0.00     0.038 C 
ATOM     19  C   UNL d   1       1.360  -0.276  -4.450  0.00  0.00     0.225 C 
ATOM     20  C   UNL d   1       1.512   0.683  -3.242  0.00  0.00     0.061 C 
ATOM     21  C   UNL d   1      -0.234   1.061  -5.836  0.00  0.00     0.310 C 
ENDBRANCH   1  13
TORSDOF 3
