REMARK  1 active torsions:
REMARK  status: ('A' for Active; 'I' for Inactive)
REMARK    1  A    between atoms: C_6  and  C_1 
ROOT
ATOM      1  C   UNL d   1       1.895  -1.574  -0.259  0.00  0.00     0.220 C 
ATOM      2  N   UNL d   1       2.194  -0.221   0.118  0.00  0.00    -0.332 N 
ATOM      3  C   UNL d   1       1.316   0.813  -0.043  0.00  0.00     0.255 C 
ATOM      4  N   UNL d   1       0.503  -1.884  -0.009  0.00  0.00    -0.364 N 
ATOM      5  C   UNL d   1      -0.113   0.464  -0.086  0.00  0.00     0.058 A 
ATOM      6  C   UNL d   1      -0.457  -0.887   0.014  0.00  0.00     0.045 A 
ATOM      7  O   UNL d   1       1.705   1.975  -0.082  0.00  0.00    -0.268 OA
ATOM      8  C   UNL d   1      -1.088   1.468  -0.122  0.00  0.00     0.019 A 
ATOM      9  C   UNL d   1      -1.815  -1.220   0.042  0.00  0.00     0.030 A 
ATOM     10  C   UNL d   1      -2.434   1.118  -0.076  0.00  0.00     0.001 A 
ATOM     11  C   UNL d   1      -2.798  -0.225   0.005  0.00  0.00     0.002 A 
ATOM     12  H   UNL d   1       3.160   0.066   0.068  0.00  0.00     0.165 HD
ATOM     13  H   UNL d   1       0.304  -2.726   0.516  0.00  0.00     0.162 HD
ENDROOT
BRANCH   1  14
ATOM     14  C   UNL d   1       2.777  -2.533   0.516  0.00  0.00     0.005 A 
ATOM     15  C   UNL d   1       3.652  -3.441  -0.101  0.00  0.00     0.044 A 
ATOM     16 CL   UNL d   1       3.841  -3.528  -1.816  0.00  0.00    -0.084 Cl
ATOM     17  C   UNL d   1       4.422  -4.322   0.668  0.00  0.00     0.024 A 
ATOM     18  C   UNL d   1       4.336  -4.310   2.059  0.00  0.00     0.002 A 
ATOM     19  C   UNL d   1       3.486  -3.409   2.691  0.00  0.00     0.001 A 
ATOM     20  C   UNL d   1       2.717  -2.530   1.928  0.00  0.00     0.013 A 
ENDBRANCH   1  14
TORSDOF 1
