REMARK  6 active torsions:
REMARK  status: ('A' for Active; 'I' for Inactive)
REMARK    1  A    between atoms: C_5  and  C_1 
REMARK    2  A    between atoms: N_2  and  C_4 
REMARK    3  A    between atoms: S_10  and  C_3 
REMARK       I    between atoms: C_7  and  N_11 
REMARK       I    between atoms: N_15  and  C_7 
REMARK    4  A    between atoms: C_12  and  S_10 
REMARK    5  A    between atoms: N_11  and  C_13 
REMARK    6  A    between atoms: C_22  and  N_15 
ROOT
ATOM      1  C   UNL d   1      -0.841   4.230  -0.792  0.00  0.00     0.028 C 
ATOM      2  C   UNL d   1       0.320   4.094  -1.575  0.00  0.00     0.034 C 
ATOM      3  C   UNL d   1      -1.027   5.436  -0.105  0.00  0.00     0.021 C 
ATOM      4  C   UNL d   1       1.168   5.194  -1.797  0.00  0.00     0.025 C 
ATOM      5  C   UNL d   1       0.953   6.387  -1.111  0.00  0.00     0.002 C 
ATOM      6  C   UNL d   1      -0.114   6.489  -0.226  0.00  0.00     0.001 C 
ENDROOT
BRANCH   1   7
ATOM      7  S   UNL d   1      -2.242   3.138  -1.040  0.00  0.00    -0.070 SA
BRANCH   7   8
ATOM      8  C   UNL d   1      -2.327   2.020   0.335  0.00  0.00     0.089 A 
ATOM      9  C   UNL d   1      -2.874   2.320   1.583  0.00  0.00     0.084 A 
ATOM     10  C   UNL d   1      -3.064   1.262   2.502  0.00  0.00     0.056 A 
ATOM     11  C   UNL d   1      -2.785  -0.049   2.124  0.00  0.00     0.119 A 
ATOM     12  C   UNL d   1      -2.289  -0.273   0.859  0.00  0.00     0.124 A 
ATOM     13  N   UNL d   1      -2.051   0.730  -0.024  0.00  0.00    -0.357 N 
ATOM     14  HN  UNL d   1      -1.669   0.523  -0.947  1.00  0.00     0.166 HD
BRANCH   9  15
ATOM     15  C   UNL d   1      -3.310   3.691   2.002  0.00  0.00     0.420 C 
ATOM     16  F   UNL d   1      -3.840   4.458   1.013  0.00  0.00    -0.166 F 
ATOM     17  F   UNL d   1      -4.287   3.649   2.957  0.00  0.00    -0.166 F 
ATOM     18  F   UNL d   1      -2.300   4.412   2.557  0.00  0.00    -0.166 F 
ENDBRANCH   9  15
BRANCH  11  19
ATOM     19  N   UNL d   1      -3.061  -1.163   3.018  0.00  0.00    -0.114 N 
ATOM     20  O   UNL d   1      -3.345  -0.896   4.194  0.00  0.00    -0.532 OA
ATOM     21  O   UNL d   1      -3.010  -2.307   2.545  0.00  0.00    -0.532 OA
ENDBRANCH  11  19
ENDBRANCH   7   8
ENDBRANCH   1   7
BRANCH   2  22
ATOM     22  N   UNL d   1       0.758   2.827  -2.047  0.00  0.00    -0.209 NA
ATOM     23  C   UNL d   1       1.317   1.983  -1.071  0.00  0.00     0.303 C 
ATOM     24  N   UNL d   1       2.041   0.985  -1.695  0.00  0.00    -0.313 N 
ATOM     25  O   UNL d   1       1.297   2.212   0.131  0.00  0.00    -0.253 OA
ATOM     26  H   UNL d   1       1.662   0.630  -2.558  0.00  0.00     0.170 HD
ATOM     27  H   UNL d   1       1.392   2.881  -2.831  0.00  0.00     0.138 HD
BRANCH  24  28
ATOM     28  C   UNL d   1       3.317   0.529  -1.292  0.00  0.00     0.035 A 
ATOM     29  C   UNL d   1       3.821   0.689   0.006  0.00  0.00     0.031 A 
ATOM     30  C   UNL d   1       5.123   0.260   0.309  0.00  0.00     0.026 A 
ATOM     31  C   UNL d   1       5.942  -0.270  -0.691  0.00  0.00     0.034 A 
ATOM     32  C   UNL d   1       5.453  -0.416  -1.982  0.00  0.00     0.026 A 
ATOM     33 CL   UNL d   1       7.538  -0.771  -0.310  0.00  0.00    -0.084 Cl
ATOM     34  C   UNL d   1       4.137  -0.025  -2.278  0.00  0.00     0.031 A 
ENDBRANCH  24  28
ENDBRANCH   2  22
TORSDOF 6
