REMARK  4 active torsions:
REMARK  status: ('A' for Active; 'I' for Inactive)
REMARK    1  A    between atoms: N_8  and  C_1 
REMARK    2  A    between atoms: C_6  and  C_3 
REMARK    3  A    between atoms: C_10  and  C_14 
REMARK    4  A    between atoms: O_22  and  C_10 
ROOT
ATOM      1  C   UNL d   1      -1.324  -1.597   0.026  0.00  0.00     0.025 A 
ATOM      2  C   UNL d   1      -0.204  -0.714   0.013  0.00  0.00     0.013 A 
ATOM      3  C   UNL d   1      -2.761   0.354   0.017  0.00  0.00     0.118 A 
ATOM      4  N   UNL d   1      -1.696   1.195   0.029  0.00  0.00    -0.352 N 
ATOM      5  HN  UNL d   1      -1.833   2.206   0.040  1.00  0.00     0.166 HD
ATOM      6  C   UNL d   1      -2.605  -1.029   0.031  0.00  0.00     0.059 A 
ATOM      7  C   UNL d   1      -0.463   0.674   0.027  0.00  0.00     0.044 A 
ATOM      8  C   UNL d   1       1.149  -1.140  -0.038  0.00  0.00     0.022 A 
ATOM      9  C   UNL d   1       0.601   1.565   0.031  0.00  0.00     0.031 A 
ATOM     10  C   UNL d   1       2.215  -0.229  -0.029  0.00  0.00    -0.061 A 
ATOM     11  C   UNL d   1       1.927   1.133   0.009  0.00  0.00     0.009 A 
ATOM     12  C   UNL d   1       3.640  -0.690  -0.062  0.00  0.00     0.048 C 
ENDROOT
BRANCH   1  13
ATOM     13  N   UNL d   1      -1.145  -3.008   0.035  0.00  0.00    -0.282 NA
ATOM     14  C   UNL d   1      -2.225  -3.798  -0.588  0.00  0.00     0.096 C 
ATOM     15  C   UNL d   1      -1.771  -5.248  -0.761  0.00  0.00     0.030 C 
ATOM     16  C   UNL d   1      -1.270  -5.862   0.554  0.00  0.00     0.086 C 
ATOM     17  C   UNL d   1      -0.240  -4.942   1.221  0.00  0.00     0.030 C 
ATOM     18  C   UNL d   1      -0.760  -3.509   1.368  0.00  0.00     0.096 C 
BRANCH  16  19
ATOM     19  C   UNL d   1      -2.419  -6.173   1.501  0.00  0.00     0.143 C 
ATOM     20  O   UNL d   1      -3.573  -5.807   1.349  0.00  0.00    -0.650 OA
BRANCH  19  21
ATOM     21  O   UNL d   1      -2.044  -6.925   2.562  0.00  0.00    -0.776 OA
ATOM     22  H   UNL d   1      -1.107  -7.196   2.559  0.00  0.00     0.167 HD
ENDBRANCH  19  21
ENDBRANCH  16  19
ENDBRANCH   1  13
BRANCH   3  23
ATOM     23  C   UNL d   1      -4.171   0.922  -0.027  0.00  0.00     0.432 C 
ATOM     24  F   UNL d   1      -4.234   2.283  -0.059  0.00  0.00    -0.165 F 
ATOM     25  F   UNL d   1      -4.869   0.494  -1.122  0.00  0.00    -0.165 F 
ATOM     26  F   UNL d   1      -4.921   0.541   1.050  0.00  0.00    -0.165 F 
ENDBRANCH   3  23
TORSDOF 4
