REMARK  5 active torsions:
REMARK  status: ('A' for Active; 'I' for Inactive)
REMARK    1  A    between atoms: C_2  and  C_1 
REMARK    2  A    between atoms: C_3  and  C_1 
REMARK    3  A    between atoms: O_6  and  C_1 
REMARK    4  A    between atoms: O_7  and  C_1 
REMARK    5  A    between atoms: C_4  and  C_3 
ROOT
ATOM      1  C   UNL d   1       1.359  -0.031   0.423  0.00  0.00     0.329 C 
ENDROOT
BRANCH   1   2
ATOM      2  C   UNL d   1       1.395  -1.506   0.952  0.00  0.00     0.452 C 
ATOM      3  F   UNL d   1       0.912  -1.698   2.192  0.00  0.00    -0.165 F 
ATOM      4  F   UNL d   1       0.739  -2.338   0.104  0.00  0.00    -0.165 F 
ATOM      5  F   UNL d   1       2.693  -1.930   0.980  0.00  0.00    -0.165 F 
ENDBRANCH   1   2
BRANCH   1   6
ATOM      6  C   UNL d   1       0.345   0.774   1.262  0.00  0.00     0.230 C 
ATOM      7  O   UNL d   1      -0.676   0.280   1.732  0.00  0.00    -0.286 OA
BRANCH   6   8
ATOM      8  C   UNL d   1       0.575   2.232   1.453  0.00  0.00     0.016 A 
ATOM      9  C   UNL d   1       1.116   3.031   0.440  0.00  0.00     0.016 A 
ATOM     10  C   UNL d   1       1.308   4.397   0.651  0.00  0.00     0.007 A 
ATOM     11  C   UNL d   1       0.956   4.983   1.872  0.00  0.00    -0.062 A 
ATOM     12  C   UNL d   1       0.404   4.184   2.883  0.00  0.00     0.007 A 
ATOM     13  C   UNL d   1       1.157   6.457   2.078  0.00  0.00     0.048 C 
ATOM     14  C   UNL d   1       0.207   2.816   2.671  0.00  0.00     0.016 A 
ENDBRANCH   6   8
ENDBRANCH   1   6
BRANCH   1  15
ATOM     15  O   UNL d   1       0.914   0.022  -0.944  0.00  0.00    -0.352 OA
ATOM     16  H   UNL d   1       0.307  -0.733  -1.071  0.00  0.00     0.213 HD
ENDBRANCH   1  15
BRANCH   1  17
ATOM     17  O   UNL d   1       2.673   0.539   0.457  0.00  0.00    -0.352 OA
ATOM     18  H   UNL d   1       3.296  -0.167   0.714  0.00  0.00     0.213 HD
ENDBRANCH   1  17
TORSDOF 5
