REMARK  2 active torsions:
REMARK  status: ('A' for Active; 'I' for Inactive)
REMARK    1  A    between atoms: C_9  and  C_1 
REMARK    2  A    between atoms: O_14  and  C_1 
ROOT
ATOM      1  C   UNL d   1      -1.312   0.058   0.292  0.00  0.00     0.233 C 
ATOM      2  C   UNL d   1       2.098   1.403  -0.226  0.00  0.00     0.036 A 
ATOM      3  C   UNL d   1       0.916   0.595  -0.032  0.00  0.00     0.043 C 
ATOM      4  S   UNL d   1       2.517   2.527   0.995  0.00  0.00    -0.087 SA
ATOM      5  C   UNL d   1       3.005   1.424  -1.277  0.00  0.00    -0.031 A 
ATOM      6  N   UNL d   1       0.794  -0.616  -0.495  0.00  0.00    -0.321 N 
ATOM      7  HN  UNL d   1       1.481  -1.134  -1.043  1.00  0.00     0.180 HD
ATOM      8  C   UNL d   1      -0.278   1.082   0.744  0.00  0.00     0.125 C 
ATOM      9  N   UNL d   1      -0.433  -1.051  -0.102  0.00  0.00    -0.198 NA
ATOM     10  C   UNL d   1       4.066   2.388  -1.054  0.00  0.00    -0.010 A 
ATOM     11  C   UNL d   1       3.917   3.052   0.165  0.00  0.00     0.016 A 
ATOM     12  C   UNL d   1       5.179   2.739  -1.861  0.00  0.00     0.037 A 
ATOM     13  C   UNL d   1       4.832   4.030   0.602  0.00  0.00     0.021 A 
ATOM     14  C   UNL d   1       6.085   3.713  -1.433  0.00  0.00     0.035 A 
ATOM     15  C   UNL d   1       2.923   0.590  -2.524  0.00  0.00     0.050 C 
ATOM     16  C   UNL d   1       5.918   4.350  -0.213  0.00  0.00     0.025 A 
ATOM     17 CL   UNL d   1       7.424   4.126  -2.433  0.00  0.00    -0.084 Cl
ATOM     18  H   UNL d   1      -0.882  -1.617  -0.825  0.00  0.00     0.150 HD
ENDROOT
BRANCH   1  19
ATOM     19  C   UNL d   1      -2.354  -0.259   1.415  0.00  0.00     0.434 C 
ATOM     20  F   UNL d   1      -2.089   0.391   2.572  0.00  0.00    -0.166 F 
ATOM     21  F   UNL d   1      -3.589   0.156   1.019  0.00  0.00    -0.166 F 
ATOM     22  F   UNL d   1      -2.451  -1.576   1.694  0.00  0.00    -0.166 F 
ENDBRANCH   1  19
BRANCH   1  23
ATOM     23  O   UNL d   1      -1.943   0.570  -0.900  0.00  0.00    -0.366 OA
ATOM     24  H   UNL d   1      -2.712   1.100  -0.617  0.00  0.00     0.212 HD
ENDBRANCH   1  23
TORSDOF 2
