REMARK  1 active torsions:
REMARK  status: ('A' for Active; 'I' for Inactive)
REMARK    1  A    between atoms: C_7  and  C_1 
ROOT
ATOM      1  C   UNL d   1      -0.775   1.923   0.012  0.00  0.00     0.060 A 
ATOM      2  C   UNL d   1       0.346   0.916  -0.022  0.00  0.00    -0.035 A 
ATOM      3  C   UNL d   1      -1.575  -0.368  -0.052  0.00  0.00     0.161 A 
ATOM      4  C   UNL d   1      -0.119  -0.392  -0.048  0.00  0.00     0.017 A 
ATOM      5  C   UNL d   1      -2.061   1.060  -0.047  0.00  0.00     0.098 A 
ATOM      6  O   UNL d   1      -2.273  -1.366  -0.070  0.00  0.00    -0.292 OA
ATOM      7  C   UNL d   1       1.713   1.158  -0.021  0.00  0.00     0.009 A 
ATOM      8  C   UNL d   1       0.720  -1.491  -0.059  0.00  0.00     0.016 A 
ATOM      9  C   UNL d   1       2.587   0.064  -0.030  0.00  0.00     0.001 A 
ATOM     10  C   UNL d   1       2.094  -1.252  -0.047  0.00  0.00     0.001 A 
ENDROOT
BRANCH   1  11
ATOM     11  C   UNL d   1      -0.732   2.834   1.223  0.00  0.00    -0.049 A 
ATOM     12  C   UNL d   1      -0.601   4.221   1.052  0.00  0.00     0.008 A 
ATOM     13  C   UNL d   1      -0.570   5.074   2.158  0.00  0.00     0.001 A 
ATOM     14  C   UNL d   1      -0.666   4.553   3.446  0.00  0.00     0.000 A 
ATOM     15  C   UNL d   1      -0.785   3.178   3.632  0.00  0.00     0.001 A 
ATOM     16  C   UNL d   1      -0.815   2.324   2.530  0.00  0.00     0.008 A 
ENDBRANCH   1  11
TORSDOF 1
