REMARK  1 active torsions:
REMARK  status: ('A' for Active; 'I' for Inactive)
REMARK    1  A    between atoms: C_11  and  N_5 
ROOT
ATOM      1  N   UNL d   1      -0.697   1.177  -0.110  0.00  0.00    -0.275 N 
ATOM      2  HN  UNL d   1      -1.243   2.034  -0.194  1.00  0.00     0.188 HD
ATOM      3  C   UNL d   1      -0.618  -1.276   0.074  0.00  0.00     0.348 A 
ATOM      4  N   UNL d   1       0.749  -1.171   0.089  0.00  0.00    -0.271 N 
ATOM      5  N   UNL d   1      -1.323  -0.061  -0.002  0.00  0.00    -0.204 N 
ATOM      6  C   UNL d   1       0.599   1.213  -0.102  0.00  0.00     0.197 A 
ATOM      7  C   UNL d   1       1.448  -0.007  -0.012  0.00  0.00     0.288 A 
ATOM      8  C   UNL d   1       1.133   2.548  -0.167  0.00  0.00     0.125 C 
ATOM      9  N   UNL d   1       1.560   3.629  -0.209  0.00  0.00    -0.190 NA
ATOM     10  O   UNL d   1      -1.093  -2.409   0.099  0.00  0.00    -0.245 OA
ATOM     11  O   UNL d   1       2.665   0.068  -0.041  0.00  0.00    -0.265 OA
ATOM     12  H   UNL d   1       1.266  -2.037   0.125  0.00  0.00     0.174 HD
ENDROOT
BRANCH   5  13
ATOM     13  C   UNL d   1      -2.758   0.028   0.063  0.00  0.00     0.061 A 
ATOM     14  C   UNL d   1      -3.550  -1.003   0.590  0.00  0.00     0.032 A 
ATOM     15  C   UNL d   1      -4.942  -0.879   0.673  0.00  0.00     0.002 A 
ATOM     16  C   UNL d   1      -5.572   0.274   0.218  0.00  0.00     0.000 A 
ATOM     17  C   UNL d   1      -4.810   1.308  -0.313  0.00  0.00     0.002 A 
ATOM     18  C   UNL d   1      -3.417   1.190  -0.380  0.00  0.00     0.032 A 
ENDBRANCH   5  13
TORSDOF 1
