REMARK  4 active torsions:
REMARK  status: ('A' for Active; 'I' for Inactive)
REMARK    1  A    between atoms: C_7  and  C_1 
REMARK       I    between atoms: N_11  and  C_7 
REMARK    2  A    between atoms: C_10  and  N_14 
REMARK    3  A    between atoms: N_17  and  C_10 
REMARK    4  A    between atoms: N_14  and  N_11 
ROOT
ATOM      1  C   UNL d   1       1.669   1.041  -0.066  0.00  0.00     0.132 A 
ATOM      2  N   UNL d   1       0.325   0.644  -0.047  0.00  0.00    -0.302 N 
ATOM      3  C   UNL d   1       0.309  -0.747  -0.048  0.00  0.00     0.113 A 
ATOM      4  N   UNL d   1       1.520  -1.245  -0.068  0.00  0.00    -0.344 N 
ATOM      5  HN  UNL d   1       1.779  -2.231  -0.077  1.00  0.00     0.167 HD
ATOM      6  C   UNL d   1       2.372  -0.167  -0.076  0.00  0.00     0.040 A 
ATOM      7  C   UNL d   1      -0.859   1.390  -0.028  0.00  0.00     0.099 A 
ATOM      8  C   UNL d   1      -0.954  -1.404  -0.028  0.00  0.00     0.056 A 
ATOM      9  C   UNL d   1      -2.051   0.769  -0.008  0.00  0.00     0.024 A 
ATOM     10  C   UNL d   1      -2.100  -0.690  -0.007  0.00  0.00    -0.057 A 
ATOM     11  C   UNL d   1       3.825  -0.467  -0.069  0.00  0.00     0.071 C 
ATOM     12  C   UNL d   1      -3.439  -1.360   0.009  0.00  0.00     0.048 C 
ENDROOT
BRANCH   1  13
ATOM     13  C   UNL d   1       2.087   2.428  -0.047  0.00  0.00     0.289 C 
ATOM     14  N   UNL d   1       3.440   2.719  -0.161  0.00  0.00    -0.262 N 
ATOM     15  H   UNL d   1       4.182   2.043  -0.298  0.00  0.00     0.190 HD
ATOM     16  O   UNL d   1       1.302   3.373   0.071  0.00  0.00    -0.264 OA
BRANCH  14  17
ATOM     17  N   UNL d   1       3.809   4.079  -0.072  0.00  0.00    -0.274 N 
ATOM     18  H   UNL d   1       3.005   4.707  -0.012  0.00  0.00     0.189 HD
BRANCH  17  19
ATOM     19  C   UNL d   1       4.984   4.570  -0.624  0.00  0.00     0.186 C 
ATOM     20  S   UNL d   1       6.163   3.602  -1.307  0.00  0.00    -0.040 SA
BRANCH  19  21
ATOM     21  N   UNL d   1       5.045   5.944  -0.488  0.00  0.00    -0.370 N 
ATOM     22  C   UNL d   1       6.105   6.841  -0.916  0.00  0.00     0.148 C 
ATOM     23  H   UNL d   1       4.347   6.364   0.112  0.00  0.00     0.161 HD
ENDBRANCH  19  21
ENDBRANCH  17  19
ENDBRANCH  14  17
ENDBRANCH   1  13
TORSDOF 4
