REMARK  6 active torsions:
REMARK  status: ('A' for Active; 'I' for Inactive)
REMARK    1  A    between atoms: C_7  and  C_1 
REMARK    2  A    between atoms: C_8  and  C_4 
REMARK       I    between atoms: N_10  and  C_7 
REMARK    3  A    between atoms: C_16  and  N_10 
REMARK    4  A    between atoms: C_11  and  O_13 
REMARK    5  A    between atoms: O_13  and  C_17 
REMARK    6  A    between atoms: C_17  and  C_16 
ROOT
ATOM      1  C   UNL d   1       0.016  -1.342  -0.063  0.00  0.00     0.092 A 
ATOM      2  N   UNL d   1      -1.159   0.552   0.414  0.00  0.00    -0.259 N 
ATOM      3  HN  UNL d   1      -1.882   1.195   0.736  1.00  0.00     0.195 HD
ATOM      4  C   UNL d   1      -1.163  -0.787   0.539  0.00  0.00     0.083 A 
ATOM      5  O   UNL d   1       0.005   0.886  -0.230  0.00  0.00    -0.241 OA
ATOM      6  C   UNL d   1       0.715  -0.235  -0.509  0.00  0.00     0.090 A 
ATOM      7  C   UNL d   1       1.985  -0.009  -1.229  0.00  0.00     0.080 C 
ENDROOT
BRANCH   1   8
ATOM      8  C   UNL d   1       0.371  -2.739  -0.223  0.00  0.00     0.256 C 
ATOM      9  O   UNL d   1      -0.473  -3.614  -0.369  0.00  0.00    -0.267 OA
ATOM     10  N   UNL d   1       1.722  -3.024  -0.160  0.00  0.00    -0.355 N 
ATOM     11  H   UNL d   1       2.335  -2.312   0.212  0.00  0.00     0.162 HD
BRANCH  10  12
ATOM     12  C   UNL d   1       2.182  -4.403  -0.116  0.00  0.00     0.149 C 
BRANCH  12  13
ATOM     13  C   UNL d   1       3.552  -4.576  -0.763  0.00  0.00     0.195 C 
BRANCH  13  14
ATOM     14  O   UNL d   1       3.927  -5.951  -0.703  0.00  0.00    -0.350 OA
BRANCH  14  15
ATOM     15  C   UNL d   1       5.142  -6.277  -1.243  0.00  0.00     0.068 A 
ATOM     16  C   UNL d   1       6.029  -5.387  -1.855  0.00  0.00     0.037 A 
ATOM     17  C   UNL d   1       7.248  -5.844  -2.357  0.00  0.00     0.003 A 
ATOM     18  C   UNL d   1       7.589  -7.191  -2.255  0.00  0.00     0.000 A 
ATOM     19  C   UNL d   1       6.708  -8.085  -1.654  0.00  0.00     0.003 A 
ATOM     20  C   UNL d   1       5.486  -7.628  -1.149  0.00  0.00     0.037 A 
ENDBRANCH  14  15
ENDBRANCH  13  14
ENDBRANCH  12  13
ENDBRANCH  10  12
ENDBRANCH   1   8
BRANCH   4  21
ATOM     21  C   UNL d   1      -2.261  -1.451   1.251  0.00  0.00    -0.006 A 
ATOM     22  C   UNL d   1      -3.564  -0.931   1.183  0.00  0.00     0.014 A 
ATOM     23  C   UNL d   1      -4.615  -1.540   1.876  0.00  0.00     0.001 A 
ATOM     24  C   UNL d   1      -4.377  -2.677   2.645  0.00  0.00     0.000 A 
ATOM     25  C   UNL d   1      -3.089  -3.198   2.731  0.00  0.00     0.001 A 
ATOM     26  C   UNL d   1      -2.037  -2.583   2.046  0.00  0.00     0.014 A 
ENDBRANCH   4  21
TORSDOF 6
