REMARK  1 active torsions:
REMARK  status: ('A' for Active; 'I' for Inactive)
REMARK    1  A    between atoms: C_2  and  C_1 
ROOT
ATOM      1  C   UNL d   1       2.335   0.776  -0.064  0.00  0.00     0.172 A 
ATOM      2  C   UNL d   1       1.393  -1.369  -0.012  0.00  0.00     0.302 A 
ATOM      3  N   UNL d   1       1.212   1.406  -0.044  0.00  0.00    -0.334 N 
ATOM      4  HN  UNL d   1       1.180   2.425  -0.063  1.00  0.00     0.168 HD
ATOM      5  O   UNL d   1       2.481  -0.565  -0.035  0.00  0.00    -0.256 OA
ATOM      6  C   UNL d   1       0.055  -0.739   0.067  0.00  0.00     0.072 A 
ATOM      7  C   UNL d   1       0.043   0.654   0.004  0.00  0.00     0.051 A 
ATOM      8  O   UNL d   1       1.542  -2.583  -0.081  0.00  0.00    -0.259 OA
ATOM      9  C   UNL d   1      -1.162  -1.453   0.159  0.00  0.00    -0.043 A 
ATOM     10  C   UNL d   1      -1.171   1.345  -0.030  0.00  0.00     0.030 A 
ATOM     11  C   UNL d   1      -2.376   0.655  -0.025  0.00  0.00     0.003 A 
ATOM     12  C   UNL d   1      -2.370  -0.734   0.071  0.00  0.00     0.008 A 
ATOM     13  C   UNL d   1      -1.284  -2.942   0.331  0.00  0.00     0.049 C 
ENDROOT
BRANCH   1  14
ATOM     14  C   UNL d   1       3.593   1.474  -0.139  0.00  0.00     0.098 A 
ATOM     15  C   UNL d   1       3.896   2.833  -0.124  0.00  0.00     0.045 A 
ATOM     16  N   UNL d   1       5.253   3.126  -0.252  0.00  0.00    -0.298 N 
ATOM     17  C   UNL d   1       2.984   4.000   0.009  0.00  0.00     0.071 C 
ATOM     18  N   UNL d   1       5.990   2.037  -0.357  0.00  0.00    -0.269 N 
ATOM     19  HN  UNL d   1       5.632   4.073  -0.262  1.00  0.00     0.187 HD
ATOM     20  S   UNL d   1       5.088   0.639  -0.302  0.00  0.00     0.008 SA
ATOM     21  HN  UNL d   1       7.005   2.051  -0.462  1.00  0.00     0.195 HD
ENDBRANCH   1  14
TORSDOF 1
