REMARK  4 active torsions:
REMARK  status: ('A' for Active; 'I' for Inactive)
REMARK    1  A    between atoms: C_10  and  C_3 
REMARK    2  A    between atoms: C_15  and  C_4 
REMARK    3  A    between atoms: C_5  and  C_9 
REMARK    4  A    between atoms: C_6  and  C_8 
ROOT
ATOM      1  C   UNL d   1       0.506  -4.800   0.993  0.00  0.00     0.049 A 
ATOM      2  C   UNL d   1      -0.630  -4.668  -1.163  0.00  0.00     0.049 A 
ATOM      3  C   UNL d   1       0.065  -2.614  -0.024  0.00  0.00    -0.001 A 
ATOM      4  C   UNL d   1      -0.114  -5.424  -0.101  0.00  0.00     0.032 A 
ATOM      5  C   UNL d   1       0.591  -3.397   1.016  0.00  0.00     0.030 A 
ATOM      6  C   UNL d   1      -0.545  -3.266  -1.107  0.00  0.00     0.030 A 
ENDROOT
BRANCH   3   7
ATOM      7  C   UNL d   1       0.235  -1.153   0.019  0.00  0.00     0.084 A 
ATOM      8  N   UNL d   1       1.288  -0.552   0.540  0.00  0.00    -0.349 N 
ATOM      9  C   UNL d   1       1.180   0.824   0.402  0.00  0.00     0.050 A 
ATOM     10  HN  UNL d   1       2.071  -1.032   0.982  1.00  0.00     0.166 HD
ATOM     11  C   UNL d   1       0.019   1.252  -0.210  0.00  0.00     0.082 A 
ATOM     12  S   UNL d   1      -0.965  -0.090  -0.611  0.00  0.00    -0.081 SA
BRANCH   9  13
ATOM     13  C   UNL d   1       2.251   1.715   0.832  0.00  0.00    -0.009 A 
ATOM     14  C   UNL d   1       3.577   1.259   0.815  0.00  0.00     0.014 A 
ATOM     15  C   UNL d   1       4.627   2.103   1.184  0.00  0.00     0.001 A 
ATOM     16  C   UNL d   1       4.360   3.412   1.585  0.00  0.00     0.000 A 
ATOM     17  C   UNL d   1       3.046   3.871   1.626  0.00  0.00     0.001 A 
ATOM     18  C   UNL d   1       1.996   3.029   1.253  0.00  0.00     0.014 A 
ENDBRANCH   9  13
ENDBRANCH   3   7
BRANCH   1  19
ATOM     19  C   UNL d   1       1.106  -5.609   2.119  0.00  0.00     0.417 C 
ATOM     20  F   UNL d   1       0.966  -6.954   1.950  0.00  0.00    -0.166 F 
ATOM     21  F   UNL d   1       2.441  -5.389   2.263  0.00  0.00    -0.166 F 
ATOM     22  F   UNL d   1       0.542  -5.325   3.325  0.00  0.00    -0.166 F 
ENDBRANCH   1  19
BRANCH   2  23
ATOM     23  C   UNL d   1      -1.236  -5.332  -2.378  0.00  0.00     0.417 C 
ATOM     24  F   UNL d   1      -1.197  -6.692  -2.330  0.00  0.00    -0.166 F 
ATOM     25  F   UNL d   1      -2.542  -4.999  -2.558  0.00  0.00    -0.166 F 
ATOM     26  F   UNL d   1      -0.597  -4.981  -3.528  0.00  0.00    -0.166 F 
ENDBRANCH   2  23
TORSDOF 4
