REMARK  2 active torsions:
REMARK  status: ('A' for Active; 'I' for Inactive)
REMARK       I    between atoms: N_2  and  C_1 
REMARK       I    between atoms: N_3  and  C_1 
REMARK    1  A    between atoms: C_4  and  N_2 
REMARK    2  A    between atoms: C_5  and  N_3 
ROOT
ATOM      1  C   UNL d   1       1.064  -0.160  -0.182  0.00  0.00     0.326 C 
ATOM      2  N   UNL d   1       0.530   0.776  -1.017  0.00  0.00    -0.303 N 
ATOM      3  N   UNL d   1       0.210  -0.722   0.728  0.00  0.00    -0.294 N 
ATOM      4  O   UNL d   1       2.252  -0.484  -0.130  0.00  0.00    -0.247 OA
ATOM      5  H   UNL d   1      -0.413   1.089  -0.810  0.00  0.00     0.171 HD
ATOM      6  H   UNL d   1       0.681  -1.294   1.412  0.00  0.00     0.172 HD
ENDROOT
BRANCH   3   7
ATOM      7  C   UNL d   1      -1.187  -0.710   0.723  0.00  0.00     0.109 A 
ATOM      8  N   UNL d   1      -1.843  -0.123  -0.299  0.00  0.00    -0.346 N 
ATOM      9  C   UNL d   1      -3.190  -0.243  -0.350  0.00  0.00     0.007 A 
ATOM     10  HN  UNL d   1      -1.337   0.399  -1.015  1.00  0.00     0.167 HD
ATOM     11  C   UNL d   1      -3.877   0.308  -1.564  0.00  0.00     0.068 C 
ATOM     12  C   UNL d   1      -3.920  -0.890   0.639  0.00  0.00     0.025 A 
ATOM     13  C   UNL d   1      -3.234  -1.444   1.715  0.00  0.00     0.006 A 
ATOM     14  C   UNL d   1      -1.848  -1.367   1.755  0.00  0.00     0.049 A 
ENDBRANCH   3   7
BRANCH   2  15
ATOM     15  C   UNL d   1       1.257   1.464  -1.952  0.00  0.00     0.077 A 
ATOM     16  S   UNL d   1       0.611   2.974  -2.384  0.00  0.00    -0.084 SA
ATOM     17  C   UNL d   1       1.966   3.320  -3.377  0.00  0.00     0.052 A 
ATOM     18  C   UNL d   1       2.828   2.247  -3.459  0.00  0.00     0.010 A 
ATOM     19  C   UNL d   1       2.423   1.171  -2.616  0.00  0.00     0.038 A 
ENDBRANCH   2  15
TORSDOF 2
