REMARK  3 active torsions:
REMARK  status: ('A' for Active; 'I' for Inactive)
REMARK    1  A    between atoms: C_2  and  S_1 
REMARK    2  A    between atoms: N_8  and  S_1 
REMARK    3  A    between atoms: C_13  and  N_8 
ROOT
ATOM      1  S   UNL d   1       0.065  -2.296  -0.575  0.00  0.00     0.261 S 
ATOM      2  O   UNL d   1      -0.976  -2.082   0.403  0.00  0.00    -0.200 OA
ATOM      3  O   UNL d   1      -0.139  -3.149  -1.726  0.00  0.00    -0.200 OA
ENDROOT
BRANCH   1   4
ATOM      4  C   UNL d   1       1.468  -2.878   0.285  0.00  0.00     0.110 A 
ATOM      5  C   UNL d   1       2.104  -2.131   1.289  0.00  0.00     0.108 A 
ATOM      6  C   UNL d   1       3.239  -2.672   2.029  0.00  0.00     0.086 A 
ATOM      7  N   UNL d   1       1.861  -0.899   1.760  0.00  0.00    -0.238 N 
ATOM      8  N   UNL d   1       3.641  -1.757   2.918  0.00  0.00    -0.239 N 
ATOM      9  C   UNL d   1       3.759  -3.958   1.786  0.00  0.00     0.034 A 
ATOM     10  O   UNL d   1       2.799  -0.673   2.751  0.00  0.00    -0.156 OA
ATOM     11  HN  UNL d   1       4.411  -1.841   3.581  1.00  0.00     0.197 HD
ATOM     12  C   UNL d   1       3.110  -4.677   0.764  0.00  0.00     0.004 A 
ATOM     13  C   UNL d   1       2.007  -4.159   0.037  0.00  0.00     0.028 A 
ATOM     14  HN  UNL d   1       1.131  -0.257   1.450  1.00  0.00     0.197 HD
ENDBRANCH   1   4
BRANCH   1  15
ATOM     15  N   UNL d   1       0.537  -0.783  -1.122  0.00  0.00    -0.310 N 
ATOM     16  H   UNL d   1      -0.015  -0.048  -0.676  0.00  0.00     0.172 HD
BRANCH  15  17
ATOM     17  C   UNL d   1       0.881  -0.595  -2.543  0.00  0.00     0.101 C 
ATOM     18  C   UNL d   1       2.243  -1.222  -2.910  0.00  0.00     0.065 C 
ATOM     19  C   UNL d   1       2.767  -0.261  -3.932  0.00  0.00    -0.050 A 
ATOM     20  C   UNL d   1       3.839  -0.431  -4.793  0.00  0.00     0.007 A 
ATOM     21  C   UNL d   1       2.064   0.946  -3.897  0.00  0.00    -0.050 A 
ATOM     22  C   UNL d   1       4.195   0.631  -5.629  0.00  0.00     0.001 A 
ATOM     23  C   UNL d   1       3.489   1.842  -5.589  0.00  0.00     0.001 A 
ATOM     24  C   UNL d   1       2.414   2.007  -4.714  0.00  0.00     0.007 A 
ATOM     25  C   UNL d   1       0.996   0.916  -2.854  0.00  0.00     0.065 C 
ENDBRANCH  15  17
ENDBRANCH   1  15
TORSDOF 3
