REMARK  4 active torsions:
REMARK  status: ('A' for Active; 'I' for Inactive)
REMARK    1  A    between atoms: C_9  and  N_1 
REMARK    2  A    between atoms: N_2  and  C_8 
REMARK    3  A    between atoms: C_4  and  C_12 
REMARK    4  A    between atoms: C_13  and  C_5 
ROOT
ATOM      1  O   UNL d   1      -2.036   5.586  -1.380  0.00  0.00    -0.309 OA
ATOM      2  C   UNL d   1      -1.931   4.424  -2.100  0.00  0.00     0.086 A 
ATOM      3  C   UNL d   1      -2.780   6.468  -2.121  0.00  0.00     0.086 A 
ATOM      4  C   UNL d   1      -2.607   4.565  -3.295  0.00  0.00     0.041 A 
ATOM      5  C   UNL d   1      -3.152   5.866  -3.307  0.00  0.00     0.041 A 
ENDROOT
BRANCH   2   6
ATOM      6  C   UNL d   1      -1.176   3.322  -1.502  0.00  0.00    -0.002 A 
ATOM      7  C   UNL d   1      -0.532   3.447  -0.261  0.00  0.00     0.017 A 
ATOM      8  C   UNL d   1       0.175   2.371   0.296  0.00  0.00     0.037 A 
ATOM      9  C   UNL d   1       0.242   1.154  -0.393  0.00  0.00     0.102 A 
ATOM     10  C   UNL d   1      -0.386   1.010  -1.633  0.00  0.00     0.037 A 
ATOM     11  C   UNL d   1      -1.088   2.091  -2.177  0.00  0.00     0.017 A 
BRANCH   9  12
ATOM     12  N   UNL d   1       0.972   0.019   0.185  0.00  0.00    -0.116 N 
ATOM     13  O   UNL d   1       0.994  -1.041  -0.458  0.00  0.00    -0.532 OA
ATOM     14  O   UNL d   1       1.522   0.186   1.282  0.00  0.00    -0.532 OA
ENDBRANCH   9  12
ENDBRANCH   2   6
BRANCH   3  15
ATOM     15  C   UNL d   1      -3.013   7.799  -1.560  0.00  0.00    -0.002 A 
ATOM     16  C   UNL d   1      -2.561   8.160  -0.281  0.00  0.00     0.017 A 
ATOM     17  C   UNL d   1      -2.775   9.452   0.222  0.00  0.00     0.037 A 
ATOM     18  C   UNL d   1      -3.450  10.397  -0.561  0.00  0.00     0.102 A 
ATOM     19  C   UNL d   1      -3.919  10.055  -1.832  0.00  0.00     0.037 A 
ATOM     20  C   UNL d   1      -3.700   8.763  -2.320  0.00  0.00     0.017 A 
BRANCH  18  21
ATOM     21  N   UNL d   1      -3.662  11.759  -0.054  0.00  0.00    -0.116 N 
ATOM     22  O   UNL d   1      -3.221  12.029   1.073  0.00  0.00    -0.532 OA
ATOM     23  O   UNL d   1      -4.268  12.558  -0.782  0.00  0.00    -0.532 OA
ENDBRANCH  18  21
ENDBRANCH   3  15
TORSDOF 4
