REMARK  6 active torsions:
REMARK  status: ('A' for Active; 'I' for Inactive)
REMARK    1  A    between atoms: C_3  and  C_1 
REMARK    2  A    between atoms: C_2  and  C_4 
REMARK    3  A    between atoms: C_4  and  C_15 
REMARK    4  A    between atoms: C_15  and  C_20 
REMARK    5  A    between atoms: S_16  and  C_17 
REMARK    6  A    between atoms: C_20  and  S_16 
ROOT
ATOM      1  C   UNL d   1      -4.243   5.830  -4.590  0.00  0.00     0.048 A 
ATOM      2  C   UNL d   1      -3.048   6.267  -5.179  0.00  0.00     0.017 A 
ATOM      3  C   UNL d   1      -4.320   4.513  -4.114  0.00  0.00     0.017 A 
ATOM      4  C   UNL d   1      -2.063   4.069  -4.881  0.00  0.00     0.000 A 
ATOM      5  C   UNL d   1      -1.966   5.393  -5.320  0.00  0.00     0.019 A 
ATOM      6  C   UNL d   1      -3.236   3.642  -4.253  0.00  0.00     0.019 A 
ENDROOT
BRANCH   4   7
ATOM      7  S   UNL d   1      -0.704   2.948  -5.155  0.00  0.00    -0.130 SA
BRANCH   7   8
ATOM      8  C   UNL d   1      -1.544   1.646  -6.138  0.00  0.00     0.087 C 
BRANCH   8   9
ATOM      9  C   UNL d   1      -1.984   2.176  -7.497  0.00  0.00     0.096 C 
BRANCH   9  10
ATOM     10  C   UNL d   1      -2.672   1.105  -8.327  0.00  0.00     0.183 C 
ATOM     11  O   UNL d   1      -2.842  -0.039  -7.901  0.00  0.00    -0.290 OA
BRANCH  10  12
ATOM     12  C   UNL d   1      -3.117   1.525  -9.644  0.00  0.00     0.120 A 
ATOM     13  O   UNL d   1      -2.900   2.816 -10.046  0.00  0.00    -0.319 OA
ATOM     14  C   UNL d   1      -3.395   2.937 -11.304  0.00  0.00     0.142 A 
ATOM     15  C   UNL d   1      -3.932   1.744 -11.726  0.00  0.00     0.027 A 
ATOM     16  C   UNL d   1      -3.761   0.835 -10.654  0.00  0.00     0.043 A 
ENDBRANCH  10  12
ENDBRANCH   9  10
ENDBRANCH   8   9
ENDBRANCH   7   8
ENDBRANCH   4   7
BRANCH   1  17
ATOM     17  C   UNL d   1      -5.442   6.740  -4.469  0.00  0.00     0.417 C 
ATOM     18  F   UNL d   1      -5.237   7.986  -4.979  0.00  0.00    -0.166 F 
ATOM     19  F   UNL d   1      -5.831   6.922  -3.177  0.00  0.00    -0.166 F 
ATOM     20  F   UNL d   1      -6.532   6.246  -5.120  0.00  0.00    -0.166 F 
ENDBRANCH   1  17
TORSDOF 6
