REMARK  3 active torsions:
REMARK  status: ('A' for Active; 'I' for Inactive)
REMARK    1  A    between atoms: C_3  and  N_1 
REMARK       I    between atoms: C_2  and  N_4 
REMARK    2  A    between atoms: C_10  and  C_2 
REMARK    3  A    between atoms: N_4  and  C_8 
ROOT
ATOM      1  C   UNL d   1       1.685  -4.191  -2.600  0.00  0.00     0.256 C 
ATOM      2  N   UNL d   1       0.688  -3.408  -3.158  0.00  0.00    -0.323 N 
ATOM      3  O   UNL d   1       2.307  -3.928  -1.573  0.00  0.00    -0.267 OA
ATOM      4  H   UNL d   1       0.196  -3.769  -3.964  0.00  0.00     0.169 HD
ENDROOT
BRANCH   2   5
ATOM      5  C   UNL d   1       0.226  -2.167  -2.646  0.00  0.00     0.037 A 
ATOM      6  C   UNL d   1       0.763  -1.554  -1.509  0.00  0.00     0.065 A 
ATOM      7  C   UNL d   1       0.242  -0.339  -1.042  0.00  0.00     0.105 A 
ATOM      8  C   UNL d   1      -0.812   0.288  -1.713  0.00  0.00     0.036 A 
ATOM      9  C   UNL d   1      -1.343  -0.311  -2.855  0.00  0.00     0.005 A 
ATOM     10  C   UNL d   1      -0.828  -1.530  -3.316  0.00  0.00     0.029 A 
BRANCH   7  11
ATOM     11  N   UNL d   1       0.808   0.278   0.167  0.00  0.00    -0.116 N 
ATOM     12  O   UNL d   1       1.730  -0.313   0.745  0.00  0.00    -0.532 OA
ATOM     13  O   UNL d   1       0.323   1.354   0.540  0.00  0.00    -0.532 OA
ENDBRANCH   7  11
ENDBRANCH   2   5
BRANCH   1  14
ATOM     14  C   UNL d   1       2.030  -5.474  -3.276  0.00  0.00     0.032 A 
ATOM     15  C   UNL d   1       1.841  -5.711  -4.642  0.00  0.00     0.017 A 
ATOM     16  C   UNL d   1       2.279  -6.918  -5.203  0.00  0.00     0.001 A 
ATOM     17  C   UNL d   1       2.905  -7.882  -4.411  0.00  0.00     0.000 A 
ATOM     18  C   UNL d   1       3.091  -7.653  -3.051  0.00  0.00     0.001 A 
ATOM     19  C   UNL d   1       2.655  -6.457  -2.488  0.00  0.00     0.017 A 
ENDBRANCH   1  14
TORSDOF 3
