REMARK  2 active torsions:
REMARK  status: ('A' for Active; 'I' for Inactive)
REMARK       I    between atoms: N_2  and  C_1 
REMARK    1  A    between atoms: C_6  and  C_1 
REMARK    2  A    between atoms: C_3  and  N_2 
ROOT
ATOM      1  C   UNL d   1       0.874  -2.466  -0.089  0.00  0.00     0.046 A 
ATOM      2  C   UNL d   1       0.423  -3.502  -0.951  0.00  0.00     0.001 A 
ATOM      3  C   UNL d   1       1.117  -4.741  -0.924  0.00  0.00    -0.024 A 
ATOM      4  C   UNL d   1       1.911  -2.707   0.825  0.00  0.00     0.030 A 
ATOM      5  C   UNL d   1       2.546  -3.942   0.872  0.00  0.00     0.003 A 
ATOM      6  C   UNL d   1      -0.630  -3.366  -1.890  0.00  0.00     0.014 A 
ATOM      7  C   UNL d   1       2.164  -4.945  -0.011  0.00  0.00     0.012 A 
ATOM      8  C   UNL d   1       0.778  -5.758  -1.830  0.00  0.00     0.012 A 
ATOM      9  C   UNL d   1      -0.962  -4.394  -2.775  0.00  0.00     0.001 A 
ATOM     10  C   UNL d   1      -0.250  -5.585  -2.754  0.00  0.00     0.001 A 
ENDROOT
BRANCH   1  11
ATOM     11  N   UNL d   1       0.306  -1.164  -0.152  0.00  0.00    -0.322 N 
ATOM     12  C   UNL d   1       1.095  -0.025  -0.134  0.00  0.00     0.256 C 
ATOM     13  O   UNL d   1       2.326  -0.003  -0.092  0.00  0.00    -0.267 OA
ATOM     14  H   UNL d   1      -0.607  -1.068  -0.571  0.00  0.00     0.169 HD
BRANCH  12  15
ATOM     15  C   UNL d   1       0.383   1.269  -0.239  0.00  0.00     0.032 A 
ATOM     16  C   UNL d   1      -0.809   1.502   0.453  0.00  0.00     0.017 A 
ATOM     17  C   UNL d   1      -1.379   2.777   0.435  0.00  0.00     0.001 A 
ATOM     18  C   UNL d   1      -0.766   3.812  -0.276  0.00  0.00     0.000 A 
ATOM     19  C   UNL d   1       0.411   3.575  -0.986  0.00  0.00     0.001 A 
ATOM     20  C   UNL d   1       0.988   2.307  -0.964  0.00  0.00     0.017 A 
ENDBRANCH  12  15
ENDBRANCH   1  11
TORSDOF 2
