REMARK  3 active torsions:
REMARK  status: ('A' for Active; 'I' for Inactive)
REMARK    1  A    between atoms: N_6  and  C_1 
REMARK       I    between atoms: C_7  and  N_6 
REMARK       I    between atoms: N_10  and  C_7 
REMARK    2  A    between atoms: N_14  and  C_9 
REMARK    3  A    between atoms: C_11  and  N_10 
ROOT
ATOM      1  C   UNL d   1      -0.815   1.631  -0.331  0.00  0.00     0.138 C 
ATOM      2  C   UNL d   1       0.459   0.988  -0.266  0.00  0.00     0.059 A 
ATOM      3  N   UNL d   1      -1.764   0.822  -0.808  0.00  0.00    -0.282 N 
ATOM      4  HN  UNL d   1      -2.720   1.057  -1.075  1.00  0.00     0.189 HD
ATOM      5  N   UNL d   1      -1.154  -0.382  -0.850  0.00  0.00    -0.294 N 
ATOM      6  C   UNL d   1       0.182  -0.350  -0.533  0.00  0.00     0.066 A 
ATOM      7  C   UNL d   1       1.782   1.420   0.037  0.00  0.00     0.026 A 
ATOM      8  C   UNL d   1      -1.930  -1.562  -1.151  0.00  0.00     0.178 C 
ATOM      9  C   UNL d   1       1.150  -1.353  -0.433  0.00  0.00     0.032 A 
ATOM     10  C   UNL d   1       2.744   0.393   0.148  0.00  0.00     0.025 A 
ATOM     11  C   UNL d   1       2.436  -0.954  -0.070  0.00  0.00     0.004 A 
ENDROOT
BRANCH   1  12
ATOM     12  N   UNL d   1      -1.013   2.919   0.108  0.00  0.00    -0.293 N 
ATOM     13  C   UNL d   1      -2.107   3.718   0.025  0.00  0.00     0.326 C 
ATOM     14  N   UNL d   1      -3.041   3.392  -0.928  0.00  0.00    -0.306 N 
ATOM     15  O   UNL d   1      -2.139   4.737   0.715  0.00  0.00    -0.247 OA
ATOM     16  H   UNL d   1      -2.713   2.720  -1.616  0.00  0.00     0.171 HD
ATOM     17  H   UNL d   1      -0.244   3.300   0.650  0.00  0.00     0.172 HD
BRANCH  14  18
ATOM     18  C   UNL d   1      -4.109   4.237  -1.287  0.00  0.00     0.075 A 
ATOM     19  C   UNL d   1      -4.457   4.357  -2.637  0.00  0.00     0.146 A 
ATOM     20  C   UNL d   1      -5.445   5.246  -3.051  0.00  0.00     0.086 A 
ATOM     21  F   UNL d   1      -3.779   3.666  -3.567  0.00  0.00    -0.204 F 
ATOM     22  C   UNL d   1      -6.126   5.986  -2.094  0.00  0.00     0.119 A 
ATOM     23  C   UNL d   1      -5.836   5.847  -0.740  0.00  0.00     0.044 A 
ATOM     24  F   UNL d   1      -7.074   6.850  -2.478  0.00  0.00    -0.206 F 
ATOM     25  C   UNL d   1      -4.820   4.979  -0.336  0.00  0.00     0.036 A 
ENDBRANCH  14  18
ENDBRANCH   1  12
BRANCH   7  26
ATOM     26  N   UNL d   1       2.087   2.784   0.217  0.00  0.00    -0.291 NA
ATOM     27  C   UNL d   1       1.940   3.571  -1.021  0.00  0.00     0.116 C 
ATOM     28  C   UNL d   1       3.303   3.117   0.963  0.00  0.00     0.116 C 
ENDBRANCH   7  26
TORSDOF 3
