REMARK  6 active torsions:
REMARK  status: ('A' for Active; 'I' for Inactive)
REMARK    1  A    between atoms: C_7  and  C_1 
REMARK    2  A    between atoms: C_12  and  N_2 
REMARK    3  A    between atoms: C_13  and  C_6 
REMARK       I    between atoms: N_9  and  C_7 
REMARK       I    between atoms: C_8  and  N_10 
REMARK    4  A    between atoms: C_11  and  C_8 
REMARK    5  A    between atoms: N_10  and  N_9 
REMARK    6  A    between atoms: C_17  and  C_12 
ROOT
ATOM      1  C   UNL d   1      -0.224  -1.205   0.187  0.00  0.00     0.122 A 
ATOM      2  N   UNL d   1       0.990  -0.572   0.041  0.00  0.00    -0.282 N 
ATOM      3  N   UNL d   1       0.901   0.775   0.087  0.00  0.00    -0.301 N 
ATOM      4  HN  UNL d   1       1.669   1.447   0.098  1.00  0.00     0.187 HD
ATOM      5  C   UNL d   1      -1.151  -0.171   0.186  0.00  0.00     0.064 A 
ATOM      6  C   UNL d   1      -0.408   1.036   0.115  0.00  0.00     0.036 A 
ENDROOT
BRANCH   1   7
ATOM      7  C   UNL d   1      -0.405  -2.635   0.324  0.00  0.00     0.288 C 
ATOM      8  N   UNL d   1      -1.651  -3.110  -0.031  0.00  0.00    -0.262 N 
ATOM      9  H   UNL d   1      -2.353  -2.548  -0.509  0.00  0.00     0.190 HD
ATOM     10  O   UNL d   1       0.467  -3.396   0.743  0.00  0.00    -0.264 OA
BRANCH   8  11
ATOM     11  N   UNL d   1      -1.964  -4.468   0.155  0.00  0.00    -0.263 N 
ATOM     12  C   UNL d   1      -3.187  -4.912  -0.306  0.00  0.00     0.270 C 
ATOM     13  O   UNL d   1      -3.916  -4.181  -0.980  0.00  0.00    -0.266 OA
ATOM     14  H   UNL d   1      -1.268  -5.042   0.623  0.00  0.00     0.190 HD
BRANCH  12  15
ATOM     15  C   UNL d   1      -3.614  -6.315   0.001  0.00  0.00     0.039 A 
ATOM     16  C   UNL d   1      -3.329  -7.019   1.190  0.00  0.00    -0.046 A 
ATOM     17  C   UNL d   1      -2.508  -6.480   2.325  0.00  0.00     0.049 C 
ATOM     18  C   UNL d   1      -3.857  -8.321   1.345  0.00  0.00     0.007 A 
ATOM     19  C   UNL d   1      -4.677  -8.898   0.378  0.00  0.00     0.001 A 
ATOM     20  C   UNL d   1      -4.978  -8.191  -0.780  0.00  0.00     0.001 A 
ATOM     21  C   UNL d   1      -4.446  -6.914  -0.964  0.00  0.00     0.017 A 
ENDBRANCH  12  15
ENDBRANCH   8  11
ENDBRANCH   1   7
BRANCH   2  22
ATOM     22  C   UNL d   1       2.290  -1.152  -0.281  0.00  0.00     0.188 C 
BRANCH  22  23
ATOM     23  C   UNL d   1       2.473  -1.269  -1.782  0.00  0.00    -0.038 A 
ATOM     24  C   UNL d   1       2.473  -0.117  -2.593  0.00  0.00     0.012 A 
ATOM     25  C   UNL d   1       2.600  -0.220  -3.978  0.00  0.00     0.043 A 
ATOM     26  C   UNL d   1       2.748  -1.474  -4.555  0.00  0.00     0.116 A 
ATOM     27  C   UNL d   1       2.776  -2.622  -3.774  0.00  0.00     0.043 A 
ATOM     28  F   UNL d   1       2.866  -1.576  -5.886  0.00  0.00    -0.206 F 
ATOM     29  C   UNL d   1       2.635  -2.523  -2.387  0.00  0.00     0.012 A 
ENDBRANCH  22  23
ENDBRANCH   2  22
BRANCH   6  30
ATOM     30  C   UNL d   1      -0.874   2.484   0.071  0.00  0.00    -0.007 C 
ATOM     31  C   UNL d   1      -2.407   2.603   0.156  0.00  0.00     0.021 C 
ATOM     32  C   UNL d   1      -0.267   3.278   1.247  0.00  0.00     0.021 C 
ATOM     33  C   UNL d   1      -0.419   3.142  -1.251  0.00  0.00     0.021 C 
ENDBRANCH   6  30
TORSDOF 6
