REMARK  8 active torsions:
REMARK  status: ('A' for Active; 'I' for Inactive)
REMARK    1  A    between atoms: C_2  and  S_1 
REMARK    2  A    between atoms: N_7  and  S_1 
REMARK       I    between atoms: C_5  and  N_6 
REMARK    3  A    between atoms: C_17  and  C_5 
REMARK    4  A    between atoms: N_6  and  C_13 
REMARK    5  A    between atoms: C_8  and  C_18 
REMARK    6  A    between atoms: O_14  and  C_8 
REMARK    7  A    between atoms: C_19  and  C_17 
REMARK    8  A    between atoms: C_18  and  C_19 
ROOT
ATOM      1  C   UNL d   1       0.344   1.562  -0.120  0.00  0.00     0.074 A 
ATOM      2  C   UNL d   1       1.021   2.710   0.299  0.00  0.00     0.027 A 
ATOM      3  C   UNL d   1      -0.852   1.665  -0.826  0.00  0.00     0.027 A 
ATOM      4  C   UNL d   1      -0.760   4.087  -0.617  0.00  0.00     0.034 A 
ATOM      5  C   UNL d   1       0.470   3.971   0.043  0.00  0.00     0.031 A 
ATOM      6  C   UNL d   1      -1.399   2.928  -1.069  0.00  0.00     0.031 A 
ENDROOT
BRANCH   4   7
ATOM      7  N   UNL d   1      -1.300   5.382  -0.786  0.00  0.00    -0.327 N 
ATOM      8  C   UNL d   1      -2.614   5.670  -1.114  0.00  0.00     0.222 C 
ATOM      9  O   UNL d   1      -3.504   4.850  -1.314  0.00  0.00    -0.273 OA
ATOM     10  H   UNL d   1      -0.706   6.157  -0.516  0.00  0.00     0.169 HD
BRANCH   8  11
ATOM     11  C   UNL d   1      -2.905   7.160  -1.180  0.00  0.00     0.103 C 
BRANCH  11  12
ATOM     12  C   UNL d   1      -4.352   7.467  -0.770  0.00  0.00     0.019 C 
BRANCH  12  13
ATOM     13  C   UNL d   1      -4.667   7.097   0.685  0.00  0.00     0.110 C 
BRANCH  13  14
ATOM     14  C   UNL d   1      -3.845   7.894   1.669  0.00  0.00     0.139 C 
ATOM     15  O   UNL d   1      -3.420   9.021   1.467  0.00  0.00    -0.650 OA
BRANCH  14  16
ATOM     16  O   UNL d   1      -3.615   7.235   2.826  0.00  0.00    -0.776 OA
ATOM     17  H   UNL d   1      -4.016   6.346   2.866  0.00  0.00     0.167 HD
ENDBRANCH  14  16
ENDBRANCH  13  14
ENDBRANCH  12  13
ENDBRANCH  11  12
ENDBRANCH   8  11
ENDBRANCH   4   7
BRANCH   1  18
ATOM     18  S   UNL d   1       1.034  -0.035   0.199  0.00  0.00     0.239 S 
ATOM     19  O   UNL d   1       2.447   0.107   0.469  0.00  0.00    -0.206 OA
ATOM     20  O   UNL d   1       0.517  -0.980  -0.759  0.00  0.00    -0.206 OA
BRANCH  18  21
ATOM     21  N   UNL d   1       0.324  -0.427   1.670  0.00  0.00    -0.225 NA
ATOM     22  H   UNL d   1       1.035  -0.467   2.400  0.00  0.00     0.136 HD
ATOM     23  H   UNL d   1      -0.213  -1.290   1.571  0.00  0.00     0.136 HD
ENDBRANCH  18  21
ENDBRANCH   1  18
TORSDOF 8
