REMARK  10 active torsions:
REMARK  status: ('A' for Active; 'I' for Inactive)
REMARK    1  A    between atoms: O_3  and  C_1 
REMARK    2  A    between atoms: C_2  and  O_3 
REMARK    3  A    between atoms: C_5  and  C_2 
REMARK    4  A    between atoms: C_15  and  C_4 
REMARK    5  A    between atoms: O_27  and  C_6 
REMARK    6  A    between atoms: C_10  and  N_7 
REMARK    7  A    between atoms: O_29  and  C_11 
REMARK    8  A    between atoms: O_28  and  C_12 
REMARK    9  A    between atoms: O_32  and  C_19 
REMARK   10  A    between atoms: O_31  and  C_20 
ROOT
ATOM      1  C   UNL d   1       1.941  -5.696  -0.909  0.00  0.00     0.113 A 
ATOM      2  C   UNL d   1       1.611  -4.409  -0.431  0.00  0.00     0.017 A 
ATOM      3  C   UNL d   1       3.292  -6.081  -0.999  0.00  0.00     0.070 A 
ATOM      4  C   UNL d   1       4.298  -5.181  -0.654  0.00  0.00     0.050 A 
ATOM      5  C   UNL d   1       2.634  -3.503  -0.131  0.00  0.00     0.039 A 
ATOM      6  C   UNL d   1       3.966  -3.901  -0.217  0.00  0.00     0.036 A 
ATOM      7 CL   UNL d   1       3.800  -7.684  -1.402  0.00  0.00    -0.081 Cl
ATOM      8 CL   UNL d   1       5.211  -2.826   0.283  0.00  0.00    -0.084 Cl
ENDROOT
BRANCH   1   9
ATOM      9  O   UNL d   1       0.907  -6.661  -1.058  0.00  0.00    -0.272 OA
BRANCH   9  10
ATOM     10  C   UNL d   1       0.851  -7.456  -2.204  0.00  0.00     0.298 C 
ATOM     11  O   UNL d   1       1.229  -7.129  -3.322  0.00  0.00    -0.259 OA
BRANCH  10  12
ATOM     12  C   UNL d   1       0.326  -8.817  -1.838  0.00  0.00     0.045 A 
ATOM     13  C   UNL d   1       0.356  -9.858  -2.780  0.00  0.00     0.057 A 
ATOM     14  C   UNL d   1      -0.090 -11.153  -2.439  0.00  0.00     0.105 A 
ATOM     15  C   UNL d   1      -0.578 -11.410  -1.134  0.00  0.00     0.135 A 
ATOM     16  C   UNL d   1      -0.548 -10.373  -0.181  0.00  0.00     0.105 A 
ATOM     17  C   UNL d   1      -0.121  -9.091  -0.546  0.00  0.00     0.057 A 
BRANCH  14  18
ATOM     18  O   UNL d   1      -0.059 -12.215  -3.305  0.00  0.00    -0.353 OA
ATOM     19  C   UNL d   1       0.493 -12.053  -4.604  0.00  0.00     0.210 C 
ENDBRANCH  14  18
BRANCH  15  20
ATOM     20  O   UNL d   1      -1.064 -12.612  -0.689  0.00  0.00    -0.351 OA
ATOM     21  C   UNL d   1      -1.600 -13.547  -1.614  0.00  0.00     0.210 C 
ENDBRANCH  15  20
BRANCH  16  22
ATOM     22  O   UNL d   1      -0.944 -10.423   1.134  0.00  0.00    -0.353 OA
ATOM     23  C   UNL d   1      -0.889 -11.678   1.801  0.00  0.00     0.210 C 
ENDBRANCH  16  22
ENDBRANCH  10  12
ENDBRANCH   9  10
ENDBRANCH   1   9
BRANCH   2  24
ATOM     24  C   UNL d   1       0.195  -4.004  -0.243  0.00  0.00     0.102 C 
ATOM     25  N   UNL d   1      -0.376  -3.251   0.658  0.00  0.00    -0.363 N 
ATOM     26  HN  UNL d   1      -1.368  -3.054   0.530  1.00  0.00     0.165 HD
BRANCH  25  27
ATOM     27  C   UNL d   1       0.246  -2.680   1.791  0.00  0.00     0.068 A 
ATOM     28  C   UNL d   1       1.042  -3.488   2.628  0.00  0.00     0.071 A 
ATOM     29  C   UNL d   1       1.696  -2.978   3.759  0.00  0.00     0.092 A 
ATOM     30  C   UNL d   1       1.504  -1.637   4.099  0.00  0.00     0.070 A 
ATOM     31  C   UNL d   1       0.666  -0.835   3.330  0.00  0.00     0.065 A 
ATOM     32 CL   UNL d   1       2.264  -0.934   5.484  0.00  0.00    -0.081 Cl
ATOM     33  C   UNL d   1       0.027  -1.342   2.187  0.00  0.00     0.096 A 
BRANCH  29  34
ATOM     34  O   UNL d   1       2.538  -3.706   4.558  0.00  0.00    -0.354 OA
ATOM     35  C   UNL d   1       2.538  -5.116   4.391  0.00  0.00     0.210 C 
ENDBRANCH  29  34
BRANCH  33  36
ATOM     36  O   UNL d   1      -0.751  -0.384   1.593  0.00  0.00    -0.354 OA
ATOM     37  C   UNL d   1      -1.693  -0.780   0.610  0.00  0.00     0.210 C 
ENDBRANCH  33  36
ENDBRANCH  25  27
ENDBRANCH   2  24
TORSDOF 10
