REMARK  6 active torsions:
REMARK  status: ('A' for Active; 'I' for Inactive)
REMARK    1  A    between atoms: C_11  and  C_1 
REMARK    2  A    between atoms: C_4  and  C_2 
REMARK    3  A    between atoms: N_6  and  C_14 
REMARK    4  A    between atoms: C_16  and  C_10 
REMARK    5  A    between atoms: O_24  and  C_11 
REMARK    6  A    between atoms: C_26  and  O_24 
ROOT
ATOM      1  C   UNL d   1       1.455   1.094   0.006  0.00  0.00     0.068 C 
ATOM      2  C   UNL d   1       0.236   1.984  -0.045  0.00  0.00     0.185 C 
ATOM      3  C   UNL d   1       1.352  -0.252  -0.031  0.00  0.00     0.024 C 
ATOM      4  C   UNL d   1      -1.082  -0.128  -0.039  0.00  0.00     0.321 C 
ATOM      5  N   UNL d   1       0.093  -0.808  -0.108  0.00  0.00    -0.312 N 
ATOM      6  N   UNL d   1      -0.990   1.214   0.097  0.00  0.00    -0.328 N 
ATOM      7  O   UNL d   1      -2.164  -0.703  -0.062  0.00  0.00    -0.247 OA
ATOM      8  C   UNL d   1       2.458  -1.274  -0.003  0.00  0.00     0.069 C 
ATOM      9  H   UNL d   1      -0.011  -1.816  -0.155  0.00  0.00     0.170 HD
ATOM     10  H   UNL d   1      -1.875   1.701   0.127  0.00  0.00     0.165 HD
ENDROOT
BRANCH   2  11
ATOM     11  C   UNL d   1       0.169   3.047   1.011  0.00  0.00     0.081 A 
ATOM     12  O   UNL d   1       0.083   4.347   0.592  0.00  0.00    -0.312 OA
ATOM     13  C   UNL d   1       0.108   5.139   1.709  0.00  0.00     0.086 A 
ATOM     14  C   UNL d   1       0.191   4.338   2.832  0.00  0.00     0.040 A 
ATOM     15  C   UNL d   1       0.218   2.999   2.388  0.00  0.00     0.038 A 
BRANCH  13  16
ATOM     16  C   UNL d   1       0.050   6.587   1.506  0.00  0.00    -0.002 A 
ATOM     17  C   UNL d   1      -0.035   7.162   0.227  0.00  0.00     0.017 A 
ATOM     18  C   UNL d   1      -0.115   8.552   0.065  0.00  0.00     0.037 A 
ATOM     19  C   UNL d   1      -0.109   9.383   1.191  0.00  0.00     0.102 A 
ATOM     20  C   UNL d   1      -0.009   8.834   2.472  0.00  0.00     0.037 A 
ATOM     21  C   UNL d   1       0.071   7.446   2.620  0.00  0.00     0.017 A 
BRANCH  19  22
ATOM     22  N   UNL d   1      -0.216  10.840   1.036  0.00  0.00    -0.116 N 
ATOM     23  O   UNL d   1      -0.319  11.290  -0.115  0.00  0.00    -0.532 OA
ATOM     24  O   UNL d   1      -0.200  11.532   2.063  0.00  0.00    -0.532 OA
ENDBRANCH  19  22
ENDBRANCH  13  16
ENDBRANCH   2  11
BRANCH   1  25
ATOM     25  C   UNL d   1       2.772   1.766   0.137  0.00  0.00     0.293 C 
ATOM     26  O   UNL d   1       3.752   1.262   0.673  0.00  0.00    -0.259 OA
BRANCH  25  27
ATOM     27  O   UNL d   1       2.741   3.018  -0.384  0.00  0.00    -0.318 OA
BRANCH  27  28
ATOM     28  C   UNL d   1       3.955   3.775  -0.247  0.00  0.00     0.174 C 
ATOM     29  C   UNL d   1       4.180   4.244   1.182  0.00  0.00     0.034 C 
ENDBRANCH  27  28
ENDBRANCH  25  27
ENDBRANCH   1  25
TORSDOF 6
