REMARK  1 active torsions:
REMARK  status: ('A' for Active; 'I' for Inactive)
REMARK    1  A    between atoms: C_9  and  N_3 
ROOT
ATOM      1  C   UNL d   1      -1.405  -0.061  -0.009  0.00  0.00     0.334 A 
ATOM      2  N   UNL d   1      -0.694   1.113   0.065  0.00  0.00    -0.274 N 
ATOM      3  N   UNL d   1      -0.627  -1.228  -0.110  0.00  0.00    -0.273 N 
ATOM      4  C   UNL d   1       1.436  -0.000  -0.067  0.00  0.00     0.128 A 
ATOM      5  C   UNL d   1       0.760  -1.155  -0.132  0.00  0.00     0.130 A 
ATOM      6  C   UNL d   1       0.663   1.254  -0.013  0.00  0.00     0.271 A 
ATOM      7  C   UNL d   1       2.851   0.036  -0.049  0.00  0.00     0.106 C 
ATOM      8  N   UNL d   1       4.012  -0.003  -0.030  0.00  0.00    -0.191 NA
ATOM      9  O   UNL d   1      -2.633  -0.008  -0.031  0.00  0.00    -0.246 OA
ATOM     10  O   UNL d   1       1.193   2.358  -0.044  0.00  0.00    -0.266 OA
ATOM     11  H   UNL d   1      -1.243   1.960   0.071  0.00  0.00     0.173 HD
ENDROOT
BRANCH   3  12
ATOM     12  C   UNL d   1      -1.293  -2.487  -0.240  0.00  0.00     0.043 A 
ATOM     13  C   UNL d   1      -0.905  -3.390  -1.242  0.00  0.00     0.032 A 
ATOM     14  C   UNL d   1      -1.591  -4.596  -1.412  0.00  0.00     0.026 A 
ATOM     15  C   UNL d   1      -2.639  -4.925  -0.554  0.00  0.00     0.034 A 
ATOM     16  C   UNL d   1      -3.010  -4.056   0.468  0.00  0.00     0.026 A 
ATOM     17 CL   UNL d   1      -3.485  -6.406  -0.768  0.00  0.00    -0.084 Cl
ATOM     18  C   UNL d   1      -2.349  -2.833   0.615  0.00  0.00     0.032 A 
ENDBRANCH   3  12
TORSDOF 1
