REMARK  2 active torsions:
REMARK  status: ('A' for Active; 'I' for Inactive)
REMARK    1  A    between atoms: C_10  and  C_1 
REMARK    2  A    between atoms: C_13  and  N_3 
ROOT
ATOM      1  C   UNL d   1       1.166  -1.368   0.296  0.00  0.00     0.149 C 
ATOM      2  C   UNL d   1       0.394  -0.258   0.468  0.00  0.00     0.005 C 
ATOM      3  N   UNL d   1       2.133  -0.953  -0.616  0.00  0.00    -0.251 N 
ATOM      4  C   UNL d   1       0.588   0.464  -0.719  0.00  0.00     0.044 C 
ATOM      5  N   UNL d   1       1.614   0.037  -1.436  0.00  0.00    -0.296 N 
ATOM      6  HN  UNL d   1       1.938   0.353  -2.351  1.00  0.00     0.187 HD
ATOM      7  C   UNL d   1      -0.487   1.526  -0.793  0.00  0.00     0.008 C 
ATOM      8  C   UNL d   1      -0.760   0.362   1.185  0.00  0.00     0.032 C 
ATOM      9  C   UNL d   1      -0.564   1.898   0.758  0.00  0.00    -0.027 C 
ATOM     10  C   UNL d   1      -1.857   0.771  -0.956  0.00  0.00     0.017 C 
ATOM     11  C   UNL d   1      -2.020  -0.035   0.373  0.00  0.00     0.011 C 
ATOM     12  C   UNL d   1      -0.283   2.629  -1.798  0.00  0.00     0.023 C 
ATOM     13  C   UNL d   1       0.739   2.560   1.280  0.00  0.00     0.016 C 
ATOM     14  C   UNL d   1      -1.722   2.823   1.171  0.00  0.00     0.016 C 
ENDROOT
BRANCH   3  15
ATOM     15  C   UNL d   1       3.511  -1.302  -0.655  0.00  0.00     0.057 A 
ATOM     16  C   UNL d   1       4.288  -1.007  -1.781  0.00  0.00     0.031 A 
ATOM     17  C   UNL d   1       5.650  -1.332  -1.796  0.00  0.00     0.002 A 
ATOM     18  C   UNL d   1       6.247  -1.931  -0.687  0.00  0.00     0.000 A 
ATOM     19  C   UNL d   1       5.493  -2.188   0.452  0.00  0.00     0.002 A 
ATOM     20  C   UNL d   1       4.134  -1.866   0.474  0.00  0.00     0.031 A 
ENDBRANCH   3  15
BRANCH   1  21
ATOM     21  C   UNL d   1       1.048  -2.758   0.752  0.00  0.00     0.435 C 
ATOM     22  F   UNL d   1      -0.244  -3.071   1.041  0.00  0.00    -0.165 F 
ATOM     23  F   UNL d   1       1.451  -3.646  -0.191  0.00  0.00    -0.165 F 
ATOM     24  F   UNL d   1       1.757  -3.016   1.877  0.00  0.00    -0.165 F 
ENDBRANCH   1  21
TORSDOF 2
