REMARK  4 active torsions:
REMARK  status: ('A' for Active; 'I' for Inactive)
REMARK    1  A    between atoms: C_2  and  C_1 
REMARK    2  A    between atoms: C_4  and  C_2 
REMARK    3  A    between atoms: S_8  and  C_3 
REMARK    4  A    between atoms: C_9  and  S_8 
ROOT
ATOM      1  C   UNL d   1       0.985  -0.077  -0.110  0.00  0.00     0.062 C 
ATOM      2  C   UNL d   1       2.309  -0.019   0.083  0.00  0.00     0.054 C 
ENDROOT
BRANCH   1   3
ATOM      3  C   UNL d   1       0.288   1.077  -0.735  0.00  0.00     0.182 C 
ATOM      4  O   UNL d   1       0.806   2.186  -0.804  0.00  0.00    -0.288 OA
BRANCH   3   5
ATOM      5  C   UNL d   1      -1.086   0.860  -1.261  0.00  0.00     0.014 A 
ATOM      6  C   UNL d   1      -1.975   1.943  -1.264  0.00  0.00     0.017 A 
ATOM      7  C   UNL d   1      -3.263   1.798  -1.792  0.00  0.00     0.025 A 
ATOM      8  C   UNL d   1      -3.656   0.574  -2.329  0.00  0.00     0.034 A 
ATOM      9  C   UNL d   1      -2.777  -0.508  -2.337  0.00  0.00     0.025 A 
ATOM     10 CL   UNL d   1      -5.229   0.402  -3.002  0.00  0.00    -0.084 Cl
ATOM     11  C   UNL d   1      -1.490  -0.369  -1.805  0.00  0.00     0.017 A 
ENDBRANCH   3   5
ENDBRANCH   1   3
BRANCH   2  12
ATOM     12  S   UNL d   1       3.175  -1.356   0.763  0.00  0.00    -0.102 SA
BRANCH  12  13
ATOM     13  C   UNL d   1       3.935  -0.555   2.165  0.00  0.00     0.004 A 
ATOM     14  C   UNL d   1       3.614  -0.997   3.454  0.00  0.00     0.020 A 
ATOM     15  C   UNL d   1       4.211  -0.414   4.575  0.00  0.00     0.020 A 
ATOM     16  C   UNL d   1       5.138   0.613   4.407  0.00  0.00     0.011 A 
ATOM     17  C   UNL d   1       5.477   1.053   3.130  0.00  0.00     0.020 A 
ATOM     18 BR   UNL d   1       5.942   1.407   5.922  0.00  0.00    -0.051 Br
ATOM     19  C   UNL d   1       4.881   0.464   2.009  0.00  0.00     0.020 A 
ENDBRANCH  12  13
ENDBRANCH   2  12
TORSDOF 4
