REMARK  11 active torsions:
REMARK  status: ('A' for Active; 'I' for Inactive)
REMARK       I    between atoms: N_3  and  C_1 
REMARK       I    between atoms: N_8  and  C_1 
REMARK       I    between atoms: C_2  and  N_7 
REMARK       I    between atoms: N_4  and  C_2 
REMARK    1  A    between atoms: C_9  and  N_3 
REMARK    2  A    between atoms: C_10  and  N_4 
REMARK    3  A    between atoms: N_7  and  C_14 
REMARK    4  A    between atoms: C_13  and  N_8 
REMARK    5  A    between atoms: C_11  and  C_9 
REMARK    6  A    between atoms: C_12  and  C_10 
REMARK    7  A    between atoms: C_20  and  C_13 
REMARK    8  A    between atoms: C_14  and  C_19 
REMARK    9  A    between atoms: C_19  and  C_22 
REMARK   10  A    between atoms: C_21  and  C_20 
REMARK   11  A    between atoms: C_22  and  C_21 
ROOT
ATOM      1  C   UNL d   1       5.398  -1.397  -1.646  0.00  0.00     0.002 C 
ENDROOT
BRANCH   1   2
ATOM      2  C   UNL d   1       4.665  -0.528  -0.627  0.00  0.00     0.020 C 
BRANCH   2   3
ATOM      3  C   UNL d   1       3.162  -0.687  -0.830  0.00  0.00     0.124 C 
BRANCH   3   4
ATOM      4  N   UNL d   1       2.392   0.083   0.117  0.00  0.00    -0.343 N 
ATOM      5  C   UNL d   1       1.836  -0.296   1.300  0.00  0.00     0.316 C 
ATOM      6  N   UNL d   1       2.146  -1.539   1.744  0.00  0.00    -0.339 N 
ATOM      7  O   UNL d   1       1.097   0.480   1.887  0.00  0.00    -0.247 OA
ATOM      8  H   UNL d   1       2.834  -2.087   1.261  0.00  0.00     0.164 HD
ATOM      9  H   UNL d   1       2.109   1.018  -0.151  0.00  0.00     0.164 HD
BRANCH   6  10
ATOM     10  C   UNL d   1       1.630  -2.068   2.988  0.00  0.00     0.162 C 
BRANCH  10  11
ATOM     11  C   UNL d   1       2.744  -2.396   3.951  0.00  0.00    -0.040 A 
ATOM     12  C   UNL d   1       3.536  -1.371   4.491  0.00  0.00     0.009 A 
ATOM     13  C   UNL d   1       4.565  -1.665   5.388  0.00  0.00     0.001 A 
ATOM     14  C   UNL d   1       4.811  -2.985   5.759  0.00  0.00     0.000 A 
ATOM     15  C   UNL d   1       4.026  -4.012   5.238  0.00  0.00     0.001 A 
ATOM     16  C   UNL d   1       2.998  -3.720   4.338  0.00  0.00     0.009 A 
ENDBRANCH  10  11
ENDBRANCH   6  10
ENDBRANCH   3   4
ENDBRANCH   2   3
ENDBRANCH   1   2
BRANCH   1  17
ATOM     17  C   UNL d   1       6.908  -1.283  -1.506  0.00  0.00     0.002 C 
BRANCH  17  18
ATOM     18  C   UNL d   1       7.616  -2.172  -2.527  0.00  0.00     0.020 C 
BRANCH  18  19
ATOM     19  C   UNL d   1       9.123  -1.986  -2.400  0.00  0.00     0.124 C 
BRANCH  19  20
ATOM     20  N   UNL d   1       9.893  -2.822  -3.291  0.00  0.00    -0.343 N 
ATOM     21  C   UNL d   1      10.069  -2.746  -4.633  0.00  0.00     0.316 C 
ATOM     22  N   UNL d   1       9.264  -1.896  -5.315  0.00  0.00    -0.339 N 
ATOM     23  O   UNL d   1      10.923  -3.453  -5.155  0.00  0.00    -0.247 OA
ATOM     24  H   UNL d   1       8.716  -1.220  -4.815  0.00  0.00     0.164 HD
ATOM     25  H   UNL d   1      10.570  -3.448  -2.870  0.00  0.00     0.164 HD
BRANCH  22  26
ATOM     26  C   UNL d   1       9.401  -1.712  -6.745  0.00  0.00     0.162 C 
BRANCH  26  27
ATOM     27  C   UNL d   1       8.159  -2.057  -7.535  0.00  0.00    -0.040 A 
ATOM     28  C   UNL d   1       7.872  -1.335  -8.706  0.00  0.00     0.009 A 
ATOM     29  C   UNL d   1       6.840  -1.733  -9.558  0.00  0.00     0.001 A 
ATOM     30  C   UNL d   1       6.076  -2.856  -9.251  0.00  0.00     0.000 A 
ATOM     31  C   UNL d   1       6.333  -3.569  -8.081  0.00  0.00     0.001 A 
ATOM     32  C   UNL d   1       7.369  -3.175  -7.229  0.00  0.00     0.009 A 
ENDBRANCH  26  27
ENDBRANCH  22  26
ENDBRANCH  19  20
ENDBRANCH  18  19
ENDBRANCH  17  18
ENDBRANCH   1  17
TORSDOF 11
