REMARK  4 active torsions:
REMARK  status: ('A' for Active; 'I' for Inactive)
REMARK    1  A    between atoms: C_5  and  C_1 
REMARK    2  A    between atoms: O_17  and  C_3 
REMARK    3  A    between atoms: N_4  and  C_9 
REMARK    4  A    between atoms: C_15  and  N_6 
ROOT
ATOM      1  C   UNL d   1       0.565   3.618   1.113  0.00  0.00     0.102 C 
ATOM      2  N   UNL d   1       0.673   4.310   0.022  0.00  0.00    -0.365 N 
ATOM      3  HN  UNL d   1       0.890   3.850  -0.862  1.00  0.00     0.165 HD
ENDROOT
BRANCH   2   4
ATOM      4  C   UNL d   1       0.488   5.703   0.073  0.00  0.00     0.032 A 
ATOM      5  C   UNL d   1       1.281   6.505  -0.750  0.00  0.00     0.031 A 
ATOM      6  C   UNL d   1       1.145   7.902  -0.758  0.00  0.00     0.031 A 
ATOM      7  C   UNL d   1       0.198   8.539   0.050  0.00  0.00     0.030 A 
ATOM      8  C   UNL d   1      -0.609   7.721   0.855  0.00  0.00     0.031 A 
ATOM      9  C   UNL d   1      -0.478   6.330   0.862  0.00  0.00     0.031 A 
BRANCH   7  10
ATOM     10  N   UNL d   1       0.038   9.920   0.127  0.00  0.00    -0.377 N 
ATOM     11  C   UNL d   1       1.149  10.807  -0.261  0.00  0.00     0.149 C 
ATOM     12  C   UNL d   1       0.862  12.218   0.285  0.00  0.00     0.187 C 
ATOM     13  O   UNL d   1      -0.392  12.728  -0.206  0.00  0.00    -0.388 OA
ATOM     14  C   UNL d   1      -1.470  11.857   0.179  0.00  0.00     0.187 C 
ATOM     15  C   UNL d   1      -1.265  10.430  -0.355  0.00  0.00     0.149 C 
ENDBRANCH   7  10
ENDBRANCH   2   4
BRANCH   1  16
ATOM     16  C   UNL d   1       0.765   2.153   1.121  0.00  0.00     0.016 A 
ATOM     17  C   UNL d   1       0.520   1.414   2.281  0.00  0.00     0.099 A 
ATOM     18  C   UNL d   1       0.737   0.030   2.280  0.00  0.00     0.069 A 
ATOM     19 CL   UNL d   1       0.441  -0.897   3.705  0.00  0.00    -0.081 Cl
ATOM     20  C   UNL d   1       1.196  -0.614   1.134  0.00  0.00     0.050 A 
ATOM     21  C   UNL d   1       1.433   0.130  -0.020  0.00  0.00     0.036 A 
ATOM     22  C   UNL d   1       1.219   1.508  -0.036  0.00  0.00     0.039 A 
ATOM     23 CL   UNL d   1       2.005  -0.661  -1.437  0.00  0.00    -0.084 Cl
BRANCH  17  24
ATOM     24  O   UNL d   1       0.066   2.045   3.410  0.00  0.00    -0.358 OA
ATOM     25  H   UNL d   1      -0.049   1.370   4.105  0.00  0.00     0.217 HD
ENDBRANCH  17  24
ENDBRANCH   1  16
TORSDOF 4
