REMARK  4 active torsions:
REMARK  status: ('A' for Active; 'I' for Inactive)
REMARK    1  A    between atoms: C_8  and  N_1 
REMARK    2  A    between atoms: C_7  and  C_3 
REMARK    3  A    between atoms: C_4  and  C_10 
REMARK    4  A    between atoms: O_17  and  C_7 
ROOT
ATOM      1  O   UNL d   1      -2.776  -3.981  -3.541  0.00  0.00    -0.303 OA
ATOM      2  C   UNL d   1      -3.276  -5.135  -4.085  0.00  0.00     0.149 A 
ATOM      3  C   UNL d   1      -1.697  -4.321  -2.771  0.00  0.00     0.086 A 
ATOM      4  C   UNL d   1      -2.524  -6.210  -3.661  0.00  0.00     0.047 A 
ATOM      5  C   UNL d   1      -1.510  -5.689  -2.822  0.00  0.00     0.041 A 
ENDROOT
BRANCH   3   6
ATOM      6  C   UNL d   1      -1.012  -3.223  -2.091  0.00  0.00    -0.002 A 
ATOM      7  C   UNL d   1      -1.446  -1.894  -2.233  0.00  0.00     0.017 A 
ATOM      8  C   UNL d   1      -0.798  -0.848  -1.567  0.00  0.00     0.037 A 
ATOM      9  C   UNL d   1       0.301  -1.128  -0.748  0.00  0.00     0.102 A 
ATOM     10  C   UNL d   1       0.756  -2.442  -0.600  0.00  0.00     0.037 A 
ATOM     11  C   UNL d   1       0.099  -3.480  -1.271  0.00  0.00     0.017 A 
BRANCH   9  12
ATOM     12  N   UNL d   1       0.978  -0.038  -0.036  0.00  0.00    -0.116 N 
ATOM     13  O   UNL d   1       1.940  -0.333   0.686  0.00  0.00    -0.532 OA
ATOM     14  O   UNL d   1       0.545   1.112  -0.198  0.00  0.00    -0.532 OA
ENDBRANCH   9  12
ENDBRANCH   3   6
BRANCH   2  15
ATOM     15  C   UNL d   1      -4.425  -5.055  -4.953  0.00  0.00     0.201 C 
ATOM     16  O   UNL d   1      -4.974  -5.995  -5.508  0.00  0.00    -0.645 OA
BRANCH  15  17
ATOM     17  O   UNL d   1      -4.846  -3.771  -5.097  0.00  0.00    -0.771 OA
ATOM     18  H   UNL d   1      -4.273  -3.173  -4.574  0.00  0.00     0.167 HD
ENDBRANCH  15  17
ENDBRANCH   2  15
TORSDOF 4
