REMARK  5 active torsions:
REMARK  status: ('A' for Active; 'I' for Inactive)
REMARK    1  A    between atoms: O_2  and  S_1 
REMARK    2  A    between atoms: C_3  and  S_1 
REMARK    3  A    between atoms: C_9  and  O_2 
REMARK    4  A    between atoms: O_8  and  C_10 
REMARK    5  A    between atoms: C_14  and  O_8 
ROOT
ATOM      1  C   UNL d   1       0.891   0.154   2.573  0.00  0.00     0.089 A 
ATOM      2  C   UNL d   1       1.651  -0.762   5.108  0.00  0.00     0.076 A 
ATOM      3  C   UNL d   1       2.209  -0.236   2.810  0.00  0.00     0.041 A 
ATOM      4  C   UNL d   1      -0.030   0.144   3.624  0.00  0.00     0.041 A 
ATOM      5  C   UNL d   1       0.348  -0.317   4.889  0.00  0.00     0.040 A 
ATOM      6  C   UNL d   1       2.592  -0.672   4.080  0.00  0.00     0.040 A 
ENDROOT
BRANCH   1   7
ATOM      7  O   UNL d   1       0.424   0.612   1.367  0.00  0.00    -0.229 OA
BRANCH   7   8
ATOM      8  S   UNL d   1       1.072   0.112  -0.047  0.00  0.00     0.303 S 
ATOM      9  O   UNL d   1       0.810  -1.309  -0.199  0.00  0.00    -0.193 OA
ATOM     10  O   UNL d   1       2.410   0.654  -0.191  0.00  0.00    -0.193 OA
BRANCH   8  11
ATOM     11  C   UNL d   1       0.096   0.950  -1.278  0.00  0.00     0.087 A 
ATOM     12  C   UNL d   1      -0.351   2.253  -1.029  0.00  0.00     0.029 A 
ATOM     13  C   UNL d   1      -1.114   2.908  -1.997  0.00  0.00     0.044 A 
ATOM     14  C   UNL d   1      -1.418   2.258  -3.190  0.00  0.00     0.116 A 
ATOM     15  C   UNL d   1      -0.972   0.962  -3.440  0.00  0.00     0.044 A 
ATOM     16  F   UNL d   1      -2.150   2.891  -4.115  0.00  0.00    -0.206 F 
ATOM     17  C   UNL d   1      -0.210   0.298  -2.478  0.00  0.00     0.029 A 
ENDBRANCH   8  11
ENDBRANCH   7   8
ENDBRANCH   1   7
BRANCH   2  18
ATOM     18  O   UNL d   1       1.942  -1.227   6.372  0.00  0.00    -0.311 OA
BRANCH  18  19
ATOM     19  C   UNL d   1       2.840  -2.264   6.506  0.00  0.00     0.076 A 
ATOM     20  C   UNL d   1       3.666  -2.231   7.631  0.00  0.00     0.037 A 
ATOM     21  C   UNL d   1       4.615  -3.234   7.831  0.00  0.00     0.003 A 
ATOM     22  C   UNL d   1       4.737  -4.274   6.909  0.00  0.00     0.000 A 
ATOM     23  C   UNL d   1       3.888  -4.330   5.805  0.00  0.00     0.003 A 
ATOM     24  C   UNL d   1       2.922  -3.341   5.617  0.00  0.00     0.037 A 
ENDBRANCH  18  19
ENDBRANCH   2  18
TORSDOF 5
