REMARK  3 active torsions:
REMARK  status: ('A' for Active; 'I' for Inactive)
REMARK    1  A    between atoms: C_3  and  C_1 
REMARK       I    between atoms: N_7  and  C_3 
REMARK    2  A    between atoms: C_10  and  N_7 
REMARK    3  A    between atoms: C_21  and  C_18 
ROOT
ATOM      1  C   UNL d   1      -2.394  -0.188  -0.182  0.00  0.00     0.102 A 
ATOM      2  N   UNL d   1      -1.616   0.939  -0.016  0.00  0.00    -0.351 N 
ATOM      3  C   UNL d   1      -1.517  -1.249  -0.326  0.00  0.00     0.049 A 
ATOM      4  C   UNL d   1      -0.188  -0.750  -0.207  0.00  0.00    -0.007 A 
ATOM      5  C   UNL d   1      -0.279   0.624  -0.022  0.00  0.00     0.043 A 
ATOM      6  C   UNL d   1       1.088  -1.343  -0.239  0.00  0.00     0.021 A 
ATOM      7  C   UNL d   1       0.844   1.443   0.120  0.00  0.00     0.031 A 
ATOM      8  C   UNL d   1       2.245  -0.554  -0.073  0.00  0.00    -0.058 A 
ATOM      9  C   UNL d   1       2.103   0.829   0.095  0.00  0.00     0.009 A 
ATOM     10  H   UNL d   1      -1.999   1.869   0.096  0.00  0.00     0.166 HD
ENDROOT
BRANCH   1  11
ATOM     11  C   UNL d   1      -3.840  -0.086  -0.211  0.00  0.00     0.272 C 
ATOM     12  N   UNL d   1      -4.508  -1.295  -0.275  0.00  0.00    -0.322 N 
ATOM     13  H   UNL d   1      -3.950  -2.126  -0.146  0.00  0.00     0.169 HD
ATOM     14  O   UNL d   1      -4.379   1.016  -0.167  0.00  0.00    -0.266 OA
BRANCH  12  15
ATOM     15  C   UNL d   1      -5.885  -1.492  -0.510  0.00  0.00     0.037 A 
ATOM     16  C   UNL d   1      -6.768  -0.466  -0.842  0.00  0.00     0.072 A 
ATOM     17  C   UNL d   1      -8.095  -0.756  -1.144  0.00  0.00     0.124 A 
ATOM     18  F   UNL d   1      -8.915   0.250  -1.485  0.00  0.00    -0.205 F 
ATOM     19  C   UNL d   1      -8.582  -2.063  -1.121  0.00  0.00    -0.023 A 
ATOM     20  C   UNL d   1      -7.711  -3.091  -0.752  0.00  0.00     0.012 A 
ATOM     21  C   UNL d   1     -10.008  -2.331  -1.494  0.00  0.00     0.051 C 
ATOM     22  C   UNL d   1      -6.372  -2.807  -0.454  0.00  0.00     0.030 A 
ENDBRANCH  12  15
ENDBRANCH   1  11
BRANCH   8  23
ATOM     23  C   UNL d   1       3.580  -1.266  -0.070  0.00  0.00     0.034 C 
ATOM     24  C   UNL d   1       4.826  -0.406   0.094  0.00  0.00     0.010 C 
ENDBRANCH   8  23
TORSDOF 3
