REMARK  8 active torsions:
REMARK  status: ('A' for Active; 'I' for Inactive)
REMARK    1  A    between atoms: C_16  and  N_3 
REMARK    2  A    between atoms: C_17  and  C_10 
REMARK    3  A    between atoms: S_20  and  C_11 
REMARK    4  A    between atoms: C_14  and  C_15 
REMARK    5  A    between atoms: C_24  and  C_16 
REMARK    6  A    between atoms: C_18  and  C_28 
REMARK       I    between atoms: N_19  and  C_18 
REMARK    7  A    between atoms: C_22  and  N_19 
REMARK    8  A    between atoms: C_28  and  S_20 
ROOT
ATOM      1  C   UNL d   1      -0.512  -1.096   0.246  0.00  0.00     0.105 A 
ATOM      2  C   UNL d   1      -1.070  -2.405   0.263  0.00  0.00     0.193 A 
ATOM      3  N   UNL d   1       0.794  -0.701   0.125  0.00  0.00    -0.284 N 
ATOM      4  N   UNL d   1       0.921   0.654   0.034  0.00  0.00    -0.301 N 
ATOM      5  HN  UNL d   1       1.779   1.192  -0.093  1.00  0.00     0.187 HD
ATOM      6  C   UNL d   1      -1.245   0.069   0.317  0.00  0.00     0.063 A 
ATOM      7  O   UNL d   1      -2.357  -2.593   0.703  0.00  0.00    -0.266 OA
ATOM      8  N   UNL d   1      -0.566  -3.510  -0.244  0.00  0.00    -0.275 N 
ATOM      9  HN  UNL d   1       0.376  -3.637  -0.615  1.00  0.00     0.189 HD
ATOM     10  C   UNL d   1      -0.327   1.125   0.149  0.00  0.00     0.036 A 
ATOM     11  C   UNL d   1      -2.612  -3.890   0.383  0.00  0.00     0.204 A 
ATOM     12  N   UNL d   1      -1.571  -4.473  -0.175  0.00  0.00    -0.272 N 
ATOM     13  HN  UNL d   1      -1.513  -5.440  -0.494  1.00  0.00     0.189 HD
ENDROOT
BRANCH   3  14
ATOM     14  C   UNL d   1       2.002  -1.515   0.013  0.00  0.00     0.187 C 
BRANCH  14  15
ATOM     15  C   UNL d   1       2.613  -1.863   1.353  0.00  0.00    -0.038 A 
ATOM     16  C   UNL d   1       2.827  -3.208   1.700  0.00  0.00     0.015 A 
ATOM     17  C   UNL d   1       3.441  -3.554   2.915  0.00  0.00    -0.061 A 
ATOM     18  C   UNL d   1       3.697  -4.990   3.265  0.00  0.00     0.048 C 
ATOM     19  C   UNL d   1       3.865  -2.539   3.780  0.00  0.00     0.007 A 
ATOM     20  C   UNL d   1       3.666  -1.202   3.439  0.00  0.00     0.001 A 
ATOM     21  C   UNL d   1       3.050  -0.865   2.236  0.00  0.00     0.009 A 
ENDBRANCH  14  15
ENDBRANCH   3  14
BRANCH  11  22
ATOM     22  S   UNL d   1      -4.181  -4.577   0.672  0.00  0.00    -0.075 SA
BRANCH  22  23
ATOM     23  C   UNL d   1      -4.006  -6.192  -0.104  0.00  0.00     0.186 C 
BRANCH  23  24
ATOM     24  C   UNL d   1      -5.277  -7.032  -0.110  0.00  0.00     0.231 C 
ATOM     25  N   UNL d   1      -6.461  -6.401   0.237  0.00  0.00    -0.327 N 
ATOM     26  H   UNL d   1      -6.407  -5.402   0.413  0.00  0.00     0.169 HD
ATOM     27  O   UNL d   1      -5.189  -8.203  -0.484  0.00  0.00    -0.272 OA
BRANCH  25  28
ATOM     28  C   UNL d   1      -7.756  -6.971   0.198  0.00  0.00     0.035 A 
ATOM     29  C   UNL d   1      -7.975  -8.344   0.059  0.00  0.00     0.045 A 
ATOM     30  C   UNL d   1      -9.264  -8.865  -0.130  0.00  0.00     0.050 A 
ATOM     31  C   UNL d   1     -10.357  -7.990  -0.116  0.00  0.00     0.016 A 
ATOM     32  C   UNL d   1     -10.159  -6.627   0.096  0.00  0.00     0.003 A 
ATOM     33  C   UNL d   1      -8.864  -6.119   0.257  0.00  0.00     0.029 A 
BRANCH  30  34
ATOM     34  C   UNL d   1      -9.458 -10.336  -0.402  0.00  0.00     0.417 C 
ATOM     35  F   UNL d   1      -8.313 -11.069  -0.325  0.00  0.00    -0.166 F 
ATOM     36  F   UNL d   1     -10.332 -10.920   0.464  0.00  0.00    -0.166 F 
ATOM     37  F   UNL d   1      -9.961 -10.564  -1.649  0.00  0.00    -0.166 F 
ENDBRANCH  30  34
ENDBRANCH  25  28
ENDBRANCH  23  24
ENDBRANCH  22  23
ENDBRANCH  11  22
BRANCH  10  38
ATOM     38  C   UNL d   1      -0.675   2.600   0.057  0.00  0.00    -0.007 C 
ATOM     39  C   UNL d   1      -1.419   3.043   1.335  0.00  0.00     0.021 C 
ATOM     40  C   UNL d   1       0.569   3.490  -0.113  0.00  0.00     0.021 C 
ATOM     41  C   UNL d   1      -1.603   2.836  -1.156  0.00  0.00     0.021 C 
ENDBRANCH  10  38
TORSDOF 8
