REMARK  3 active torsions:
REMARK  status: ('A' for Active; 'I' for Inactive)
REMARK    1  A    between atoms: C_2  and  C_1 
REMARK       I    between atoms: N_6  and  C_2 
REMARK    2  A    between atoms: C_9  and  N_6 
REMARK    3  A    between atoms: N_8  and  C_10 
ROOT
ATOM      1  C   UNL d   1      -0.373   3.990   0.243  0.00  0.00     0.056 A 
ATOM      2  C   UNL d   1      -1.173   3.259   1.166  0.00  0.00     0.037 A 
ATOM      3  C   UNL d   1      -0.936   5.003  -0.545  0.00  0.00     0.031 A 
ATOM      4  C   UNL d   1      -2.539   3.586   1.237  0.00  0.00     0.026 A 
ATOM      5  C   UNL d   1      -2.293   5.303  -0.448  0.00  0.00     0.002 A 
ATOM      6  C   UNL d   1      -3.092   4.594   0.439  0.00  0.00     0.002 A 
ENDROOT
BRANCH   1   7
ATOM      7  N   UNL d   1       0.984   3.623   0.092  0.00  0.00    -0.321 N 
ATOM      8  C   UNL d   1       2.000   4.523  -0.193  0.00  0.00     0.258 C 
ATOM      9  O   UNL d   1       1.841   5.739  -0.256  0.00  0.00    -0.267 OA
ATOM     10  H   UNL d   1       1.227   2.726   0.496  0.00  0.00     0.169 HD
BRANCH   8  11
ATOM     11  C   UNL d   1       3.324   3.928  -0.346  0.00  0.00     0.064 A 
ATOM     12  C   UNL d   1       4.523   4.621  -0.236  0.00  0.00     0.065 A 
ATOM     13  O   UNL d   1       5.578   3.781  -0.424  0.00  0.00    -0.319 OA
ATOM     14  C   UNL d   1       4.896   6.023   0.058  0.00  0.00     0.077 C 
ATOM     15  C   UNL d   1       5.076   2.543  -0.664  0.00  0.00     0.050 A 
ATOM     16  C   UNL d   1       3.698   2.583  -0.658  0.00  0.00     0.051 A 
ATOM     17  C   UNL d   1       6.075   1.475  -0.855  0.00  0.00     0.076 C 
ENDBRANCH   8  11
ENDBRANCH   1   7
BRANCH   2  18
ATOM     18  N   UNL d   1      -0.577   2.276   1.994  0.00  0.00    -0.281 NA
ATOM     19  C   UNL d   1      -1.470   1.240   2.544  0.00  0.00     0.096 C 
ATOM     20  C   UNL d   1      -0.612   0.088   3.065  0.00  0.00     0.015 C 
ATOM     21  C   UNL d   1       0.416   0.571   4.090  0.00  0.00     0.002 C 
ATOM     22  C   UNL d   1       1.208   1.772   3.574  0.00  0.00     0.015 C 
ATOM     23  C   UNL d   1       0.281   2.868   3.045  0.00  0.00     0.096 C 
ENDBRANCH   2  18
TORSDOF 3
