REMARK  6 active torsions:
REMARK  status: ('A' for Active; 'I' for Inactive)
REMARK    1  A    between atoms: O_3  and  S_1 
REMARK    2  A    between atoms: C_8  and  S_1 
REMARK    3  A    between atoms: N_2  and  C_7 
REMARK    4  A    between atoms: C_4  and  O_3 
REMARK    5  A    between atoms: C_9  and  C_5 
REMARK    6  A    between atoms: C_20  and  N_11 
ROOT
ATOM      1  C   UNL d   1      -4.348   3.609  -4.465  0.00  0.00     0.123 C 
ATOM      2  C   UNL d   1      -3.057   3.614  -3.921  0.00  0.00     0.017 C 
ATOM      3  C   UNL d   1      -5.016   4.835  -4.651  0.00  0.00     0.071 C 
ATOM      4  C   UNL d   1      -4.363   6.052  -4.461  0.00  0.00     0.050 C 
ATOM      5  C   UNL d   1      -2.404   4.853  -3.749  0.00  0.00     0.039 C 
ATOM      6  C   UNL d   1      -3.045   6.053  -4.040  0.00  0.00     0.036 C 
ATOM      7 CL   UNL d   1      -6.696   4.899  -5.050  0.00  0.00    -0.081 Cl
ATOM      8 CL   UNL d   1      -2.211   7.541  -3.829  0.00  0.00    -0.084 Cl
ENDROOT
BRANCH   2   9
ATOM      9  C   UNL d   1      -2.227   2.480  -3.448  0.00  0.00     0.102 C 
ATOM     10  N   UNL d   1      -2.437   1.268  -3.046  0.00  0.00    -0.365 N 
ATOM     11  HN  UNL d   1      -1.603   0.773  -2.729  1.00  0.00     0.165 HD
BRANCH  10  12
ATOM     12  C   UNL d   1      -3.610   0.532  -2.977  0.00  0.00     0.034 A 
ATOM     13  C   UNL d   1      -3.501  -0.799  -3.388  0.00  0.00     0.065 A 
ATOM     14  C   UNL d   1      -4.614  -1.639  -3.365  0.00  0.00     0.105 A 
ATOM     15  C   UNL d   1      -5.855  -1.161  -2.936  0.00  0.00     0.036 A 
ATOM     16  C   UNL d   1      -5.951   0.150  -2.465  0.00  0.00     0.005 A 
ATOM     17  C   UNL d   1      -4.821   0.977  -2.444  0.00  0.00     0.029 A 
BRANCH  14  18
ATOM     18  N   UNL d   1      -4.464  -3.036  -3.773  0.00  0.00    -0.116 N 
ATOM     19  O   UNL d   1      -3.320  -3.506  -3.824  0.00  0.00    -0.532 OA
ATOM     20  O   UNL d   1      -5.502  -3.674  -4.018  0.00  0.00    -0.532 OA
ENDBRANCH  14  18
ENDBRANCH  10  12
ENDBRANCH   2   9
BRANCH   1  21
ATOM     21  O   UNL d   1      -5.004   2.459  -4.819  0.00  0.00    -0.226 OA
BRANCH  21  22
ATOM     22  S   UNL d   1      -4.774   1.839  -6.319  0.00  0.00     0.303 S 
ATOM     23  O   UNL d   1      -4.984   0.405  -6.257  0.00  0.00    -0.193 OA
ATOM     24  O   UNL d   1      -3.553   2.384  -6.881  0.00  0.00    -0.193 OA
BRANCH  22  25
ATOM     25  C   UNL d   1      -6.134   2.493  -7.286  0.00  0.00     0.087 A 
ATOM     26  C   UNL d   1      -5.902   3.519  -8.213  0.00  0.00     0.029 A 
ATOM     27  C   UNL d   1      -6.973   4.039  -8.945  0.00  0.00     0.044 A 
ATOM     28  C   UNL d   1      -8.253   3.523  -8.758  0.00  0.00     0.116 A 
ATOM     29  C   UNL d   1      -8.484   2.490  -7.854  0.00  0.00     0.044 A 
ATOM     30  F   UNL d   1      -9.275   4.026  -9.461  0.00  0.00    -0.206 F 
ATOM     31  C   UNL d   1      -7.421   1.965  -7.112  0.00  0.00     0.029 A 
ENDBRANCH  22  25
ENDBRANCH  21  22
ENDBRANCH   1  21
TORSDOF 6
