REMARK  6 active torsions:
REMARK  status: ('A' for Active; 'I' for Inactive)
REMARK    1  A    between atoms: N_4  and  C_1 
REMARK    2  A    between atoms: N_6  and  C_1 
REMARK    3  A    between atoms: N_2  and  N_6 
REMARK    4  A    between atoms: C_8  and  N_4 
REMARK    5  A    between atoms: C_9  and  C_7 
REMARK    6  A    between atoms: O_21  and  C_11 
ROOT
ATOM      1  C   UNL d   1       1.099   0.134  -0.155  0.00  0.00     0.191 C 
ATOM      2  S   UNL d   1       0.212   0.271   1.256  0.00  0.00    -0.039 SA
ENDROOT
BRANCH   1   3
ATOM      3  N   UNL d   1       0.461   0.149  -1.363  0.00  0.00    -0.332 N 
ATOM      4  H   UNL d   1      -0.442   0.605  -1.363  0.00  0.00     0.168 HD
BRANCH   3   5
ATOM      5  C   UNL d   1       0.894  -0.403  -2.584  0.00  0.00     0.034 A 
ATOM      6  C   UNL d   1       1.739  -1.516  -2.635  0.00  0.00     0.032 A 
ATOM      7  C   UNL d   1       2.215  -1.992  -3.857  0.00  0.00     0.039 A 
ATOM      8  C   UNL d   1       1.852  -1.351  -5.040  0.00  0.00     0.068 A 
ATOM      9  C   UNL d   1       0.933  -0.300  -4.999  0.00  0.00     0.039 A 
ATOM     10  C   UNL d   1       0.441   0.165  -3.775  0.00  0.00     0.032 A 
BRANCH   8  11
ATOM     11  O   UNL d   1       2.323  -1.688  -6.279  0.00  0.00    -0.356 OA
ATOM     12  C   UNL d   1       3.647  -2.218  -6.287  0.00  0.00     0.210 C 
ENDBRANCH   8  11
ENDBRANCH   3   5
ENDBRANCH   1   3
BRANCH   1  13
ATOM     13  N   UNL d   1       2.467   0.107  -0.084  0.00  0.00    -0.276 N 
ATOM     14  H   UNL d   1       2.877   0.123   0.844  0.00  0.00     0.189 HD
BRANCH  13  15
ATOM     15  N   UNL d   1       3.235   0.508  -1.141  0.00  0.00    -0.309 N 
ATOM     16  C   UNL d   1       4.513   0.515  -0.965  0.00  0.00     0.118 C 
ATOM     17  HN  UNL d   1       2.817   0.788  -2.028  1.00  0.00     0.186 HD
BRANCH  16  18
ATOM     18  C   UNL d   1       5.425   0.876  -2.071  0.00  0.00    -0.019 A 
ATOM     19  C   UNL d   1       4.920   1.325  -3.298  0.00  0.00     0.014 A 
ATOM     20  C   UNL d   1       5.795   1.617  -4.349  0.00  0.00     0.024 A 
ATOM     21  C   UNL d   1       7.168   1.455  -4.169  0.00  0.00     0.034 A 
ATOM     22  C   UNL d   1       7.675   1.016  -2.946  0.00  0.00     0.024 A 
ATOM     23 CL   UNL d   1       8.244   1.784  -5.470  0.00  0.00    -0.084 Cl
ATOM     24  C   UNL d   1       6.803   0.729  -1.891  0.00  0.00     0.014 A 
ENDBRANCH  16  18
ENDBRANCH  13  15
ENDBRANCH   1  13
TORSDOF 6
