REMARK  5 active torsions:
REMARK  status: ('A' for Active; 'I' for Inactive)
REMARK    1  A    between atoms: N_5  and  C_1 
REMARK    2  A    between atoms: N_6  and  C_1 
REMARK    3  A    between atoms: C_10  and  N_5 
REMARK    4  A    between atoms: C_14  and  N_6 
REMARK    5  A    between atoms: O_21  and  C_16 
ROOT
ATOM      1  C   UNL d   1       1.123  -0.076   0.053  0.00  0.00     0.176 C 
ATOM      2  S   UNL d   1       2.785  -0.295   0.175  0.00  0.00    -0.041 SA
ENDROOT
BRANCH   1   3
ATOM      3  N   UNL d   1       0.477   0.617  -0.977  0.00  0.00    -0.333 N 
ATOM      4  H   UNL d   1      -0.219   1.267  -0.628  0.00  0.00     0.168 HD
BRANCH   3   5
ATOM      5  C   UNL d   1       1.002   0.885  -2.259  0.00  0.00     0.035 A 
ATOM      6  C   UNL d   1       1.737  -0.079  -2.954  0.00  0.00     0.047 A 
ATOM      7  C   UNL d   1       2.272   0.278  -4.177  0.00  0.00     0.050 A 
ATOM      8  C   UNL d   1       3.091  -0.528  -5.071  0.00  0.00     0.294 A 
ATOM      9  C   UNL d   1       2.090   1.524  -4.734  0.00  0.00    -0.018 A 
ATOM     10  O   UNL d   1       3.409   0.272  -6.130  0.00  0.00    -0.313 OA
ATOM     11  O   UNL d   1       3.413  -1.691  -4.913  0.00  0.00    -0.259 OA
ATOM     12  C   UNL d   1       2.846   1.596  -5.999  0.00  0.00     0.218 A 
ATOM     13  C   UNL d   1       1.308   2.469  -4.093  0.00  0.00     0.012 A 
ATOM     14  C   UNL d   1       0.746   2.136  -2.852  0.00  0.00     0.030 A 
ENDBRANCH   3   5
ENDBRANCH   1   3
BRANCH   1  15
ATOM     15  N   UNL d   1       0.168  -0.542   0.960  0.00  0.00    -0.333 N 
ATOM     16  H   UNL d   1      -0.659  -0.912   0.505  0.00  0.00     0.168 HD
BRANCH  15  17
ATOM     17  C   UNL d   1       0.387  -0.970   2.286  0.00  0.00     0.034 A 
ATOM     18  C   UNL d   1       1.287  -0.319   3.130  0.00  0.00     0.032 A 
ATOM     19  C   UNL d   1       1.489  -0.762   4.439  0.00  0.00     0.039 A 
ATOM     20  C   UNL d   1       0.782  -1.860   4.923  0.00  0.00     0.068 A 
ATOM     21  C   UNL d   1      -0.150  -2.488   4.092  0.00  0.00     0.039 A 
ATOM     22  C   UNL d   1      -0.363  -2.036   2.784  0.00  0.00     0.032 A 
BRANCH  20  23
ATOM     23  O   UNL d   1       0.909  -2.402   6.172  0.00  0.00    -0.356 OA
ATOM     24  C   UNL d   1       1.865  -1.791   7.032  0.00  0.00     0.210 C 
ENDBRANCH  20  23
ENDBRANCH  15  17
ENDBRANCH   1  15
TORSDOF 5
