REMARK  3 active torsions:
REMARK  status: ('A' for Active; 'I' for Inactive)
REMARK    1  A    between atoms: N_2  and  C_5 
REMARK    2  A    between atoms: C_6  and  C_3 
REMARK       I    between atoms: N_9  and  C_6 
REMARK    3  A    between atoms: C_13  and  N_9 
ROOT
ATOM      1  N   UNL d   1      -1.567   0.949  -0.310  0.00  0.00    -0.349 N 
ATOM      2  C   UNL d   1      -2.332  -0.197  -0.278  0.00  0.00     0.102 A 
ATOM      3  C   UNL d   1      -0.226   0.663  -0.226  0.00  0.00     0.076 A 
ATOM      4  C   UNL d   1       0.901   1.508  -0.210  0.00  0.00     0.130 A 
ATOM      5  C   UNL d   1      -1.443  -1.256  -0.204  0.00  0.00     0.049 A 
ATOM      6  C   UNL d   1      -0.120  -0.728  -0.155  0.00  0.00    -0.005 A 
ATOM      7  C   UNL d   1       2.167   0.904  -0.103  0.00  0.00     0.038 A 
ATOM      8  C   UNL d   1       1.159  -1.306  -0.054  0.00  0.00     0.014 A 
ATOM      9  C   UNL d   1       2.292  -0.483  -0.024  0.00  0.00     0.003 A 
ATOM     10  H   UNL d   1      -1.959   1.885  -0.365  0.00  0.00     0.166 HD
ENDROOT
BRANCH   2  11
ATOM     11  C   UNL d   1      -3.778  -0.105  -0.322  0.00  0.00     0.272 C 
ATOM     12  N   UNL d   1      -4.449  -1.298  -0.120  0.00  0.00    -0.322 N 
ATOM     13  H   UNL d   1      -3.886  -2.104   0.109  0.00  0.00     0.169 HD
ATOM     14  O   UNL d   1      -4.309   0.988  -0.483  0.00  0.00    -0.266 OA
BRANCH  12  15
ATOM     15  C   UNL d   1      -5.848  -1.467  -0.030  0.00  0.00     0.035 A 
ATOM     16  C   UNL d   1      -6.769  -0.470  -0.375  0.00  0.00     0.039 A 
ATOM     17  C   UNL d   1      -8.145  -0.655  -0.180  0.00  0.00    -0.021 A 
ATOM     18  C   UNL d   1      -9.116   0.440  -0.500  0.00  0.00     0.051 C 
ATOM     19  C   UNL d   1      -8.590  -1.867   0.344  0.00  0.00     0.122 A 
ATOM     20  C   UNL d   1      -7.696  -2.886   0.653  0.00  0.00     0.045 A 
ATOM     21  F   UNL d   1      -9.898  -2.061   0.563  0.00  0.00    -0.206 F 
ATOM     22  C   UNL d   1      -6.325  -2.689   0.460  0.00  0.00     0.032 A 
ENDBRANCH  12  15
ENDBRANCH   2  11
BRANCH   4  23
ATOM     23  N   UNL d   1       0.808   2.970  -0.303  0.00  0.00    -0.113 N 
ATOM     24  O   UNL d   1      -0.327   3.462  -0.388  0.00  0.00    -0.532 OA
ATOM     25  O   UNL d   1       1.861   3.623  -0.292  0.00  0.00    -0.532 OA
ENDBRANCH   4  23
TORSDOF 3
