REMARK  7 active torsions:
REMARK  status: ('A' for Active; 'I' for Inactive)
REMARK    1  A    between atoms: C_3  and  C_1 
REMARK    2  A    between atoms: C_2  and  N_5 
REMARK    3  A    between atoms: N_6  and  C_2 
REMARK    4  A    between atoms: C_10  and  C_3 
REMARK    5  A    between atoms: N_5  and  C_4 
REMARK    6  A    between atoms: C_12  and  N_6 
REMARK    7  A    between atoms: C_23  and  C_16 
ROOT
ATOM      1  C   UNL d   1       2.479  -1.509  -0.913  0.00  0.00     0.043 A 
ATOM      2  C   UNL d   1       2.938  -0.184  -0.705  0.00  0.00     0.048 A 
ATOM      3  C   UNL d   1       1.596  -1.776  -1.969  0.00  0.00     0.041 A 
ATOM      4  C   UNL d   1       2.478   0.835  -1.554  0.00  0.00     0.032 A 
ATOM      5  C   UNL d   1       1.120  -0.735  -2.769  0.00  0.00     0.035 A 
ATOM      6  C   UNL d   1       1.554   0.569  -2.563  0.00  0.00     0.026 A 
ATOM      7 CL   UNL d   1      -0.010  -1.067  -4.022  0.00  0.00    -0.084 Cl
ENDROOT
BRANCH   2   8
ATOM      8  N   UNL d   1       3.924   0.100   0.282  0.00  0.00    -0.332 N 
ATOM      9  H   UNL d   1       4.356  -0.727   0.698  0.00  0.00     0.168 HD
BRANCH   8  10
ATOM     10  C   UNL d   1       4.138   1.261   0.961  0.00  0.00     0.176 C 
ATOM     11  S   UNL d   1       2.955   2.388   1.367  0.00  0.00    -0.041 SA
BRANCH  10  12
ATOM     12  N   UNL d   1       5.387   1.548   1.417  0.00  0.00    -0.333 N 
ATOM     13  H   UNL d   1       5.372   2.421   1.938  0.00  0.00     0.168 HD
BRANCH  12  14
ATOM     14  C   UNL d   1       6.665   0.966   1.299  0.00  0.00     0.034 A 
ATOM     15  C   UNL d   1       6.980  -0.209   0.621  0.00  0.00     0.030 A 
ATOM     16  C   UNL d   1       8.292  -0.712   0.644  0.00  0.00     0.009 A 
ATOM     17  C   UNL d   1       9.315  -0.033   1.316  0.00  0.00    -0.058 A 
ATOM     18  C   UNL d   1       9.012   1.175   1.946  0.00  0.00     0.009 A 
ATOM     19  C   UNL d   1       7.703   1.661   1.938  0.00  0.00     0.030 A 
BRANCH  17  20
ATOM     20  C   UNL d   1      10.702  -0.610   1.413  0.00  0.00     0.034 C 
ATOM     21  C   UNL d   1      10.887  -1.388   2.709  0.00  0.00     0.010 C 
ENDBRANCH  17  20
ENDBRANCH  12  14
ENDBRANCH  10  12
ENDBRANCH   8  10
ENDBRANCH   2   8
BRANCH   1  22
ATOM     22  C   UNL d   1       2.981  -2.610  -0.042  0.00  0.00     0.194 C 
ATOM     23  O   UNL d   1       4.144  -2.520   0.354  0.00  0.00    -0.287 OA
BRANCH  22  24
ATOM     24  C   UNL d   1       2.177  -3.791   0.405  0.00  0.00     0.015 A 
ATOM     25  C   UNL d   1       0.792  -3.919   0.245  0.00  0.00     0.015 A 
ATOM     26  C   UNL d   1       0.130  -5.071   0.688  0.00  0.00     0.001 A 
ATOM     27  C   UNL d   1       0.835  -6.085   1.337  0.00  0.00     0.000 A 
ATOM     28  C   UNL d   1       2.204  -5.951   1.543  0.00  0.00     0.001 A 
ATOM     29  C   UNL d   1       2.869  -4.815   1.076  0.00  0.00     0.015 A 
ENDBRANCH  22  24
ENDBRANCH   1  22
TORSDOF 7
