REMARK  3 active torsions:
REMARK  status: ('A' for Active; 'I' for Inactive)
REMARK    1  A    between atoms: C_2  and  C_1 
REMARK    2  A    between atoms: C_13  and  N_3 
REMARK    3  A    between atoms: C_11  and  C_4 
ROOT
ATOM      1  C   UNL d   1      -0.104  -1.251   0.026  0.00  0.00     0.153 C 
ATOM      2  N   UNL d   1       1.133  -0.679   0.263  0.00  0.00    -0.224 N 
ATOM      3  N   UNL d   1       0.943   0.630   0.543  0.00  0.00     0.001 NA
ATOM      4  N   UNL d   1      -0.327   0.875   0.251  0.00  0.00    -0.007 NA
ATOM      5  N   UNL d   1      -0.985  -0.277  -0.092  0.00  0.00    -0.269 N 
ATOM      6  HN  UNL d   1      -1.960  -0.364  -0.380  1.00  0.00     0.185 HD
ENDROOT
BRANCH   1   7
ATOM      7  C   UNL d   1      -0.441  -2.693  -0.014  0.00  0.00     0.065 A 
ATOM      8  C   UNL d   1      -1.422  -3.298  -0.762  0.00  0.00     0.124 A 
ATOM      9  O   UNL d   1      -1.405  -4.638  -0.487  0.00  0.00    -0.236 OA
ATOM     10  N   UNL d   1      -0.402  -4.922   0.425  0.00  0.00    -0.271 N 
ATOM     11  C   UNL d   1       0.167  -3.748   0.697  0.00  0.00     0.132 A 
ATOM     12  HN  UNL d   1      -0.152  -5.835   0.807  1.00  0.00     0.194 HD
BRANCH   8  13
ATOM     13  C   UNL d   1      -2.343  -2.894  -1.817  0.00  0.00     0.004 A 
ATOM     14  C   UNL d   1      -2.026  -1.838  -2.682  0.00  0.00     0.056 A 
ATOM     15  C   UNL d   1      -2.892  -1.488  -3.712  0.00  0.00     0.117 A 
ATOM     16  F   UNL d   1      -2.564  -0.479  -4.530  0.00  0.00    -0.206 F 
ATOM     17  C   UNL d   1      -4.078  -2.176  -3.914  0.00  0.00     0.042 A 
ATOM     18  C   UNL d   1      -4.407  -3.232  -3.069  0.00  0.00     0.004 A 
ATOM     19  C   UNL d   1      -3.545  -3.588  -2.028  0.00  0.00     0.014 A 
ENDBRANCH   8  13
ENDBRANCH   1   7
BRANCH   2  20
ATOM     20  C   UNL d   1       2.424  -1.226   0.101  0.00  0.00     0.056 A 
ATOM     21  C   UNL d   1       2.640  -2.275  -0.804  0.00  0.00     0.032 A 
ATOM     22  C   UNL d   1       3.918  -2.806  -0.969  0.00  0.00     0.009 A 
ATOM     23  C   UNL d   1       4.994  -2.294  -0.237  0.00  0.00    -0.062 A 
ATOM     24  C   UNL d   1       4.779  -1.228   0.647  0.00  0.00     0.009 A 
ATOM     25  C   UNL d   1       6.365  -2.865  -0.446  0.00  0.00     0.048 C 
ATOM     26  C   UNL d   1       3.501  -0.683   0.807  0.00  0.00     0.032 A 
ENDBRANCH   2  20
TORSDOF 3
