REMARK  3 active torsions:
REMARK  status: ('A' for Active; 'I' for Inactive)
REMARK    1  A    between atoms: C_8  and  N_2 
REMARK    2  A    between atoms: C_9  and  N_3 
REMARK    3  A    between atoms: N_11  and  C_4 
ROOT
ATOM      1  C   UNL d   1      -0.718   1.291   0.063  0.00  0.00     0.342 C 
ATOM      2  N   UNL d   1      -1.417   0.058   0.094  0.00  0.00    -0.249 N 
ATOM      3  N   UNL d   1       0.679   1.213  -0.015  0.00  0.00    -0.230 N 
ATOM      4  C   UNL d   1      -0.760  -1.178   0.145  0.00  0.00     0.117 C 
ATOM      5  C   UNL d   1       1.367   0.025  -0.145  0.00  0.00     0.259 C 
ATOM      6  C   UNL d   1       0.574  -1.194   0.037  0.00  0.00     0.123 C 
ATOM      7  O   UNL d   1      -1.309   2.377   0.087  0.00  0.00    -0.245 OA
ATOM      8  O   UNL d   1       2.572  -0.113  -0.350  0.00  0.00    -0.267 OA
ENDROOT
BRANCH   2   9
ATOM      9  C   UNL d   1      -2.857   0.153   0.126  0.00  0.00     0.045 A 
ATOM     10  C   UNL d   1      -3.536   0.899  -0.850  0.00  0.00     0.030 A 
ATOM     11  C   UNL d   1      -4.930   0.978  -0.846  0.00  0.00     0.002 A 
ATOM     12  C   UNL d   1      -5.661   0.322   0.142  0.00  0.00     0.000 A 
ATOM     13  C   UNL d   1      -5.000  -0.412   1.124  0.00  0.00     0.002 A 
ATOM     14  C   UNL d   1      -3.606  -0.499   1.116  0.00  0.00     0.030 A 
ENDBRANCH   2   9
BRANCH   4  15
ATOM     15  N   UNL d   1      -1.469  -2.373   0.246  0.00  0.00    -0.380 N 
ATOM     16  C   UNL d   1      -0.955  -3.720   0.350  0.00  0.00     0.147 C 
ATOM     17  H   UNL d   1      -2.399  -2.312  -0.166  0.00  0.00     0.160 HD
ENDBRANCH   4  15
BRANCH   3  18
ATOM     18  C   UNL d   1       1.419   2.443  -0.025  0.00  0.00     0.047 A 
ATOM     19  C   UNL d   1       1.206   3.399   0.980  0.00  0.00     0.030 A 
ATOM     20  C   UNL d   1       1.907   4.607   0.973  0.00  0.00     0.002 A 
ATOM     21  C   UNL d   1       2.807   4.882  -0.053  0.00  0.00     0.000 A 
ATOM     22  C   UNL d   1       3.025   3.941  -1.058  0.00  0.00     0.002 A 
ATOM     23  C   UNL d   1       2.348   2.719  -1.035  0.00  0.00     0.030 A 
ENDBRANCH   3  18
TORSDOF 3
