REMARK  0 active torsions:
REMARK  status: ('A' for Active; 'I' for Inactive)
ROOT
ATOM      1  C   UNL d   1       0.655   1.205  -0.275  0.00  0.00     0.117 C 
ATOM      2  C   UNL d   1       1.412  -0.019   0.049  0.00  0.00     0.302 C 
ATOM      3  C   UNL d   1      -0.753   1.233   0.159  0.00  0.00     0.302 C 
ATOM      4  C   UNL d   1       1.186   2.216  -1.013  0.00  0.00    -0.049 C 
ATOM      5  O   UNL d   1      -1.387   0.060  -0.041  0.00  0.00    -0.280 OA
ATOM      6  O   UNL d   1       0.686  -1.153  -0.048  0.00  0.00    -0.280 OA
ATOM      7  C   UNL d   1      -0.679  -1.109   0.359  0.00  0.00     0.175 C 
ATOM      8  C   UNL d   1       0.412   3.462  -1.472  0.00  0.00     0.017 C 
ATOM      9  C   UNL d   1       2.619   2.252  -1.571  0.00  0.00     0.017 C 
ATOM     10  C   UNL d   1       2.563   4.777  -1.540  0.00  0.00    -0.013 C 
ATOM     11  C   UNL d   1       1.785   3.521  -3.589  0.00  0.00    -0.013 C 
ATOM     12  C   UNL d   1       3.327   3.526  -1.071  0.00  0.00     0.013 C 
ATOM     13  C   UNL d   1       2.553   2.278  -3.111  0.00  0.00     0.013 C 
ATOM     14  C   UNL d   1       1.137   4.723  -0.968  0.00  0.00     0.013 C 
ATOM     15  C   UNL d   1       0.362   3.472  -3.011  0.00  0.00     0.013 C 
ATOM     16  O   UNL d   1       2.602  -0.048   0.326  0.00  0.00    -0.259 OA
ATOM     17  O   UNL d   1      -1.334   2.215   0.591  0.00  0.00    -0.259 OA
ATOM     18  C   UNL d   1       2.494   4.787  -3.078  0.00  0.00     0.009 C 
ATOM     19  C   UNL d   1      -1.381  -2.294  -0.301  0.00  0.00     0.080 C 
ATOM     20  C   UNL d   1      -0.755  -1.252   1.883  0.00  0.00     0.080 C 
ENDROOT
TORSDOF 0
