REMARK  4 active torsions:
REMARK  status: ('A' for Active; 'I' for Inactive)
REMARK    1  A    between atoms: S_12  and  C_1 
REMARK    2  A    between atoms: C_6  and  C_7 
REMARK    3  A    between atoms: C_8  and  C_6 
REMARK    4  A    between atoms: C_9  and  S_12 
ROOT
ATOM      1  C   UNL d   1       1.946  -5.210  -0.029  0.00  0.00     0.063 C 
ATOM      2  C   UNL d   1       1.589  -3.919  -0.019  0.00  0.00     0.057 C 
ENDROOT
BRANCH   2   3
ATOM      3  S   UNL d   1      -0.081  -3.450   0.045  0.00  0.00    -0.066 SA
BRANCH   3   4
ATOM      4  C   UNL d   1       0.045  -1.689  -0.208  0.00  0.00     0.148 A 
ATOM      5  N   UNL d   1       1.056  -1.216  -0.962  0.00  0.00    -0.341 N 
ATOM      6  C   UNL d   1       1.121   0.119  -1.126  0.00  0.00     0.009 A 
ATOM      7  HN  UNL d   1       1.740  -1.841  -1.390  1.00  0.00     0.167 HD
ATOM      8  C   UNL d   1       2.253   0.657  -1.948  0.00  0.00     0.068 C 
ATOM      9  C   UNL d   1       0.202   0.980  -0.560  0.00  0.00     0.049 A 
ATOM     10  C   UNL d   1      -0.805   0.404   0.191  0.00  0.00     0.009 A 
ATOM     11  N   UNL d   1      -0.897  -0.928   0.374  0.00  0.00    -0.341 N 
ATOM     12  C   UNL d   1      -1.844   1.265   0.844  0.00  0.00     0.068 C 
ATOM     13  HN  UNL d   1      -1.647  -1.339   0.929  1.00  0.00     0.167 HD
ENDBRANCH   3   4
ENDBRANCH   2   3
BRANCH   1  14
ATOM     14  C   UNL d   1       3.348  -5.701  -0.071  0.00  0.00     0.182 C 
ATOM     15  O   UNL d   1       3.610  -6.784   0.452  0.00  0.00    -0.288 OA
BRANCH  14  16
ATOM     16  C   UNL d   1       4.429  -4.929  -0.738  0.00  0.00     0.015 A 
ATOM     17  C   UNL d   1       4.197  -4.112  -1.851  0.00  0.00     0.034 A 
ATOM     18  C   UNL d   1       5.264  -3.436  -2.444  0.00  0.00     0.011 A 
ATOM     19 BR   UNL d   1       4.947  -2.314  -3.934  0.00  0.00    -0.051 Br
ATOM     20  C   UNL d   1       6.563  -3.583  -1.959  0.00  0.00     0.019 A 
ATOM     21  C   UNL d   1       6.801  -4.417  -0.869  0.00  0.00     0.002 A 
ATOM     22  C   UNL d   1       5.739  -5.090  -0.262  0.00  0.00     0.015 A 
ENDBRANCH  14  16
ENDBRANCH   1  14
TORSDOF 4
