REMARK  3 active torsions:
REMARK  status: ('A' for Active; 'I' for Inactive)
REMARK       I    between atoms: C_3  and  N_1 
REMARK       I    between atoms: C_5  and  N_1 
REMARK    1  A    between atoms: C_2  and  C_4 
REMARK       I    between atoms: N_7  and  C_3 
REMARK    2  A    between atoms: C_8  and  C_5 
REMARK    3  A    between atoms: C_6  and  N_7 
ROOT
ATOM      1  N   UNL d   1       1.433   0.158   0.043  0.00  0.00    -0.278 N 
ATOM      2  C   UNL d   1       0.622   1.208  -0.313  0.00  0.00     0.327 C 
ATOM      3  C   UNL d   1       2.692  -0.158  -0.438  0.00  0.00     0.233 C 
ATOM      4  N   UNL d   1       1.061   1.977  -1.362  0.00  0.00    -0.308 N 
ATOM      5  O   UNL d   1      -0.425   1.384   0.307  0.00  0.00    -0.247 OA
ATOM      6  O   UNL d   1       3.142   0.338  -1.471  0.00  0.00    -0.272 OA
ATOM      7  H   UNL d   1       1.064  -0.343   0.837  0.00  0.00     0.173 HD
ATOM      8  H   UNL d   1       1.703   1.482  -1.980  0.00  0.00     0.170 HD
ENDROOT
BRANCH   4   9
ATOM      9  C   UNL d   1       0.298   3.023  -1.914  0.00  0.00     0.051 A 
ATOM     10  C   UNL d   1      -0.310   4.043  -1.164  0.00  0.00     0.074 A 
ATOM     11  C   UNL d   1      -1.175   4.939  -1.829  0.00  0.00     0.018 A 
ATOM     12  C   UNL d   1      -1.385   4.859  -3.205  0.00  0.00     0.001 A 
ATOM     13  C   UNL d   1      -0.705   3.902  -3.948  0.00  0.00     0.002 A 
ATOM     14  C   UNL d   1       0.143   2.999  -3.309  0.00  0.00     0.030 A 
BRANCH  10  15
ATOM     15  C   UNL d   1      -0.021   4.325   0.292  0.00  0.00     0.419 C 
ATOM     16  F   UNL d   1       1.027   3.647   0.840  0.00  0.00    -0.166 F 
ATOM     17  F   UNL d   1       0.301   5.645   0.480  0.00  0.00    -0.166 F 
ATOM     18  F   UNL d   1      -1.093   4.111   1.105  0.00  0.00    -0.166 F 
ENDBRANCH  10  15
ENDBRANCH   4   9
BRANCH   3  19
ATOM     19  C   UNL d   1       3.416  -1.286   0.323  0.00  0.00     0.030 C 
ATOM     20  C   UNL d   1       2.721  -2.618   0.007  0.00  0.00     0.025 C 
ATOM     21  C   UNL d   1       4.878  -1.353  -0.152  0.00  0.00     0.025 C 
ATOM     22  C   UNL d   1       3.412  -1.036   1.839  0.00  0.00     0.025 C 
ENDBRANCH   3  19
TORSDOF 3
