REMARK  6 active torsions:
REMARK  status: ('A' for Active; 'I' for Inactive)
REMARK       I    between atoms: N_2  and  C_1 
REMARK    1  A    between atoms: C_3  and  C_1 
REMARK    2  A    between atoms: C_4  and  N_2 
REMARK       I    between atoms: N_5  and  C_3 
REMARK    3  A    between atoms: C_15  and  N_5 
REMARK    4  A    between atoms: C_7  and  C_15 
REMARK    5  A    between atoms: O_19  and  C_9 
REMARK    6  A    between atoms: O_20  and  C_17 
ROOT
ATOM      1  C   UNL d   1       1.225  -0.230   0.249  0.00  0.00     0.314 C 
ATOM      2  N   UNL d   1       0.489  -0.893  -0.715  0.00  0.00    -0.316 N 
ATOM      3  O   UNL d   1       2.440  -0.225   0.395  0.00  0.00    -0.262 OA
ATOM      4  H   UNL d   1      -0.469  -0.583  -0.837  0.00  0.00     0.169 HD
ENDROOT
BRANCH   1   5
ATOM      5  C   UNL d   1       0.356   0.655   1.163  0.00  0.00     0.310 C 
ATOM      6  N   UNL d   1       1.079   1.472   1.997  0.00  0.00    -0.347 N 
ATOM      7  H   UNL d   1       2.086   1.503   1.879  0.00  0.00     0.163 HD
ATOM      8  O   UNL d   1      -0.861   0.601   1.085  0.00  0.00    -0.262 OA
BRANCH   6   9
ATOM      9  C   UNL d   1       0.422   2.378   2.909  0.00  0.00     0.188 C 
BRANCH   9  10
ATOM     10  C   UNL d   1       1.440   3.176   3.628  0.00  0.00     0.070 A 
ATOM     11  O   UNL d   1       2.236   3.991   2.872  0.00  0.00    -0.325 OA
ATOM     12  C   UNL d   1       3.068   4.641   3.724  0.00  0.00     0.142 A 
ATOM     13  C   UNL d   1       2.823   4.259   5.024  0.00  0.00     0.027 A 
ATOM     14  C   UNL d   1       1.774   3.310   4.964  0.00  0.00     0.036 A 
ENDBRANCH   9  10
ENDBRANCH   6   9
ENDBRANCH   1   5
BRANCH   2  15
ATOM     15  C   UNL d   1       1.086  -1.680  -1.715  0.00  0.00     0.071 A 
ATOM     16  C   UNL d   1       2.016  -2.657  -1.317  0.00  0.00     0.069 A 
ATOM     17  C   UNL d   1       2.583  -3.530  -2.244  0.00  0.00     0.070 A 
ATOM     18  C   UNL d   1       2.244  -3.398  -3.589  0.00  0.00     0.039 A 
ATOM     19  C   UNL d   1       1.318  -2.433  -3.994  0.00  0.00     0.042 A 
ATOM     20  C   UNL d   1       0.720  -1.574  -3.064  0.00  0.00     0.095 A 
BRANCH  17  21
ATOM     21  O   UNL d   1       3.452  -4.547  -1.959  0.00  0.00    -0.356 OA
ATOM     22  C   UNL d   1       3.756  -4.760  -0.584  0.00  0.00     0.210 C 
ENDBRANCH  17  21
BRANCH  20  23
ATOM     23  O   UNL d   1      -0.188  -0.707  -3.610  0.00  0.00    -0.354 OA
ATOM     24  C   UNL d   1      -0.222   0.618  -3.092  0.00  0.00     0.210 C 
ENDBRANCH  20  23
ENDBRANCH   2  15
TORSDOF 6
