REMARK  2 active torsions:
REMARK  status: ('A' for Active; 'I' for Inactive)
REMARK       I    between atoms: N_2  and  C_1 
REMARK    1  A    between atoms: C_3  and  C_1 
REMARK    2  A    between atoms: C_5  and  N_2 
ROOT
ATOM      1  C   UNL d   1       2.366  -0.033  -0.080  0.00  0.00     0.256 C 
ATOM      2  N   UNL d   1       3.082  -1.219   0.005  0.00  0.00    -0.323 N 
ATOM      3  O   UNL d   1       1.170   0.056  -0.337  0.00  0.00    -0.267 OA
ATOM      4  H   UNL d   1       4.035  -1.183   0.340  0.00  0.00     0.169 HD
ENDROOT
BRANCH   2   5
ATOM      5  C   UNL d   1       2.541  -2.522  -0.124  0.00  0.00     0.035 A 
ATOM      6  C   UNL d   1       1.247  -2.777  -0.582  0.00  0.00     0.037 A 
ATOM      7  C   UNL d   1       0.694  -4.067  -0.548  0.00  0.00    -0.054 A 
ATOM      8  C   UNL d   1      -0.738  -4.252  -0.973  0.00  0.00     0.049 C 
ATOM      9  C   UNL d   1       1.471  -5.138  -0.073  0.00  0.00    -0.056 A 
ATOM     10  C   UNL d   1       2.799  -4.896   0.308  0.00  0.00     0.009 A 
ATOM     11  C   UNL d   1       0.891  -6.517   0.070  0.00  0.00     0.049 C 
ATOM     12  C   UNL d   1       3.331  -3.602   0.278  0.00  0.00     0.030 A 
ENDBRANCH   2   5
BRANCH   1  13
ATOM     13  C   UNL d   1       3.097   1.242   0.216  0.00  0.00     0.032 A 
ATOM     14  C   UNL d   1       2.316   2.408   0.345  0.00  0.00     0.023 A 
ATOM     15  C   UNL d   1       2.897   3.652   0.612  0.00  0.00    -0.061 A 
ATOM     16  C   UNL d   1       2.052   4.887   0.702  0.00  0.00     0.048 C 
ATOM     17  C   UNL d   1       4.283   3.727   0.776  0.00  0.00     0.007 A 
ATOM     18  C   UNL d   1       5.072   2.582   0.648  0.00  0.00     0.002 A 
ATOM     19  C   UNL d   1       4.484   1.343   0.359  0.00  0.00     0.017 A 
ENDBRANCH   1  13
TORSDOF 2
