REMARK  2 active torsions:
REMARK  status: ('A' for Active; 'I' for Inactive)
REMARK    1  A    between atoms: C_14  and  C_4 
REMARK    2  A    between atoms: C_13  and  C_10 
ROOT
ATOM      1  N   UNL d   1      -0.526  -0.817   0.081  0.00  0.00    -0.214 N 
ATOM      2  N   UNL d   1       0.440  -1.772   0.289  0.00  0.00    -0.293 N 
ATOM      3  HN  UNL d   1       0.204  -2.710   0.611  1.00  0.00     0.187 HD
ATOM      4  C   UNL d   1      -1.893  -1.031  -0.027  0.00  0.00     0.154 A 
ATOM      5  C   UNL d   1      -0.389   0.547   0.019  0.00  0.00     0.182 A 
ATOM      6  N   UNL d   1      -2.502   0.145  -0.102  0.00  0.00    -0.281 N 
ATOM      7  HN  UNL d   1      -3.509   0.289  -0.166  1.00  0.00     0.188 HD
ATOM      8  N   UNL d   1      -1.549   1.139  -0.079  0.00  0.00    -0.277 N 
ATOM      9  HN  UNL d   1      -1.717   2.143  -0.128  1.00  0.00     0.189 HD
ATOM     10  C   UNL d   1       1.672  -1.421   0.054  0.00  0.00     0.046 C 
ATOM     11  S   UNL d   1       1.167   1.280   0.104  0.00  0.00    -0.085 SA
ATOM     12  C   UNL d   1       2.094  -0.105  -0.593  0.00  0.00     0.142 C 
ENDROOT
BRANCH   4  13
ATOM     13  C   UNL d   1      -2.553  -2.338  -0.049  0.00  0.00     0.014 A 
ATOM     14  C   UNL d   1      -3.859  -2.461   0.430  0.00  0.00     0.032 A 
ATOM     15  C   UNL d   1      -4.462  -3.708   0.407  0.00  0.00     0.088 A 
ATOM     16  N   UNL d   1      -3.862  -4.823  -0.061  0.00  0.00    -0.375 N 
ATOM     17  C   UNL d   1      -2.610  -4.683  -0.538  0.00  0.00     0.088 A 
ATOM     18  HN  UNL d   1      -4.333  -5.728  -0.053  1.00  0.00     0.164 HD
ATOM     19  C   UNL d   1      -1.927  -3.479  -0.561  0.00  0.00     0.032 A 
ENDBRANCH   4  13
BRANCH  10  20
ATOM     20  C   UNL d   1       2.750  -2.419   0.364  0.00  0.00    -0.011 A 
ATOM     21  C   UNL d   1       3.960  -2.439  -0.344  0.00  0.00     0.015 A 
ATOM     22  C   UNL d   1       4.955  -3.361  -0.005  0.00  0.00     0.024 A 
ATOM     23  C   UNL d   1       4.740  -4.271   1.028  0.00  0.00     0.034 A 
ATOM     24  C   UNL d   1       3.531  -4.278   1.720  0.00  0.00     0.024 A 
ATOM     25 CL   UNL d   1       5.976  -5.390   1.448  0.00  0.00    -0.084 Cl
ATOM     26  C   UNL d   1       2.535  -3.355   1.386  0.00  0.00     0.015 A 
ENDBRANCH  10  20
TORSDOF 2
