REMARK  11 active torsions:
REMARK  status: ('A' for Active; 'I' for Inactive)
REMARK    1  A    between atoms: C_3  and  S_1 
REMARK    2  A    between atoms: C_4  and  S_1 
REMARK    3  A    between atoms: N_2  and  C_5 
REMARK       I    between atoms: C_6  and  N_2 
REMARK    4  A    between atoms: C_17  and  C_4 
REMARK    5  A    between atoms: C_23  and  C_6 
REMARK    6  A    between atoms: C_9  and  C_24 
REMARK    7  A    between atoms: O_19  and  C_9 
REMARK    8  A    between atoms: C_10  and  S_16 
REMARK    9  A    between atoms: S_15  and  C_23 
REMARK   10  A    between atoms: C_24  and  S_15 
REMARK   11  A    between atoms: S_16  and  C_17 
ROOT
ATOM      1  C   UNL d   1       1.593   5.463   1.123  0.00  0.00     0.051 A 
ATOM      2  C   UNL d   1       0.879   5.536  -0.088  0.00  0.00     0.027 A 
ATOM      3  C   UNL d   1       1.933   6.652   1.785  0.00  0.00     0.031 A 
ATOM      4  C   UNL d   1       0.479   6.792  -0.577  0.00  0.00     0.021 A 
ATOM      5  C   UNL d   1       1.550   7.894   1.278  0.00  0.00     0.002 A 
ATOM      6  C   UNL d   1       0.807   7.964   0.106  0.00  0.00     0.002 A 
ENDROOT
BRANCH   2   7
ATOM      7  S   UNL d   1       0.427   4.113  -1.080  0.00  0.00    -0.127 SA
BRANCH   7   8
ATOM      8  C   UNL d   1      -0.785   3.250  -0.010  0.00  0.00     0.095 C 
BRANCH   8   9
ATOM      9  C   UNL d   1      -1.880   4.141   0.548  0.00  0.00     0.156 C 
BRANCH   9  10
ATOM     10  S   UNL d   1      -3.087   3.202   1.464  0.00  0.00     0.176 S 
ATOM     11  O   UNL d   1      -3.980   4.135   2.116  0.00  0.00    -0.223 OA
ATOM     12  O   UNL d   1      -3.608   2.176   0.577  0.00  0.00    -0.223 OA
BRANCH  10  13
ATOM     13  C   UNL d   1      -2.179   2.387   2.756  0.00  0.00     0.059 A 
ATOM     14  C   UNL d   1      -1.482   3.150   3.698  0.00  0.00     0.025 A 
ATOM     15  C   UNL d   1      -0.781   2.506   4.720  0.00  0.00     0.025 A 
ATOM     16  C   UNL d   1      -0.784   1.114   4.800  0.00  0.00     0.034 A 
ATOM     17  C   UNL d   1      -1.487   0.352   3.864  0.00  0.00     0.025 A 
ATOM     18 CL   UNL d   1       0.083   0.331   6.062  0.00  0.00    -0.084 Cl
ATOM     19  C   UNL d   1      -2.188   0.988   2.838  0.00  0.00     0.025 A 
ENDBRANCH  10  13
ENDBRANCH   9  10
ENDBRANCH   8   9
ENDBRANCH   7   8
ENDBRANCH   2   7
BRANCH   1  20
ATOM     20  N   UNL d   1       2.005   4.211   1.636  0.00  0.00    -0.325 N 
ATOM     21  C   UNL d   1       2.243   3.941   2.974  0.00  0.00     0.231 C 
ATOM     22  O   UNL d   1       1.917   4.685   3.901  0.00  0.00    -0.272 OA
ATOM     23  H   UNL d   1       2.051   3.439   0.978  0.00  0.00     0.169 HD
BRANCH  21  24
ATOM     24  C   UNL d   1       2.815   2.564   3.272  0.00  0.00     0.177 C 
BRANCH  24  25
ATOM     25  S   UNL d   1       4.241   2.180   2.203  0.00  0.00    -0.149 SA
BRANCH  25  26
ATOM     26  C   UNL d   1       4.903   0.735   3.094  0.00  0.00     0.184 C 
BRANCH  26  27
ATOM     27  C   UNL d   1       4.021  -0.494   2.991  0.00  0.00     0.149 C 
ATOM     28  O   UNL d   1       2.830  -0.502   2.708  0.00  0.00    -0.649 OA
BRANCH  27  29
ATOM     29  O   UNL d   1       4.681  -1.637   3.304  0.00  0.00    -0.776 OA
ATOM     30  H   UNL d   1       5.624  -1.527   3.523  0.00  0.00     0.167 HD
ENDBRANCH  27  29
ENDBRANCH  26  27
ENDBRANCH  25  26
ENDBRANCH  24  25
ENDBRANCH  21  24
ENDBRANCH   1  20
TORSDOF 11
