REMARK  5 active torsions:
REMARK  status: ('A' for Active; 'I' for Inactive)
REMARK    1  A    between atoms: N_2  and  S_1 
REMARK    2  A    between atoms: C_7  and  S_1 
REMARK    3  A    between atoms: N_3  and  N_2 
REMARK    4  A    between atoms: C_6  and  C_5 
REMARK    5  A    between atoms: N_14  and  C_5 
ROOT
ATOM      1  N   UNL d   1       0.684   2.254   1.413  0.00  0.00    -0.296 N 
ATOM      2  HN  UNL d   1       0.467   1.757   0.550  1.00  0.00     0.183 HD
ATOM      3  C   UNL d   1       0.245   3.456   1.644  0.00  0.00     0.117 C 
ENDROOT
BRANCH   1   4
ATOM      4  N   UNL d   1       1.506   1.658   2.460  0.00  0.00    -0.124 NA
ATOM      5  H   UNL d   1       2.224   2.289   2.832  0.00  0.00     0.166 HD
BRANCH   4   6
ATOM      6  S   UNL d   1       2.154   0.115   2.055  0.00  0.00     0.258 S 
ATOM      7  O   UNL d   1       3.080   0.296   0.955  0.00  0.00    -0.204 OA
ATOM      8  O   UNL d   1       1.068  -0.842   1.983  0.00  0.00    -0.204 OA
BRANCH   6   9
ATOM      9  C   UNL d   1       3.121  -0.278   3.494  0.00  0.00     0.076 A 
ATOM     10  C   UNL d   1       2.538  -0.996   4.542  0.00  0.00     0.025 A 
ATOM     11  C   UNL d   1       3.333  -1.423   5.609  0.00  0.00     0.008 A 
ATOM     12  C   UNL d   1       4.707  -1.146   5.629  0.00  0.00    -0.062 A 
ATOM     13  C   UNL d   1       5.277  -0.421   4.573  0.00  0.00     0.008 A 
ATOM     14  C   UNL d   1       5.556  -1.654   6.758  0.00  0.00     0.048 C 
ATOM     15  C   UNL d   1       4.489   0.009   3.504  0.00  0.00     0.025 A 
ENDBRANCH   6   9
ENDBRANCH   4   6
ENDBRANCH   1   4
BRANCH   3  16
ATOM     16  C   UNL d   1      -0.511   4.155   0.553  0.00  0.00     0.087 A 
ATOM     17  N   UNL d   1      -1.037   5.373   0.866  0.00  0.00    -0.361 N 
ATOM     18  C   UNL d   1      -1.695   5.982  -0.152  0.00  0.00     0.105 A 
ATOM     19  HN  UNL d   1      -0.943   5.793   1.791  1.00  0.00     0.165 HD
ATOM     20  C   UNL d   1      -1.835   5.408  -1.408  0.00  0.00     0.104 A 
ATOM     21  N   UNL d   1      -1.323   4.195  -1.712  0.00  0.00    -0.372 N 
ATOM     22  C   UNL d   1      -0.655   3.577  -0.704  0.00  0.00     0.120 A 
ATOM     23  HN  UNL d   1      -1.431   3.772  -2.635  1.00  0.00     0.164 HD
ENDBRANCH   3  16
BRANCH   3  24
ATOM     24  N   UNL d   1       0.413   4.103   2.855  0.00  0.00    -0.286 NA
ATOM     25  H   UNL d   1       0.394   3.451   3.632  0.00  0.00     0.125 HD
ATOM     26  H   UNL d   1      -0.256   4.865   2.977  0.00  0.00     0.125 HD
ENDBRANCH   3  24
TORSDOF 5
