REMARK  4 active torsions:
REMARK  status: ('A' for Active; 'I' for Inactive)
REMARK    1  A    between atoms: C_4  and  N_1 
REMARK    2  A    between atoms: C_5  and  N_2 
REMARK    3  A    between atoms: C_3  and  C_5 
REMARK    4  A    between atoms: O_13  and  C_9 
ROOT
ATOM      1  N   UNL d   1      -1.335   0.073   0.580  0.00  0.00    -0.375 N 
ATOM      2  N   UNL d   1       1.423  -0.010  -0.481  0.00  0.00     0.095 N 
ATOM      3  C   UNL d   1      -0.806  -1.167  -0.006  0.00  0.00     0.153 C 
ATOM      4  C   UNL d   1      -0.776   1.287  -0.043  0.00  0.00     0.153 C 
ATOM      5  C   UNL d   1       0.779   1.239   0.004  0.00  0.00     0.292 C 
ATOM      6  C   UNL d   1       0.732  -1.167   0.135  0.00  0.00     0.292 C 
ENDROOT
BRANCH   2   7
ATOM      7  C   UNL d   1       1.475  -0.068  -1.951  0.00  0.00     0.312 C 
BRANCH   7   8
ATOM      8  C   UNL d   1       2.137  -1.332  -2.496  0.00  0.00    -0.019 A 
ATOM      9  C   UNL d   1       3.511  -1.645  -2.272  0.00  0.00    -0.018 A 
ATOM     10  C   UNL d   1       4.015  -2.887  -2.744  0.00  0.00    -0.025 A 
ATOM     11  C   UNL d   1       4.416  -0.794  -1.597  0.00  0.00     0.013 A 
ATOM     12  C   UNL d   1       5.360  -3.231  -2.528  0.00  0.00     0.012 A 
ATOM     13  C   UNL d   1       3.168  -3.771  -3.423  0.00  0.00     0.012 A 
ATOM     14  C   UNL d   1       6.226  -2.366  -1.865  0.00  0.00     0.001 A 
ATOM     15  C   UNL d   1       5.753  -1.145  -1.400  0.00  0.00     0.001 A 
ATOM     16  C   UNL d   1       1.839  -3.446  -3.667  0.00  0.00     0.002 A 
ATOM     17  C   UNL d   1       1.328  -2.236  -3.210  0.00  0.00     0.010 A 
ENDBRANCH   7   8
ENDBRANCH   2   7
BRANCH   1  18
ATOM     18  C   UNL d   1      -2.642   0.117   1.074  0.00  0.00     0.064 A 
ATOM     19  C   UNL d   1      -3.028   1.016   2.104  0.00  0.00     0.094 A 
ATOM     20  C   UNL d   1      -4.342   1.013   2.604  0.00  0.00     0.039 A 
ATOM     21  C   UNL d   1      -5.276   0.089   2.143  0.00  0.00     0.003 A 
ATOM     22  C   UNL d   1      -4.912  -0.822   1.163  0.00  0.00     0.002 A 
ATOM     23  C   UNL d   1      -3.618  -0.799   0.632  0.00  0.00     0.032 A 
BRANCH  19  24
ATOM     24  O   UNL d   1      -2.062   1.862   2.605  0.00  0.00    -0.354 OA
ATOM     25  C   UNL d   1      -2.236   2.276   3.956  0.00  0.00     0.210 C 
ENDBRANCH  19  24
ENDBRANCH   1  18
TORSDOF 4
