REMARK  3 active torsions:
REMARK  status: ('A' for Active; 'I' for Inactive)
REMARK    1  A    between atoms: C_7  and  C_1 
REMARK    2  A    between atoms: O_12  and  C_7 
REMARK    3  A    between atoms: C_14  and  O_12 
ROOT
ATOM      1  C   UNL d   1      -0.762   1.248  -0.071  0.00  0.00     0.076 A 
ATOM      2  C   UNL d   1      -1.459  -0.051  -0.070  0.00  0.00    -0.020 A 
ATOM      3  C   UNL d   1       0.588   1.260  -0.043  0.00  0.00     0.070 A 
ATOM      4  C   UNL d   1      -0.744  -1.197  -0.026  0.00  0.00     0.093 A 
ATOM      5  C   UNL d   1       0.748  -1.180  -0.006  0.00  0.00     0.306 A 
ATOM      6  O   UNL d   1       1.327   0.051  -0.025  0.00  0.00    -0.278 OA
ATOM      7  O   UNL d   1       1.423  -2.196   0.025  0.00  0.00    -0.258 OA
ATOM      8 BR   UNL d   1      -1.522  -2.914   0.020  0.00  0.00    -0.044 Br
ATOM      9  C   UNL d   1      -2.971  -0.117  -0.123  0.00  0.00     0.051 C 
ATOM     10  C   UNL d   1       1.531   2.433   0.015  0.00  0.00     0.078 C 
ENDROOT
BRANCH   1  11
ATOM     11  C   UNL d   1      -1.469   2.573  -0.061  0.00  0.00     0.296 C 
ATOM     12  O   UNL d   1      -1.110   3.563  -0.665  0.00  0.00    -0.259 OA
BRANCH  11  13
ATOM     13  O   UNL d   1      -2.509   2.507   0.807  0.00  0.00    -0.318 OA
BRANCH  13  14
ATOM     14  C   UNL d   1      -3.112   3.743   1.212  0.00  0.00     0.174 C 
ATOM     15  C   UNL d   1      -2.739   3.907   2.669  0.00  0.00     0.034 C 
ENDBRANCH  13  14
ENDBRANCH  11  13
ENDBRANCH   1  11
TORSDOF 3
