REMARK  6 active torsions:
REMARK  status: ('A' for Active; 'I' for Inactive)
REMARK       I    between atoms: N_6  and  C_1 
REMARK       I    between atoms: N_7  and  C_1 
REMARK    1  A    between atoms: N_2  and  N_7 
REMARK    2  A    between atoms: N_4  and  N_6 
REMARK    3  A    between atoms: N_11  and  C_8 
REMARK    4  A    between atoms: N_12  and  C_9 
REMARK    5  A    between atoms: C_19  and  C_17 
REMARK    6  A    between atoms: C_20  and  C_18 
ROOT
ATOM      1  C   UNL d   1       0.945  -0.060  -0.052  0.00  0.00     0.353 C 
ATOM      2  N   UNL d   1       0.278   1.158  -0.208  0.00  0.00    -0.251 N 
ATOM      3  N   UNL d   1       0.050  -1.116   0.124  0.00  0.00    -0.251 N 
ATOM      4  O   UNL d   1       2.169  -0.190  -0.074  0.00  0.00    -0.244 OA
ATOM      5  H   UNL d   1      -0.729   1.205  -0.171  0.00  0.00     0.191 HD
ATOM      6  H   UNL d   1      -0.941  -0.937   0.169  0.00  0.00     0.191 HD
ENDROOT
BRANCH   2   7
ATOM      7  N   UNL d   1       0.993   2.310  -0.384  0.00  0.00    -0.307 N 
ATOM      8  C   UNL d   1       0.315   3.407  -0.510  0.00  0.00     0.118 C 
ATOM      9  HN  UNL d   1       2.013   2.306  -0.416  1.00  0.00     0.186 HD
BRANCH   8  10
ATOM     10  C   UNL d   1       0.993   4.709  -0.695  0.00  0.00    -0.019 A 
ATOM     11  C   UNL d   1       2.381   4.784  -0.757  0.00  0.00     0.015 A 
ATOM     12  C   UNL d   1       3.016   6.024  -0.929  0.00  0.00     0.030 A 
ATOM     13  C   UNL d   1       2.299   7.226  -1.049  0.00  0.00     0.029 A 
ATOM     14  C   UNL d   1       0.896   7.109  -0.989  0.00  0.00     0.030 A 
ATOM     15  C   UNL d   1       0.244   5.876  -0.811  0.00  0.00     0.015 A 
BRANCH  13  16
ATOM     16  N   UNL d   1       2.915   8.450  -1.276  0.00  0.00    -0.390 N 
ATOM     17  C   UNL d   1       2.362   9.688  -0.727  0.00  0.00     0.149 C 
ATOM     18  C   UNL d   1       4.318   8.549  -1.674  0.00  0.00     0.149 C 
ENDBRANCH  13  16
ENDBRANCH   8  10
ENDBRANCH   2   7
BRANCH   3  19
ATOM     19  N   UNL d   1       0.509  -2.393   0.317  0.00  0.00    -0.307 N 
ATOM     20  C   UNL d   1      -0.401  -3.303   0.467  0.00  0.00     0.118 C 
ATOM     21  HN  UNL d   1       1.504  -2.614   0.341  1.00  0.00     0.186 HD
BRANCH  20  22
ATOM     22  C   UNL d   1      -0.073  -4.726   0.701  0.00  0.00    -0.019 A 
ATOM     23  C   UNL d   1       1.242  -5.166   0.800  0.00  0.00     0.015 A 
ATOM     24  C   UNL d   1       1.512  -6.524   1.054  0.00  0.00     0.030 A 
ATOM     25  C   UNL d   1       0.492  -7.478   1.222  0.00  0.00     0.029 A 
ATOM     26  C   UNL d   1      -0.824  -6.991   1.108  0.00  0.00     0.030 A 
ATOM     27  C   UNL d   1      -1.111  -5.642   0.849  0.00  0.00     0.015 A 
BRANCH  25  28
ATOM     28  N   UNL d   1       0.746  -8.805   1.538  0.00  0.00    -0.390 N 
ATOM     29  C   UNL d   1      -0.130  -9.880   1.074  0.00  0.00     0.149 C 
ATOM     30  C   UNL d   1       2.054  -9.258   2.006  0.00  0.00     0.149 C 
ENDBRANCH  25  28
ENDBRANCH  20  22
ENDBRANCH   3  19
TORSDOF 6
