REMARK  4 active torsions:
REMARK  status: ('A' for Active; 'I' for Inactive)
REMARK    1  A    between atoms: C_7  and  C_1 
REMARK    2  A    between atoms: C_10  and  N_6 
REMARK    3  A    between atoms: O_14  and  C_7 
REMARK    4  A    between atoms: C_18  and  O_14 
ROOT
ATOM      1  C   UNL d   1      -0.034  -1.247  -0.160  0.00  0.00     0.169 A 
ATOM      2  N   UNL d   1       1.140  -0.715  -0.251  0.00  0.00    -0.280 N 
ATOM      3  HN  UNL d   1       2.023  -1.202  -0.404  1.00  0.00     0.188 HD
ATOM      4  S   UNL d   1      -1.442  -0.269   0.083  0.00  0.00    -0.027 SA
ATOM      5  C   UNL d   1      -0.341   1.102   0.058  0.00  0.00     0.166 A 
ATOM      6  N   UNL d   1       0.961   0.653  -0.097  0.00  0.00    -0.233 N 
ATOM      7  N   UNL d   1      -0.858   2.274   0.161  0.00  0.00    -0.378 N 
ATOM      8  HN  UNL d   1      -0.348   3.158   0.173  1.00  0.00     0.158 HD
ATOM      9  H   UNL d   1      -1.875   2.161   0.230  0.00  0.00     0.158 HD
ENDROOT
BRANCH   6  10
ATOM     10  C   UNL d   1       2.124   1.468  -0.037  0.00  0.00     0.059 A 
ATOM     11  C   UNL d   1       3.310   1.075  -0.681  0.00  0.00     0.032 A 
ATOM     12  C   UNL d   1       4.448   1.891  -0.671  0.00  0.00     0.009 A 
ATOM     13  C   UNL d   1       4.442   3.111   0.011  0.00  0.00    -0.062 A 
ATOM     14  C   UNL d   1       3.284   3.496   0.687  0.00  0.00     0.009 A 
ATOM     15  C   UNL d   1       5.651   3.996  -0.012  0.00  0.00     0.048 C 
ATOM     16  C   UNL d   1       2.143   2.687   0.659  0.00  0.00     0.032 A 
ENDBRANCH   6  10
BRANCH   1  17
ATOM     17  C   UNL d   1      -0.419  -2.699  -0.119  0.00  0.00     0.318 C 
ATOM     18  O   UNL d   1      -1.427  -3.162  -0.611  0.00  0.00    -0.257 OA
BRANCH  17  19
ATOM     19  O   UNL d   1       0.499  -3.340   0.641  0.00  0.00    -0.316 OA
BRANCH  19  20
ATOM     20  C   UNL d   1       0.109  -4.621   1.148  0.00  0.00     0.175 C 
ATOM     21  C   UNL d   1      -0.445  -4.405   2.545  0.00  0.00     0.034 C 
ENDBRANCH  19  20
ENDBRANCH  17  19
ENDBRANCH   1  17
TORSDOF 4
