REMARK  6 active torsions:
REMARK  status: ('A' for Active; 'I' for Inactive)
REMARK    1  A    between atoms: C_5  and  C_1 
REMARK    2  A    between atoms: C_10  and  C_2 
REMARK    3  A    between atoms: C_8  and  C_4 
REMARK    4  A    between atoms: C_7  and  O_11 
REMARK       I    between atoms: N_9  and  C_7 
REMARK    5  A    between atoms: C_19  and  N_9 
REMARK    6  A    between atoms: O_11  and  C_10 
ROOT
ATOM      1  C   UNL d   1      -0.326   1.096   0.111  0.00  0.00     0.168 A 
ATOM      2  C   UNL d   1       1.012   0.742   0.210  0.00  0.00     0.008 A 
ATOM      3  O   UNL d   1      -1.103  -0.031   0.064  0.00  0.00    -0.304 OA
ATOM      4  C   UNL d   1      -0.279  -1.115   0.126  0.00  0.00     0.087 A 
ATOM      5  C   UNL d   1       1.025  -0.686   0.239  0.00  0.00     0.050 A 
ENDROOT
BRANCH   2   6
ATOM      6  C   UNL d   1       2.213   1.630   0.231  0.00  0.00     0.222 C 
BRANCH   6   7
ATOM      7  O   UNL d   1       2.962   1.489   1.447  0.00  0.00    -0.299 OA
BRANCH   7   8
ATOM      8  C   UNL d   1       4.185   0.923   1.341  0.00  0.00     0.365 C 
ATOM      9  N   UNL d   1       4.959   0.954   2.471  0.00  0.00    -0.303 N 
ATOM     10  H   UNL d   1       5.874   0.561   2.295  0.00  0.00     0.171 HD
ATOM     11  O   UNL d   1       4.632   0.426   0.310  0.00  0.00    -0.238 OA
BRANCH   9  12
ATOM     12  C   UNL d   1       4.739   1.495   3.752  0.00  0.00     0.036 A 
ATOM     13  C   UNL d   1       3.534   2.039   4.195  0.00  0.00     0.029 A 
ATOM     14  C   UNL d   1       3.430   2.591   5.479  0.00  0.00     0.002 A 
ATOM     15  C   UNL d   1       4.528   2.597   6.333  0.00  0.00     0.000 A 
ATOM     16  C   UNL d   1       5.730   2.038   5.912  0.00  0.00     0.002 A 
ATOM     17  C   UNL d   1       5.832   1.486   4.632  0.00  0.00     0.029 A 
ENDBRANCH   9  12
ENDBRANCH   7   8
ENDBRANCH   6   7
ENDBRANCH   2   6
BRANCH   1  18
ATOM     18  C   UNL d   1      -1.052   2.392   0.018  0.00  0.00     0.440 C 
ATOM     19  F   UNL d   1      -0.212   3.460   0.067  0.00  0.00    -0.164 F 
ATOM     20  F   UNL d   1      -1.744   2.504  -1.145  0.00  0.00    -0.164 F 
ATOM     21  F   UNL d   1      -1.943   2.556   1.028  0.00  0.00    -0.164 F 
ENDBRANCH   1  18
BRANCH   4  22
ATOM     22  C   UNL d   1      -0.914  -2.431   0.031  0.00  0.00    -0.002 A 
ATOM     23  C   UNL d   1      -2.306  -2.568  -0.098  0.00  0.00     0.016 A 
ATOM     24  C   UNL d   1      -2.897  -3.832  -0.222  0.00  0.00     0.024 A 
ATOM     25  C   UNL d   1      -2.099  -4.972  -0.216  0.00  0.00     0.034 A 
ATOM     26  C   UNL d   1      -0.719  -4.861  -0.081  0.00  0.00     0.024 A 
ATOM     27 CL   UNL d   1      -2.820  -6.525  -0.380  0.00  0.00    -0.084 Cl
ATOM     28  C   UNL d   1      -0.132  -3.596   0.042  0.00  0.00     0.016 A 
ENDBRANCH   4  22
TORSDOF 6
