REMARK  3 active torsions:
REMARK  status: ('A' for Active; 'I' for Inactive)
REMARK    1  A    between atoms: C_4  and  C_1 
REMARK       I    between atoms: N_8  and  C_4 
REMARK    2  A    between atoms: N_7  and  C_9 
REMARK    3  A    between atoms: C_13  and  N_8 
ROOT
ATOM      1  C   UNL d   1       3.984  -0.105  -0.728  0.00  0.00     0.264 C 
ATOM      2  N   UNL d   1       4.428  -1.222  -0.034  0.00  0.00    -0.322 N 
ATOM      3  O   UNL d   1       3.001  -0.123  -1.467  0.00  0.00    -0.267 OA
ATOM      4  H   UNL d   1       5.204  -1.072   0.599  0.00  0.00     0.169 HD
ENDROOT
BRANCH   2   5
ATOM      5  C   UNL d   1       3.833  -2.501  -0.012  0.00  0.00     0.035 A 
ATOM      6  C   UNL d   1       2.812  -2.905  -0.871  0.00  0.00     0.032 A 
ATOM      7  C   UNL d   1       2.208  -4.164  -0.733  0.00  0.00     0.031 A 
ATOM      8  C   UNL d   1       2.599  -5.054   0.270  0.00  0.00     0.030 A 
ATOM      9  C   UNL d   1       3.675  -4.658   1.080  0.00  0.00     0.031 A 
ATOM     10  C   UNL d   1       4.288  -3.407   0.943  0.00  0.00     0.032 A 
BRANCH   8  11
ATOM     11  N   UNL d   1       2.016  -6.306   0.462  0.00  0.00    -0.377 N 
ATOM     12  C   UNL d   1       1.491  -6.568   1.823  0.00  0.00     0.149 C 
ATOM     13  C   UNL d   1       1.350  -8.086   2.008  0.00  0.00     0.187 C 
ATOM     14  O   UNL d   1       0.482  -8.659   1.014  0.00  0.00    -0.388 OA
ATOM     15  C   UNL d   1       0.991  -8.394  -0.306  0.00  0.00     0.187 C 
ATOM     16  C   UNL d   1       1.137  -6.884  -0.571  0.00  0.00     0.149 C 
ENDBRANCH   8  11
ENDBRANCH   2   5
BRANCH   1  17
ATOM     17  C   UNL d   1       4.749   1.121  -0.511  0.00  0.00     0.096 A 
ATOM     18  S   UNL d   1       6.251   1.110   0.314  0.00  0.00    -0.082 SA
ATOM     19  C   UNL d   1       6.519   2.787   0.047  0.00  0.00     0.017 A 
ATOM     20  C   UNL d   1       7.646   3.539   0.436  0.00  0.00     0.020 A 
ATOM     21  C   UNL d   1       5.452   3.371  -0.637  0.00  0.00     0.004 A 
ATOM     22  C   UNL d   1       7.705   4.895   0.106  0.00  0.00     0.001 A 
ATOM     23  C   UNL d   1       6.663   5.499  -0.582  0.00  0.00     0.001 A 
ATOM     24  C   UNL d   1       5.538   4.755  -0.944  0.00  0.00     0.014 A 
ATOM     25  C   UNL d   1       4.424   2.403  -0.917  0.00  0.00     0.068 A 
ATOM     26 CL   UNL d   1       2.964   2.870  -1.704  0.00  0.00    -0.082 Cl
ENDBRANCH   1  17
TORSDOF 3
