REMARK  4 active torsions:
REMARK  status: ('A' for Active; 'I' for Inactive)
REMARK    1  A    between atoms: C_2  and  C_1 
REMARK       I    between atoms: N_6  and  C_2 
REMARK    2  A    between atoms: C_14  and  C_5 
REMARK    3  A    between atoms: C_7  and  N_6 
REMARK    4  A    between atoms: C_10  and  C_7 
ROOT
ATOM      1  C   UNL d   1       0.111  -2.656   0.469  0.00  0.00     0.262 C 
ATOM      2  N   UNL d   1      -0.722  -3.400  -0.362  0.00  0.00    -0.308 N 
ATOM      3  O   UNL d   1       1.040  -3.119   1.117  0.00  0.00    -0.267 OA
ATOM      4  H   UNL d   1      -1.409  -2.834  -0.845  0.00  0.00     0.170 HD
ENDROOT
BRANCH   1   5
ATOM      5  C   UNL d   1      -0.118  -1.218   0.465  0.00  0.00     0.093 A 
ATOM      6  C   UNL d   1      -1.286  -0.383   0.548  0.00  0.00     0.083 A 
ATOM      7  N   UNL d   1      -0.915   0.912   0.557  0.00  0.00    -0.259 N 
ATOM      8  O   UNL d   1       0.443   0.951   0.450  0.00  0.00    -0.241 OA
ATOM      9  HN  UNL d   1      -1.537   1.717   0.632  1.00  0.00     0.195 HD
ATOM     10  C   UNL d   1       0.923  -0.307   0.372  0.00  0.00     0.090 A 
ATOM     11  C   UNL d   1       2.382  -0.408   0.171  0.00  0.00     0.080 C 
BRANCH   6  12
ATOM     12  C   UNL d   1      -2.724  -0.659   0.643  0.00  0.00    -0.006 A 
ATOM     13  C   UNL d   1      -3.625   0.301   0.132  0.00  0.00     0.014 A 
ATOM     14  C   UNL d   1      -5.003   0.167   0.291  0.00  0.00     0.001 A 
ATOM     15  C   UNL d   1      -5.512  -0.944   0.949  0.00  0.00     0.000 A 
ATOM     16  C   UNL d   1      -4.638  -1.919   1.437  0.00  0.00     0.001 A 
ATOM     17  C   UNL d   1      -3.251  -1.782   1.290  0.00  0.00     0.014 A 
ENDBRANCH   6  12
ENDBRANCH   1   5
BRANCH   2  18
ATOM     18  C   UNL d   1      -0.841  -4.758  -0.646  0.00  0.00     0.112 C 
ATOM     19  N   UNL d   1      -1.809  -5.088  -1.439  0.00  0.00    -0.385 N 
ATOM     20  H   UNL d   1      -2.347  -4.296  -1.775  0.00  0.00     0.157 HD
ATOM     21  HN  UNL d   1      -2.011  -6.052  -1.701  1.00  0.00     0.157 HD
BRANCH  18  22
ATOM     22  C   UNL d   1       0.018  -5.852  -0.089  0.00  0.00     0.008 A 
ATOM     23  C   UNL d   1       1.386  -5.749   0.168  0.00  0.00     0.017 A 
ATOM     24  C   UNL d   1       2.107  -6.842   0.684  0.00  0.00     0.025 A 
ATOM     25  C   UNL d   1       1.474  -8.066   0.890  0.00  0.00     0.034 A 
ATOM     26  C   UNL d   1       0.131  -8.213   0.571  0.00  0.00     0.025 A 
ATOM     27 CL   UNL d   1       2.361  -9.401   1.517  0.00  0.00    -0.084 Cl
ATOM     28  C   UNL d   1      -0.589  -7.113   0.087  0.00  0.00     0.017 A 
ENDBRANCH  18  22
ENDBRANCH   2  18
TORSDOF 4
