REMARK  7 active torsions:
REMARK  status: ('A' for Active; 'I' for Inactive)
REMARK    1  A    between atoms: N_4  and  C_1 
REMARK    2  A    between atoms: N_10  and  C_1 
REMARK    3  A    between atoms: C_7  and  N_4 
REMARK    4  A    between atoms: C_5  and  C_9 
REMARK    5  A    between atoms: O_17  and  C_5 
REMARK    6  A    between atoms: C_9  and  C_14 
REMARK    7  A    between atoms: C_14  and  N_10 
ROOT
ATOM      1  C   UNL d   1       1.157  -0.048  -0.023  0.00  0.00     0.172 C 
ATOM      2  S   UNL d   1       0.424  -0.923  -1.247  0.00  0.00    -0.041 SA
ENDROOT
BRANCH   1   3
ATOM      3  N   UNL d   1       0.542   0.696   0.954  0.00  0.00    -0.333 N 
ATOM      4  H   UNL d   1       0.953   1.623   1.081  0.00  0.00     0.168 HD
BRANCH   3   5
ATOM      5  C   UNL d   1      -0.762   0.502   1.457  0.00  0.00     0.035 A 
ATOM      6  C   UNL d   1      -1.266  -0.783   1.688  0.00  0.00     0.055 A 
ATOM      7  C   UNL d   1      -2.560  -0.961   2.187  0.00  0.00     0.058 A 
ATOM      8 CL   UNL d   1      -3.098  -2.580   2.465  0.00  0.00    -0.082 Cl
ATOM      9  C   UNL d   1      -3.359   0.154   2.455  0.00  0.00     0.055 A 
ATOM     10  C   UNL d   1      -2.844   1.439   2.261  0.00  0.00     0.028 A 
ATOM     11 CL   UNL d   1      -4.982   0.011   3.031  0.00  0.00    -0.083 Cl
ATOM     12  C   UNL d   1      -1.538   1.613   1.787  0.00  0.00     0.031 A 
ENDBRANCH   3   5
ENDBRANCH   1   3
BRANCH   1  13
ATOM     13  N   UNL d   1       2.525  -0.026  -0.015  0.00  0.00    -0.366 N 
ATOM     14  H   UNL d   1       2.928  -0.588  -0.759  0.00  0.00     0.161 HD
BRANCH  13  15
ATOM     15  C   UNL d   1       3.375   0.278   1.127  0.00  0.00     0.132 C 
BRANCH  15  16
ATOM     16  C   UNL d   1       4.316   1.438   0.848  0.00  0.00     0.129 C 
BRANCH  16  17
ATOM     17  C   UNL d   1       3.574   2.748   0.805  0.00  0.00     0.140 C 
ATOM     18  O   UNL d   1       2.437   2.927   1.226  0.00  0.00    -0.650 OA
BRANCH  17  19
ATOM     19  O   UNL d   1       4.312   3.749   0.276  0.00  0.00    -0.776 OA
ATOM     20  H   UNL d   1       5.199   3.478  -0.032  0.00  0.00     0.167 HD
ENDBRANCH  17  19
ENDBRANCH  16  17
ENDBRANCH  15  16
ENDBRANCH  13  15
ENDBRANCH   1  13
TORSDOF 7
