REMARK  4 active torsions:
REMARK  status: ('A' for Active; 'I' for Inactive)
REMARK    1  A    between atoms: C_11  and  N_1 
REMARK    2  A    between atoms: C_8  and  C_2 
REMARK    3  A    between atoms: C_16  and  C_11 
REMARK    4  A    between atoms: C_17  and  C_16 
ROOT
ATOM      1  N   UNL d   1       0.885  -0.651  -0.015  0.00  0.00    -0.307 N 
ATOM      2  C   UNL d   1       0.920   0.721  -0.080  0.00  0.00     0.135 A 
ATOM      3  N   UNL d   1      -0.260   1.282  -0.068  0.00  0.00    -0.282 N 
ATOM      4  HN  UNL d   1      -0.475   2.279  -0.091  1.00  0.00     0.188 HD
ATOM      5  C   UNL d   1      -0.460  -0.961   0.013  0.00  0.00     0.194 A 
ATOM      6  N   UNL d   1      -1.136   0.246  -0.017  0.00  0.00    -0.274 N 
ATOM      7  S   UNL d   1      -1.235  -2.425   0.066  0.00  0.00    -0.039 SA
ATOM      8  H   UNL d   1      -2.138   0.380  -0.009  0.00  0.00     0.189 HD
ENDROOT
BRANCH   2   9
ATOM      9  C   UNL d   1       2.149   1.543  -0.114  0.00  0.00     0.012 A 
ATOM     10  C   UNL d   1       3.298   1.179  -0.808  0.00  0.00     0.032 A 
ATOM     11  C   UNL d   1       4.404   2.008  -0.720  0.00  0.00     0.088 A 
ATOM     12  N   UNL d   1       4.417   3.172  -0.040  0.00  0.00    -0.375 N 
ATOM     13  C   UNL d   1       3.271   3.536   0.571  0.00  0.00     0.088 A 
ATOM     14  HN  UNL d   1       5.255   3.751   0.010  1.00  0.00     0.164 HD
ATOM     15  C   UNL d   1       2.124   2.765   0.565  0.00  0.00     0.032 A 
ENDBRANCH   2   9
BRANCH   1  16
ATOM     16  C   UNL d   1       1.972  -1.634   0.034  0.00  0.00     0.133 C 
BRANCH  16  17
ATOM     17  C   UNL d   1       2.902  -1.502   1.242  0.00  0.00     0.020 C 
BRANCH  17  18
ATOM     18  C   UNL d   1       2.212  -1.802   2.570  0.00  0.00    -0.003 C 
ATOM     19  C   UNL d   1       3.188  -1.655   3.727  0.00  0.00     0.005 C 
ENDBRANCH  17  18
ENDBRANCH  16  17
ENDBRANCH   1  16
TORSDOF 4
