REMARK  0 active torsions:
REMARK  status: ('A' for Active; 'I' for Inactive)
ROOT
ATOM      1  C   UNL d   1      -0.911  -0.431  -1.013  0.00  0.00     0.268 C 
ATOM      2  O   UNL d   1      -2.258  -0.541  -0.850  0.00  0.00    -0.310 OA
ATOM      3  C   UNL d   1      -0.265   0.158   0.231  0.00  0.00     0.051 C 
ATOM      4  C   UNL d   1      -2.690   0.365   0.162  0.00  0.00     0.064 C 
ATOM      5  C   UNL d   1      -1.483   0.575   1.066  0.00  0.00     0.057 C 
ATOM      6  O   UNL d   1      -0.329  -0.819  -2.016  0.00  0.00    -0.264 OA
ATOM      7  C   UNL d   1       0.532  -0.945   0.955  0.00  0.00     0.020 C 
ATOM      8  C   UNL d   1       0.623   1.375  -0.072  0.00  0.00     0.020 C 
ATOM      9  C   UNL d   1      -3.145   1.648  -0.538  0.00  0.00     0.046 C 
ATOM     10  C   UNL d   1      -3.853  -0.260   0.929  0.00  0.00     0.046 C 
ATOM     11  C   UNL d   1       1.948   1.018  -0.743  0.00  0.00     0.001 C 
ATOM     12  C   UNL d   1       1.841  -1.301   0.251  0.00  0.00     0.001 C 
ATOM     13  C   UNL d   1       2.703  -0.067   0.015  0.00  0.00     0.000 C 
ENDROOT
TORSDOF 0
