REMARK  6 active torsions:
REMARK  status: ('A' for Active; 'I' for Inactive)
REMARK    1  A    between atoms: N_2  and  C_1 
REMARK    2  A    between atoms: C_3  and  C_1 
REMARK    3  A    between atoms: C_4  and  C_1 
REMARK    4  A    between atoms: N_5  and  C_1 
REMARK       I    between atoms: C_6  and  N_2 
REMARK    5  A    between atoms: C_8  and  N_5 
REMARK    6  A    between atoms: C_7  and  C_6 
ROOT
ATOM      1  C   UNL d   1       0.870   0.016   0.013  0.00  0.00     0.306 C 
ENDROOT
BRANCH   1   2
ATOM      2  N   UNL d   1       0.648  -0.867  -1.149  0.00  0.00    -0.315 N 
ATOM      3  C   UNL d   1      -0.591  -1.333  -1.507  0.00  0.00     0.255 C 
ATOM      4  O   UNL d   1      -1.541  -1.297  -0.740  0.00  0.00    -0.268 OA
ATOM      5  H   UNL d   1       1.309  -0.685  -1.884  0.00  0.00     0.165 HD
BRANCH   3   6
ATOM      6  C   UNL d   1      -0.767  -1.853  -2.891  0.00  0.00     0.047 A 
ATOM      7  C   UNL d   1      -1.997  -2.412  -3.230  0.00  0.00     0.104 A 
ATOM      8  N   UNL d   1      -2.314  -2.869  -4.469  0.00  0.00    -0.374 N 
ATOM      9  C   UNL d   1      -1.364  -2.759  -5.420  0.00  0.00     0.087 A 
ATOM     10  HN  UNL d   1      -3.227  -3.276  -4.671  1.00  0.00     0.164 HD
ATOM     11  C   UNL d   1      -0.105  -2.233  -5.183  0.00  0.00     0.018 A 
ATOM     12  C   UNL d   1       0.200  -1.780  -3.899  0.00  0.00     0.020 A 
ENDBRANCH   3   6
ENDBRANCH   1   2
BRANCH   1  13
ATOM     13  C   UNL d   1       0.439  -0.524   1.427  0.00  0.00     0.441 C 
ATOM     14  F   UNL d   1      -0.840  -0.901   1.574  0.00  0.00    -0.166 F 
ATOM     15  F   UNL d   1       1.210  -1.607   1.749  0.00  0.00    -0.166 F 
ATOM     16  F   UNL d   1       0.693   0.394   2.399  0.00  0.00    -0.166 F 
ENDBRANCH   1  13
BRANCH   1  17
ATOM     17  C   UNL d   1       0.123   1.386  -0.044  0.00  0.00     0.441 C 
ATOM     18  F   UNL d   1       0.005   1.855  -1.311  0.00  0.00    -0.166 F 
ATOM     19  F   UNL d   1      -1.134   1.335   0.452  0.00  0.00    -0.166 F 
ATOM     20  F   UNL d   1       0.780   2.344   0.658  0.00  0.00    -0.166 F 
ENDBRANCH   1  17
BRANCH   1  21
ATOM     21  N   UNL d   1       2.383   0.094   0.029  0.00  0.00    -0.346 N 
ATOM     22  H   UNL d   1       2.773  -0.561   0.708  0.00  0.00     0.163 HD
BRANCH  21  23
ATOM     23  C   UNL d   1       3.316   0.573  -0.870  0.00  0.00     0.069 A 
ATOM     24  C   UNL d   1       3.053   1.164  -2.109  0.00  0.00     0.142 A 
ATOM     25  F   UNL d   1       1.809   1.164  -2.596  0.00  0.00    -0.204 F 
ATOM     26  C   UNL d   1       4.056   1.678  -2.926  0.00  0.00     0.044 A 
ATOM     27  C   UNL d   1       5.386   1.607  -2.520  0.00  0.00     0.003 A 
ATOM     28  C   UNL d   1       5.691   1.020  -1.298  0.00  0.00     0.002 A 
ATOM     29  C   UNL d   1       4.668   0.523  -0.482  0.00  0.00     0.032 A 
ENDBRANCH  21  23
ENDBRANCH   1  21
TORSDOF 6
