REMARK  10 active torsions:
REMARK  status: ('A' for Active; 'I' for Inactive)
REMARK    1  A    between atoms: S_20  and  C_2 
REMARK    2  A    between atoms: S_21  and  C_3 
REMARK    3  A    between atoms: C_8  and  C_13 
REMARK    4  A    between atoms: C_9  and  C_12 
REMARK    5  A    between atoms: C_10  and  N_14 
REMARK    6  A    between atoms: C_11  and  N_15 
REMARK       I    between atoms: N_14  and  C_18 
REMARK       I    between atoms: N_15  and  C_19 
REMARK    7  A    between atoms: C_18  and  C_36 
REMARK    8  A    between atoms: C_19  and  C_37 
REMARK    9  A    between atoms: C_37  and  S_20 
REMARK   10  A    between atoms: C_36  and  S_21 
ROOT
ATOM      1  S   UNL d   1       1.328  -0.542  -0.783  0.00  0.00    -0.038 SA
ATOM      2  C   UNL d   1       0.621   1.016  -0.739  0.00  0.00     0.129 C 
ATOM      3  C   UNL d   1       0.370  -0.920   0.580  0.00  0.00     0.129 C 
ATOM      4  N   UNL d   1      -0.377   1.133   0.105  0.00  0.00    -0.287 N 
ATOM      5  HN  UNL d   1      -0.963   1.964   0.190  1.00  0.00     0.188 HD
ATOM      6  N   UNL d   1      -0.536  -0.011   0.864  0.00  0.00    -0.287 N 
ATOM      7  HN  UNL d   1      -1.269  -0.135   1.563  1.00  0.00     0.188 HD
ENDROOT
BRANCH   2   8
ATOM      8  S   UNL d   1       1.226   2.378  -1.650  0.00  0.00    -0.094 SA
BRANCH   8   9
ATOM      9  C   UNL d   1       2.003   3.320  -0.289  0.00  0.00     0.184 C 
BRANCH   9  10
ATOM     10  C   UNL d   1       3.343   2.760   0.199  0.00  0.00     0.231 C 
ATOM     11  N   UNL d   1       3.913   1.793  -0.605  0.00  0.00    -0.325 N 
ATOM     12  H   UNL d   1       3.443   1.623  -1.493  0.00  0.00     0.169 HD
ATOM     13  O   UNL d   1       3.844   3.191   1.234  0.00  0.00    -0.272 OA
BRANCH  11  14
ATOM     14  C   UNL d   1       5.000   0.931  -0.335  0.00  0.00     0.057 A 
ATOM     15  C   UNL d   1       5.771   0.977   0.832  0.00  0.00     0.047 A 
ATOM     16  C   UNL d   1       6.782   0.020   1.074  0.00  0.00     0.050 A 
ATOM     17  C   UNL d   1       7.013  -0.984   0.122  0.00  0.00     0.018 A 
ATOM     18  C   UNL d   1       6.274  -1.024  -1.056  0.00  0.00     0.027 A 
ATOM     19  C   UNL d   1       5.288  -0.068  -1.288  0.00  0.00     0.060 A 
ATOM     20 CL   UNL d   1       4.415  -0.160  -2.781  0.00  0.00    -0.082 Cl
BRANCH  16  21
ATOM     21  C   UNL d   1       7.635   0.072   2.323  0.00  0.00     0.417 C 
ATOM     22  F   UNL d   1       6.918   0.210   3.467  0.00  0.00    -0.166 F 
ATOM     23  F   UNL d   1       8.392  -1.049   2.501  0.00  0.00    -0.166 F 
ATOM     24  F   UNL d   1       8.518   1.107   2.298  0.00  0.00    -0.166 F 
ENDBRANCH  16  21
ENDBRANCH  11  14
ENDBRANCH   9  10
ENDBRANCH   8   9
ENDBRANCH   2   8
BRANCH   3  25
ATOM     25  S   UNL d   1       0.572  -2.304   1.625  0.00  0.00    -0.094 SA
BRANCH  25  26
ATOM     26  C   UNL d   1       2.366  -2.409   1.818  0.00  0.00     0.184 C 
BRANCH  26  27
ATOM     27  C   UNL d   1       3.060  -1.312   2.624  0.00  0.00     0.231 C 
ATOM     28  N   UNL d   1       2.291  -0.260   3.079  0.00  0.00    -0.325 N 
ATOM     29  H   UNL d   1       1.291  -0.284   2.888  0.00  0.00     0.169 HD
ATOM     30  O   UNL d   1       4.279  -1.406   2.781  0.00  0.00    -0.272 OA
BRANCH  28  31
ATOM     31  C   UNL d   1       2.745   0.955   3.667  0.00  0.00     0.057 A 
ATOM     32  C   UNL d   1       4.062   1.159   4.089  0.00  0.00     0.047 A 
ATOM     33  C   UNL d   1       4.510   2.422   4.533  0.00  0.00     0.050 A 
ATOM     34  C   UNL d   1       3.602   3.486   4.580  0.00  0.00     0.018 A 
ATOM     35  C   UNL d   1       2.271   3.285   4.230  0.00  0.00     0.027 A 
ATOM     36  C   UNL d   1       1.844   2.028   3.792  0.00  0.00     0.060 A 
ATOM     37 CL   UNL d   1       0.177   1.856   3.385  0.00  0.00    -0.082 Cl
BRANCH  33  38
ATOM     38  C   UNL d   1       5.963   2.645   4.883  0.00  0.00     0.417 C 
ATOM     39  F   UNL d   1       6.488   1.651   5.649  0.00  0.00    -0.166 F 
ATOM     40  F   UNL d   1       6.753   2.741   3.777  0.00  0.00    -0.166 F 
ATOM     41  F   UNL d   1       6.173   3.796   5.584  0.00  0.00    -0.166 F 
ENDBRANCH  33  38
ENDBRANCH  28  31
ENDBRANCH  26  27
ENDBRANCH  25  26
ENDBRANCH   3  25
TORSDOF 10
