REMARK  4 active torsions:
REMARK  status: ('A' for Active; 'I' for Inactive)
REMARK    1  A    between atoms: C_11  and  C_2 
REMARK    2  A    between atoms: C_4  and  C_16 
REMARK       I    between atoms: N_15  and  C_11 
REMARK       I    between atoms: C_12  and  N_17 
REMARK    3  A    between atoms: C_18  and  C_12 
REMARK    4  A    between atoms: N_17  and  N_15 
ROOT
ATOM      1  C   UNL d   1      -3.306  -1.637   0.681  0.00  0.00     0.270 C 
ATOM      2  N   UNL d   1      -3.595  -2.904   0.209  0.00  0.00    -0.263 N 
ATOM      3  O   UNL d   1      -2.150  -1.312   0.960  0.00  0.00    -0.266 OA
ATOM      4  H   UNL d   1      -4.512  -3.261  -0.044  0.00  0.00     0.190 HD
ENDROOT
BRANCH   2   5
ATOM      5  N   UNL d   1      -2.511  -3.767  -0.028  0.00  0.00    -0.263 N 
ATOM      6  C   UNL d   1      -2.724  -5.132  -0.055  0.00  0.00     0.270 C 
ATOM      7  O   UNL d   1      -3.821  -5.653   0.113  0.00  0.00    -0.266 OA
ATOM      8  H   UNL d   1      -1.586  -3.365   0.127  0.00  0.00     0.190 HD
BRANCH   6   9
ATOM      9  C   UNL d   1      -1.516  -5.965  -0.319  0.00  0.00     0.034 A 
ATOM     10  C   UNL d   1      -1.372  -7.205   0.319  0.00  0.00     0.033 A 
ATOM     11  C   UNL d   1      -0.249  -8.013   0.059  0.00  0.00     0.048 A 
ATOM     12  C   UNL d   1       0.704  -7.574  -0.876  0.00  0.00     0.016 A 
ATOM     13  C   UNL d   1       0.548  -6.350  -1.528  0.00  0.00     0.002 A 
ATOM     14  C   UNL d   1      -0.555  -5.543  -1.247  0.00  0.00     0.017 A 
BRANCH  11  15
ATOM     15  C   UNL d   1      -0.037  -9.332   0.766  0.00  0.00     0.417 C 
ATOM     16  F   UNL d   1      -1.020  -9.643   1.654  0.00  0.00    -0.166 F 
ATOM     17  F   UNL d   1       0.036 -10.382  -0.098  0.00  0.00    -0.166 F 
ATOM     18  F   UNL d   1       1.127  -9.353   1.474  0.00  0.00    -0.166 F 
ENDBRANCH  11  15
ENDBRANCH   6   9
ENDBRANCH   2   5
BRANCH   1  19
ATOM     19  C   UNL d   1      -4.419  -0.639   0.824  0.00  0.00     0.036 A 
ATOM     20  C   UNL d   1      -5.753  -0.941   0.478  0.00  0.00     0.051 A 
ATOM     21  C   UNL d   1      -6.666   0.127   0.637  0.00  0.00     0.086 A 
ATOM     22  C   UNL d   1      -6.267   1.438   1.129  0.00  0.00     0.085 A 
ATOM     23  N   UNL d   1      -7.978   0.157   0.387  0.00  0.00    -0.240 N 
ATOM     24  N   UNL d   1      -7.349   2.224   1.162  0.00  0.00    -0.240 N 
ATOM     25  C   UNL d   1      -4.941   1.735   1.480  0.00  0.00     0.035 A 
ATOM     26  O   UNL d   1      -8.396   1.440   0.709  0.00  0.00    -0.156 OA
ATOM     27  HN  UNL d   1      -7.393   3.198   1.459  1.00  0.00     0.197 HD
ATOM     28  C   UNL d   1      -4.044   0.658   1.309  0.00  0.00     0.019 A 
ATOM     29  HN  UNL d   1      -8.554  -0.607   0.033  1.00  0.00     0.197 HD
ENDBRANCH   1  19
TORSDOF 4
