REMARK  2 active torsions:
REMARK  status: ('A' for Active; 'I' for Inactive)
REMARK    1  A    between atoms: C_10  and  N_4 
REMARK    2  A    between atoms: C_11  and  C_10 
ROOT
ATOM      1  C   UNL d   1      -3.457  -0.788   0.055  0.00  0.00     0.170 C 
ATOM      2  N   UNL d   1      -2.578   0.242   0.077  0.00  0.00    -0.342 N 
ATOM      3  N   UNL d   1      -2.921  -2.028   0.004  0.00  0.00    -0.342 N 
ATOM      4  N   UNL d   1      -0.714  -1.206   0.249  0.00  0.00     0.127 N 
ATOM      5  C   UNL d   1      -1.191   0.074  -0.241  0.00  0.00     0.399 C 
ATOM      6  C   UNL d   1      -1.543  -2.257  -0.312  0.00  0.00     0.399 C 
ATOM      7  S   UNL d   1      -5.094  -0.544   0.152  0.00  0.00    -0.041 SA
ATOM      8  H   UNL d   1      -2.978   1.171   0.046  0.00  0.00     0.163 HD
ATOM      9  H   UNL d   1      -3.572  -2.797  -0.086  0.00  0.00     0.163 HD
ENDROOT
BRANCH   4  10
ATOM     10  C   UNL d   1      -0.615  -1.236   1.715  0.00  0.00     0.315 C 
BRANCH  10  11
ATOM     11  C   UNL d   1       0.027  -2.503   2.236  0.00  0.00    -0.027 A 
ATOM     12  C   UNL d   1       1.324  -2.862   1.855  0.00  0.00     0.026 A 
ATOM     13  C   UNL d   1       1.848  -4.055   2.326  0.00  0.00     0.088 A 
ATOM     14  N   UNL d   1       1.183  -4.897   3.145  0.00  0.00    -0.375 N 
ATOM     15  C   UNL d   1      -0.062  -4.527   3.511  0.00  0.00     0.088 A 
ATOM     16  HN  UNL d   1       1.601  -5.769   3.470  1.00  0.00     0.164 HD
ATOM     17  C   UNL d   1      -0.675  -3.358   3.092  0.00  0.00     0.026 A 
ENDBRANCH  10  11
ENDBRANCH   4  10
TORSDOF 2
