REMARK  4 active torsions:
REMARK  status: ('A' for Active; 'I' for Inactive)
REMARK    1  A    between atoms: C_4  and  C_1 
REMARK       I    between atoms: N_7  and  C_4 
REMARK    2  A    between atoms: C_10  and  N_8 
REMARK    3  A    between atoms: O_20  and  C_19 
REMARK    4  A    between atoms: C_25  and  O_20 
ROOT
ATOM      1  C   UNL d   1      -3.964  -0.010  -0.910  0.00  0.00     0.270 C 
ATOM      2  N   UNL d   1      -4.377  -1.342  -1.029  0.00  0.00    -0.344 N 
ATOM      3  N   UNL d   1      -5.440  -4.036  -1.006  0.00  0.00    -0.376 N 
ATOM      4  C   UNL d   1      -4.423  -2.110   0.219  0.00  0.00     0.146 C 
ATOM      5  C   UNL d   1      -5.389  -1.784  -2.004  0.00  0.00     0.146 C 
ATOM      6  O   UNL d   1      -3.735   0.481   0.198  0.00  0.00    -0.266 OA
ATOM      7  C   UNL d   1      -5.272  -3.298  -2.278  0.00  0.00     0.143 C 
ATOM      8  C   UNL d   1      -4.429  -3.633   0.001  0.00  0.00     0.143 C 
ENDROOT
BRANCH   1   9
ATOM      9  C   UNL d   1      -3.744   0.755  -2.119  0.00  0.00     0.102 A 
ATOM     10  N   UNL d   1      -3.432   0.255  -3.361  0.00  0.00    -0.351 N 
ATOM     11  C   UNL d   1      -3.261   1.265  -4.279  0.00  0.00     0.044 A 
ATOM     12  H   UNL d   1      -3.322  -0.726  -3.572  0.00  0.00     0.166 HD
ATOM     13  C   UNL d   1      -2.985   1.190  -5.648  0.00  0.00     0.037 A 
ATOM     14  C   UNL d   1      -3.370   2.469  -3.589  0.00  0.00    -0.001 A 
ATOM     15  C   UNL d   1      -2.794   2.391  -6.342  0.00  0.00    -0.059 A 
ATOM     16  C   UNL d   1      -2.451   2.376  -7.803  0.00  0.00     0.048 C 
ATOM     17  C   UNL d   1      -2.869   3.612  -5.660  0.00  0.00     0.014 A 
ATOM     18  C   UNL d   1      -3.163   3.685  -4.281  0.00  0.00    -0.049 A 
ATOM     19  C   UNL d   1      -3.186   5.034  -3.618  0.00  0.00     0.049 C 
ATOM     20  C   UNL d   1      -3.670   2.134  -2.239  0.00  0.00     0.049 A 
ENDBRANCH   1   9
BRANCH   3  21
ATOM     21  C   UNL d   1      -5.929  -5.356  -1.019  0.00  0.00     0.064 A 
ATOM     22  C   UNL d   1      -7.027  -5.788  -1.819  0.00  0.00     0.095 A 
ATOM     23  C   UNL d   1      -7.493  -7.117  -1.742  0.00  0.00     0.039 A 
ATOM     24  C   UNL d   1      -6.943  -8.025  -0.843  0.00  0.00     0.003 A 
ATOM     25  C   UNL d   1      -5.900  -7.624  -0.031  0.00  0.00     0.002 A 
ATOM     26  C   UNL d   1      -5.397  -6.323  -0.134  0.00  0.00     0.032 A 
BRANCH  22  27
ATOM     27  O   UNL d   1      -7.640  -4.862  -2.635  0.00  0.00    -0.349 OA
BRANCH  27  28
ATOM     28  C   UNL d   1      -8.905  -5.203  -3.201  0.00  0.00     0.171 C 
ATOM     29  C   UNL d   1      -9.453  -3.986  -3.925  0.00  0.00     0.034 C 
ENDBRANCH  27  28
ENDBRANCH  22  27
ENDBRANCH   3  21
TORSDOF 4
