REMARK  4 active torsions:
REMARK  status: ('A' for Active; 'I' for Inactive)
REMARK    1  A    between atoms: C_4  and  N_1 
REMARK    2  A    between atoms: S_10  and  C_2 
REMARK    3  A    between atoms: C_16  and  S_10 
REMARK    4  A    between atoms: C_18  and  C_16 
ROOT
ATOM      1  N   UNL d   1       1.093  -0.664   0.091  0.00  0.00    -0.272 N 
ATOM      2  C   UNL d   1       1.010   0.693   0.196  0.00  0.00     0.166 A 
ATOM      3  C   UNL d   1      -0.205  -1.081   0.308  0.00  0.00     0.343 A 
ATOM      4  N   UNL d   1      -0.154   1.155   0.547  0.00  0.00    -0.276 N 
ATOM      5  HN  UNL d   1      -0.424   2.127   0.696  1.00  0.00     0.189 HD
ATOM      6  N   UNL d   1      -0.926   0.043   0.671  0.00  0.00    -0.249 N 
ATOM      7  O   UNL d   1      -0.687  -2.191   0.122  0.00  0.00    -0.245 OA
ATOM      8  H   UNL d   1      -1.936   0.082   0.720  0.00  0.00     0.192 HD
ENDROOT
BRANCH   2   9
ATOM      9  S   UNL d   1       2.344   1.739  -0.138  0.00  0.00    -0.088 SA
BRANCH   9  10
ATOM     10  C   UNL d   1       1.890   3.194   0.847  0.00  0.00     0.121 C 
BRANCH  10  11
ATOM     11  C   UNL d   1       2.976   4.249   0.807  0.00  0.00    -0.048 A 
ATOM     12  C   UNL d   1       2.985   5.224  -0.204  0.00  0.00     0.009 A 
ATOM     13  C   UNL d   1       3.990   6.194  -0.249  0.00  0.00     0.024 A 
ATOM     14  C   UNL d   1       4.999   6.193   0.712  0.00  0.00     0.034 A 
ATOM     15  C   UNL d   1       5.010   5.229   1.718  0.00  0.00     0.024 A 
ATOM     16 CL   UNL d   1       6.236   7.388   0.658  0.00  0.00    -0.084 Cl
ATOM     17  C   UNL d   1       4.005   4.258   1.762  0.00  0.00     0.009 A 
ENDBRANCH  10  11
ENDBRANCH   9  10
ENDBRANCH   2   9
BRANCH   1  18
ATOM     18  C   UNL d   1       1.996  -1.547  -0.646  0.00  0.00     0.105 C 
ATOM     19  C   UNL d   1       3.469  -1.152  -0.928  0.00  0.00     0.032 C 
ATOM     20  C   UNL d   1       4.277  -1.093   0.351  0.00  0.00    -0.024 C 
ATOM     21  C   UNL d   1       3.996  -2.497  -1.459  0.00  0.00     0.019 C 
ATOM     22  C   UNL d   1       4.407  -2.348   0.803  0.00  0.00    -0.026 C 
ATOM     23  C   UNL d   1       3.679  -3.247  -0.165  0.00  0.00     0.010 C 
ATOM     24  C   UNL d   1       2.166  -2.977  -0.012  0.00  0.00     0.035 C 
ENDBRANCH   1  18
TORSDOF 4
