REMARK  7 active torsions:
REMARK  status: ('A' for Active; 'I' for Inactive)
REMARK    1  A    between atoms: C_7  and  N_2 
REMARK    2  A    between atoms: C_8  and  N_3 
REMARK    3  A    between atoms: N_14  and  C_4 
REMARK    4  A    between atoms: C_19  and  C_8 
REMARK    5  A    between atoms: C_9  and  C_13 
REMARK    6  A    between atoms: O_20  and  C_9 
REMARK    7  A    between atoms: S_21  and  C_18 
ROOT
ATOM      1  C   UNL d   1      -0.753   1.163  -0.199  0.00  0.00     0.338 C 
ATOM      2  N   UNL d   1      -1.409  -0.079  -0.052  0.00  0.00    -0.254 N 
ATOM      3  N   UNL d   1       0.625   1.158   0.015  0.00  0.00    -0.262 N 
ATOM      4  C   UNL d   1      -0.713  -1.272   0.154  0.00  0.00     0.094 C 
ATOM      5  C   UNL d   1       1.371   0.012   0.148  0.00  0.00     0.254 C 
ATOM      6  C   UNL d   1       0.622  -1.244   0.225  0.00  0.00     0.117 C 
ATOM      7  O   UNL d   1      -1.345   2.208  -0.489  0.00  0.00    -0.246 OA
ATOM      8  O   UNL d   1       2.598  -0.035   0.178  0.00  0.00    -0.268 OA
ENDROOT
BRANCH   3   9
ATOM      9  C   UNL d   1       1.341   2.424  -0.074  0.00  0.00     0.175 C 
BRANCH   9  10
ATOM     10  C   UNL d   1       1.444   3.191   1.235  0.00  0.00    -0.040 A 
ATOM     11  C   UNL d   1       2.455   2.898   2.163  0.00  0.00     0.010 A 
ATOM     12  C   UNL d   1       2.647   3.710   3.288  0.00  0.00     0.018 A 
ATOM     13  C   UNL d   1       1.834   4.830   3.499  0.00  0.00     0.039 A 
ATOM     14  C   UNL d   1       0.784   5.093   2.615  0.00  0.00     0.018 A 
ATOM     15  C   UNL d   1       0.585   4.271   1.497  0.00  0.00     0.010 A 
BRANCH  13  16
ATOM     16  C   UNL d   1       2.144   5.718   4.657  0.00  0.00     0.292 C 
ATOM     17  O   UNL d   1       2.763   5.351   5.639  0.00  0.00    -0.259 OA
BRANCH  16  18
ATOM     18  O   UNL d   1       1.709   6.981   4.409  0.00  0.00    -0.323 OA
ATOM     19  C   UNL d   1       2.059   7.923   5.426  0.00  0.00     0.213 C 
ENDBRANCH  16  18
ENDBRANCH  13  16
ENDBRANCH   9  10
ENDBRANCH   3   9
BRANCH   2  20
ATOM     20  C   UNL d   1      -2.845  -0.052  -0.049  0.00  0.00     0.046 A 
ATOM     21  C   UNL d   1      -3.562   0.405  -1.167  0.00  0.00     0.048 A 
ATOM     22  C   UNL d   1      -4.962   0.415  -1.160  0.00  0.00     0.002 A 
ATOM     23  C   UNL d   1      -5.638  -0.021  -0.012  0.00  0.00     0.018 A 
ATOM     24  C   UNL d   1      -4.934  -0.470   1.105  0.00  0.00     0.004 A 
ATOM     25  C   UNL d   1      -3.542  -0.501   1.080  0.00  0.00     0.030 A 
BRANCH  22  26
ATOM     26  S   UNL d   1      -5.966   0.872  -2.569  0.00  0.00    -0.134 SA
ATOM     27  C   UNL d   1      -4.941   2.116  -3.396  0.00  0.00     0.095 C 
ENDBRANCH  22  26
ENDBRANCH   2  20
BRANCH   4  28
ATOM     28  N   UNL d   1      -1.355  -2.502   0.225  0.00  0.00    -0.288 NA
ATOM     29  H   UNL d   1      -2.240  -2.510  -0.278  0.00  0.00     0.125 HD
ATOM     30  H   UNL d   1      -0.773  -3.297  -0.023  0.00  0.00     0.125 HD
ENDBRANCH   4  28
TORSDOF 7
