REMARK  2 active torsions:
REMARK  status: ('A' for Active; 'I' for Inactive)
REMARK    1  A    between atoms: N_4  and  C_1 
REMARK       I    between atoms: C_3  and  N_2 
REMARK    2  A    between atoms: C_14  and  C_3 
ROOT
ATOM      1  N   UNL d   1       0.844   5.402  -0.242  0.00  0.00    -0.350 N 
ATOM      2  C   UNL d   1       1.346   6.630   0.164  0.00  0.00     0.224 C 
ATOM      3  N   UNL d   1       0.367   2.578  -0.466  0.00  0.00    -0.251 NA
ATOM      4  C   UNL d   1       1.623   4.582  -1.187  0.00  0.00     0.140 C 
ATOM      5  C   UNL d   1      -0.477   4.843   0.070  0.00  0.00     0.140 C 
ATOM      6  C   UNL d   1       1.712   3.107  -0.740  0.00  0.00     0.118 C 
ATOM      7  C   UNL d   1      -0.401   3.368   0.508  0.00  0.00     0.118 C 
ATOM      8  O   UNL d   1       2.446   7.019  -0.238  0.00  0.00    -0.273 OA
ENDROOT
BRANCH   2   9
ATOM      9  C   UNL d   1       0.533   7.483   1.158  0.00  0.00     0.078 C 
ATOM     10  C   UNL d   1      -0.726   8.119   0.557  0.00  0.00     0.014 C 
ATOM     11  C   UNL d   1      -0.424   9.269  -0.398  0.00  0.00     0.001 C 
ATOM     12  C   UNL d   1       0.470  10.337   0.219  0.00  0.00     0.000 C 
ATOM     13  C   UNL d   1       1.700   9.770   0.916  0.00  0.00     0.001 C 
ATOM     14  C   UNL d   1       1.392   8.577   1.822  0.00  0.00     0.014 C 
ENDBRANCH   2   9
BRANCH   3  15
ATOM     15  C   UNL d   1       0.307   1.210  -0.192  0.00  0.00     0.159 A 
ATOM     16  N   UNL d   1       1.422   0.461  -0.275  0.00  0.00    -0.343 N 
ATOM     17  C   UNL d   1       1.310  -0.857  -0.021  0.00  0.00     0.092 A 
ATOM     18  HN  UNL d   1       2.320   0.877  -0.523  1.00  0.00     0.167 HD
ATOM     19  C   UNL d   1       0.129  -1.475   0.291  0.00  0.00     0.034 A 
ATOM     20  C   UNL d   1      -0.961  -0.644   0.343  0.00  0.00     0.092 A 
ATOM     21  N   UNL d   1      -0.891   0.680   0.121  0.00  0.00    -0.343 N 
ATOM     22  HN  UNL d   1      -1.723   1.267   0.188  1.00  0.00     0.167 HD
ENDBRANCH   3  15
TORSDOF 2
