REMARK  4 active torsions:
REMARK  status: ('A' for Active; 'I' for Inactive)
REMARK    1  A    between atoms: C_2  and  S_1 
REMARK    2  A    between atoms: C_12  and  S_1 
REMARK    3  A    between atoms: N_19  and  C_5 
REMARK    4  A    between atoms: C_7  and  C_6 
ROOT
ATOM      1  C   UNL d   1       0.457   0.356  -1.554  0.00  0.00     0.117 A 
ATOM      2  N   UNL d   1      -0.517  -0.165  -3.646  0.00  0.00    -0.333 N 
ATOM      3  HN  UNL d   1      -0.854  -0.854  -4.318  1.00  0.00     0.168 HD
ATOM      4  C   UNL d   1      -0.049  -0.551  -2.450  0.00  0.00     0.102 A 
ATOM      5  C   UNL d   1      -0.534   1.152  -3.945  0.00  0.00     0.114 A 
ATOM      6  N   UNL d   1      -0.031   2.100  -3.132  0.00  0.00    -0.352 N 
ATOM      7  HN  UNL d   1      -0.009   3.083  -3.403  1.00  0.00     0.166 HD
ATOM      8  C   UNL d   1       0.442   1.680  -1.942  0.00  0.00     0.116 A 
ENDROOT
BRANCH   1   9
ATOM      9  S   UNL d   1       1.012  -0.031   0.060  0.00  0.00     0.211 S 
ATOM     10  O   UNL d   1       0.388  -1.274   0.477  0.00  0.00    -0.217 OA
ATOM     11  O   UNL d   1       0.811   1.173   0.858  0.00  0.00    -0.217 OA
BRANCH   9  12
ATOM     12  C   UNL d   1       2.769  -0.318  -0.003  0.00  0.00     0.064 A 
ATOM     13  C   UNL d   1       3.636   0.522   0.710  0.00  0.00     0.025 A 
ATOM     14  C   UNL d   1       5.017   0.315   0.639  0.00  0.00     0.025 A 
ATOM     15  C   UNL d   1       5.520  -0.735  -0.127  0.00  0.00     0.034 A 
ATOM     16  C   UNL d   1       4.656  -1.593  -0.809  0.00  0.00     0.025 A 
ATOM     17 CL   UNL d   1       7.222  -0.971  -0.235  0.00  0.00    -0.084 Cl
ATOM     18  C   UNL d   1       3.274  -1.388  -0.748  0.00  0.00     0.025 A 
ENDBRANCH   9  12
ENDBRANCH   1   9
BRANCH   4  19
ATOM     19  N   UNL d   1      -0.079  -1.927  -2.275  0.00  0.00    -0.287 NA
ATOM     20  H   UNL d   1      -0.550  -2.314  -3.094  0.00  0.00     0.125 HD
ATOM     21  H   UNL d   1      -0.561  -2.201  -1.420  0.00  0.00     0.125 HD
ENDBRANCH   4  19
BRANCH   5  22
ATOM     22  C   UNL d   1      -1.117   1.596  -5.283  0.00  0.00     0.220 C 
ATOM     23  O   UNL d   1      -1.637   0.512  -6.080  0.00  0.00    -0.333 OA
ATOM     24  C   UNL d   1      -2.889   0.132  -5.665  0.00  0.00     0.103 A 
ATOM     25  C   UNL d   1      -3.308  -1.145  -6.032  0.00  0.00     0.040 A 
ATOM     26  C   UNL d   1      -3.712   0.944  -4.880  0.00  0.00     0.102 A 
ATOM     27  C   UNL d   1      -4.535  -1.631  -5.576  0.00  0.00     0.003 A 
ATOM     28  C   UNL d   1      -5.343  -0.833  -4.764  0.00  0.00     0.003 A 
ATOM     29  C   UNL d   1      -4.934   0.457  -4.422  0.00  0.00     0.039 A 
ATOM     30  O   UNL d   1      -3.373   2.212  -4.489  0.00  0.00    -0.345 OA
ATOM     31  C   UNL d   1      -2.182   2.683  -5.133  0.00  0.00     0.216 C 
ENDBRANCH   5  22
TORSDOF 4
