REMARK  3 active torsions:
REMARK  status: ('A' for Active; 'I' for Inactive)
REMARK    1  A    between atoms: C_7  and  N_1 
REMARK    2  A    between atoms: C_8  and  C_4 
REMARK    3  A    between atoms: N_15  and  C_5 
ROOT
ATOM      1  N   UNL d   1       0.886  -0.744   0.054  0.00  0.00    -0.238 N 
ATOM      2  N   UNL d   1       0.939   0.609   0.088  0.00  0.00    -0.291 N 
ATOM      3  HN  UNL d   1       1.773   1.193   0.136  1.00  0.00     0.187 HD
ATOM      4  C   UNL d   1      -0.329   1.014   0.047  0.00  0.00     0.065 A 
ATOM      5  C   UNL d   1      -0.444  -1.192  -0.003  0.00  0.00     0.123 A 
ATOM      6  C   UNL d   1      -1.230  -0.062   0.009  0.00  0.00     0.081 A 
ENDROOT
BRANCH   1   7
ATOM      7  C   UNL d   1       2.089  -1.501  -0.048  0.00  0.00     0.082 A 
ATOM      8  C   UNL d   1       3.278  -1.119   0.609  0.00  0.00     0.084 A 
ATOM      9  C   UNL d   1       4.441  -1.889   0.414  0.00  0.00     0.058 A 
ATOM     10 CL   UNL d   1       3.333   0.183   1.763  0.00  0.00    -0.080 Cl
ATOM     11 CL   UNL d   1       5.953  -1.520   1.178  0.00  0.00    -0.082 Cl
ATOM     12  C   UNL d   1       4.421  -3.018  -0.413  0.00  0.00     0.026 A 
ATOM     13  C   UNL d   1       3.249  -3.394  -1.057  0.00  0.00     0.004 A 
ATOM     14  C   UNL d   1       2.090  -2.639  -0.881  0.00  0.00     0.033 A 
ENDBRANCH   1   7
BRANCH   5  15
ATOM     15  N   UNL d   1      -0.844  -2.490  -0.020  0.00  0.00    -0.384 N 
ATOM     16  H   UNL d   1      -0.234  -3.234   0.311  0.00  0.00     0.157 HD
ATOM     17  H   UNL d   1      -1.830  -2.714   0.106  0.00  0.00     0.157 HD
ENDBRANCH   5  15
BRANCH   4  18
ATOM     18  C   UNL d   1      -0.704   2.424   0.015  0.00  0.00     0.023 A 
ATOM     19  C   UNL d   1       0.018   3.484  -0.499  0.00  0.00     0.061 A 
ATOM     20  O   UNL d   1      -0.689   4.643  -0.349  0.00  0.00    -0.327 OA
ATOM     21  C   UNL d   1       1.325   3.616  -1.176  0.00  0.00     0.077 C 
ATOM     22  C   UNL d   1      -1.855   4.323   0.267  0.00  0.00     0.143 A 
ATOM     23  C   UNL d   1      -1.918   2.970   0.511  0.00  0.00     0.041 A 
ENDBRANCH   4  18
TORSDOF 3
