REMARK  4 active torsions:
REMARK  status: ('A' for Active; 'I' for Inactive)
REMARK    1  A    between atoms: C_3  and  C_1 
REMARK       I    between atoms: N_12  and  C_1 
REMARK    2  A    between atoms: C_2  and  C_5 
REMARK    3  A    between atoms: C_4  and  C_2 
REMARK    4  A    between atoms: C_5  and  C_13 
ROOT
ATOM      1  C   UNL d   1       0.640   0.719   1.684  0.00  0.00     0.031 A 
ATOM      2  C   UNL d   1      -0.631   0.397   2.167  0.00  0.00     0.017 A 
ATOM      3  C   UNL d   1       0.993   2.061   1.515  0.00  0.00     0.017 A 
ATOM      4  C   UNL d   1      -1.161   2.764   2.408  0.00  0.00    -0.051 A 
ATOM      5  C   UNL d   1       0.097   3.074   1.871  0.00  0.00     0.008 A 
ATOM      6  C   UNL d   1      -1.521   1.412   2.531  0.00  0.00     0.008 A 
ENDROOT
BRANCH   4   7
ATOM      7  C   UNL d   1      -2.164   3.815   2.829  0.00  0.00     0.122 C 
BRANCH   7   8
ATOM      8  C   UNL d   1      -1.678   5.250   2.771  0.00  0.00     0.163 C 
ATOM      9  O   UNL d   1      -1.730   5.896   1.723  0.00  0.00    -0.292 OA
BRANCH   8  10
ATOM     10  C   UNL d   1      -1.117   5.904   3.993  0.00  0.00     0.010 A 
ATOM     11  C   UNL d   1      -0.752   5.189   5.140  0.00  0.00     0.017 A 
ATOM     12  C   UNL d   1      -0.250   5.866   6.259  0.00  0.00     0.025 A 
ATOM     13  C   UNL d   1      -0.103   7.252   6.230  0.00  0.00     0.034 A 
ATOM     14  C   UNL d   1      -0.441   7.971   5.087  0.00  0.00     0.025 A 
ATOM     15 CL   UNL d   1       0.499   8.079   7.613  0.00  0.00    -0.084 Cl
ATOM     16  C   UNL d   1      -0.944   7.298   3.970  0.00  0.00     0.017 A 
ENDBRANCH   8  10
ENDBRANCH   7   8
ENDBRANCH   4   7
BRANCH   1  17
ATOM     17  C   UNL d   1       1.576  -0.388   1.360  0.00  0.00     0.249 C 
ATOM     18  O   UNL d   1       1.179  -1.511   1.084  0.00  0.00    -0.268 OA
ATOM     19  N   UNL d   1       2.915  -0.115   1.444  0.00  0.00    -0.366 N 
ATOM     20  H   UNL d   1       3.272   0.711   1.904  0.00  0.00     0.159 HD
ATOM     21  H   UNL d   1       3.540  -0.904   1.345  0.00  0.00     0.159 HD
ENDBRANCH   1  17
TORSDOF 4
