REMARK  7 active torsions:
REMARK  status: ('A' for Active; 'I' for Inactive)
REMARK       I    between atoms: N_3  and  C_1 
REMARK       I    between atoms: N_4  and  C_1 
REMARK       I    between atoms: C_2  and  N_6 
REMARK    1  A    between atoms: C_14  and  C_2 
REMARK    2  A    between atoms: N_6  and  N_3 
REMARK    3  A    between atoms: C_12  and  N_4 
REMARK    4  A    between atoms: C_5  and  C_15 
REMARK       I    between atoms: N_7  and  C_5 
REMARK    5  A    between atoms: C_13  and  N_7 
REMARK    6  A    between atoms: S_11  and  C_14 
REMARK    7  A    between atoms: C_15  and  S_11 
ROOT
ATOM      1  C   UNL d   1       0.372   2.902  -2.549  0.00  0.00     0.245 C 
ATOM      2  N   UNL d   1       0.110   1.692  -3.153  0.00  0.00    -0.265 N 
ATOM      3  O   UNL d   1       0.085   3.139  -1.378  0.00  0.00    -0.271 OA
ATOM      4  H   UNL d   1       0.214   1.538  -4.157  0.00  0.00     0.190 HD
ENDROOT
BRANCH   1   5
ATOM      5  C   UNL d   1       1.120   3.891  -3.427  0.00  0.00     0.178 C 
BRANCH   5   6
ATOM      6  S   UNL d   1       0.216   4.266  -4.971  0.00  0.00    -0.150 SA
BRANCH   6   7
ATOM      7  C   UNL d   1      -1.183   5.172  -4.240  0.00  0.00     0.177 C 
BRANCH   7   8
ATOM      8  C   UNL d   1      -2.171   5.771  -5.233  0.00  0.00     0.231 C 
ATOM      9  N   UNL d   1      -1.907   5.564  -6.571  0.00  0.00    -0.327 N 
ATOM     10  H   UNL d   1      -1.113   4.965  -6.776  0.00  0.00     0.169 HD
ATOM     11  O   UNL d   1      -3.145   6.379  -4.784  0.00  0.00    -0.272 OA
BRANCH   9  12
ATOM     12  C   UNL d   1      -2.690   5.990  -7.667  0.00  0.00     0.034 A 
ATOM     13  C   UNL d   1      -3.750   6.895  -7.554  0.00  0.00     0.029 A 
ATOM     14  C   UNL d   1      -4.525   7.234  -8.667  0.00  0.00     0.002 A 
ATOM     15  C   UNL d   1      -4.246   6.673  -9.910  0.00  0.00     0.000 A 
ATOM     16  C   UNL d   1      -3.175   5.793 -10.043  0.00  0.00     0.002 A 
ATOM     17  C   UNL d   1      -2.393   5.462  -8.930  0.00  0.00     0.029 A 
ENDBRANCH   9  12
ENDBRANCH   7   8
ENDBRANCH   6   7
ENDBRANCH   5   6
ENDBRANCH   1   5
BRANCH   2  18
ATOM     18  N   UNL d   1      -0.629   0.726  -2.451  0.00  0.00    -0.249 N 
ATOM     19  C   UNL d   1      -0.815  -0.495  -3.084  0.00  0.00     0.339 C 
ATOM     20  N   UNL d   1      -1.415  -1.415  -2.254  0.00  0.00    -0.308 N 
ATOM     21  O   UNL d   1      -0.483  -0.654  -4.255  0.00  0.00    -0.245 OA
ATOM     22  H   UNL d   1      -1.676  -1.083  -1.337  0.00  0.00     0.170 HD
ATOM     23  H   UNL d   1      -0.569   0.789  -1.439  0.00  0.00     0.192 HD
BRANCH  20  24
ATOM     24  C   UNL d   1      -1.764  -2.749  -2.556  0.00  0.00     0.036 A 
ATOM     25  C   UNL d   1      -1.527  -3.357  -3.791  0.00  0.00     0.029 A 
ATOM     26  C   UNL d   1      -1.917  -4.681  -4.016  0.00  0.00     0.002 A 
ATOM     27  C   UNL d   1      -2.542  -5.411  -3.009  0.00  0.00     0.000 A 
ATOM     28  C   UNL d   1      -2.776  -4.818  -1.772  0.00  0.00     0.002 A 
ATOM     29  C   UNL d   1      -2.390  -3.493  -1.546  0.00  0.00     0.029 A 
ENDBRANCH  20  24
ENDBRANCH   2  18
TORSDOF 7
