REMARK  3 active torsions:
REMARK  status: ('A' for Active; 'I' for Inactive)
REMARK    1  A    between atoms: N_4  and  C_1 
REMARK    2  A    between atoms: S_10  and  C_3 
REMARK    3  A    between atoms: C_14  and  S_10 
ROOT
ATOM      1  C   UNL d   1      -1.147  -1.096  -0.023  0.00  0.00     0.132 A 
ATOM      2  C   UNL d   1       0.833   0.281  -0.053  0.00  0.00     0.086 A 
ATOM      3  C   UNL d   1      -0.013   1.397  -0.075  0.00  0.00     0.096 A 
ATOM      4  C   UNL d   1       0.262  -1.012  -0.030  0.00  0.00    -0.003 A 
ATOM      5  N   UNL d   1      -1.369   1.290  -0.067  0.00  0.00    -0.351 N 
ATOM      6  HN  UNL d   1      -1.954   2.125  -0.083  1.00  0.00     0.166 HD
ATOM      7  C   UNL d   1      -1.933   0.056  -0.038  0.00  0.00     0.040 A 
ATOM      8  C   UNL d   1       2.255   0.467  -0.055  0.00  0.00     0.103 C 
ATOM      9  N   UNL d   1       3.406   0.600  -0.066  0.00  0.00    -0.191 NA
ATOM     10  C   UNL d   1       1.117  -2.257  -0.021  0.00  0.00     0.052 C 
ATOM     11  C   UNL d   1      -3.435   0.034   0.003  0.00  0.00     0.071 C 
ENDROOT
BRANCH   3  12
ATOM     12  S   UNL d   1       0.597   3.080  -0.047  0.00  0.00    -0.071 SA
BRANCH  12  13
ATOM     13  C   UNL d   1       0.799   3.401  -1.789  0.00  0.00     0.007 A 
ATOM     14  C   UNL d   1      -0.316   3.497  -2.629  0.00  0.00     0.020 A 
ATOM     15  C   UNL d   1      -0.158   3.794  -3.985  0.00  0.00     0.025 A 
ATOM     16  C   UNL d   1       1.119   4.003  -4.504  0.00  0.00     0.034 A 
ATOM     17  C   UNL d   1       2.237   3.916  -3.678  0.00  0.00     0.025 A 
ATOM     18 CL   UNL d   1       1.311   4.377  -6.172  0.00  0.00    -0.084 Cl
ATOM     19  C   UNL d   1       2.077   3.618  -2.320  0.00  0.00     0.020 A 
ENDBRANCH  12  13
ENDBRANCH   3  12
BRANCH   1  20
ATOM     20  N   UNL d   1      -1.804  -2.389   0.004  0.00  0.00    -0.113 N 
ATOM     21  O   UNL d   1      -1.624  -3.093   1.005  0.00  0.00    -0.532 OA
ATOM     22  O   UNL d   1      -2.492  -2.692  -0.978  0.00  0.00    -0.532 OA
ENDBRANCH   1  20
TORSDOF 3
