REMARK  1 active torsions:
REMARK  status: ('A' for Active; 'I' for Inactive)
REMARK    1  A    between atoms: C_6  and  C_3 
REMARK       I    between atoms: N_8  and  C_6 
ROOT
ATOM      1  C   UNL d   1      -0.795   0.458  -0.029  0.00  0.00     0.005 A 
ATOM      2  C   UNL d   1      -1.421  -0.806  -0.072  0.00  0.00     0.027 A 
ATOM      3  C   UNL d   1      -1.617   1.574   0.107  0.00  0.00     0.044 A 
ATOM      4  C   UNL d   1      -0.381  -1.839  -0.229  0.00  0.00     0.194 A 
ATOM      5  C   UNL d   1       0.648   0.249  -0.130  0.00  0.00    -0.010 A 
ATOM      6  C   UNL d   1       0.909  -1.131  -0.244  0.00  0.00     0.026 A 
ATOM      7  O   UNL d   1      -0.559  -3.034  -0.322  0.00  0.00    -0.287 OA
ATOM      8  C   UNL d   1      -2.785  -1.016   0.041  0.00  0.00     0.016 A 
ATOM      9  C   UNL d   1      -3.006   1.380   0.285  0.00  0.00     0.018 A 
ATOM     10  C   UNL d   1       1.731   1.110  -0.092  0.00  0.00     0.013 A 
ATOM     11  C   UNL d   1       2.175  -1.687  -0.319  0.00  0.00     0.016 A 
ATOM     12  C   UNL d   1      -3.585   0.101   0.236  0.00  0.00     0.002 A 
ATOM     13  C   UNL d   1       3.031   0.576  -0.154  0.00  0.00     0.001 A 
ATOM     14  C   UNL d   1       3.251  -0.808  -0.268  0.00  0.00     0.001 A 
ENDROOT
BRANCH   3  15
ATOM     15  C   UNL d   1      -1.110   2.964   0.157  0.00  0.00     0.254 C 
ATOM     16  N   UNL d   1      -1.648   3.913  -0.709  0.00  0.00    -0.344 N 
ATOM     17  C   UNL d   1      -1.195   5.303  -0.616  0.00  0.00     0.152 C 
ATOM     18  C   UNL d   1      -2.477   3.654  -1.896  0.00  0.00     0.152 C 
ATOM     19  C   UNL d   1      -2.373   6.274  -0.769  0.00  0.00     0.187 C 
ATOM     20  O   UNL d   1      -3.130   6.008  -1.962  0.00  0.00    -0.388 OA
ATOM     21  C   UNL d   1      -3.631   4.662  -1.957  0.00  0.00     0.187 C 
ATOM     22  O   UNL d   1      -0.278   3.239   1.017  0.00  0.00    -0.267 OA
ENDBRANCH   3  15
TORSDOF 1
