REMARK  1 active torsions:
REMARK  status: ('A' for Active; 'I' for Inactive)
REMARK    1  A    between atoms: C_7  and  N_1 
ROOT
ATOM      1  N   UNL d   1       2.450  -0.614  -0.118  0.00  0.00    -0.268 N 
ATOM      2  C   UNL d   1       1.304  -1.426  -0.155  0.00  0.00     0.266 A 
ATOM      3  C   UNL d   1       2.333   0.767  -0.056  0.00  0.00     0.087 A 
ATOM      4  N   UNL d   1       1.200   1.394   0.022  0.00  0.00    -0.345 N 
ATOM      5  HN  UNL d   1       1.174   2.412   0.091  1.00  0.00     0.167 HD
ATOM      6  C   UNL d   1       0.007  -0.733  -0.077  0.00  0.00     0.059 A 
ATOM      7  C   UNL d   1       0.016   0.655   0.010  0.00  0.00     0.049 A 
ATOM      8  O   UNL d   1       1.307  -2.655  -0.220  0.00  0.00    -0.267 OA
ATOM      9  C   UNL d   1       3.567   1.647  -0.130  0.00  0.00     0.089 C 
ATOM     10  C   UNL d   1      -1.200  -1.446  -0.088  0.00  0.00     0.019 A 
ATOM     11  C   UNL d   1      -1.202   1.336   0.063  0.00  0.00     0.030 A 
ATOM     12  C   UNL d   1      -2.410  -0.756  -0.028  0.00  0.00     0.001 A 
ATOM     13  C   UNL d   1      -2.412   0.636   0.042  0.00  0.00     0.002 A 
ENDROOT
BRANCH   1  14
ATOM     14  C   UNL d   1       3.719  -1.269  -0.158  0.00  0.00     0.045 A 
ATOM     15  C   UNL d   1       4.683  -1.036   0.835  0.00  0.00     0.057 A 
ATOM     16  C   UNL d   1       5.928  -1.666   0.761  0.00  0.00     0.074 A 
ATOM     17 CL   UNL d   1       7.099  -1.365   1.987  0.00  0.00    -0.081 Cl
ATOM     18  C   UNL d   1       6.215  -2.524  -0.298  0.00  0.00     0.138 A 
ATOM     19  C   UNL d   1       5.263  -2.780  -1.277  0.00  0.00     0.046 A 
ATOM     20  F   UNL d   1       7.413  -3.119  -0.394  0.00  0.00    -0.204 F 
ATOM     21  C   UNL d   1       4.012  -2.164  -1.200  0.00  0.00     0.033 A 
ENDBRANCH   1  14
TORSDOF 1
