REMARK  2 active torsions:
REMARK  status: ('A' for Active; 'I' for Inactive)
REMARK    1  A    between atoms: C_7  and  C_4 
REMARK    2  A    between atoms: N_18  and  C_12 
ROOT
ATOM      1  C   UNL d   1       0.375  -0.306   0.022  0.00  0.00     0.002 C 
ATOM      2  C   UNL d   1       0.217   0.754   0.898  0.00  0.00     0.029 C 
ATOM      3  C   UNL d   1      -1.048   1.503   0.454  0.00  0.00     0.007 C 
ATOM      4  C   UNL d   1       1.460  -1.114   0.197  0.00  0.00     0.127 C 
ATOM      5  C   UNL d   1      -0.696  -0.182  -1.032  0.00  0.00     0.032 C 
ATOM      6  C   UNL d   1      -0.811   1.396  -1.090  0.00  0.00    -0.027 C 
ATOM      7  N   UNL d   1       1.166   1.180   1.728  0.00  0.00    -0.335 N 
ATOM      8  HN  UNL d   1       1.055   2.002   2.322  1.00  0.00     0.168 HD
ATOM      9  N   UNL d   1       2.449  -0.710   1.035  0.00  0.00    -0.328 N 
ATOM     10  HN  UNL d   1       3.301  -1.261   1.144  1.00  0.00     0.168 HD
ATOM     11  C   UNL d   1       2.275   0.438   1.718  0.00  0.00     0.155 C 
ATOM     12  C   UNL d   1      -2.244   0.524   0.682  0.00  0.00     0.017 C 
ATOM     13  C   UNL d   1      -2.007  -0.609  -0.350  0.00  0.00     0.011 C 
ATOM     14  C   UNL d   1      -1.266   2.863   1.079  0.00  0.00     0.023 C 
ATOM     15  C   UNL d   1       0.485   2.108  -1.581  0.00  0.00     0.016 C 
ATOM     16  C   UNL d   1      -1.965   1.909  -1.966  0.00  0.00     0.016 C 
ENDROOT
BRANCH   4  17
ATOM     17  C   UNL d   1       1.605  -2.414  -0.569  0.00  0.00     0.433 C 
ATOM     18  F   UNL d   1       0.404  -2.949  -0.946  0.00  0.00    -0.165 F 
ATOM     19  F   UNL d   1       2.320  -2.277  -1.721  0.00  0.00    -0.165 F 
ATOM     20  F   UNL d   1       2.224  -3.398   0.145  0.00  0.00    -0.165 F 
ENDBRANCH   4  17
BRANCH  11  21
ATOM     21  N   UNL d   1       3.406   0.995   2.292  0.00  0.00    -0.274 NA
ATOM     22  H   UNL d   1       4.215   0.650   1.794  0.00  0.00     0.127 HD
ATOM     23  H   UNL d   1       3.288   2.002   2.287  0.00  0.00     0.127 HD
ENDBRANCH  11  21
TORSDOF 2
