REMARK  8 active torsions:
REMARK  status: ('A' for Active; 'I' for Inactive)
REMARK    1  A    between atoms: C_2  and  N_1 
REMARK    2  A    between atoms: S_16  and  C_3 
REMARK    3  A    between atoms: O_20  and  C_4 
REMARK    4  A    between atoms: S_5  and  C_13 
REMARK    5  A    between atoms: C_12  and  S_5 
REMARK    6  A    between atoms: C_11  and  C_6 
REMARK    7  A    between atoms: C_13  and  C_23 
REMARK    8  A    between atoms: C_23  and  S_16 
ROOT
ATOM      1  N   UNL d   1       0.633   0.421   0.326  0.00  0.00    -0.254 N 
ATOM      2  C   UNL d   1       1.030  -0.812  -0.187  0.00  0.00     0.169 A 
ATOM      3  C   UNL d   1      -0.692   0.519  -0.089  0.00  0.00     0.245 A 
ATOM      4  N   UNL d   1       0.010  -1.417  -0.751  0.00  0.00    -0.276 N 
ATOM      5  HN  UNL d   1       0.021  -2.350  -1.162  1.00  0.00     0.189 HD
ATOM      6  N   UNL d   1      -1.069  -0.581  -0.695  0.00  0.00    -0.263 N 
ATOM      7  HN  UNL d   1      -2.001  -0.778  -1.058  1.00  0.00     0.190 HD
ENDROOT
BRANCH   2   8
ATOM      8  S   UNL d   1       2.610  -1.512  -0.027  0.00  0.00    -0.091 SA
BRANCH   8   9
ATOM      9  C   UNL d   1       2.390  -3.269  -0.465  0.00  0.00     0.098 C 
BRANCH   9  10
ATOM     10  C   UNL d   1       1.736  -3.661  -1.784  0.00  0.00     0.156 C 
BRANCH  10  11
ATOM     11  S   UNL d   1       2.629  -3.123  -3.217  0.00  0.00     0.176 S 
ATOM     12  O   UNL d   1       2.596  -1.672  -3.313  0.00  0.00    -0.223 OA
ATOM     13  O   UNL d   1       3.891  -3.839  -3.239  0.00  0.00    -0.223 OA
BRANCH  11  14
ATOM     14  C   UNL d   1       1.651  -3.725  -4.585  0.00  0.00     0.059 A 
ATOM     15  C   UNL d   1       0.338  -3.265  -4.743  0.00  0.00     0.026 A 
ATOM     16  C   UNL d   1      -0.422  -3.716  -5.827  0.00  0.00     0.044 A 
ATOM     17  C   UNL d   1       0.139  -4.604  -6.739  0.00  0.00     0.116 A 
ATOM     18  C   UNL d   1       1.446  -5.056  -6.589  0.00  0.00     0.044 A 
ATOM     19  F   UNL d   1      -0.589  -5.024  -7.781  0.00  0.00    -0.206 F 
ATOM     20  C   UNL d   1       2.211  -4.618  -5.507  0.00  0.00     0.026 A 
ENDBRANCH  11  14
ENDBRANCH  10  11
ENDBRANCH   9  10
ENDBRANCH   8   9
ENDBRANCH   2   8
BRANCH   1  21
ATOM     21  C   UNL d   1       1.390   1.419   1.016  0.00  0.00     0.060 A 
ATOM     22  C   UNL d   1       0.879   2.148   2.117  0.00  0.00     0.075 A 
ATOM     23  C   UNL d   1       1.639   3.232   2.616  0.00  0.00     0.018 A 
ATOM     24  C   UNL d   1       2.893   3.544   2.097  0.00  0.00     0.001 A 
ATOM     25  C   UNL d   1       3.418   2.777   1.068  0.00  0.00     0.002 A 
ATOM     26  C   UNL d   1       2.670   1.732   0.521  0.00  0.00     0.031 A 
BRANCH  22  27
ATOM     27  C   UNL d   1      -0.400   1.844   2.872  0.00  0.00     0.419 C 
ATOM     28  F   UNL d   1      -0.919   0.615   2.635  0.00  0.00    -0.166 F 
ATOM     29  F   UNL d   1      -0.237   1.914   4.223  0.00  0.00    -0.166 F 
ATOM     30  F   UNL d   1      -1.372   2.747   2.566  0.00  0.00    -0.166 F 
ENDBRANCH  22  27
ENDBRANCH   1  21
BRANCH   3  31
ATOM     31  O   UNL d   1      -1.492   1.573   0.013  0.00  0.00    -0.331 OA
ATOM     32  H   UNL d   1      -0.984   2.365   0.245  0.00  0.00     0.221 HD
ENDBRANCH   3  31
TORSDOF 8
