REMARK  3 active torsions:
REMARK  status: ('A' for Active; 'I' for Inactive)
REMARK    1  A    between atoms: C_2  and  C_1 
REMARK       I    between atoms: N_5  and  C_2 
REMARK    2  A    between atoms: C_4  and  C_7 
REMARK    3  A    between atoms: C_11  and  C_6 
ROOT
ATOM      1  C   UNL d   1      -0.258  -1.062  -0.030  0.00  0.00     0.144 A 
ATOM      2  O   UNL d   1       1.038  -0.604   0.013  0.00  0.00    -0.296 OA
ATOM      3  C   UNL d   1       0.984   0.749   0.086  0.00  0.00     0.130 A 
ATOM      4  C   UNL d   1      -1.117   0.025   0.011  0.00  0.00     0.046 A 
ATOM      5  C   UNL d   1      -0.316   1.190   0.097  0.00  0.00     0.050 A 
ENDROOT
BRANCH   3   6
ATOM      6  C   UNL d   1       2.208   1.461   0.104  0.00  0.00    -0.036 C 
ATOM      7  C   UNL d   1       3.203   2.132   0.079  0.00  0.00    -0.059 C 
BRANCH   7   8
ATOM      8  C   UNL d   1       4.346   2.995   0.011  0.00  0.00     0.018 A 
ATOM      9  C   UNL d   1       4.169   4.381   0.061  0.00  0.00     0.020 A 
ATOM     10  C   UNL d   1       5.271   5.233  -0.036  0.00  0.00     0.001 A 
ATOM     11  C   UNL d   1       6.552   4.702  -0.182  0.00  0.00     0.000 A 
ATOM     12  C   UNL d   1       6.732   3.319  -0.224  0.00  0.00     0.001 A 
ATOM     13  C   UNL d   1       5.631   2.465  -0.129  0.00  0.00     0.020 A 
ENDBRANCH   7   8
ENDBRANCH   3   6
BRANCH   1  14
ATOM     14  C   UNL d   1      -0.563  -2.481  -0.159  0.00  0.00     0.277 C 
ATOM     15  N   UNL d   1       0.384  -3.414   0.245  0.00  0.00    -0.346 N 
ATOM     16  C   UNL d   1       0.154  -4.840   0.127  0.00  0.00     0.126 C 
ATOM     17  C   UNL d   1       1.677  -3.145   0.846  0.00  0.00     0.126 C 
ATOM     18  C   UNL d   1       1.009  -5.436   1.231  0.00  0.00     0.021 C 
ATOM     19  C   UNL d   1       2.209  -4.499   1.304  0.00  0.00     0.021 C 
ATOM     20  O   UNL d   1      -1.657  -2.857  -0.589  0.00  0.00    -0.265 OA
ENDBRANCH   1  14
TORSDOF 3
