REMARK  1 active torsions:
REMARK  status: ('A' for Active; 'I' for Inactive)
REMARK       I    between atoms: C_2  and  N_1 
REMARK    1  A    between atoms: C_3  and  C_2 
ROOT
ATOM      1  N   UNL d   1       2.347   0.787   0.212  0.00  0.00    -0.344 N 
ATOM      2  C   UNL d   1       3.543   1.425   0.577  0.00  0.00     0.275 C 
ATOM      3  C   UNL d   1       1.113   1.462  -0.181  0.00  0.00     0.165 C 
ATOM      4  C   UNL d   1      -0.158   0.656  -0.077  0.00  0.00    -0.034 A 
ATOM      5  C   UNL d   1       2.285  -0.670   0.443  0.00  0.00     0.131 C 
ATOM      6  O   UNL d   1       4.478   0.692   0.954  0.00  0.00    -0.268 OA
ATOM      7  C   UNL d   1      -0.125  -0.741  -0.140  0.00  0.00    -0.049 A 
ATOM      8  C   UNL d   1       1.200  -1.409  -0.341  0.00  0.00     0.059 C 
ATOM      9  C   UNL d   1      -1.387   1.317   0.047  0.00  0.00     0.009 A 
ATOM     10  C   UNL d   1      -1.322  -1.470  -0.045  0.00  0.00     0.008 A 
ATOM     11  C   UNL d   1      -2.571   0.589   0.156  0.00  0.00     0.001 A 
ATOM     12  C   UNL d   1      -2.533  -0.805   0.116  0.00  0.00     0.001 A 
ENDROOT
BRANCH   2  13
ATOM     13  C   UNL d   1       3.775   2.975   0.621  0.00  0.00     0.269 C 
ATOM     14 CL   UNL d   1       2.636   4.043  -0.219  0.00  0.00    -0.073 Cl
ATOM     15 CL   UNL d   1       3.836   3.437   2.356  0.00  0.00    -0.073 Cl
ATOM     16 CL   UNL d   1       5.388   3.304  -0.120  0.00  0.00    -0.073 Cl
ENDBRANCH   2  13
TORSDOF 1
