REMARK  6 active torsions:
REMARK  status: ('A' for Active; 'I' for Inactive)
REMARK    1  A    between atoms: N_2  and  S_1 
REMARK    2  A    between atoms: C_5  and  S_1 
REMARK    3  A    between atoms: N_4  and  N_2 
REMARK    4  A    between atoms: C_3  and  C_7 
REMARK       I    between atoms: C_6  and  N_4 
REMARK    5  A    between atoms: C_11  and  C_6 
REMARK    6  A    between atoms: N_13  and  C_12 
ROOT
ATOM      1  N   UNL d   1       1.776  -2.422   0.163  0.00  0.00    -0.220 N 
ATOM      2  H   UNL d   1       2.236  -3.334   0.067  0.00  0.00     0.200 HD
ENDROOT
BRANCH   1   3
ATOM      3  S   UNL d   1       2.560  -1.071  -0.466  0.00  0.00     0.276 S 
ATOM      4  O   UNL d   1       1.544  -0.067  -0.718  0.00  0.00    -0.199 OA
ATOM      5  O   UNL d   1       3.496  -1.508  -1.474  0.00  0.00    -0.199 OA
BRANCH   3   6
ATOM      6  C   UNL d   1       3.501  -0.535   0.949  0.00  0.00     0.081 A 
ATOM      7  C   UNL d   1       3.271   0.725   1.514  0.00  0.00     0.041 A 
ATOM      8  C   UNL d   1       3.982   1.116   2.660  0.00  0.00     0.049 A 
ATOM      9  C   UNL d   1       4.921   0.227   3.214  0.00  0.00     0.016 A 
ATOM     10  C   UNL d   1       5.152  -1.023   2.636  0.00  0.00     0.002 A 
ATOM     11  C   UNL d   1       4.445  -1.407   1.499  0.00  0.00     0.025 A 
BRANCH   8  12
ATOM     12  C   UNL d   1       3.753   2.460   3.310  0.00  0.00     0.417 C 
ATOM     13  F   UNL d   1       2.818   3.219   2.674  0.00  0.00    -0.166 F 
ATOM     14  F   UNL d   1       3.325   2.345   4.597  0.00  0.00    -0.166 F 
ATOM     15  F   UNL d   1       4.883   3.217   3.356  0.00  0.00    -0.166 F 
ENDBRANCH   8  12
ENDBRANCH   3   6
ENDBRANCH   1   3
BRANCH   1  16
ATOM     16  N   UNL d   1       0.753  -2.259   1.171  0.00  0.00    -0.256 N 
ATOM     17  C   UNL d   1       0.529  -3.309   2.041  0.00  0.00     0.270 C 
ATOM     18  O   UNL d   1       1.139  -4.372   1.962  0.00  0.00    -0.266 OA
ATOM     19  H   UNL d   1       0.362  -1.329   1.290  0.00  0.00     0.191 HD
BRANCH  17  20
ATOM     20  C   UNL d   1      -0.440  -3.058   3.147  0.00  0.00     0.033 A 
ATOM     21  C   UNL d   1      -1.444  -2.094   3.068  0.00  0.00     0.019 A 
ATOM     22  C   UNL d   1      -2.308  -1.886   4.158  0.00  0.00     0.030 A 
ATOM     23  C   UNL d   1      -2.220  -2.630   5.347  0.00  0.00     0.029 A 
ATOM     24  C   UNL d   1      -1.210  -3.607   5.380  0.00  0.00     0.030 A 
ATOM     25  C   UNL d   1      -0.333  -3.821   4.306  0.00  0.00     0.019 A 
BRANCH  23  26
ATOM     26  N   UNL d   1      -3.097  -2.454   6.404  0.00  0.00    -0.390 N 
ATOM     27  C   UNL d   1      -2.700  -2.721   7.786  0.00  0.00     0.149 C 
ATOM     28  C   UNL d   1      -4.363  -1.739   6.268  0.00  0.00     0.149 C 
ENDBRANCH  23  26
ENDBRANCH  17  20
ENDBRANCH   1  16
TORSDOF 6
