REMARK  3 active torsions:
REMARK  status: ('A' for Active; 'I' for Inactive)
REMARK    1  A    between atoms: C_6  and  C_2 
REMARK    2  A    between atoms: C_16  and  N_5 
REMARK    3  A    between atoms: C_17  and  C_12 
ROOT
ATOM      1  N   UNL d   1      -0.689   1.180   0.025  0.00  0.00    -0.270 N 
ATOM      2  C   UNL d   1       1.429  -0.046  -0.005  0.00  0.00     0.094 A 
ATOM      3  C   UNL d   1      -1.438   0.004   0.002  0.00  0.00     0.335 A 
ATOM      4  C   UNL d   1       0.693   1.247  -0.014  0.00  0.00     0.266 A 
ATOM      5  N   UNL d   1      -0.687  -1.185  -0.016  0.00  0.00    -0.274 N 
ATOM      6  C   UNL d   1       0.695  -1.167  -0.036  0.00  0.00     0.123 A 
ATOM      7  O   UNL d   1      -2.670   0.029  -0.044  0.00  0.00    -0.246 OA
ATOM      8  O   UNL d   1       1.290   2.322  -0.087  0.00  0.00    -0.267 OA
ATOM      9  C   UNL d   1      -1.397   2.447  -0.013  0.00  0.00     0.164 C 
ENDROOT
BRANCH   2  10
ATOM     10  C   UNL d   1       2.857  -0.042   0.021  0.00  0.00     0.145 A 
ATOM     11  N   UNL d   1       3.530  -1.081  -0.585  0.00  0.00    -0.318 N 
ATOM     12  C   UNL d   1       4.790  -0.770  -0.369  0.00  0.00     0.182 A 
ATOM     13  HN  UNL d   1       3.147  -1.888  -1.077  1.00  0.00     0.169 HD
ATOM     14  O   UNL d   1       4.939   0.378   0.354  0.00  0.00    -0.217 OA
ATOM     15  N   UNL d   1       3.657   0.846   0.626  0.00  0.00    -0.242 N 
ATOM     16  HN  UNL d   1       3.390   1.673   1.161  1.00  0.00     0.196 HD
BRANCH  12  17
ATOM     17  C   UNL d   1       6.002  -1.482  -0.747  0.00  0.00     0.017 A 
ATOM     18  C   UNL d   1       5.901  -2.666  -1.493  0.00  0.00     0.016 A 
ATOM     19  C   UNL d   1       7.041  -3.401  -1.824  0.00  0.00     0.001 A 
ATOM     20  C   UNL d   1       8.296  -2.958  -1.415  0.00  0.00     0.000 A 
ATOM     21  C   UNL d   1       8.416  -1.773  -0.692  0.00  0.00     0.001 A 
ATOM     22  C   UNL d   1       7.276  -1.036  -0.364  0.00  0.00     0.016 A 
ENDBRANCH  12  17
ENDBRANCH   2  10
BRANCH   5  23
ATOM     23  C   UNL d   1      -1.398  -2.427  -0.020  0.00  0.00     0.043 A 
ATOM     24  C   UNL d   1      -1.126  -3.403  -0.988  0.00  0.00     0.030 A 
ATOM     25  C   UNL d   1      -1.879  -4.580  -1.028  0.00  0.00     0.002 A 
ATOM     26  C   UNL d   1      -2.876  -4.808  -0.079  0.00  0.00     0.000 A 
ATOM     27  C   UNL d   1      -3.124  -3.860   0.911  0.00  0.00     0.002 A 
ATOM     28  C   UNL d   1      -2.396  -2.671   0.934  0.00  0.00     0.030 A 
ENDBRANCH   5  23
TORSDOF 3
