REMARK  3 active torsions:
REMARK  status: ('A' for Active; 'I' for Inactive)
REMARK    1  A    between atoms: C_5  and  N_1 
REMARK    2  A    between atoms: N_14  and  C_2 
REMARK    3  A    between atoms: S_15  and  C_8 
ROOT
ATOM      1  N   UNL d   1       0.015  -1.191   0.044  0.00  0.00    -0.081 N 
ATOM      2  C   UNL d   1       1.274  -0.609  -0.155  0.00  0.00     0.699 A 
ATOM      3  N   UNL d   1       1.164   0.697  -0.142  0.00  0.00    -0.168 N 
ATOM      4  HN  UNL d   1       1.902   1.394  -0.241  1.00  0.00     0.186 HD
ATOM      5  N   UNL d   1      -0.902  -0.199   0.170  0.00  0.00    -0.258 N 
ATOM      6  HN  UNL d   1      -1.907  -0.278   0.328  1.00  0.00     0.190 HD
ATOM      7  C   UNL d   1      -0.168   0.900   0.037  0.00  0.00     0.174 A 
ENDROOT
BRANCH   1   8
ATOM      8  C   UNL d   1      -0.384  -2.553   0.135  0.00  0.00     0.118 A 
ATOM      9  C   UNL d   1       0.368  -3.501   0.854  0.00  0.00     0.066 A 
ATOM     10  C   UNL d   1      -0.053  -4.837   0.932  0.00  0.00     0.050 A 
ATOM     11 CL   UNL d   1       1.743  -3.123   1.839  0.00  0.00    -0.082 Cl
ATOM     12  C   UNL d   1      -1.242  -5.233   0.335  0.00  0.00     0.037 A 
ATOM     13  C   UNL d   1      -2.015  -4.311  -0.354  0.00  0.00     0.050 A 
ATOM     14 CL   UNL d   1      -1.762  -6.866   0.465  0.00  0.00    -0.084 Cl
ATOM     15  C   UNL d   1      -1.591  -2.979  -0.466  0.00  0.00     0.066 A 
ATOM     16 CL   UNL d   1      -2.588  -1.988  -1.482  0.00  0.00    -0.082 Cl
ENDBRANCH   1   8
BRANCH   2  17
ATOM     17  N   UNL d   1       2.427  -1.265  -0.419  0.00  0.00    -0.233 N 
ATOM     18  H   UNL d   1       2.584  -2.181  -0.009  0.00  0.00     0.174 HD
ATOM     19  H   UNL d   1       3.260  -0.684  -0.351  0.00  0.00     0.174 HD
ENDBRANCH   2  17
BRANCH   7  20
ATOM     20  S   UNL d   1      -0.910   2.476   0.074  0.00  0.00    -0.097 SA
ATOM     21  C   UNL d   1       0.552   3.530   0.018  0.00  0.00     0.099 C 
ENDBRANCH   7  20
TORSDOF 3
