REMARK  6 active torsions:
REMARK  status: ('A' for Active; 'I' for Inactive)
REMARK    1  A    between atoms: N_2  and  S_1 
REMARK    2  A    between atoms: C_11  and  S_1 
REMARK    3  A    between atoms: C_3  and  N_2 
REMARK       I    between atoms: C_4  and  N_15 
REMARK       I    between atoms: N_9  and  C_4 
REMARK    4  A    between atoms: C_10  and  N_9 
REMARK    5  A    between atoms: C_16  and  C_12 
REMARK    6  A    between atoms: N_15  and  C_23 
ROOT
ATOM      1  C   UNL d   1       0.537   1.578  -0.749  0.00  0.00     0.075 A 
ATOM      2  C   UNL d   1      -0.848   1.712  -0.874  0.00  0.00     0.027 A 
ATOM      3  C   UNL d   1       1.355   2.709  -0.773  0.00  0.00     0.027 A 
ATOM      4  C   UNL d   1      -0.609   4.138  -0.935  0.00  0.00     0.036 A 
ATOM      5  C   UNL d   1       0.779   3.982  -0.873  0.00  0.00     0.031 A 
ATOM      6  C   UNL d   1      -1.414   2.989  -0.985  0.00  0.00     0.031 A 
ENDROOT
BRANCH   4   7
ATOM      7  N   UNL d   1      -1.263   5.389  -0.850  0.00  0.00    -0.309 N 
ATOM      8  C   UNL d   1      -0.673   6.639  -0.719  0.00  0.00     0.325 C 
ATOM      9  N   UNL d   1      -1.607   7.578  -0.281  0.00  0.00    -0.308 N 
ATOM     10  O   UNL d   1       0.507   6.890  -0.904  0.00  0.00    -0.247 OA
ATOM     11  H   UNL d   1      -2.335   7.213   0.310  0.00  0.00     0.170 HD
ATOM     12  H   UNL d   1      -2.270   5.382  -0.893  0.00  0.00     0.170 HD
BRANCH   9  13
ATOM     13  C   UNL d   1      -1.287   8.946  -0.109  0.00  0.00     0.043 A 
ATOM     14  C   UNL d   1      -1.643   9.669   1.058  0.00  0.00    -0.024 A 
ATOM     15  C   UNL d   1      -1.567  11.081   0.972  0.00  0.00     0.010 A 
ATOM     16  C   UNL d   1      -1.057  11.735  -0.153  0.00  0.00     0.001 A 
ATOM     17  C   UNL d   1      -0.599  10.998  -1.232  0.00  0.00     0.002 A 
ATOM     18  C   UNL d   1      -0.722   9.611  -1.212  0.00  0.00     0.030 A 
BRANCH  14  19
ATOM     19  C   UNL d   1      -1.988   9.029   2.431  0.00  0.00    -0.022 C 
ATOM     20  C   UNL d   1      -1.222   7.713   2.710  0.00  0.00     0.019 C 
ATOM     21  C   UNL d   1      -1.594   9.955   3.621  0.00  0.00     0.019 C 
ATOM     22  C   UNL d   1      -3.502   8.773   2.525  0.00  0.00     0.019 C 
ENDBRANCH  14  19
ENDBRANCH   9  13
ENDBRANCH   4   7
BRANCH   1  23
ATOM     23  S   UNL d   1       1.257  -0.017  -0.370  0.00  0.00     0.248 S 
ATOM     24  O   UNL d   1       2.495   0.249   0.325  0.00  0.00    -0.205 OA
ATOM     25  O   UNL d   1       0.220  -0.815   0.253  0.00  0.00    -0.205 OA
BRANCH  23  26
ATOM     26  N   UNL d   1       1.684  -0.646  -1.865  0.00  0.00    -0.151 NA
ATOM     27  H   UNL d   1       2.376  -0.052  -2.310  0.00  0.00     0.149 HD
BRANCH  26  28
ATOM     28  C   UNL d   1       0.607  -0.839  -2.723  0.00  0.00     0.171 A 
ATOM     29  N   UNL d   1       0.422   0.147  -3.599  0.00  0.00    -0.336 N 
ATOM     30  C   UNL d   1      -0.676   0.039  -4.371  0.00  0.00     0.009 A 
ATOM     31  HN  UNL d   1       1.069   0.932  -3.680  1.00  0.00     0.168 HD
ATOM     32  C   UNL d   1      -0.941   1.146  -5.345  0.00  0.00     0.068 C 
ATOM     33  C   UNL d   1      -1.543  -1.036  -4.280  0.00  0.00     0.049 A 
ATOM     34  C   UNL d   1      -1.243  -1.999  -3.335  0.00  0.00     0.009 A 
ATOM     35  N   UNL d   1      -0.167  -1.906  -2.534  0.00  0.00    -0.336 N 
ATOM     36  C   UNL d   1      -2.118  -3.206  -3.175  0.00  0.00     0.068 C 
ATOM     37  HN  UNL d   1       0.043  -2.609  -1.826  1.00  0.00     0.168 HD
ENDBRANCH  26  28
ENDBRANCH  23  26
ENDBRANCH   1  23
TORSDOF 6
