REMARK  4 active torsions:
REMARK  status: ('A' for Active; 'I' for Inactive)
REMARK    1  A    between atoms: C_6  and  C_1 
REMARK    2  A    between atoms: C_4  and  C_7 
REMARK    3  A    between atoms: C_16  and  N_5 
REMARK       I    between atoms: C_7  and  N_13 
REMARK    4  A    between atoms: N_13  and  C_25 
ROOT
ATOM      1  C   UNL d   1       2.055   1.427  -0.335  0.00  0.00     0.056 A 
ATOM      2  C   UNL d   1       3.094   1.379  -1.272  0.00  0.00     0.034 A 
ATOM      3  C   UNL d   1       2.155   2.309   0.747  0.00  0.00     0.034 A 
ATOM      4  C   UNL d   1       4.393   2.946   0.063  0.00  0.00     0.035 A 
ATOM      5  C   UNL d   1       4.254   2.137  -1.072  0.00  0.00     0.032 A 
ATOM      6  C   UNL d   1       3.315   3.064   0.938  0.00  0.00     0.032 A 
ENDROOT
BRANCH   4   7
ATOM      7  N   UNL d   1       5.640   3.574   0.268  0.00  0.00    -0.323 N 
ATOM      8  C   UNL d   1       6.031   4.314   1.369  0.00  0.00     0.254 C 
ATOM      9  O   UNL d   1       5.361   4.514   2.374  0.00  0.00    -0.268 OA
ATOM     10  H   UNL d   1       6.336   3.367  -0.431  0.00  0.00     0.169 HD
BRANCH   8  11
ATOM     11  C   UNL d   1       7.427   4.852   1.311  0.00  0.00     0.035 C 
ATOM     12  C   UNL d   1       8.116   5.002   0.171  0.00  0.00     0.029 C 
ATOM     13  C   UNL d   1       9.431   5.626   0.248  0.00  0.00    -0.000 A 
ATOM     14  C   UNL d   1      10.268   5.662  -0.871  0.00  0.00     0.038 A 
ATOM     15  C   UNL d   1       9.812   6.281   1.423  0.00  0.00     0.079 A 
ATOM     16  C   UNL d   1      11.459   6.386  -0.819  0.00  0.00     0.035 A 
ATOM     17 CL   UNL d   1      12.473   6.452  -2.207  0.00  0.00    -0.084 Cl
ATOM     18  C   UNL d   1      11.819   7.076   0.338  0.00  0.00     0.026 A 
ATOM     19  C   UNL d   1      10.995   7.019   1.462  0.00  0.00     0.039 A 
ATOM     20  O   UNL d   1       9.043   6.293   2.553  0.00  0.00    -0.346 OA
ATOM     21  C   UNL d   1       8.005   5.296   2.631  0.00  0.00     0.220 C 
ENDBRANCH   8  11
ENDBRANCH   4   7
BRANCH   1  22
ATOM     22  N   UNL d   1       0.948   0.541  -0.452  0.00  0.00    -0.267 N 
ATOM     23  N   UNL d   1       0.881  -0.375  -1.453  0.00  0.00    -0.290 N 
ATOM     24  C   UNL d   1      -0.202  -1.129  -1.177  0.00  0.00     0.134 A 
ATOM     25  HN  UNL d   1       1.516  -0.472  -2.245  1.00  0.00     0.187 HD
ATOM     26  C   UNL d   1      -0.861  -0.659  -0.017  0.00  0.00     0.055 A 
ATOM     27  C   UNL d   1      -0.117   0.411   0.413  0.00  0.00     0.119 A 
BRANCH  24  28
ATOM     28  C   UNL d   1      -0.624  -2.319  -1.998  0.00  0.00     0.434 C 
ATOM     29  F   UNL d   1       0.151  -2.539  -3.091  0.00  0.00    -0.165 F 
ATOM     30  F   UNL d   1      -0.596  -3.464  -1.261  0.00  0.00    -0.165 F 
ATOM     31  F   UNL d   1      -1.904  -2.187  -2.444  0.00  0.00    -0.165 F 
ENDBRANCH  24  28
ENDBRANCH   1  22
TORSDOF 4
