REMARK  3 active torsions:
REMARK  status: ('A' for Active; 'I' for Inactive)
REMARK    1  A    between atoms: C_3  and  C_1 
REMARK    2  A    between atoms: C_5  and  N_6 
REMARK    3  A    between atoms: N_6  and  C_8 
ROOT
ATOM      1  N   UNL d   1       4.634  -6.790  -0.763  0.00  0.00    -0.195 NA
ATOM      2  C   UNL d   1       4.057  -5.788  -0.693  0.00  0.00     0.090 C 
ATOM      3  C   UNL d   1       3.367  -4.448  -0.613  0.00  0.00     0.120 C 
ATOM      4  C   UNL d   1       3.989  -3.679   0.592  0.00  0.00     0.046 C 
ATOM      5  C   UNL d   1       3.527  -3.772  -1.995  0.00  0.00     0.046 C 
ATOM      6  C   UNL d   1       5.510  -3.547   0.626  0.00  0.00     0.004 C 
ATOM      7  C   UNL d   1       4.938  -3.312  -2.362  0.00  0.00     0.004 C 
ATOM      8  C   UNL d   1       5.395  -2.106  -1.550  0.00  0.00     0.000 C 
ATOM      9  C   UNL d   1       6.097  -2.436  -0.238  0.00  0.00     0.000 C 
ENDROOT
BRANCH   3  10
ATOM     10  N   UNL d   1       1.905  -4.664  -0.386  0.00  0.00    -0.368 N 
ATOM     11  H   UNL d   1       1.577  -5.618  -0.523  0.00  0.00     0.161 HD
BRANCH  10  12
ATOM     12  C   UNL d   1       1.006  -3.784   0.191  0.00  0.00     0.030 A 
ATOM     13  C   UNL d   1       1.161  -2.394   0.167  0.00  0.00     0.045 A 
ATOM     14  C   UNL d   1       0.360  -1.527   0.930  0.00  0.00     0.050 A 
ATOM     15  C   UNL d   1      -0.685  -2.065   1.685  0.00  0.00     0.016 A 
ATOM     16  C   UNL d   1      -0.907  -3.440   1.675  0.00  0.00     0.003 A 
ATOM     17  C   UNL d   1      -0.064  -4.288   0.942  0.00  0.00     0.029 A 
BRANCH  14  18
ATOM     18  C   UNL d   1       0.664  -0.050   0.975  0.00  0.00     0.417 C 
ATOM     19  F   UNL d   1       1.752   0.303   0.232  0.00  0.00    -0.166 F 
ATOM     20  F   UNL d   1       0.926   0.387   2.238  0.00  0.00    -0.166 F 
ATOM     21  F   UNL d   1      -0.364   0.716   0.517  0.00  0.00    -0.166 F 
ENDBRANCH  14  18
ENDBRANCH  10  12
ENDBRANCH   3  10
TORSDOF 3
