REMARK  3 active torsions:
REMARK  status: ('A' for Active; 'I' for Inactive)
REMARK    1  A    between atoms: N_2  and  S_1 
REMARK    2  A    between atoms: C_3  and  S_1 
REMARK    3  A    between atoms: C_6  and  N_5 
ROOT
ATOM      1  N   UNL d   1       0.468   1.330   0.375  0.00  0.00    -0.304 N 
ATOM      2  N   UNL d   1       0.675   3.937  -0.868  0.00  0.00    -0.377 N 
ATOM      3  C   UNL d   1      -0.663   1.928  -0.405  0.00  0.00     0.155 C 
ATOM      4  C   UNL d   1       1.401   2.390   0.899  0.00  0.00     0.155 C 
ATOM      5  C   UNL d   1       1.863   3.390  -0.193  0.00  0.00     0.143 C 
ATOM      6  C   UNL d   1      -0.145   2.883  -1.504  0.00  0.00     0.143 C 
ENDROOT
BRANCH   1   7
ATOM      7  S   UNL d   1       1.158  -0.077  -0.272  0.00  0.00     0.261 S 
ATOM      8  O   UNL d   1       2.497  -0.225   0.262  0.00  0.00    -0.200 OA
ATOM      9  O   UNL d   1       0.916  -0.097  -1.698  0.00  0.00    -0.200 OA
BRANCH   7  10
ATOM     10  C   UNL d   1       0.162  -1.369   0.465  0.00  0.00     0.080 A 
ATOM     11  C   UNL d   1      -0.897  -1.949  -0.244  0.00  0.00     0.037 A 
ATOM     12  C   UNL d   1      -1.598  -3.048   0.294  0.00  0.00    -0.025 A 
ATOM     13  C   UNL d   1      -2.655  -3.668  -0.397  0.00  0.00     0.012 A 
ATOM     14  C   UNL d   1      -1.222  -3.558   1.560  0.00  0.00    -0.026 A 
ATOM     15  C   UNL d   1      -3.325  -4.767   0.146  0.00  0.00     0.001 A 
ATOM     16  C   UNL d   1      -2.954  -5.263   1.395  0.00  0.00     0.001 A 
ATOM     17  C   UNL d   1      -1.910  -4.661   2.095  0.00  0.00     0.012 A 
ATOM     18  C   UNL d   1      -0.154  -2.964   2.253  0.00  0.00     0.014 A 
ATOM     19  C   UNL d   1       0.538  -1.881   1.708  0.00  0.00     0.026 A 
ENDBRANCH   7  10
ENDBRANCH   1   7
BRANCH   2  20
ATOM     20  C   UNL d   1       0.721   5.142  -1.592  0.00  0.00     0.043 A 
ATOM     21  C   UNL d   1       1.833   5.715  -2.276  0.00  0.00     0.018 A 
ATOM     22  C   UNL d   1       1.663   6.924  -2.968  0.00  0.00     0.044 A 
ATOM     23  C   UNL d   1       3.194   5.336  -2.497  0.00  0.00     0.033 A 
ATOM     24  N   UNL d   1       2.864   7.250  -3.556  0.00  0.00    -0.365 N 
ATOM     25  C   UNL d   1       0.451   7.620  -3.021  0.00  0.00     0.030 A 
ATOM     26  C   UNL d   1       3.799   6.291  -3.281  0.00  0.00     0.089 A 
ATOM     27  H   UNL d   1       3.019   8.073  -4.120  0.00  0.00     0.165 HD
ATOM     28  C   UNL d   1      -0.629   7.078  -2.339  0.00  0.00     0.005 A 
ATOM     29  C   UNL d   1      -0.491   5.879  -1.647  0.00  0.00     0.030 A 
ENDBRANCH   2  20
TORSDOF 3
