REMARK  4 active torsions:
REMARK  status: ('A' for Active; 'I' for Inactive)
REMARK    1  A    between atoms: C_7  and  C_1 
REMARK    2  A    between atoms: C_9  and  C_7 
REMARK    3  A    between atoms: C_11  and  C_12 
REMARK    4  A    between atoms: C_17  and  C_16 
ROOT
ATOM      1  C   UNL d   1      -0.877   3.089   2.289  0.00  0.00     0.160 C 
ATOM      2  C   UNL d   1      -1.977   3.997   1.765  0.00  0.00     0.065 C 
ATOM      3  C   UNL d   1       0.476   3.584   1.887  0.00  0.00    -0.012 C 
ATOM      4  C   UNL d   1       1.619   3.049   2.352  0.00  0.00     0.011 C 
ATOM      5  O   UNL d   1      -1.056   2.070   2.943  0.00  0.00    -0.292 OA
ATOM      6  C   UNL d   1       0.257   4.745   0.976  0.00  0.00     0.043 C 
ATOM      7  C   UNL d   1      -1.173   5.206   1.266  0.00  0.00     0.018 C 
ENDROOT
BRANCH   2   8
ATOM      8  C   UNL d   1      -3.007   4.263   2.885  0.00  0.00     0.052 C 
BRANCH   8   9
ATOM      9  C   UNL d   1      -4.136   5.267   2.628  0.00  0.00    -0.044 A 
ATOM     10  C   UNL d   1      -5.382   4.848   2.068  0.00  0.00    -0.049 A 
ATOM     11  C   UNL d   1      -6.442   5.787   1.883  0.00  0.00    -0.049 A 
ATOM     12  C   UNL d   1      -5.655   3.404   1.699  0.00  0.00     0.049 C 
ATOM     13  C   UNL d   1      -7.779   5.376   1.288  0.00  0.00     0.049 C 
ATOM     14  C   UNL d   1      -6.286   7.136   2.291  0.00  0.00    -0.049 A 
ATOM     15  C   UNL d   1      -5.063   7.557   2.862  0.00  0.00    -0.049 A 
ATOM     16  C   UNL d   1      -7.455   8.091   2.140  0.00  0.00     0.049 C 
ATOM     17  C   UNL d   1      -3.992   6.630   3.033  0.00  0.00    -0.049 A 
ATOM     18  C   UNL d   1      -4.932   8.998   3.317  0.00  0.00     0.049 C 
ATOM     19  C   UNL d   1      -2.729   7.144   3.694  0.00  0.00     0.049 C 
ENDBRANCH   8   9
ENDBRANCH   2   8
BRANCH   4  20
ATOM     20  C   UNL d   1       2.943   3.536   2.009  0.00  0.00     0.002 C 
ATOM     21  C   UNL d   1       4.089   3.029   2.500  0.00  0.00     0.011 C 
BRANCH  21  22
ATOM     22  C   UNL d   1       5.430   3.547   2.170  0.00  0.00    -0.036 A 
ATOM     23  C   UNL d   1       5.666   4.909   1.911  0.00  0.00     0.011 A 
ATOM     24  C   UNL d   1       6.950   5.375   1.622  0.00  0.00     0.001 A 
ATOM     25  C   UNL d   1       8.028   4.491   1.603  0.00  0.00     0.000 A 
ATOM     26  C   UNL d   1       7.817   3.143   1.883  0.00  0.00     0.001 A 
ATOM     27  C   UNL d   1       6.529   2.677   2.169  0.00  0.00     0.011 A 
ENDBRANCH  21  22
ENDBRANCH   4  20
TORSDOF 4
