REMARK  4 active torsions:
REMARK  status: ('A' for Active; 'I' for Inactive)
REMARK    1  A    between atoms: N_2  and  C_1 
REMARK    2  A    between atoms: N_3  and  C_1 
REMARK    3  A    between atoms: C_4  and  N_3 
REMARK       I    between atoms: C_7  and  N_9 
REMARK    4  A    between atoms: N_9  and  C_17 
ROOT
ATOM      1  C   UNL d   1       0.842   0.108   0.005  0.00  0.00     0.174 C 
ATOM      2  S   UNL d   1       2.013  -0.596   0.964  0.00  0.00    -0.041 SA
ENDROOT
BRANCH   1   3
ATOM      3  N   UNL d   1       0.088   1.214   0.370  0.00  0.00    -0.358 N 
ATOM      4  C   UNL d   1       0.522   2.511  -0.146  0.00  0.00     0.127 C 
ATOM      5  C   UNL d   1      -0.664   3.438  -0.360  0.00  0.00     0.045 C 
ATOM      6  C   UNL d   1      -1.592   3.511   0.861  0.00  0.00     0.087 C 
ATOM      7  C   UNL d   1      -1.871   2.135   1.483  0.00  0.00     0.045 C 
ATOM      8  C   UNL d   1      -0.612   1.287   1.646  0.00  0.00     0.127 C 
BRANCH   6   9
ATOM      9  N   UNL d   1      -1.104   4.438   1.875  0.00  0.00    -0.357 N 
ATOM     10  C   UNL d   1      -1.389   5.785   1.819  0.00  0.00     0.213 C 
ATOM     11  O   UNL d   1      -1.998   6.317   0.893  0.00  0.00    -0.274 OA
ATOM     12  C   UNL d   1      -0.933   6.562   3.024  0.00  0.00     0.117 C 
ATOM     13  H   UNL d   1      -0.489   4.098   2.602  0.00  0.00     0.162 HD
ENDBRANCH   6   9
ENDBRANCH   1   3
BRANCH   1  14
ATOM     14  N   UNL d   1       0.672  -0.314  -1.294  0.00  0.00    -0.332 N 
ATOM     15  H   UNL d   1       1.468  -0.782  -1.718  0.00  0.00     0.168 HD
BRANCH  14  16
ATOM     16  C   UNL d   1      -0.500  -0.207  -2.085  0.00  0.00     0.057 A 
ATOM     17  C   UNL d   1      -1.767  -0.130  -1.492  0.00  0.00     0.055 A 
ATOM     18  C   UNL d   1      -2.915  -0.003  -2.272  0.00  0.00     0.036 A 
ATOM     19 CL   UNL d   1      -4.454   0.108  -1.510  0.00  0.00    -0.084 Cl
ATOM     20  C   UNL d   1      -2.822   0.028  -3.659  0.00  0.00     0.026 A 
ATOM     21  C   UNL d   1      -1.571  -0.103  -4.266  0.00  0.00     0.028 A 
ATOM     22  C   UNL d   1      -0.418  -0.238  -3.484  0.00  0.00     0.060 A 
ATOM     23 CL   UNL d   1       1.104  -0.393  -4.287  0.00  0.00    -0.082 Cl
ENDBRANCH  14  16
ENDBRANCH   1  14
TORSDOF 4
