REMARK  16 active torsions:
REMARK  status: ('A' for Active; 'I' for Inactive)
REMARK    1  A    between atoms: S_8  and  C_2 
REMARK    2  A    between atoms: C_11  and  S_8 
REMARK    3  A    between atoms: C_9  and  C_11 
REMARK       I    between atoms: N_12  and  C_9 
REMARK    4  A    between atoms: C_14  and  N_12 
REMARK    5  A    between atoms: C_15  and  C_14 
REMARK    6  A    between atoms: C_25  and  C_15 
REMARK    7  A    between atoms: C_16  and  C_17 
REMARK    8  A    between atoms: C_17  and  C_24 
REMARK    9  A    between atoms: C_18  and  C_26 
REMARK   10  A    between atoms: C_19  and  C_18 
REMARK   11  A    between atoms: C_20  and  C_19 
REMARK   12  A    between atoms: C_21  and  C_20 
REMARK   13  A    between atoms: C_22  and  C_21 
REMARK   14  A    between atoms: C_23  and  C_22 
REMARK   15  A    between atoms: C_24  and  C_23 
REMARK   16  A    between atoms: C_26  and  C_25 
ROOT
ATOM      1  C   UNL d   1       3.933   3.990   1.041  0.00  0.00     0.227 C 
ATOM      2  O   UNL d   1       4.155   4.525   2.128  0.00  0.00    -0.273 OA
ATOM      3  N   UNL d   1       4.023   4.684  -0.149  0.00  0.00    -0.360 N 
ATOM      4  H   UNL d   1       3.946   4.152  -1.011  0.00  0.00     0.162 HD
ENDROOT
BRANCH   3   5
ATOM      5  C   UNL d   1       4.487   6.054  -0.210  0.00  0.00     0.122 C 
BRANCH   5   6
ATOM      6  C   UNL d   1       6.011   6.145  -0.256  0.00  0.00     0.020 C 
BRANCH   6   7
ATOM      7  C   UNL d   1       6.469   7.601  -0.291  0.00  0.00     0.002 C 
BRANCH   7   8
ATOM      8  C   UNL d   1       7.990   7.698  -0.341  0.00  0.00     0.000 C 
BRANCH   8   9
ATOM      9  C   UNL d   1       8.441   9.155  -0.369  0.00  0.00     0.000 C 
BRANCH   9  10
ATOM     10  C   UNL d   1       9.961   9.245  -0.416  0.00  0.00     0.000 C 
BRANCH  10  11
ATOM     11  C   UNL d   1      10.410  10.699  -0.443  0.00  0.00     0.000 C 
BRANCH  11  12
ATOM     12  C   UNL d   1      11.929  10.786  -0.494  0.00  0.00     0.000 C 
BRANCH  12  13
ATOM     13  C   UNL d   1      12.377  12.240  -0.523  0.00  0.00     0.000 C 
BRANCH  13  14
ATOM     14  C   UNL d   1      13.895  12.327  -0.576  0.00  0.00     0.000 C 
BRANCH  14  15
ATOM     15  C   UNL d   1      14.345  13.782  -0.606  0.00  0.00     0.000 C 
BRANCH  15  16
ATOM     16  C   UNL d   1      15.866  13.869  -0.657  0.00  0.00    -0.000 C 
BRANCH  16  17
ATOM     17  C   UNL d   1      16.326  15.322  -0.687  0.00  0.00    -0.005 C 
ATOM     18  C   UNL d   1      17.841  15.407  -0.738  0.00  0.00     0.005 C 
ENDBRANCH  16  17
ENDBRANCH  15  16
ENDBRANCH  14  15
ENDBRANCH  13  14
ENDBRANCH  12  13
ENDBRANCH  11  12
ENDBRANCH  10  11
ENDBRANCH   9  10
ENDBRANCH   8   9
ENDBRANCH   7   8
ENDBRANCH   6   7
ENDBRANCH   5   6
ENDBRANCH   3   5
BRANCH   1  19
ATOM     19  C   UNL d   1       3.438   2.549   0.954  0.00  0.00     0.185 C 
BRANCH  19  20
ATOM     20  S   UNL d   1       4.049   1.706  -0.540  0.00  0.00    -0.083 SA
BRANCH  20  21
ATOM     21  C   UNL d   1       3.382   0.125  -0.338  0.00  0.00     0.162 A 
ATOM     22  N   UNL d   1       3.577  -0.901  -1.220  0.00  0.00    -0.326 N 
ATOM     23  C   UNL d   1       2.883  -1.962  -0.709  0.00  0.00     0.201 A 
ATOM     24  C   UNL d   1       4.331  -0.941  -2.441  0.00  0.00     0.159 C 
ATOM     25  N   UNL d   1       2.305  -1.611   0.416  0.00  0.00    -0.294 N 
ATOM     26  N   UNL d   1       2.621  -0.288   0.651  0.00  0.00    -0.279 N 
ATOM     27  HN  UNL d   1       1.728  -2.208   1.009  1.00  0.00     0.187 HD
ATOM     28  HN  UNL d   1       2.318   0.270   1.450  1.00  0.00     0.189 HD
ENDBRANCH  20  21
ENDBRANCH  19  20
ENDBRANCH   1  19
TORSDOF 16
