REMARK  4 active torsions:
REMARK  status: ('A' for Active; 'I' for Inactive)
REMARK    1  A    between atoms: N_8  and  S_1 
REMARK    2  A    between atoms: C_9  and  S_1 
REMARK    3  A    between atoms: C_2  and  C_12 
REMARK    4  A    between atoms: C_17  and  N_8 
ROOT
ATOM      1  C   UNL d   1       1.298   5.234   0.713  0.00  0.00    -0.002 A 
ATOM      2  C   UNL d   1       0.855   2.628  -0.264  0.00  0.00     0.042 A 
ATOM      3  C   UNL d   1       2.342   4.294   0.655  0.00  0.00     0.016 A 
ATOM      4  C   UNL d   1       0.028   4.838   0.260  0.00  0.00     0.016 A 
ATOM      5  C   UNL d   1      -0.191   3.547  -0.236  0.00  0.00     0.031 A 
ATOM      6  C   UNL d   1       2.119   2.997   0.185  0.00  0.00     0.031 A 
ENDROOT
BRANCH   2   7
ATOM      7  N   UNL d   1       0.653   1.342  -0.834  0.00  0.00    -0.281 N 
ATOM      8  H   UNL d   1       1.069   0.547  -0.350  0.00  0.00     0.179 HD
BRANCH   7   9
ATOM      9  S   UNL d   1       0.793   1.181  -2.515  0.00  0.00     0.263 S 
ATOM     10  O   UNL d   1      -0.075   2.140  -3.165  0.00  0.00    -0.200 OA
ATOM     11  O   UNL d   1       0.686  -0.236  -2.791  0.00  0.00    -0.200 OA
BRANCH   9  12
ATOM     12  C   UNL d   1       2.482   1.655  -2.840  0.00  0.00     0.079 A 
ATOM     13  C   UNL d   1       3.487   0.684  -2.821  0.00  0.00     0.026 A 
ATOM     14  C   UNL d   1       4.805   1.051  -3.105  0.00  0.00     0.008 A 
ATOM     15  C   UNL d   1       5.123   2.381  -3.415  0.00  0.00    -0.062 A 
ATOM     16  C   UNL d   1       4.103   3.342  -3.434  0.00  0.00     0.008 A 
ATOM     17  C   UNL d   1       6.537   2.755  -3.752  0.00  0.00     0.048 C 
ATOM     18  C   UNL d   1       2.782   2.981  -3.158  0.00  0.00     0.026 A 
ENDBRANCH   9  12
ENDBRANCH   7   9
ENDBRANCH   2   7
BRANCH   1  19
ATOM     19  C   UNL d   1       1.499   6.613   1.199  0.00  0.00     0.085 A 
ATOM     20  N   UNL d   1       0.749   7.639   0.849  0.00  0.00    -0.349 N 
ATOM     21  C   UNL d   1       1.195   8.797   1.466  0.00  0.00     0.050 A 
ATOM     22  HN  UNL d   1      -0.047   7.588   0.213  1.00  0.00     0.166 HD
ATOM     23  C   UNL d   1       0.650  10.087   1.307  0.00  0.00     0.031 A 
ATOM     24  C   UNL d   1       2.286   8.637   2.318  0.00  0.00     0.034 A 
ATOM     25  C   UNL d   1       1.206  11.169   2.000  0.00  0.00     0.009 A 
ATOM     26  C   UNL d   1       2.299  10.992   2.853  0.00  0.00    -0.061 A 
ATOM     27  C   UNL d   1       2.853   9.714   3.020  0.00  0.00     0.028 A 
ATOM     28  C   UNL d   1       2.872  12.169   3.588  0.00  0.00     0.048 C 
ATOM     29  S   UNL d   1       2.748   6.984   2.327  0.00  0.00    -0.070 SA
ENDBRANCH   1  19
TORSDOF 4
