REMARK  5 active torsions:
REMARK  status: ('A' for Active; 'I' for Inactive)
REMARK    1  A    between atoms: S_11  and  C_7 
REMARK    2  A    between atoms: N_12  and  C_8 
REMARK    3  A    between atoms: C_13  and  C_9 
REMARK    4  A    between atoms: S_10  and  C_13 
REMARK    5  A    between atoms: C_14  and  S_10 
ROOT
ATOM      1  N   UNL d   1      -0.111   1.263   0.150  0.00  0.00    -0.313 N 
ATOM      2  HN  UNL d   1      -0.574   2.169   0.215  1.00  0.00     0.170 HD
ATOM      3  N   UNL d   1       0.900  -0.579   1.194  0.00  0.00    -0.322 N 
ATOM      4  HN  UNL d   1       1.197  -1.053   2.047  1.00  0.00     0.169 HD
ATOM      5  N   UNL d   1       0.691  -0.533  -1.159  0.00  0.00    -0.326 N 
ATOM      6  HN  UNL d   1       0.842  -0.963  -2.072  1.00  0.00     0.169 HD
ATOM      7  C   UNL d   1       0.101   0.651  -1.012  0.00  0.00     0.147 A 
ATOM      8  C   UNL d   1       0.320   0.612   1.213  0.00  0.00     0.158 A 
ATOM      9  C   UNL d   1       1.069  -1.116  -0.017  0.00  0.00     0.095 A 
ENDROOT
BRANCH   9  10
ATOM     10  C   UNL d   1       1.737  -2.471  -0.097  0.00  0.00     0.156 C 
BRANCH  10  11
ATOM     11  S   UNL d   1       0.514  -3.832  -0.081  0.00  0.00    -0.122 SA
BRANCH  11  12
ATOM     12  C   UNL d   1       1.544  -5.294  -0.040  0.00  0.00     0.001 A 
ATOM     13  C   UNL d   1       1.025  -6.428   0.600  0.00  0.00     0.019 A 
ATOM     14  C   UNL d   1       1.737  -7.633   0.618  0.00  0.00     0.008 A 
ATOM     15  C   UNL d   1       2.981  -7.730  -0.010  0.00  0.00    -0.062 A 
ATOM     16  C   UNL d   1       3.505  -6.600  -0.645  0.00  0.00     0.008 A 
ATOM     17  C   UNL d   1       3.718  -9.037  -0.016  0.00  0.00     0.048 C 
ATOM     18  C   UNL d   1       2.790  -5.394  -0.663  0.00  0.00     0.019 A 
ENDBRANCH  11  12
ENDBRANCH  10  11
ENDBRANCH   9  10
BRANCH   8  19
ATOM     19  N   UNL d   1       0.124   1.207   2.442  0.00  0.00    -0.274 NA
ATOM     20  H   UNL d   1       0.081   0.509   3.171  0.00  0.00     0.127 HD
ATOM     21  H   UNL d   1      -0.635   1.871   2.391  0.00  0.00     0.127 HD
ENDBRANCH   8  19
BRANCH   7  22
ATOM     22  S   UNL d   1      -0.466   1.534  -2.451  0.00  0.00    -0.098 SA
ATOM     23  C   UNL d   1       0.112   0.445  -3.773  0.00  0.00     0.099 C 
ENDBRANCH   7  22
TORSDOF 5
