REMARK  7 active torsions:
REMARK  status: ('A' for Active; 'I' for Inactive)
REMARK    1  A    between atoms: N_2  and  C_1 
REMARK    2  A    between atoms: N_3  and  C_1 
REMARK    3  A    between atoms: C_7  and  N_2 
REMARK    4  A    between atoms: C_19  and  N_2 
REMARK    5  A    between atoms: C_11  and  N_3 
REMARK    6  A    between atoms: C_10  and  C_7 
REMARK    7  A    between atoms: C_12  and  C_19 
ROOT
ATOM      1  N   UNL d   1       0.797   2.323  -3.951  0.00  0.00    -0.197 NA
ATOM      2  C   UNL d   1       0.452   1.220  -3.858  0.00  0.00     0.060 C 
ATOM      3  C   UNL d   1      -0.009  -0.171  -3.742  0.00  0.00     0.143 C 
ENDROOT
BRANCH   3   4
ATOM      4  C   UNL d   1       0.406  -0.802  -2.409  0.00  0.00     0.139 C 
BRANCH   4   5
ATOM      5  N   UNL d   1      -0.043  -0.114  -1.176  0.00  0.00    -0.353 N 
BRANCH   5   6
ATOM      6  C   UNL d   1       0.749  -0.141  -0.019  0.00  0.00     0.174 C 
ATOM      7  S   UNL d   1       1.996  -1.224   0.288  0.00  0.00    -0.041 SA
BRANCH   6   8
ATOM      8  N   UNL d   1       0.418   0.711   1.001  0.00  0.00    -0.333 N 
ATOM      9  H   UNL d   1       0.719   0.395   1.918  0.00  0.00     0.168 HD
BRANCH   8  10
ATOM     10  C   UNL d   1       0.239   2.111   0.919  0.00  0.00     0.034 A 
ATOM     11  C   UNL d   1      -0.316   2.755   2.031  0.00  0.00     0.032 A 
ATOM     12  C   UNL d   1      -0.519   4.136   2.013  0.00  0.00     0.044 A 
ATOM     13  C   UNL d   1      -0.133   4.871   0.898  0.00  0.00     0.116 A 
ATOM     14  C   UNL d   1       0.443   4.248  -0.203  0.00  0.00     0.044 A 
ATOM     15  F   UNL d   1      -0.313   6.198   0.890  0.00  0.00    -0.206 F 
ATOM     16  C   UNL d   1       0.622   2.863  -0.197  0.00  0.00     0.032 A 
ENDBRANCH   8  10
ENDBRANCH   6   8
ENDBRANCH   5   6
BRANCH   5  17
ATOM     17  C   UNL d   1      -1.471   0.265  -1.086  0.00  0.00     0.165 C 
BRANCH  17  18
ATOM     18  C   UNL d   1      -2.458  -0.818  -0.717  0.00  0.00    -0.025 A 
ATOM     19  C   UNL d   1      -3.818  -0.523  -0.838  0.00  0.00     0.096 A 
ATOM     20  N   UNL d   1      -4.826  -1.345  -0.468  0.00  0.00    -0.375 N 
ATOM     21  C   UNL d   1      -4.472  -2.527   0.070  0.00  0.00     0.087 A 
ATOM     22  HN  UNL d   1      -5.804  -1.082  -0.591  1.00  0.00     0.164 HD
ATOM     23  C   UNL d   1      -3.156  -2.926   0.239  0.00  0.00     0.018 A 
ATOM     24  C   UNL d   1      -2.138  -2.057  -0.159  0.00  0.00     0.011 A 
ENDBRANCH  17  18
ENDBRANCH   5  17
ENDBRANCH   4   5
ENDBRANCH   3   4
TORSDOF 7
