REMARK  6 active torsions:
REMARK  status: ('A' for Active; 'I' for Inactive)
REMARK    1  A    between atoms: S_4  and  C_1 
REMARK    2  A    between atoms: C_18  and  N_2 
REMARK    3  A    between atoms: C_3  and  S_4 
REMARK    4  A    between atoms: C_22  and  C_18 
REMARK    5  A    between atoms: C_24  and  C_22 
REMARK    6  A    between atoms: C_23  and  C_24 
ROOT
ATOM      1  C   UNL d   1       2.432  -1.758   2.138  0.00  0.00     0.099 A 
ATOM      2  C   UNL d   1       3.381  -2.554   2.786  0.00  0.00     0.085 A 
ATOM      3  N   UNL d   1       1.646  -0.882   2.804  0.00  0.00    -0.349 N 
ATOM      4  HN  UNL d   1       0.977  -0.305   2.295  1.00  0.00     0.166 HD
ATOM      5  C   UNL d   1       3.493  -2.461   4.191  0.00  0.00    -0.026 A 
ATOM      6  C   UNL d   1       2.661  -1.541   4.891  0.00  0.00    -0.002 A 
ATOM      7  C   UNL d   1       4.244  -3.415   2.027  0.00  0.00     0.103 C 
ATOM      8  C   UNL d   1       1.751  -0.776   4.132  0.00  0.00     0.043 A 
ATOM      9  N   UNL d   1       4.970  -4.098   1.436  0.00  0.00    -0.191 NA
ATOM     10  C   UNL d   1       4.470  -3.320   4.964  0.00  0.00     0.050 C 
ATOM     11  C   UNL d   1       2.698  -1.337   6.292  0.00  0.00     0.014 A 
ATOM     12  C   UNL d   1       0.927   0.139   4.769  0.00  0.00     0.030 A 
ATOM     13  C   UNL d   1       1.871  -0.400   6.912  0.00  0.00     0.001 A 
ATOM     14  C   UNL d   1       0.981   0.340   6.147  0.00  0.00     0.002 A 
ENDROOT
BRANCH   1  15
ATOM     15  S   UNL d   1       2.199  -1.802   0.367  0.00  0.00    -0.033 SA
BRANCH  15  16
ATOM     16  C   UNL d   1       0.835  -0.764   0.159  0.00  0.00     0.171 A 
ATOM     17  N   UNL d   1       0.961   0.571  -0.054  0.00  0.00    -0.277 N 
ATOM     18  C   UNL d   1      -0.330   1.033  -0.115  0.00  0.00     0.343 A 
ATOM     19  O   UNL d   1      -0.718   2.187  -0.191  0.00  0.00    -0.245 OA
ATOM     20  N   UNL d   1      -1.142  -0.090  -0.033  0.00  0.00    -0.249 N 
ATOM     21  N   UNL d   1      -0.389  -1.212   0.155  0.00  0.00    -0.275 N 
ATOM     22  H   UNL d   1      -2.152  -0.090   0.009  0.00  0.00     0.192 HD
ATOM     23  HN  UNL d   1      -0.708  -2.174   0.267  1.00  0.00     0.189 HD
BRANCH  17  24
ATOM     24  C   UNL d   1       2.108   1.462   0.027  0.00  0.00     0.136 C 
BRANCH  24  25
ATOM     25  C   UNL d   1       3.226   1.203  -0.984  0.00  0.00     0.020 C 
BRANCH  25  26
ATOM     26  C   UNL d   1       2.780   1.241  -2.448  0.00  0.00     0.001 C 
BRANCH  26  27
ATOM     27  C   UNL d   1       3.972   0.934  -3.360  0.00  0.00    -0.004 C 
ATOM     28  C   UNL d   1       3.599   0.957  -4.832  0.00  0.00     0.005 C 
ENDBRANCH  26  27
ENDBRANCH  25  26
ENDBRANCH  24  25
ENDBRANCH  17  24
ENDBRANCH  15  16
ENDBRANCH   1  15
TORSDOF 6
