REMARK  2 active torsions:
REMARK  status: ('A' for Active; 'I' for Inactive)
REMARK    1  A    between atoms: C_5  and  C_1 
REMARK    2  A    between atoms: O_10  and  C_5 
ROOT
ATOM      1  C   UNL d   1      -1.810  -1.301  -0.098  0.00  0.00     0.114 A 
ATOM      2  C   UNL d   1      -2.089   0.144  -0.086  0.00  0.00     0.305 A 
ATOM      3  C   UNL d   1      -0.546  -1.753  -0.056  0.00  0.00     0.039 A 
ATOM      4  O   UNL d   1      -1.014   1.021  -0.077  0.00  0.00    -0.274 OA
ATOM      5  C   UNL d   1       0.570  -0.823  -0.010  0.00  0.00    -0.001 A 
ATOM      6  C   UNL d   1       0.307   0.543  -0.037  0.00  0.00     0.089 A 
ATOM      7  O   UNL d   1      -3.251   0.551  -0.090  0.00  0.00    -0.259 OA
ATOM      8  C   UNL d   1       1.896  -1.254   0.047  0.00  0.00     0.014 A 
ATOM      9  C   UNL d   1       1.331   1.487  -0.022  0.00  0.00     0.038 A 
ATOM     10  C   UNL d   1       2.935  -0.318   0.068  0.00  0.00     0.001 A 
ATOM     11  C   UNL d   1       2.653   1.049   0.029  0.00  0.00     0.003 A 
ENDROOT
BRANCH   1  12
ATOM     12  C   UNL d   1      -2.893  -2.312  -0.162  0.00  0.00     0.182 C 
ATOM     13  O   UNL d   1      -2.679  -3.517  -0.185  0.00  0.00    -0.646 OA
BRANCH  12  14
ATOM     14  O   UNL d   1      -4.148  -1.818  -0.199  0.00  0.00    -0.772 OA
ATOM     15  H   UNL d   1      -4.218  -0.833  -0.168  0.00  0.00     0.167 HD
ENDBRANCH  12  14
ENDBRANCH   1  12
TORSDOF 2
