REMARK  3 active torsions:
REMARK  status: ('A' for Active; 'I' for Inactive)
REMARK    1  A    between atoms: N_2  and  S_1 
REMARK    2  A    between atoms: C_6  and  S_1 
REMARK    3  A    between atoms: C_3  and  N_2 
ROOT
ATOM      1  N   UNL d   1       0.690  -0.580  -1.252  0.00  0.00    -0.310 N 
ATOM      2  H   UNL d   1       1.215  -1.430  -1.052  0.00  0.00     0.172 HD
ENDROOT
BRANCH   1   3
ATOM      3  S   UNL d   1      -0.799  -0.553  -0.477  0.00  0.00     0.259 S 
ATOM      4  O   UNL d   1      -1.307   0.799  -0.471  0.00  0.00    -0.201 OA
ATOM      5  O   UNL d   1      -0.625  -1.303   0.746  0.00  0.00    -0.201 OA
BRANCH   3   6
ATOM      6  C   UNL d   1      -1.827  -1.520  -1.556  0.00  0.00     0.079 A 
ATOM      7  C   UNL d   1      -1.935  -2.900  -1.348  0.00  0.00     0.025 A 
ATOM      8  C   UNL d   1      -2.775  -3.655  -2.164  0.00  0.00     0.002 A 
ATOM      9  C   UNL d   1      -3.509  -3.032  -3.175  0.00  0.00     0.000 A 
ATOM     10  C   UNL d   1      -3.415  -1.652  -3.366  0.00  0.00     0.002 A 
ATOM     11  C   UNL d   1      -2.580  -0.889  -2.550  0.00  0.00     0.025 A 
ENDBRANCH   3   6
ENDBRANCH   1   3
BRANCH   1  12
ATOM     12  C   UNL d   1       0.911   0.075  -2.555  0.00  0.00     0.101 C 
ATOM     13  C   UNL d   1       2.398  -0.083  -2.970  0.00  0.00     0.065 C 
ATOM     14  C   UNL d   1       2.676   1.192  -3.701  0.00  0.00    -0.050 A 
ATOM     15  C   UNL d   1       3.782   1.507  -4.475  0.00  0.00     0.007 A 
ATOM     16  C   UNL d   1       1.677   2.136  -3.458  0.00  0.00    -0.050 A 
ATOM     17  C   UNL d   1       3.867   2.790  -5.020  0.00  0.00     0.001 A 
ATOM     18  C   UNL d   1       2.860   3.736  -4.781  0.00  0.00     0.001 A 
ATOM     19  C   UNL d   1       1.756   3.413  -3.990  0.00  0.00     0.007 A 
ATOM     20  C   UNL d   1       0.636   1.596  -2.528  0.00  0.00     0.065 C 
ENDBRANCH   1  12
TORSDOF 3
