REMARK  5 active torsions:
REMARK  status: ('A' for Active; 'I' for Inactive)
REMARK    1  A    between atoms: S_8  and  C_1 
REMARK    2  A    between atoms: C_2  and  C_13 
REMARK       I    between atoms: N_7  and  C_2 
REMARK    3  A    between atoms: C_14  and  N_7 
REMARK    4  A    between atoms: C_13  and  S_8 
REMARK    5  A    between atoms: C_15  and  C_9 
ROOT
ATOM      1  C   UNL d   1      -0.375   7.080   0.868  0.00  0.00     0.231 C 
ATOM      2  N   UNL d   1      -0.040   6.013   0.051  0.00  0.00    -0.327 N 
ATOM      3  O   UNL d   1       0.415   7.752   1.531  0.00  0.00    -0.272 OA
ATOM      4  H   UNL d   1      -0.801   5.595  -0.475  0.00  0.00     0.169 HD
ENDROOT
BRANCH   1   5
ATOM      5  C   UNL d   1      -1.849   7.466   0.830  0.00  0.00     0.185 C 
BRANCH   5   6
ATOM      6  S   UNL d   1      -2.971   6.035   0.863  0.00  0.00    -0.085 SA
BRANCH   6   7
ATOM      7  C   UNL d   1      -2.303   5.243   2.302  0.00  0.00     0.144 A 
ATOM      8  N   UNL d   1      -2.269   5.944   3.446  0.00  0.00    -0.347 N 
ATOM      9  C   UNL d   1      -1.632   5.359   4.477  0.00  0.00     0.091 A 
ATOM     10  HN  UNL d   1      -2.699   6.865   3.529  1.00  0.00     0.167 HD
ATOM     11  C   UNL d   1      -1.036   4.122   4.398  0.00  0.00     0.034 A 
ATOM     12  C   UNL d   1      -1.140   3.491   3.182  0.00  0.00     0.091 A 
ATOM     13  N   UNL d   1      -1.771   4.024   2.119  0.00  0.00    -0.347 N 
ATOM     14  HN  UNL d   1      -1.840   3.532   1.229  1.00  0.00     0.167 HD
ENDBRANCH   6   7
ENDBRANCH   5   6
ENDBRANCH   1   5
BRANCH   2  15
ATOM     15  C   UNL d   1       1.200   5.341  -0.015  0.00  0.00     0.034 A 
ATOM     16  C   UNL d   1       2.291   5.649   0.796  0.00  0.00     0.030 A 
ATOM     17  C   UNL d   1       3.466   4.893   0.725  0.00  0.00     0.010 A 
ATOM     18  C   UNL d   1       3.583   3.818  -0.164  0.00  0.00    -0.055 A 
ATOM     19  C   UNL d   1       2.493   3.526  -0.995  0.00  0.00     0.010 A 
ATOM     20  C   UNL d   1       1.313   4.277  -0.918  0.00  0.00     0.030 A 
BRANCH  18  21
ATOM     21  C   UNL d   1       4.832   2.957  -0.207  0.00  0.00     0.010 C 
ATOM     22  C   UNL d   1       6.089   3.774  -0.517  0.00  0.00     0.015 C 
ATOM     23  C   UNL d   1       5.000   2.180   1.103  0.00  0.00     0.015 C 
ENDBRANCH  18  21
ENDBRANCH   2  15
TORSDOF 5
