REMARK  5 active torsions:
REMARK  status: ('A' for Active; 'I' for Inactive)
REMARK    1  A    between atoms: C_6  and  N_1 
REMARK    2  A    between atoms: C_8  and  C_6 
REMARK    3  A    between atoms: N_7  and  C_9 
REMARK    4  A    between atoms: C_9  and  C_8 
REMARK    5  A    between atoms: O_10  and  C_8 
ROOT
ATOM      1  N   UNL d   1       0.007  -1.438   0.325  0.00  0.00    -0.343 N 
ATOM      2  C   UNL d   1       0.942  -0.569  -0.219  0.00  0.00     0.046 A 
ATOM      3  C   UNL d   1      -1.041  -0.708   0.896  0.00  0.00     0.046 A 
ATOM      4  C   UNL d   1       0.454   0.734  -0.020  0.00  0.00     0.003 A 
ATOM      5  C   UNL d   1      -0.784   0.642   0.679  0.00  0.00     0.003 A 
ATOM      6  C   UNL d   1       2.162  -0.763  -0.896  0.00  0.00     0.030 A 
ATOM      7  C   UNL d   1      -2.221  -1.131   1.544  0.00  0.00     0.030 A 
ATOM      8  C   UNL d   1      -1.724   1.601   1.119  0.00  0.00     0.014 A 
ATOM      9  C   UNL d   1       1.178   1.838  -0.522  0.00  0.00     0.014 A 
ATOM     10  C   UNL d   1      -2.895   1.186   1.760  0.00  0.00     0.001 A 
ATOM     11  C   UNL d   1       2.861   0.350  -1.384  0.00  0.00     0.002 A 
ATOM     12  C   UNL d   1      -3.137  -0.165   1.969  0.00  0.00     0.002 A 
ATOM     13  C   UNL d   1       2.374   1.638  -1.205  0.00  0.00     0.001 A 
ENDROOT
BRANCH   1  14
ATOM     14  C   UNL d   1      -0.121  -2.879   0.171  0.00  0.00     0.163 C 
BRANCH  14  15
ATOM     15  C   UNL d   1       1.059  -3.813  -0.098  0.00  0.00     0.164 C 
BRANCH  15  16
ATOM     16  C   UNL d   1       1.982  -4.043   1.119  0.00  0.00     0.305 C 
BRANCH  16  17
ATOM     17  N   UNL d   1       2.837  -5.223   0.857  0.00  0.00     0.090 N 
ATOM     18  C   UNL d   1       3.979  -4.928  -0.012  0.00  0.00     0.272 C 
ATOM     19  C   UNL d   1       4.888  -6.134   0.177  0.00  0.00     0.032 C 
ATOM     20  C   UNL d   1       4.485  -6.735   1.520  0.00  0.00     0.032 C 
ATOM     21  C   UNL d   1       3.420  -5.796   2.070  0.00  0.00     0.272 C 
ENDBRANCH  16  17
ENDBRANCH  15  16
BRANCH  15  22
ATOM     22  O   UNL d   1       0.497  -5.102  -0.449  0.00  0.00    -0.392 OA
ATOM     23  H   UNL d   1       1.210  -5.741  -0.228  0.00  0.00     0.210 HD
ENDBRANCH  15  22
ENDBRANCH  14  15
ENDBRANCH   1  14
TORSDOF 5
