REMARK  5 active torsions:
REMARK  status: ('A' for Active; 'I' for Inactive)
REMARK    1  A    between atoms: C_5  and  C_1 
REMARK    2  A    between atoms: C_6  and  N_8 
REMARK    3  A    between atoms: N_11  and  C_6 
REMARK    4  A    between atoms: N_8  and  C_7 
REMARK    5  A    between atoms: C_13  and  N_11 
ROOT
ATOM      1  C   UNL d   1      -3.670   0.089   1.129  0.00  0.00     0.029 A 
ATOM      2  C   UNL d   1      -4.435  -0.690   2.039  0.00  0.00     0.028 A 
ATOM      3  C   UNL d   1      -4.349   0.861   0.175  0.00  0.00     0.017 A 
ATOM      4  C   UNL d   1      -5.830  -0.577   2.064  0.00  0.00     0.025 A 
ATOM      5  C   UNL d   1      -5.746   0.908   0.158  0.00  0.00     0.001 A 
ATOM      6  C   UNL d   1      -6.481   0.215   1.118  0.00  0.00     0.002 A 
ENDROOT
BRANCH   2   7
ATOM      7  N   UNL d   1      -3.759  -1.684   2.819  0.00  0.00    -0.235 NA
ATOM      8  H   UNL d   1      -3.095  -2.147   2.195  0.00  0.00     0.136 HD
BRANCH   7   9
ATOM      9  C   UNL d   1      -4.364  -2.638   3.555  0.00  0.00     0.155 C 
ATOM     10  S   UNL d   1      -4.344  -4.215   2.987  0.00  0.00    -0.047 SA
BRANCH   9  11
ATOM     11  N   UNL d   1      -4.803  -2.436   4.813  0.00  0.00    -0.338 N 
ATOM     12  H   UNL d   1      -5.111  -3.322   5.216  0.00  0.00     0.168 HD
BRANCH  11  13
ATOM     13  C   UNL d   1      -4.687  -1.391   5.751  0.00  0.00     0.033 A 
ATOM     14  C   UNL d   1      -4.384  -0.061   5.472  0.00  0.00     0.029 A 
ATOM     15  C   UNL d   1      -4.292   0.875   6.515  0.00  0.00     0.002 A 
ATOM     16  C   UNL d   1      -4.471   0.484   7.839  0.00  0.00     0.000 A 
ATOM     17  C   UNL d   1      -4.764  -0.845   8.130  0.00  0.00     0.002 A 
ATOM     18  C   UNL d   1      -4.886  -1.766   7.091  0.00  0.00     0.029 A 
ENDBRANCH  11  13
ENDBRANCH   9  11
ENDBRANCH   7   9
ENDBRANCH   2   7
BRANCH   1  19
ATOM     19  C   UNL d   1      -2.194   0.091   1.139  0.00  0.00     0.118 C 
ATOM     20  N   UNL d   1      -1.373   0.467   0.172  0.00  0.00    -0.340 N 
ATOM     21  C   UNL d   1      -0.118   0.042   0.561  0.00  0.00     0.060 A 
ATOM     22  HN  UNL d   1      -1.616   0.966  -0.683  1.00  0.00     0.167 HD
ATOM     23  C   UNL d   1       1.108   0.079  -0.117  0.00  0.00     0.032 A 
ATOM     24  C   UNL d   1      -0.168  -0.549   1.815  0.00  0.00     0.060 A 
ATOM     25  C   UNL d   1       2.217  -0.555   0.467  0.00  0.00     0.002 A 
ATOM     26  C   UNL d   1       2.111  -1.197   1.705  0.00  0.00     0.002 A 
ATOM     27  C   UNL d   1       0.913  -1.190   2.422  0.00  0.00     0.032 A 
ATOM     28  N   UNL d   1      -1.454  -0.340   2.221  0.00  0.00    -0.340 N 
ATOM     29  H   UNL d   1      -1.851  -0.630   3.103  0.00  0.00     0.167 HD
ENDBRANCH   1  19
TORSDOF 5
