REMARK  5 active torsions:
REMARK  status: ('A' for Active; 'I' for Inactive)
REMARK    1  A    between atoms: N_4  and  S_1 
REMARK    2  A    between atoms: C_9  and  S_1 
REMARK    3  A    between atoms: C_2  and  O_6 
REMARK    4  A    between atoms: C_20  and  N_4 
REMARK    5  A    between atoms: O_6  and  C_12 
ROOT
ATOM      1  N   UNL d   1       2.579  -0.991   4.002  0.00  0.00    -0.344 N 
ATOM      2  HN  UNL d   1       3.534  -1.327   4.129  1.00  0.00     0.167 HD
ATOM      3  C   UNL d   1       1.655  -1.085   4.986  0.00  0.00     0.149 A 
ATOM      4  C   UNL d   1       0.874   0.024   2.612  0.00  0.00     0.058 A 
ATOM      5  C   UNL d   1       2.170  -0.427   2.840  0.00  0.00     0.120 A 
ATOM      6  C   UNL d   1       0.321  -0.742   4.821  0.00  0.00     0.059 A 
ATOM      7  C   UNL d   1      -0.072  -0.166   3.615  0.00  0.00     0.036 A 
ENDROOT
BRANCH   3   8
ATOM      8  O   UNL d   1       1.999  -1.648   6.202  0.00  0.00    -0.276 OA
BRANCH   8   9
ATOM      9  C   UNL d   1       3.232  -1.284   6.736  0.00  0.00     0.163 A 
ATOM     10  C   UNL d   1       3.860  -2.214   7.568  0.00  0.00     0.042 A 
ATOM     11  C   UNL d   1       5.076  -1.784   8.112  0.00  0.00     0.049 A 
ATOM     12  C   UNL d   1       3.353  -3.499   7.881  0.00  0.00     0.020 A 
ATOM     13  C   UNL d   1       5.769  -2.648   8.950  0.00  0.00     0.054 A 
ATOM     14  N   UNL d   1       5.588  -0.574   7.860  0.00  0.00    -0.351 N 
ATOM     15  C   UNL d   1       5.270  -3.913   9.260  0.00  0.00     0.036 A 
ATOM     16  C   UNL d   1       4.060  -4.345   8.732  0.00  0.00     0.025 A 
ATOM     17 CL   UNL d   1       6.157  -4.948  10.310  0.00  0.00    -0.084 Cl
ATOM     18  C   UNL d   1       4.870   0.242   7.074  0.00  0.00     0.182 A 
ATOM     19  HN  UNL d   1       6.485  -0.284   8.250  1.00  0.00     0.166 HD
ATOM     20  N   UNL d   1       3.688  -0.034   6.521  0.00  0.00    -0.332 N 
ATOM     21  HN  UNL d   1       3.168   0.651   5.974  1.00  0.00     0.168 HD
ENDBRANCH   8   9
ENDBRANCH   3   8
BRANCH   4  22
ATOM     22  N   UNL d   1       0.503   0.620   1.373  0.00  0.00    -0.279 N 
ATOM     23  H   UNL d   1      -0.088   1.449   1.405  0.00  0.00     0.179 HD
BRANCH  22  24
ATOM     24  S   UNL d   1       0.149  -0.382   0.059  0.00  0.00     0.263 S 
ATOM     25  O   UNL d   1       1.266  -1.277  -0.156  0.00  0.00    -0.200 OA
ATOM     26  O   UNL d   1      -0.362   0.470  -0.988  0.00  0.00    -0.200 OA
BRANCH  24  27
ATOM     27  C   UNL d   1      -1.225  -1.337   0.670  0.00  0.00     0.080 A 
ATOM     28  C   UNL d   1      -2.425  -0.677   0.962  0.00  0.00     0.027 A 
ATOM     29  C   UNL d   1      -3.468  -1.385   1.558  0.00  0.00     0.025 A 
ATOM     30  C   UNL d   1      -3.315  -2.746   1.829  0.00  0.00     0.034 A 
ATOM     31  C   UNL d   1      -2.136  -3.412   1.486  0.00  0.00     0.025 A 
ATOM     32 CL   UNL d   1      -4.583  -3.604   2.612  0.00  0.00    -0.084 Cl
ATOM     33  C   UNL d   1      -1.082  -2.706   0.902  0.00  0.00     0.027 A 
ENDBRANCH  24  27
ENDBRANCH  22  24
ENDBRANCH   4  22
TORSDOF 5
