REMARK  3 active torsions:
REMARK  status: ('A' for Active; 'I' for Inactive)
REMARK    1  A    between atoms: O_5  and  C_1 
REMARK    2  A    between atoms: C_6  and  O_5 
REMARK       I    between atoms: N_9  and  C_6 
REMARK    3  A    between atoms: C_12  and  N_9 
ROOT
ATOM      1  C   UNL d   1       0.937  -2.938   0.022  0.00  0.00     0.186 A 
ATOM      2  C   UNL d   1       0.686  -4.218  -0.545  0.00  0.00     0.053 A 
ATOM      3  N   UNL d   1      -0.141  -2.438   0.639  0.00  0.00    -0.237 N 
ATOM      4  HN  UNL d   1      -0.225  -1.529   1.093  1.00  0.00     0.197 HD
ATOM      5  O   UNL d   1      -1.116  -3.415   0.530  0.00  0.00    -0.235 OA
ATOM      6  C   UNL d   1      -0.627  -4.470  -0.172  0.00  0.00     0.113 A 
ATOM      7  C   UNL d   1       1.343  -5.198  -1.318  0.00  0.00     0.025 A 
ATOM      8  C   UNL d   1      -1.332  -5.631  -0.484  0.00  0.00     0.041 A 
ATOM      9  C   UNL d   1       0.680  -6.401  -1.633  0.00  0.00    -0.061 A 
ATOM     10  C   UNL d   1      -0.644  -6.601  -1.220  0.00  0.00     0.009 A 
ATOM     11  C   UNL d   1       1.391  -7.478  -2.402  0.00  0.00     0.048 C 
ENDROOT
BRANCH   1  12
ATOM     12  O   UNL d   1       1.995  -2.102   0.007  0.00  0.00    -0.241 OA
BRANCH  12  13
ATOM     13  C   UNL d   1       3.249  -2.585  -0.122  0.00  0.00     0.367 C 
ATOM     14  N   UNL d   1       4.223  -1.623  -0.199  0.00  0.00    -0.328 N 
ATOM     15  H   UNL d   1       5.132  -2.068  -0.224  0.00  0.00     0.165 HD
ATOM     16  O   UNL d   1       3.593  -3.760  -0.162  0.00  0.00    -0.238 OA
BRANCH  14  17
ATOM     17  C   UNL d   1       4.197  -0.233   0.287  0.00  0.00     0.024 C 
ATOM     18  C   UNL d   1       4.034  -0.223   1.814  0.00  0.00     0.037 C 
ATOM     19  C   UNL d   1       5.557   0.399  -0.070  0.00  0.00     0.037 C 
ATOM     20  C   UNL d   1       3.098   0.618  -0.367  0.00  0.00     0.037 C 
ENDBRANCH  14  17
ENDBRANCH  12  13
ENDBRANCH   1  12
TORSDOF 3
