REMARK  3 active torsions:
REMARK  status: ('A' for Active; 'I' for Inactive)
REMARK    1  A    between atoms: C_11  and  N_6 
REMARK    2  A    between atoms: C_10  and  N_8 
REMARK    3  A    between atoms: C_14  and  C_10 
ROOT
ATOM      1  C   UNL d   1       0.225  -0.986   0.075  0.00  0.00     0.083 A 
ATOM      2  S   UNL d   1      -0.154   0.738   0.007  0.00  0.00    -0.054 SA
ATOM      3  C   UNL d   1       1.515   1.191  -0.069  0.00  0.00     0.079 A 
ATOM      4  C   UNL d   1       1.705  -1.171  -0.048  0.00  0.00    -0.015 A 
ATOM      5  C   UNL d   1       2.367  -0.004  -0.105  0.00  0.00    -0.015 A 
ATOM      6  N   UNL d   1      -0.803  -1.737   0.211  0.00  0.00    -0.350 N 
ATOM      7  HN  UNL d   1      -1.705  -1.268   0.299  1.00  0.00     0.166 HD
ATOM      8  N   UNL d   1       1.993   2.394  -0.090  0.00  0.00    -0.380 N 
ATOM      9  HN  UNL d   1       3.000   2.552  -0.133  1.00  0.00     0.160 HD
ATOM     10  C   UNL d   1       2.422  -2.470  -0.064  0.00  0.00     0.042 C 
ATOM     11  C   UNL d   1       3.848   0.153  -0.168  0.00  0.00     0.042 C 
ATOM     12  C   UNL d   1       3.931  -2.441  -0.325  0.00  0.00     0.005 C 
ATOM     13  C   UNL d   1       4.656  -1.136  -0.018  0.00  0.00     0.005 C 
ENDROOT
BRANCH   8  14
ATOM     14  C   UNL d   1       1.063   3.524  -0.052  0.00  0.00     0.159 C 
BRANCH  14  15
ATOM     15  C   UNL d   1       1.758   4.869  -0.070  0.00  0.00    -0.041 A 
ATOM     16  C   UNL d   1       1.121   5.971  -0.658  0.00  0.00     0.009 A 
ATOM     17  C   UNL d   1       1.712   7.237  -0.634  0.00  0.00     0.001 A 
ATOM     18  C   UNL d   1       2.943   7.415  -0.010  0.00  0.00     0.000 A 
ATOM     19  C   UNL d   1       3.585   6.334   0.593  0.00  0.00     0.001 A 
ATOM     20  C   UNL d   1       2.992   5.066   0.569  0.00  0.00     0.009 A 
ENDBRANCH  14  15
ENDBRANCH   8  14
BRANCH   6  21
ATOM     21  C   UNL d   1      -0.813  -3.127   0.251  0.00  0.00     0.032 C 
ATOM     22  C   UNL d   1      -0.007  -3.873   1.105  0.00  0.00     0.029 C 
ATOM     23  C   UNL d   1       0.085  -5.261   0.981  0.00  0.00     0.002 C 
ATOM     24  C   UNL d   1      -0.778  -5.935   0.128  0.00  0.00     0.000 C 
ATOM     25  C   UNL d   1      -1.741  -5.220  -0.582  0.00  0.00     0.002 C 
ATOM     26  C   UNL d   1      -1.742  -3.822  -0.534  0.00  0.00     0.029 C 
ENDBRANCH   6  21
TORSDOF 3
