REMARK  8 active torsions:
REMARK  status: ('A' for Active; 'I' for Inactive)
REMARK    1  A    between atoms: C_5  and  S_1 
REMARK    2  A    between atoms: N_6  and  S_1 
REMARK    3  A    between atoms: N_3  and  C_2 
REMARK    4  A    between atoms: C_16  and  N_6 
REMARK    5  A    between atoms: N_17  and  C_7 
REMARK    6  A    between atoms: C_8  and  C_16 
REMARK    7  A    between atoms: N_12  and  N_17 
REMARK    8  A    between atoms: C_26  and  C_25 
ROOT
ATOM      1  C   UNL d   1       0.374   3.614  -1.783  0.00  0.00     0.132 A 
ATOM      2  C   UNL d   1       0.712   2.587  -0.876  0.00  0.00     0.063 A 
ATOM      3  C   UNL d   1       0.343   1.268  -1.167  0.00  0.00     0.082 A 
ATOM      4  C   UNL d   1      -0.322   3.357  -2.978  0.00  0.00     0.081 A 
ATOM      5  C   UNL d   1      -0.334   0.983  -2.353  0.00  0.00     0.028 A 
ATOM      6  C   UNL d   1      -0.653   2.017  -3.241  0.00  0.00     0.035 A 
ENDROOT
BRANCH   4   7
ATOM      7  N   UNL d   1      -0.585   4.332  -3.964  0.00  0.00    -0.299 N 
ATOM      8  H   UNL d   1      -0.612   5.312  -3.671  0.00  0.00     0.187 HD
BRANCH   7   9
ATOM      9  N   UNL d   1      -0.431   3.961  -5.262  0.00  0.00    -0.311 N 
ATOM     10  C   UNL d   1      -0.607   4.888  -6.148  0.00  0.00     0.119 C 
ATOM     11  HN  UNL d   1      -0.190   3.004  -5.523  1.00  0.00     0.186 HD
BRANCH  10  12
ATOM     12  C   UNL d   1      -0.426   4.615  -7.587  0.00  0.00    -0.004 A 
ATOM     13  C   UNL d   1      -0.680   5.617  -8.512  0.00  0.00     0.100 A 
ATOM     14  N   UNL d   1      -0.493   5.473  -9.849  0.00  0.00    -0.374 N 
ATOM     15  C   UNL d   1      -0.029   4.276 -10.271  0.00  0.00     0.087 A 
ATOM     16  HN  UNL d   1      -0.692   6.231 -10.502  1.00  0.00     0.164 HD
ATOM     17  C   UNL d   1       0.240   3.211  -9.425  0.00  0.00     0.018 A 
ATOM     18  C   UNL d   1       0.033   3.385  -8.057  0.00  0.00     0.015 A 
ENDBRANCH  10  12
ENDBRANCH   7   9
ENDBRANCH   4   7
BRANCH   1  19
ATOM     19  N   UNL d   1       0.807   4.964  -1.467  0.00  0.00    -0.113 N 
ATOM     20  O   UNL d   1       1.960   5.115  -1.043  0.00  0.00    -0.532 OA
ATOM     21  O   UNL d   1      -0.017   5.882  -1.637  0.00  0.00    -0.532 OA
ENDBRANCH   1  19
BRANCH   3  22
ATOM     22  S   UNL d   1       0.892  -0.057  -0.112  0.00  0.00     0.259 S 
ATOM     23  O   UNL d   1       1.580   0.559   1.006  0.00  0.00    -0.201 OA
ATOM     24  O   UNL d   1       1.529  -1.044  -0.953  0.00  0.00    -0.201 OA
BRANCH  22  25
ATOM     25  N   UNL d   1      -0.512  -0.721   0.522  0.00  0.00    -0.309 N 
ATOM     26  H   UNL d   1      -1.130  -0.063   1.000  0.00  0.00     0.172 HD
BRANCH  25  27
ATOM     27  C   UNL d   1      -1.181  -1.770  -0.246  0.00  0.00     0.197 C 
BRANCH  27  28
ATOM     28  C   UNL d   1      -2.413  -2.176   0.478  0.00  0.00     0.070 A 
ATOM     29  O   UNL d   1      -3.379  -1.222   0.626  0.00  0.00    -0.325 OA
ATOM     30  C   UNL d   1      -4.421  -1.810   1.271  0.00  0.00     0.142 A 
ATOM     31  C   UNL d   1      -4.138  -3.130   1.541  0.00  0.00     0.027 A 
ATOM     32  C   UNL d   1      -2.838  -3.367   1.034  0.00  0.00     0.036 A 
ENDBRANCH  27  28
ENDBRANCH  25  27
ENDBRANCH  22  25
ENDBRANCH   3  22
TORSDOF 8
