REMARK  4 active torsions:
REMARK  status: ('A' for Active; 'I' for Inactive)
REMARK    1  A    between atoms: N_12  and  C_3 
REMARK    2  A    between atoms: C_13  and  C_10 
REMARK    3  A    between atoms: C_18  and  C_11 
REMARK       I    between atoms: C_14  and  N_15 
REMARK    4  A    between atoms: C_16  and  C_14 
ROOT
ATOM      1  N   UNL d   1       0.329   0.633   0.063  0.00  0.00    -0.224 N 
ATOM      2  C   UNL d   1       0.160  -0.756   0.041  0.00  0.00     0.131 A 
ATOM      3  C   UNL d   1      -0.803   1.498   0.072  0.00  0.00     0.129 A 
ATOM      4  N   UNL d   1       1.651   0.960   0.039  0.00  0.00    -0.294 N 
ATOM      5  HN  UNL d   1       2.053   1.897   0.052  1.00  0.00     0.187 HD
ATOM      6  C   UNL d   1      -2.023   0.928   0.059  0.00  0.00     0.084 A 
ATOM      7  N   UNL d   1      -1.065  -1.357   0.057  0.00  0.00    -0.337 N 
ATOM      8  HN  UNL d   1      -1.162  -2.372   0.057  1.00  0.00     0.167 HD
ATOM      9  C   UNL d   1       1.423  -1.296   0.007  0.00  0.00     0.077 A 
ATOM     10  C   UNL d   1      -2.109  -0.570   0.070  0.00  0.00     0.121 A 
ATOM     11  C   UNL d   1       2.313  -0.200  -0.006  0.00  0.00     0.037 A 
ENDROOT
BRANCH   3  12
ATOM     12  N   UNL d   1      -0.661   2.907   0.078  0.00  0.00    -0.363 N 
ATOM     13  C   UNL d   1       0.534   3.565   0.687  0.00  0.00     0.144 C 
ATOM     14  C   UNL d   1       0.208   5.025   1.071  0.00  0.00     0.146 C 
ATOM     15  N   UNL d   1      -0.311   5.783  -0.082  0.00  0.00    -0.344 N 
ATOM     16  C   UNL d   1       0.421   6.880  -0.551  0.00  0.00     0.260 C 
ATOM     17  C   UNL d   1      -1.448   5.121  -0.734  0.00  0.00     0.146 C 
ATOM     18  O   UNL d   1       1.438   7.229   0.048  0.00  0.00    -0.267 OA
ATOM     19  C   UNL d   1      -1.137   3.664  -1.105  0.00  0.00     0.144 C 
BRANCH  16  20
ATOM     20  C   UNL d   1      -0.019   7.569  -1.762  0.00  0.00     0.072 C 
ATOM     21  S   UNL d   1       1.193   8.175  -2.827  0.00  0.00    -0.097 SA
ATOM     22  C   UNL d   1       0.036   8.703  -3.966  0.00  0.00     0.050 C 
ATOM     23  C   UNL d   1      -1.250   8.477  -3.536  0.00  0.00     0.009 C 
ATOM     24  C   UNL d   1      -1.280   7.901  -2.232  0.00  0.00     0.025 C 
ENDBRANCH  16  20
ENDBRANCH   3  12
BRANCH  10  25
ATOM     25  C   UNL d   1      -3.515  -1.175   0.107  0.00  0.00     0.432 C 
ATOM     26  F   UNL d   1      -4.497  -0.229   0.130  0.00  0.00    -0.165 F 
ATOM     27  F   UNL d   1      -3.771  -1.955  -0.979  0.00  0.00    -0.165 F 
ATOM     28  F   UNL d   1      -3.715  -1.953   1.205  0.00  0.00    -0.165 F 
ENDBRANCH  10  25
BRANCH  11  29
ATOM     29  C   UNL d   1       3.833  -0.216  -0.013  0.00  0.00    -0.007 C 
ATOM     30  C   UNL d   1       4.348  -0.251   1.439  0.00  0.00     0.021 C 
ATOM     31  C   UNL d   1       4.372  -1.452  -0.761  0.00  0.00     0.021 C 
ATOM     32  C   UNL d   1       4.411   1.036  -0.709  0.00  0.00     0.021 C 
ENDBRANCH  11  29
TORSDOF 4
