REMARK  9 active torsions:
REMARK  status: ('A' for Active; 'I' for Inactive)
REMARK    1  A    between atoms: N_2  and  S_1 
REMARK    2  A    between atoms: C_4  and  S_1 
REMARK    3  A    between atoms: C_5  and  N_2 
REMARK    4  A    between atoms: C_13  and  N_2 
REMARK       I    between atoms: C_3  and  N_6 
REMARK    5  A    between atoms: C_18  and  C_3 
REMARK    6  A    between atoms: C_8  and  C_5 
REMARK    7  A    between atoms: N_6  and  N_12 
REMARK    8  A    between atoms: C_7  and  C_11 
REMARK       I    between atoms: N_12  and  C_7 
REMARK    9  A    between atoms: C_11  and  C_13 
ROOT
ATOM      1  N   UNL d   1       0.285  -0.910   1.195  0.00  0.00    -0.200 NA
ENDROOT
BRANCH   1   2
ATOM      2  S   UNL d   1       0.821   0.035  -0.134  0.00  0.00     0.244 S 
ATOM      3  O   UNL d   1       0.452  -0.686  -1.333  0.00  0.00    -0.206 OA
ATOM      4  O   UNL d   1       2.206   0.373   0.135  0.00  0.00    -0.206 OA
BRANCH   2   5
ATOM      5  C   UNL d   1      -0.067   1.574  -0.131  0.00  0.00     0.074 A 
ATOM      6  C   UNL d   1       0.195   2.529   0.856  0.00  0.00     0.026 A 
ATOM      7  C   UNL d   1      -0.331   3.817   0.721  0.00  0.00     0.025 A 
ATOM      8  C   UNL d   1      -1.098   4.148  -0.400  0.00  0.00     0.034 A 
ATOM      9  C   UNL d   1      -1.371   3.191  -1.377  0.00  0.00     0.025 A 
ATOM     10 CL   UNL d   1      -1.673   5.757  -0.603  0.00  0.00    -0.084 Cl
ATOM     11  C   UNL d   1      -0.857   1.900  -1.244  0.00  0.00     0.026 A 
ENDBRANCH   2   5
ENDBRANCH   1   2
BRANCH   1  12
ATOM     12  C   UNL d   1      -1.212  -0.979   1.320  0.00  0.00     0.172 C 
BRANCH  12  13
ATOM     13  C   UNL d   1      -1.599  -1.782   2.521  0.00  0.00     0.066 A 
ATOM     14  O   UNL d   1      -2.306  -2.926   2.283  0.00  0.00    -0.326 OA
ATOM     15  C   UNL d   1      -2.446  -3.566   3.473  0.00  0.00     0.142 A 
ATOM     16  C   UNL d   1      -1.844  -2.847   4.478  0.00  0.00     0.027 A 
ATOM     17  C   UNL d   1      -1.313  -1.683   3.870  0.00  0.00     0.036 A 
ENDBRANCH  12  13
ENDBRANCH   1  12
BRANCH   1  18
ATOM     18  C   UNL d   1       0.873  -2.320   1.167  0.00  0.00     0.117 C 
BRANCH  18  19
ATOM     19  C   UNL d   1       2.390  -2.427   1.137  0.00  0.00     0.120 C 
BRANCH  19  20
ATOM     20  C   UNL d   1       3.020  -2.082   2.461  0.00  0.00     0.237 C 
ATOM     21  N   UNL d   1       3.007  -0.746   2.794  0.00  0.00    -0.267 N 
ATOM     22  H   UNL d   1       2.795  -0.022   2.102  0.00  0.00     0.190 HD
ATOM     23  O   UNL d   1       3.524  -2.938   3.190  0.00  0.00    -0.272 OA
BRANCH  21  24
ATOM     24  N   UNL d   1       3.773  -0.369   3.902  0.00  0.00    -0.263 N 
ATOM     25  C   UNL d   1       3.736   0.933   4.353  0.00  0.00     0.270 C 
ATOM     26  O   UNL d   1       3.069   1.818   3.826  0.00  0.00    -0.266 OA
ATOM     27  H   UNL d   1       4.158  -1.138   4.449  0.00  0.00     0.190 HD
BRANCH  25  28
ATOM     28  C   UNL d   1       4.551   1.204   5.574  0.00  0.00     0.033 A 
ATOM     29  C   UNL d   1       5.708   0.474   5.871  0.00  0.00     0.017 A 
ATOM     30  C   UNL d   1       6.433   0.746   7.033  0.00  0.00     0.001 A 
ATOM     31  C   UNL d   1       6.010   1.755   7.899  0.00  0.00     0.000 A 
ATOM     32  C   UNL d   1       4.871   2.499   7.598  0.00  0.00     0.001 A 
ATOM     33  C   UNL d   1       4.145   2.232   6.437  0.00  0.00     0.017 A 
ENDBRANCH  25  28
ENDBRANCH  21  24
ENDBRANCH  19  20
ENDBRANCH  18  19
ENDBRANCH   1  18
TORSDOF 9
