REMARK  5 active torsions:
REMARK  status: ('A' for Active; 'I' for Inactive)
REMARK       I    between atoms: N_3  and  C_1 
REMARK       I    between atoms: N_5  and  C_1 
REMARK    1  A    between atoms: C_2  and  N_4 
REMARK    2  A    between atoms: C_13  and  N_5 
REMARK    3  A    between atoms: O_14  and  C_18 
REMARK    4  A    between atoms: C_23  and  O_14 
REMARK    5  A    between atoms: C_28  and  C_23 
ROOT
ATOM      1  C   UNL d   1       0.966  -0.142   0.007  0.00  0.00     0.322 C 
ATOM      2  N   UNL d   1       0.100  -1.087  -0.535  0.00  0.00    -0.332 N 
ATOM      3  N   UNL d   1      -0.887  -2.466  -2.977  0.00  0.00    -0.376 N 
ATOM      4  N   UNL d   1       0.356   0.987   0.510  0.00  0.00    -0.309 N 
ATOM      5  O   UNL d   1       2.177  -0.351   0.049  0.00  0.00    -0.247 OA
ATOM      6  C   UNL d   1       0.663  -2.356  -1.005  0.00  0.00     0.147 C 
ATOM      7  C   UNL d   1       0.514  -2.611  -2.513  0.00  0.00     0.143 C 
ATOM      8  C   UNL d   1      -1.817  -0.379  -1.941  0.00  0.00     0.040 C 
ATOM      9  C   UNL d   1      -1.355  -0.991  -0.625  0.00  0.00     0.129 C 
ATOM     10  C   UNL d   1      -1.315  -1.075  -3.215  0.00  0.00     0.125 C 
ATOM     11  H   UNL d   1      -0.590   1.163   0.223  0.00  0.00     0.170 HD
ENDROOT
BRANCH   4  12
ATOM     12  C   UNL d   1       0.905   1.922   1.413  0.00  0.00     0.036 A 
ATOM     13  C   UNL d   1       2.208   1.846   1.907  0.00  0.00     0.032 A 
ATOM     14  C   UNL d   1       2.651   2.729   2.895  0.00  0.00     0.039 A 
ATOM     15  C   UNL d   1       1.790   3.689   3.417  0.00  0.00     0.069 A 
ATOM     16  C   UNL d   1       0.510   3.821   2.884  0.00  0.00     0.039 A 
ATOM     17  C   UNL d   1       0.068   2.939   1.885  0.00  0.00     0.032 A 
BRANCH  15  18
ATOM     18  O   UNL d   1       2.116   4.551   4.431  0.00  0.00    -0.347 OA
BRANCH  18  19
ATOM     19  C   UNL d   1       3.021   3.997   5.396  0.00  0.00     0.214 C 
BRANCH  19  20
ATOM     20  C   UNL d   1       3.223   4.934   6.565  0.00  0.00    -0.034 A 
ATOM     21  C   UNL d   1       3.528   4.406   7.830  0.00  0.00     0.009 A 
ATOM     22  C   UNL d   1       3.807   5.253   8.903  0.00  0.00     0.001 A 
ATOM     23  C   UNL d   1       3.793   6.635   8.724  0.00  0.00     0.000 A 
ATOM     24  C   UNL d   1       3.498   7.170   7.471  0.00  0.00     0.001 A 
ATOM     25  C   UNL d   1       3.220   6.323   6.396  0.00  0.00     0.009 A 
ENDBRANCH  19  20
ENDBRANCH  18  19
ENDBRANCH  15  18
ENDBRANCH   4  12
BRANCH   3  26
ATOM     26  C   UNL d   1      -1.448  -3.442  -3.829  0.00  0.00     0.077 A 
ATOM     27  C   UNL d   1      -2.815  -3.797  -3.691  0.00  0.00     0.077 A 
ATOM     28 CL   UNL d   1      -3.875  -3.068  -2.533  0.00  0.00    -0.080 Cl
ATOM     29  C   UNL d   1      -3.361  -4.813  -4.475  0.00  0.00     0.113 A 
ATOM     30  N   UNL d   1      -2.669  -5.527  -5.384  0.00  0.00    -0.372 N 
ATOM     31  C   UNL d   1      -1.375  -5.176  -5.536  0.00  0.00     0.113 A 
ATOM     32  HN  UNL d   1      -3.094  -6.283  -5.921  1.00  0.00     0.164 HD
ATOM     33  C   UNL d   1      -0.739  -4.152  -4.828  0.00  0.00     0.077 A 
ATOM     34 CL   UNL d   1       0.875  -3.782  -5.337  0.00  0.00    -0.080 Cl
ENDBRANCH   3  26
TORSDOF 5
