REMARK  6 active torsions:
REMARK  status: ('A' for Active; 'I' for Inactive)
REMARK    1  A    between atoms: C_5  and  C_1 
REMARK    2  A    between atoms: C_10  and  C_4 
REMARK    3  A    between atoms: N_17  and  C_5 
REMARK    4  A    between atoms: O_12  and  N_8 
REMARK    5  A    between atoms: C_11  and  O_12 
REMARK    6  A    between atoms: C_16  and  C_11 
ROOT
ATOM      1  C   UNL d   1       2.451   1.756  -0.117  0.00  0.00     0.126 C 
ATOM      2  N   UNL d   1       2.381   3.039  -0.000  0.00  0.00    -0.244 N 
ATOM      3  HN  UNL d   1       3.193   3.646   0.117  1.00  0.00     0.196 HD
ENDROOT
BRANCH   1   4
ATOM      4  C   UNL d   1       3.779   1.136  -0.071  0.00  0.00     0.080 A 
ATOM      5  N   UNL d   1       3.951  -0.255  -0.133  0.00  0.00    -0.347 N 
ATOM      6  C   UNL d   1       5.235  -0.561  -0.045  0.00  0.00     0.086 A 
ATOM      7  HN  UNL d   1       3.195  -0.932  -0.231  1.00  0.00     0.167 HD
ATOM      8  S   UNL d   1       6.294   0.794   0.094  0.00  0.00    -0.081 SA
ATOM      9  C   UNL d   1       4.956   1.849   0.061  0.00  0.00     0.084 A 
BRANCH   6  10
ATOM     10  C   UNL d   1       5.783  -1.923  -0.107  0.00  0.00     0.013 A 
ATOM     11  C   UNL d   1       6.946  -2.304   0.563  0.00  0.00     0.101 A 
ATOM     12  N   UNL d   1       7.497  -3.543   0.517  0.00  0.00    -0.374 N 
ATOM     13  C   UNL d   1       6.856  -4.463  -0.232  0.00  0.00     0.087 A 
ATOM     14  HN  UNL d   1       8.352  -3.769   1.025  1.00  0.00     0.164 HD
ATOM     15  C   UNL d   1       5.687  -4.202  -0.928  0.00  0.00     0.018 A 
ATOM     16  C   UNL d   1       5.145  -2.918  -0.857  0.00  0.00     0.017 A 
ENDBRANCH   6  10
ENDBRANCH   1   4
BRANCH   1  17
ATOM     17  N   UNL d   1       1.441   0.847  -0.253  0.00  0.00    -0.285 NA
ATOM     18  H   UNL d   1       1.710  -0.104  -0.005  0.00  0.00     0.125 HD
ATOM     19  H   UNL d   1       0.559   1.147   0.143  0.00  0.00     0.125 HD
ENDBRANCH   1  17
BRANCH   2  20
ATOM     20  O   UNL d   1       1.052   3.506  -0.053  0.00  0.00    -0.193 OA
BRANCH  20  21
ATOM     21  C   UNL d   1       1.055   4.866   0.106  0.00  0.00     0.315 C 
ATOM     22  O   UNL d   1       2.020   5.597   0.284  0.00  0.00    -0.257 OA
BRANCH  21  23
ATOM     23  C   UNL d   1      -0.336   5.379   0.113  0.00  0.00     0.041 A 
ATOM     24  C   UNL d   1      -1.377   4.738  -0.572  0.00  0.00     0.017 A 
ATOM     25  C   UNL d   1      -2.668   5.273  -0.532  0.00  0.00     0.001 A 
ATOM     26  C   UNL d   1      -2.922   6.441   0.188  0.00  0.00     0.000 A 
ATOM     27  C   UNL d   1      -1.887   7.089   0.861  0.00  0.00     0.001 A 
ATOM     28  C   UNL d   1      -0.595   6.563   0.819  0.00  0.00     0.017 A 
ENDBRANCH  21  23
ENDBRANCH  20  21
ENDBRANCH   2  20
TORSDOF 6
