REMARK  2 active torsions:
REMARK  status: ('A' for Active; 'I' for Inactive)
REMARK    1  A    between atoms: C_2  and  C_1 
REMARK    2  A    between atoms: N_12  and  C_8 
REMARK       I    between atoms: C_13  and  N_12 
ROOT
ATOM      1  C   UNL d   1       3.972   0.014  -0.016  0.00  0.00     0.069 A 
ATOM      2  C   UNL d   1       4.762   1.182   0.134  0.00  0.00     0.082 A 
ATOM      3  N   UNL d   1       4.749  -1.070  -0.144  0.00  0.00    -0.298 N 
ATOM      4  HN  UNL d   1       4.455  -2.040  -0.263  1.00  0.00     0.187 HD
ATOM      5  C   UNL d   1       6.070   0.765   0.113  0.00  0.00     0.124 A 
ATOM      6  N   UNL d   1       6.001  -0.591  -0.079  0.00  0.00    -0.285 N 
ATOM      7  H   UNL d   1       6.762  -1.255  -0.167  0.00  0.00     0.188 HD
ENDROOT
BRANCH   1   8
ATOM      8  C   UNL d   1       2.462   0.004  -0.024  0.00  0.00     0.040 A 
ATOM      9  S   UNL d   1       1.597   1.482   0.013  0.00  0.00    -0.087 SA
ATOM     10  C   UNL d   1       0.076   0.714  -0.009  0.00  0.00     0.016 A 
ATOM     11  C   UNL d   1      -1.179   1.352   0.006  0.00  0.00     0.021 A 
ATOM     12  C   UNL d   1       0.211  -0.674  -0.040  0.00  0.00    -0.010 A 
ATOM     13  C   UNL d   1      -2.333   0.569  -0.004  0.00  0.00     0.025 A 
ATOM     14  C   UNL d   1      -2.233  -0.813  -0.029  0.00  0.00     0.035 A 
ATOM     15  C   UNL d   1      -0.984  -1.442  -0.050  0.00  0.00     0.037 A 
ATOM     16 CL   UNL d   1      -3.664  -1.768  -0.032  0.00  0.00    -0.084 Cl
ATOM     17  C   UNL d   1       1.611  -1.093  -0.051  0.00  0.00    -0.031 A 
ATOM     18  C   UNL d   1       1.987  -2.545  -0.067  0.00  0.00     0.050 C 
ENDBRANCH   1   8
BRANCH   5  19
ATOM     19  N   UNL d   1       7.225   1.520   0.259  0.00  0.00    -0.312 N 
ATOM     20  C   UNL d   1       7.218   2.946   0.473  0.00  0.00     0.219 C 
ATOM     21  O   UNL d   1       6.180   3.586   0.514  0.00  0.00    -0.274 OA
ATOM     22  C   UNL d   1       8.567   3.572   0.645  0.00  0.00     0.117 C 
ATOM     23  H   UNL d   1       8.117   1.041   0.227  0.00  0.00     0.170 HD
ENDBRANCH   5  19
TORSDOF 2
