REMARK  4 active torsions:
REMARK  status: ('A' for Active; 'I' for Inactive)
REMARK    1  A    between atoms: N_2  and  C_1 
REMARK    2  A    between atoms: N_7  and  C_1 
REMARK    3  A    between atoms: C_4  and  N_3 
REMARK    4  A    between atoms: C_13  and  N_7 
ROOT
ATOM      1  C   UNL d   1      -2.636   0.879   4.221  0.00  0.00     0.103 A 
ATOM      2  N   UNL d   1      -3.790   0.182   4.269  0.00  0.00    -0.351 N 
ATOM      3  HN  UNL d   1      -4.171  -0.259   3.432  1.00  0.00     0.166 HD
ATOM      4  N   UNL d   1      -5.250   0.323   8.855  0.00  0.00    -0.191 NA
ATOM      5  C   UNL d   1      -4.673   0.456   7.860  0.00  0.00     0.101 C 
ATOM      6  C   UNL d   1      -3.957   0.630   6.638  0.00  0.00     0.060 A 
ATOM      7  C   UNL d   1      -2.103   1.465   5.373  0.00  0.00     0.050 A 
ATOM      8  C   UNL d   1      -4.431   0.082   5.459  0.00  0.00     0.112 A 
ATOM      9  C   UNL d   1      -2.760   1.333   6.594  0.00  0.00     0.028 A 
ENDROOT
BRANCH   1  10
ATOM     10  N   UNL d   1      -1.929   0.967   3.035  0.00  0.00    -0.366 N 
ATOM     11  C   UNL d   1      -2.125  -0.082   2.026  0.00  0.00     0.144 C 
ATOM     12  C   UNL d   1      -0.760  -0.667   1.605  0.00  0.00     0.145 C 
ATOM     13  N   UNL d   1       0.234   0.343   1.186  0.00  0.00    -0.356 N 
ATOM     14  C   UNL d   1       0.680   1.308   2.192  0.00  0.00     0.127 C 
ATOM     15  C   UNL d   1      -0.177   2.554   2.345  0.00  0.00     0.040 C 
ATOM     16  C   UNL d   1      -1.669   2.305   2.504  0.00  0.00     0.126 C 
BRANCH  13  17
ATOM     17  C   UNL d   1       0.930   0.181   0.007  0.00  0.00     0.174 C 
ATOM     18  S   UNL d   1       1.001   1.366  -1.170  0.00  0.00    -0.041 SA
BRANCH  17  19
ATOM     19  N   UNL d   1       1.434  -1.067  -0.251  0.00  0.00    -0.333 N 
ATOM     20  H   UNL d   1       1.553  -1.278  -1.236  0.00  0.00     0.168 HD
BRANCH  19  21
ATOM     21  C   UNL d   1       2.255  -1.833   0.614  0.00  0.00     0.035 A 
ATOM     22  C   UNL d   1       2.528  -3.155   0.261  0.00  0.00     0.053 A 
ATOM     23  C   UNL d   1       3.432  -3.917   1.013  0.00  0.00     0.042 A 
ATOM     24 CL   UNL d   1       3.690  -5.559   0.539  0.00  0.00    -0.084 Cl
ATOM     25  C   UNL d   1       4.114  -3.357   2.103  0.00  0.00    -0.040 A 
ATOM     26  C   UNL d   1       3.811  -2.042   2.470  0.00  0.00     0.011 A 
ATOM     27  C   UNL d   1       5.168  -4.108   2.868  0.00  0.00     0.050 C 
ATOM     28  C   UNL d   1       2.890  -1.293   1.733  0.00  0.00     0.030 A 
ENDBRANCH  19  21
ENDBRANCH  17  19
ENDBRANCH  13  17
ENDBRANCH   1  10
TORSDOF 4
