REMARK  6 active torsions:
REMARK  status: ('A' for Active; 'I' for Inactive)
REMARK    1  A    between atoms: C_8  and  C_2 
REMARK    2  A    between atoms: S_11  and  C_5 
REMARK    3  A    between atoms: C_9  and  C_18 
REMARK    4  A    between atoms: C_21  and  C_10 
REMARK    5  A    between atoms: C_16  and  S_11 
REMARK    6  A    between atoms: C_12  and  C_16 
ROOT
ATOM      1  N   UNL d   1       0.818   0.031  -0.097  0.00  0.00    -0.315 N 
ATOM      2  C   UNL d   1      -0.020   1.131  -0.073  0.00  0.00     0.135 C 
ATOM      3  N   UNL d   1      -1.262   0.686   0.028  0.00  0.00    -0.283 N 
ATOM      4  HN  UNL d   1      -2.090   1.263   0.175  1.00  0.00     0.188 HD
ATOM      5  C   UNL d   1      -0.004  -1.056  -0.232  0.00  0.00     0.162 C 
ATOM      6  N   UNL d   1      -1.252  -0.682  -0.100  0.00  0.00    -0.278 N 
ATOM      7  HN  UNL d   1      -2.068  -1.294  -0.093  1.00  0.00     0.189 HD
ATOM      8  C   UNL d   1       2.250   0.000   0.059  0.00  0.00     0.160 C 
ENDROOT
BRANCH   2   9
ATOM      9  C   UNL d   1       0.355   2.542  -0.158  0.00  0.00     0.026 A 
ATOM     10  C   UNL d   1       1.415   2.996  -0.951  0.00  0.00     0.038 A 
ATOM     11  C   UNL d   1       1.723   4.355  -1.001  0.00  0.00     0.034 A 
ATOM     12  C   UNL d   1       0.930   5.235  -0.280  0.00  0.00     0.108 A 
ATOM     13  N   UNL d   1      -0.126   4.846   0.473  0.00  0.00    -0.373 N 
ATOM     14  C   UNL d   1      -0.392   3.514   0.508  0.00  0.00     0.102 A 
ATOM     15  HN  UNL d   1      -0.693   5.519   0.987  1.00  0.00     0.164 HD
BRANCH  11  16
ATOM     16  C   UNL d   1       2.844   4.817  -1.757  0.00  0.00    -0.060 C 
ATOM     17  C   UNL d   1       3.801   5.210  -2.366  0.00  0.00    -0.061 C 
BRANCH  17  18
ATOM     18  C   UNL d   1       4.944   5.710  -3.066  0.00  0.00     0.018 A 
ATOM     19  C   UNL d   1       5.698   6.744  -2.505  0.00  0.00     0.020 A 
ATOM     20  C   UNL d   1       6.799   7.260  -3.192  0.00  0.00     0.001 A 
ATOM     21  C   UNL d   1       7.149   6.741  -4.436  0.00  0.00     0.000 A 
ATOM     22  C   UNL d   1       6.404   5.700  -4.995  0.00  0.00     0.001 A 
ATOM     23  C   UNL d   1       5.303   5.182  -4.309  0.00  0.00     0.020 A 
ENDBRANCH  17  18
ENDBRANCH  11  16
ENDBRANCH   2   9
BRANCH   5  24
ATOM     24  S   UNL d   1       0.554  -2.660  -0.574  0.00  0.00    -0.088 SA
BRANCH  24  25
ATOM     25  C   UNL d   1      -0.965  -3.374  -1.283  0.00  0.00     0.122 C 
BRANCH  25  26
ATOM     26  C   UNL d   1      -0.789  -4.814  -1.710  0.00  0.00    -0.027 A 
ATOM     27  C   UNL d   1      -0.353  -5.187  -2.994  0.00  0.00     0.041 A 
ATOM     28 CL   UNL d   1       0.042  -4.017  -4.203  0.00  0.00    -0.084 Cl
ATOM     29  C   UNL d   1      -0.234  -6.537  -3.343  0.00  0.00     0.024 A 
ATOM     30  C   UNL d   1      -0.544  -7.535  -2.419  0.00  0.00     0.002 A 
ATOM     31  C   UNL d   1      -0.966  -7.182  -1.141  0.00  0.00     0.001 A 
ATOM     32  C   UNL d   1      -1.085  -5.836  -0.789  0.00  0.00     0.009 A 
ENDBRANCH  25  26
ENDBRANCH  24  25
ENDBRANCH   5  24
TORSDOF 6
