REMARK  4 active torsions:
REMARK  status: ('A' for Active; 'I' for Inactive)
REMARK    1  A    between atoms: N_9  and  C_1 
REMARK    2  A    between atoms: N_12  and  N_7 
REMARK    3  A    between atoms: C_10  and  N_9 
REMARK    4  A    between atoms: C_16  and  N_12 
ROOT
ATOM      1  C   UNL d   1      -1.232   0.281  -0.165  0.00  0.00     0.154 A 
ATOM      2  C   UNL d   1      -0.212   1.276   0.324  0.00  0.00     0.159 A 
ATOM      3  C   UNL d   1       1.101   0.817  -0.246  0.00  0.00     0.293 A 
ATOM      4  N   UNL d   1      -0.641  -0.551  -0.981  0.00  0.00    -0.279 N 
ATOM      5  HN  UNL d   1      -1.100  -1.302  -1.496  1.00  0.00     0.189 HD
ATOM      6  N   UNL d   1       0.710  -0.248  -1.034  0.00  0.00    -0.258 N 
ATOM      7  N   UNL d   1      -0.339   2.376   0.997  0.00  0.00    -0.309 N 
ATOM      8  HN  UNL d   1       0.481   2.914   1.277  1.00  0.00     0.181 HD
ATOM      9  O   UNL d   1       2.187   1.308  -0.051  0.00  0.00    -0.264 OA
ATOM     10  C   UNL d   1       1.613  -1.042  -1.819  0.00  0.00     0.181 C 
ENDROOT
BRANCH   1  11
ATOM     11  N   UNL d   1      -2.552   0.259   0.227  0.00  0.00    -0.338 N 
ATOM     12  H   UNL d   1      -2.740   0.493   1.200  0.00  0.00     0.167 HD
BRANCH  11  13
ATOM     13  C   UNL d   1      -3.539  -0.491  -0.441  0.00  0.00     0.055 A 
ATOM     14  C   UNL d   1      -4.471  -1.294   0.239  0.00  0.00     0.060 A 
ATOM     15 CL   UNL d   1      -4.474  -1.375   1.966  0.00  0.00    -0.082 Cl
ATOM     16  C   UNL d   1      -5.405  -2.067  -0.464  0.00  0.00     0.026 A 
ATOM     17  C   UNL d   1      -5.425  -2.049  -1.857  0.00  0.00     0.002 A 
ATOM     18  C   UNL d   1      -4.505  -1.268  -2.551  0.00  0.00     0.002 A 
ATOM     19  C   UNL d   1      -3.569  -0.506  -1.847  0.00  0.00     0.031 A 
ENDBRANCH  11  13
ENDBRANCH   1  11
BRANCH   7  20
ATOM     20  N   UNL d   1      -1.597   2.796   1.323  0.00  0.00    -0.205 NA
ATOM     21  H   UNL d   1      -2.038   3.341   0.574  0.00  0.00     0.153 HD
BRANCH  20  22
ATOM     22  C   UNL d   1      -1.666   3.565   2.521  0.00  0.00     0.027 A 
ATOM     23  C   UNL d   1      -2.676   4.524   2.681  0.00  0.00     0.025 A 
ATOM     24  C   UNL d   1      -2.830   5.204   3.894  0.00  0.00     0.002 A 
ATOM     25  C   UNL d   1      -1.994   4.913   4.970  0.00  0.00     0.000 A 
ATOM     26  C   UNL d   1      -0.992   3.956   4.829  0.00  0.00     0.002 A 
ATOM     27  C   UNL d   1      -0.833   3.286   3.614  0.00  0.00     0.025 A 
ENDBRANCH  20  22
ENDBRANCH   7  20
TORSDOF 4
