REMARK  5 active torsions:
REMARK  status: ('A' for Active; 'I' for Inactive)
REMARK    1  A    between atoms: C_7  and  C_1 
REMARK    2  A    between atoms: C_9  and  C_6 
REMARK    3  A    between atoms: C_10  and  C_9 
REMARK       I    between atoms: N_15  and  C_10 
REMARK    4  A    between atoms: N_11  and  N_15 
REMARK    5  A    between atoms: C_21  and  C_19 
ROOT
ATOM      1  C   UNL d   1      -0.244   0.741   0.652  0.00  0.00     0.156 A 
ATOM      2  N   UNL d   1       0.975   0.076   0.637  0.00  0.00    -0.321 N 
ATOM      3  HN  UNL d   1       1.878   0.394   0.990  1.00  0.00     0.169 HD
ATOM      4  N   UNL d   1      -1.231   0.057   0.047  0.00  0.00    -0.241 N 
ATOM      5  HN  UNL d   1      -2.199   0.346  -0.097  1.00  0.00     0.196 HD
ATOM      6  C   UNL d   1       0.674  -1.064   0.057  0.00  0.00     0.157 A 
ATOM      7  O   UNL d   1      -0.629  -1.134  -0.338  0.00  0.00    -0.222 OA
ENDROOT
BRANCH   6   8
ATOM      8  C   UNL d   1       1.464  -2.290  -0.148  0.00  0.00     0.191 C 
BRANCH   8   9
ATOM      9  C   UNL d   1       2.963  -2.124  -0.201  0.00  0.00     0.243 C 
ATOM     10  N   UNL d   1       3.500  -0.858  -0.058  0.00  0.00    -0.270 N 
ATOM     11  H   UNL d   1       2.919  -0.054   0.186  0.00  0.00     0.190 HD
ATOM     12  O   UNL d   1       3.652  -3.134  -0.390  0.00  0.00    -0.271 OA
BRANCH  10  13
ATOM     13  N   UNL d   1       4.853  -0.722  -0.134  0.00  0.00    -0.308 N 
ATOM     14  C   UNL d   1       5.335   0.476  -0.082  0.00  0.00     0.118 C 
ATOM     15  HN  UNL d   1       5.463  -1.534  -0.228  1.00  0.00     0.186 HD
BRANCH  14  16
ATOM     16  C   UNL d   1       6.797   0.692  -0.169  0.00  0.00    -0.019 A 
ATOM     17  C   UNL d   1       7.675  -0.399  -0.117  0.00  0.00     0.014 A 
ATOM     18  C   UNL d   1       9.053  -0.194  -0.224  0.00  0.00     0.024 A 
ATOM     19  C   UNL d   1       9.547   1.098  -0.387  0.00  0.00     0.034 A 
ATOM     20  C   UNL d   1       8.676   2.188  -0.439  0.00  0.00     0.024 A 
ATOM     21 CL   UNL d   1      11.242   1.351  -0.534  0.00  0.00    -0.084 Cl
ATOM     22  C   UNL d   1       7.296   1.988  -0.325  0.00  0.00     0.014 A 
ENDBRANCH  14  16
ENDBRANCH  10  13
ENDBRANCH   8   9
ENDBRANCH   6   8
BRANCH   1  23
ATOM     23  C   UNL d   1      -0.444   2.027   1.312  0.00  0.00     0.094 A 
ATOM     24  N   UNL d   1       0.651   2.653   1.828  0.00  0.00    -0.360 N 
ATOM     25  C   UNL d   1       0.409   3.812   2.485  0.00  0.00     0.105 A 
ATOM     26  HN  UNL d   1       1.592   2.273   1.726  1.00  0.00     0.165 HD
ATOM     27  C   UNL d   1      -0.863   4.341   2.626  0.00  0.00     0.104 A 
ATOM     28  N   UNL d   1      -1.956   3.739   2.109  0.00  0.00    -0.372 N 
ATOM     29  C   UNL d   1      -1.718   2.574   1.453  0.00  0.00     0.121 A 
ATOM     30  HN  UNL d   1      -2.892   4.132   2.204  1.00  0.00     0.164 HD
ENDBRANCH   1  23
TORSDOF 5
