REMARK  6 active torsions:
REMARK  status: ('A' for Active; 'I' for Inactive)
REMARK    1  A    between atoms: C_3  and  N_1 
REMARK    2  A    between atoms: C_5  and  N_1 
REMARK    3  A    between atoms: C_4  and  C_3 
REMARK    4  A    between atoms: S_11  and  C_3 
REMARK    5  A    between atoms: C_6  and  C_5 
REMARK    6  A    between atoms: N_15  and  C_5 
ROOT
ATOM      1  C   UNL d   1       0.739  -1.022   2.461  0.00  0.00     0.158 C 
ATOM      2  C   UNL d   1       2.053  -0.729   2.924  0.00  0.00     0.113 C 
ATOM      3  C   UNL d   1      -0.098  -1.761   3.345  0.00  0.00     0.113 C 
ATOM      4  N   UNL d   1       3.117  -0.469   3.310  0.00  0.00    -0.191 NA
ATOM      5  N   UNL d   1      -0.760  -2.366   4.080  0.00  0.00    -0.191 NA
ENDROOT
BRANCH   1   6
ATOM      6  C   UNL d   1       0.338  -0.600   1.233  0.00  0.00     0.102 C 
BRANCH   6   7
ATOM      7  N   UNL d   1       1.192   0.076   0.380  0.00  0.00    -0.332 N 
ATOM      8  HN  UNL d   1       1.743  -0.437  -0.308  1.00  0.00     0.168 HD
BRANCH   7   9
ATOM      9  C   UNL d   1       1.287   1.385   0.464  0.00  0.00     0.185 C 
BRANCH   9  10
ATOM     10  C   UNL d   1       0.535   2.302   1.483  0.00  0.00     0.448 C 
ATOM     11  F   UNL d   1       0.891   3.608   1.332  0.00  0.00    -0.163 F 
ATOM     12  F   UNL d   1      -0.812   2.248   1.326  0.00  0.00    -0.163 F 
ATOM     13  F   UNL d   1       0.797   1.968   2.773  0.00  0.00    -0.163 F 
ENDBRANCH   9  10
BRANCH   9  14
ATOM     14  N   UNL d   1       2.135   1.973  -0.457  0.00  0.00    -0.382 N 
ATOM     15  H   UNL d   1       2.378   1.394  -1.254  0.00  0.00     0.157 HD
ATOM     16  H   UNL d   1       2.026   2.965  -0.650  0.00  0.00     0.157 HD
ENDBRANCH   9  14
ENDBRANCH   7   9
ENDBRANCH   6   7
BRANCH   6  17
ATOM     17  S   UNL d   1      -1.263  -1.071   0.633  0.00  0.00    -0.115 SA
ATOM     18  C   UNL d   1      -0.928  -1.258  -1.136  0.00  0.00     0.097 C 
ENDBRANCH   6  17
ENDBRANCH   1   6
TORSDOF 6
