REMARK  11 active torsions:
REMARK  status: ('A' for Active; 'I' for Inactive)
REMARK    1  A    between atoms: C_2  and  C_1 
REMARK    2  A    between atoms: C_3  and  C_1 
REMARK    3  A    between atoms: O_16  and  C_2 
REMARK    4  A    between atoms: O_15  and  C_3 
REMARK    5  A    between atoms: C_14  and  C_5 
REMARK    6  A    between atoms: C_18  and  O_15 
REMARK    7  A    between atoms: C_17  and  O_16 
REMARK    8  A    between atoms: C_21  and  C_17 
REMARK    9  A    between atoms: C_22  and  C_18 
REMARK   10  A    between atoms: C_24  and  C_21 
REMARK   11  A    between atoms: C_23  and  C_22 
ROOT
ATOM      1  C   UNL d   1       2.593   0.510  -0.402  0.00  0.00     0.137 C 
ATOM      2  C   UNL d   1       0.535  -0.118  -0.023  0.00  0.00     0.006 C 
ATOM      3  C   UNL d   1      -2.274  -0.036   0.266  0.00  0.00     0.294 C 
ATOM      4  C   UNL d   1       1.871  -0.220   0.776  0.00  0.00     0.044 C 
ATOM      5  C   UNL d   1       1.437  -0.057  -1.298  0.00  0.00     0.044 C 
ATOM      6  O   UNL d   1      -1.575   1.115  -0.191  0.00  0.00    -0.356 OA
ATOM      7  O   UNL d   1      -1.648  -1.210  -0.249  0.00  0.00    -0.356 OA
ATOM      8  C   UNL d   1      -0.233   1.172   0.269  0.00  0.00     0.183 C 
ATOM      9  C   UNL d   1      -0.305  -1.374   0.189  0.00  0.00     0.183 C 
ENDROOT
BRANCH   1  10
ATOM     10  C   UNL d   1       4.039   0.037  -0.738  0.00  0.00     0.277 C 
ATOM     11  O   UNL d   1       4.508  -0.132  -1.860  0.00  0.00    -0.264 OA
BRANCH  10  12
ATOM     12  O   UNL d   1       4.738  -0.280   0.399  0.00  0.00    -0.320 OA
BRANCH  12  13
ATOM     13  C   UNL d   1       5.309  -1.588   0.344  0.00  0.00     0.179 C 
BRANCH  13  14
ATOM     14  C   UNL d   1       6.832  -1.576   0.355  0.00  0.00     0.031 C 
BRANCH  14  15
ATOM     15  C   UNL d   1       7.400  -3.011   0.337  0.00  0.00    -0.021 C 
ATOM     16  C   UNL d   1       6.977  -3.793  -0.911  0.00  0.00     0.009 C 
ATOM     17  C   UNL d   1       8.925  -2.994   0.431  0.00  0.00     0.009 C 
ENDBRANCH  14  15
ENDBRANCH  13  14
ENDBRANCH  12  13
ENDBRANCH  10  12
ENDBRANCH   1  10
BRANCH   1  18
ATOM     18  C   UNL d   1       2.749   2.046  -0.304  0.00  0.00     0.277 C 
ATOM     19  O   UNL d   1       2.606   2.837  -1.224  0.00  0.00    -0.264 OA
BRANCH  18  20
ATOM     20  O   UNL d   1       3.096   2.417   0.968  0.00  0.00    -0.320 OA
BRANCH  20  21
ATOM     21  C   UNL d   1       3.802   3.656   1.054  0.00  0.00     0.179 C 
BRANCH  21  22
ATOM     22  C   UNL d   1       2.997   4.693   1.829  0.00  0.00     0.031 C 
BRANCH  22  23
ATOM     23  C   UNL d   1       3.768   6.019   1.948  0.00  0.00    -0.021 C 
ATOM     24  C   UNL d   1       4.064   6.644   0.580  0.00  0.00     0.009 C 
ATOM     25  C   UNL d   1       2.987   7.014   2.811  0.00  0.00     0.009 C 
ENDBRANCH  22  23
ENDBRANCH  21  22
ENDBRANCH  20  21
ENDBRANCH  18  20
ENDBRANCH   1  18
BRANCH   3  26
ATOM     26  C   UNL d   1      -2.580  -0.053   1.764  0.00  0.00    -0.004 A 
ATOM     27  C   UNL d   1      -2.612   1.133   2.522  0.00  0.00     0.012 A 
ATOM     28  C   UNL d   1      -2.929   1.112   3.882  0.00  0.00     0.001 A 
ATOM     29  C   UNL d   1      -3.253  -0.091   4.502  0.00  0.00     0.000 A 
ATOM     30  C   UNL d   1      -3.260  -1.273   3.760  0.00  0.00     0.001 A 
ATOM     31  C   UNL d   1      -2.931  -1.252   2.405  0.00  0.00     0.012 A 
ENDBRANCH   3  26
TORSDOF 11
