REMARK  3 active torsions:
REMARK  status: ('A' for Active; 'I' for Inactive)
REMARK    1  A    between atoms: C_3  and  C_1 
REMARK    2  A    between atoms: C_2  and  N_4 
REMARK       I    between atoms: N_4  and  C_3 
REMARK    3  A    between atoms: C_11  and  N_4 
ROOT
ATOM      1  C   UNL d   1       3.868  -0.119  -0.020  0.00  0.00     0.273 C 
ATOM      2  N   UNL d   1       4.588  -1.337  -0.012  0.00  0.00    -0.257 N 
ATOM      3  O   UNL d   1       2.789   0.007  -0.594  0.00  0.00    -0.266 OA
ENDROOT
BRANCH   2   4
ATOM      4  C   UNL d   1       5.975  -1.266   0.013  0.00  0.00     0.160 A 
ATOM      5  N   UNL d   1       6.753  -1.682   0.983  0.00  0.00    -0.335 N 
ATOM      6  C   UNL d   1       8.076  -1.469   0.639  0.00  0.00     0.051 A 
ATOM      7  HN  UNL d   1       6.433  -2.098   1.858  1.00  0.00     0.168 HD
ATOM      8  C   UNL d   1       9.188  -1.703   1.472  0.00  0.00     0.031 A 
ATOM      9  C   UNL d   1       8.289  -1.008  -0.662  0.00  0.00     0.035 A 
ATOM     10  C   UNL d   1      10.479  -1.517   0.972  0.00  0.00     0.002 A 
ATOM     11  C   UNL d   1      10.671  -1.117  -0.347  0.00  0.00     0.002 A 
ATOM     12  C   UNL d   1       9.583  -0.850  -1.185  0.00  0.00     0.021 A 
ATOM     13  S   UNL d   1       6.759  -0.689  -1.395  0.00  0.00    -0.051 SA
ENDBRANCH   2   4
BRANCH   2  14
ATOM     14  C   UNL d   1       3.991  -2.649  -0.032  0.00  0.00     0.046 A 
ATOM     15  C   UNL d   1       2.599  -2.829  -0.085  0.00  0.00     0.054 A 
ATOM     16  C   UNL d   1       2.033  -4.109  -0.062  0.00  0.00     0.036 A 
ATOM     17 CL   UNL d   1       0.321  -4.287  -0.140  0.00  0.00    -0.084 Cl
ATOM     18  C   UNL d   1       2.830  -5.244   0.026  0.00  0.00     0.024 A 
ATOM     19  C   UNL d   1       4.209  -5.098   0.075  0.00  0.00     0.004 A 
ATOM     20  C   UNL d   1       4.779  -3.821   0.034  0.00  0.00     0.030 A 
ENDBRANCH   2  14
BRANCH   1  21
ATOM     21  C   UNL d   1       4.441   1.002   0.732  0.00  0.00     0.097 C 
ATOM     22  S   UNL d   1       5.040   0.756   2.321  0.00  0.00    -0.082 SA
ATOM     23  C   UNL d   1       5.651   2.353   2.432  0.00  0.00     0.017 A 
ATOM     24  C   UNL d   1       6.468   2.869   3.456  0.00  0.00     0.020 A 
ATOM     25  C   UNL d   1       5.212   3.138   1.363  0.00  0.00     0.004 A 
ATOM     26  C   UNL d   1       6.842   4.212   3.406  0.00  0.00     0.001 A 
ATOM     27  C   UNL d   1       6.389   5.028   2.381  0.00  0.00     0.001 A 
ATOM     28  C   UNL d   1       5.575   4.508   1.370  0.00  0.00     0.014 A 
ATOM     29  C   UNL d   1       4.467   2.345   0.412  0.00  0.00     0.068 C 
ATOM     30 CL   UNL d   1       3.803   3.033  -1.017  0.00  0.00    -0.082 Cl
ENDBRANCH   1  21
TORSDOF 3
