REMARK  2 active torsions:
REMARK  status: ('A' for Active; 'I' for Inactive)
REMARK       I    between atoms: N_2  and  C_1 
REMARK    1  A    between atoms: C_10  and  C_1 
REMARK    2  A    between atoms: C_3  and  N_2 
ROOT
ATOM      1  C   UNL d   1       1.046  -0.005  -0.303  0.00  0.00     0.256 C 
ATOM      2  N   UNL d   1       0.428  -1.222  -0.068  0.00  0.00    -0.323 N 
ATOM      3  O   UNL d   1       0.477   1.072  -0.458  0.00  0.00    -0.267 OA
ATOM      4  H   UNL d   1       1.013  -1.979   0.267  0.00  0.00     0.169 HD
ENDROOT
BRANCH   2   5
ATOM      5  C   UNL d   1      -0.972  -1.429  -0.017  0.00  0.00     0.038 A 
ATOM      6  C   UNL d   1      -1.897  -0.524  -0.547  0.00  0.00     0.053 A 
ATOM      7  C   UNL d   1      -3.268  -0.748  -0.405  0.00  0.00     0.037 A 
ATOM      8 CL   UNL d   1      -4.390   0.388  -1.049  0.00  0.00    -0.084 Cl
ATOM      9  C   UNL d   1      -3.736  -1.876   0.257  0.00  0.00     0.048 A 
ATOM     10  C   UNL d   1      -2.818  -2.796   0.752  0.00  0.00     0.037 A 
ATOM     11  C   UNL d   1      -1.442  -2.589   0.606  0.00  0.00     0.053 A 
ATOM     12 CL   UNL d   1      -3.383  -4.198   1.577  0.00  0.00    -0.084 Cl
ENDBRANCH   2   5
BRANCH   1  13
ATOM     13  C   UNL d   1       2.533  -0.005  -0.297  0.00  0.00     0.032 A 
ATOM     14  C   UNL d   1       3.282  -1.075  -0.800  0.00  0.00     0.017 A 
ATOM     15  C   UNL d   1       4.676  -0.984  -0.845  0.00  0.00     0.001 A 
ATOM     16  C   UNL d   1       5.321   0.168  -0.389  0.00  0.00     0.000 A 
ATOM     17  C   UNL d   1       4.578   1.232   0.119  0.00  0.00     0.001 A 
ATOM     18  C   UNL d   1       3.187   1.147   0.162  0.00  0.00     0.017 A 
ENDBRANCH   1  13
TORSDOF 2
