REMARK  0 active torsions:
REMARK  status: ('A' for Active; 'I' for Inactive)
ROOT
ATOM      1  C   UNL d   1       0.285  -0.753   0.001  0.00  0.00     0.069 A 
ATOM      2  S   UNL d   1       2.566   0.037   0.001  0.00  0.00     0.068 SA
ATOM      3  C   UNL d   1       0.264   0.758  -0.000  0.00  0.00     0.067 A 
ATOM      4  N   UNL d   1       1.527  -1.260   0.001  0.00  0.00    -0.310 N 
ATOM      5  HN  UNL d   1       1.783  -2.248   0.001  1.00  0.00     0.176 HD
ATOM      6  C   UNL d   1      -0.915  -1.498   0.001  0.00  0.00     0.074 A 
ATOM      7  N   UNL d   1       1.489   1.303   0.000  0.00  0.00    -0.310 N 
ATOM      8  HN  UNL d   1       1.716   2.297  -0.000  1.00  0.00     0.176 HD
ATOM      9  C   UNL d   1      -0.961   1.467  -0.001  0.00  0.00     0.035 A 
ATOM     10  C   UNL d   1      -2.091  -0.737   0.000  0.00  0.00     0.118 A 
ATOM     11  C   UNL d   1      -2.124   0.675  -0.001  0.00  0.00     0.044 A 
ATOM     12  F   UNL d   1      -3.263  -1.390   0.001  0.00  0.00    -0.206 F 
ENDROOT
TORSDOF 0
