REMARK  7 active torsions:
REMARK  status: ('A' for Active; 'I' for Inactive)
REMARK    1  A    between atoms: N_5  and  C_1 
REMARK    2  A    between atoms: N_6  and  C_1 
REMARK    3  A    between atoms: N_2  and  N_6 
REMARK    4  A    between atoms: C_10  and  N_5 
REMARK    5  A    between atoms: C_9  and  C_8 
REMARK    6  A    between atoms: C_12  and  C_10 
REMARK    7  A    between atoms: O_17  and  C_11 
ROOT
ATOM      1  N   UNL d   1       2.336   0.057   0.093  0.00  0.00    -0.277 N 
ATOM      2  H   UNL d   1       2.807  -0.640  -0.473  0.00  0.00     0.189 HD
ENDROOT
BRANCH   1   3
ATOM      3  N   UNL d   1       3.041   0.970   0.816  0.00  0.00    -0.309 N 
ATOM      4  C   UNL d   1       4.332   0.925   0.732  0.00  0.00     0.118 C 
ATOM      5  HN  UNL d   1       2.571   1.661   1.400  1.00  0.00     0.186 HD
BRANCH   4   6
ATOM      6  C   UNL d   1       5.144   1.890   1.500  0.00  0.00    -0.019 A 
ATOM      7  C   UNL d   1       4.505   2.825   2.322  0.00  0.00     0.015 A 
ATOM      8  C   UNL d   1       5.249   3.754   3.050  0.00  0.00     0.037 A 
ATOM      9  C   UNL d   1       6.639   3.752   2.957  0.00  0.00     0.068 A 
ATOM     10  C   UNL d   1       7.276   2.801   2.153  0.00  0.00     0.037 A 
ATOM     11  C   UNL d   1       6.537   1.872   1.415  0.00  0.00     0.015 A 
BRANCH   9  12
ATOM     12  O   UNL d   1       7.468   4.599   3.640  0.00  0.00    -0.356 OA
ATOM     13  C   UNL d   1       6.918   5.876   3.954  0.00  0.00     0.210 C 
ENDBRANCH   9  12
ENDBRANCH   4   6
ENDBRANCH   1   3
BRANCH   1  14
ATOM     14  C   UNL d   1       0.962  -0.009   0.228  0.00  0.00     0.186 C 
ATOM     15  S   UNL d   1       0.096  -1.177  -0.582  0.00  0.00    -0.040 SA
BRANCH  14  16
ATOM     16  N   UNL d   1       0.459   0.956   1.063  0.00  0.00    -0.364 N 
ATOM     17  H   UNL d   1       1.212   1.493   1.489  0.00  0.00     0.162 HD
BRANCH  16  18
ATOM     18  C   UNL d   1      -0.808   0.944   1.783  0.00  0.00     0.154 C 
BRANCH  18  19
ATOM     19  C   UNL d   1      -0.633   0.343   3.183  0.00  0.00     0.139 C 
ATOM     20  O   UNL d   1       0.225   1.185   3.987  0.00  0.00    -0.384 OA
ATOM     21  C   UNL d   1      -0.292   1.217   5.325  0.00  0.00     0.168 C 
ATOM     22  C   UNL d   1      -1.447   0.240   5.383  0.00  0.00     0.029 C 
ATOM     23  C   UNL d   1      -1.936   0.236   3.956  0.00  0.00     0.035 C 
ENDBRANCH  18  19
ENDBRANCH  16  18
ENDBRANCH  14  16
ENDBRANCH   1  14
TORSDOF 7
