REMARK  4 active torsions:
REMARK  status: ('A' for Active; 'I' for Inactive)
REMARK    1  A    between atoms: N_4  and  C_1 
REMARK    2  A    between atoms: N_7  and  C_2 
REMARK    3  A    between atoms: C_8  and  C_6 
REMARK    4  A    between atoms: C_12  and  N_7 
ROOT
ATOM      1  C   UNL d   1       1.506   0.671   0.098  0.00  0.00     0.138 A 
ATOM      2  C   UNL d   1       0.247   1.249   0.002  0.00  0.00     0.108 A 
ATOM      3  C   UNL d   1       1.449  -0.763   0.093  0.00  0.00     0.061 A 
ATOM      4  S   UNL d   1      -0.968   0.022   0.050  0.00  0.00    -0.066 SA
ATOM      5  C   UNL d   1       0.156  -1.251   0.076  0.00  0.00     0.054 A 
ENDROOT
BRANCH   2   6
ATOM      6  N   UNL d   1      -0.086   2.576  -0.042  0.00  0.00    -0.349 N 
ATOM      7  H   UNL d   1       0.677   3.254   0.065  0.00  0.00     0.166 HD
BRANCH   6   8
ATOM      8  C   UNL d   1      -1.112   3.131  -0.846  0.00  0.00     0.033 A 
ATOM      9  C   UNL d   1      -1.764   4.287  -0.401  0.00  0.00     0.031 A 
ATOM     10  C   UNL d   1      -2.782   4.871  -1.162  0.00  0.00     0.026 A 
ATOM     11  C   UNL d   1      -3.141   4.310  -2.385  0.00  0.00     0.034 A 
ATOM     12  C   UNL d   1      -2.491   3.173  -2.854  0.00  0.00     0.026 A 
ATOM     13 CL   UNL d   1      -4.388   5.029  -3.327  0.00  0.00    -0.084 Cl
ATOM     14  C   UNL d   1      -1.476   2.591  -2.089  0.00  0.00     0.031 A 
ENDBRANCH   6   8
ENDBRANCH   2   6
BRANCH   1  15
ATOM     15  N   UNL d   1       2.741   1.426   0.159  0.00  0.00    -0.113 N 
ATOM     16  O   UNL d   1       2.656   2.662   0.217  0.00  0.00    -0.532 OA
ATOM     17  O   UNL d   1       3.792   0.774   0.157  0.00  0.00    -0.532 OA
ENDBRANCH   1  15
BRANCH   5  18
ATOM     18  C   UNL d   1      -0.240  -2.653   0.067  0.00  0.00     0.162 C 
ATOM     19  O   UNL d   1       0.580  -3.547  -0.158  0.00  0.00    -0.292 OA
ATOM     20  C   UNL d   1      -1.679  -3.045   0.324  0.00  0.00     0.097 C 
ENDBRANCH   5  18
TORSDOF 4
