REMARK  4 active torsions:
REMARK  status: ('A' for Active; 'I' for Inactive)
REMARK    1  A    between atoms: C_9  and  C_1 
REMARK    2  A    between atoms: C_10  and  C_1 
REMARK    3  A    between atoms: N_11  and  C_6 
REMARK    4  A    between atoms: C_12  and  C_8 
ROOT
ATOM      1  C   UNL d   1       1.393  -0.224   0.061  0.00  0.00     0.308 C 
ATOM      2  N   UNL d   1       0.787   1.097  -0.221  0.00  0.00    -0.314 N 
ATOM      3  HN  UNL d   1       1.389   1.899  -0.408  1.00  0.00     0.166 HD
ATOM      4  N   UNL d   1       0.406  -1.314  -0.106  0.00  0.00    -0.328 N 
ATOM      5  HN  UNL d   1       0.707  -2.283  -0.210  1.00  0.00     0.164 HD
ATOM      6  C   UNL d   1      -0.478   1.241  -0.234  0.00  0.00     0.226 C 
ATOM      7  O   UNL d   1      -1.349   0.229  -0.054  0.00  0.00    -0.262 OA
ATOM      8  C   UNL d   1      -0.836  -1.006  -0.117  0.00  0.00     0.160 C 
ENDROOT
BRANCH   1   9
ATOM      9  C   UNL d   1       2.559  -0.447  -0.964  0.00  0.00     0.441 C 
ATOM     10  F   UNL d   1       2.764   0.651  -1.744  0.00  0.00    -0.166 F 
ATOM     11  F   UNL d   1       3.760  -0.767  -0.447  0.00  0.00    -0.166 F 
ATOM     12  F   UNL d   1       2.255  -1.449  -1.840  0.00  0.00    -0.166 F 
ENDBRANCH   1   9
BRANCH   1  13
ATOM     13  C   UNL d   1       1.967  -0.238   1.518  0.00  0.00     0.441 C 
ATOM     14  F   UNL d   1       1.827   0.973   2.125  0.00  0.00    -0.166 F 
ATOM     15  F   UNL d   1       1.275  -1.109   2.306  0.00  0.00    -0.166 F 
ATOM     16  F   UNL d   1       3.263  -0.575   1.648  0.00  0.00    -0.166 F 
ENDBRANCH   1  13
BRANCH   6  17
ATOM     17  N   UNL d   1      -1.088   2.450  -0.472  0.00  0.00    -0.343 N 
ATOM     18  C   UNL d   1      -2.537   2.673  -0.458  0.00  0.00     0.152 C 
ATOM     19  C   UNL d   1      -2.950   3.489  -1.692  0.00  0.00     0.187 C 
ATOM     20  O   UNL d   1      -2.225   4.726  -1.768  0.00  0.00    -0.388 OA
ATOM     21  C   UNL d   1      -0.815   4.468  -1.860  0.00  0.00     0.187 C 
ATOM     22  C   UNL d   1      -0.308   3.689  -0.637  0.00  0.00     0.152 C 
ENDBRANCH   6  17
BRANCH   8  23
ATOM     23  C   UNL d   1      -1.901  -2.018  -0.307  0.00  0.00     0.015 A 
ATOM     24  C   UNL d   1      -1.556  -3.225  -0.925  0.00  0.00     0.016 A 
ATOM     25  C   UNL d   1      -2.528  -4.190  -1.183  0.00  0.00     0.007 A 
ATOM     26  C   UNL d   1      -3.861  -3.965  -0.819  0.00  0.00    -0.062 A 
ATOM     27  C   UNL d   1      -4.202  -2.767  -0.179  0.00  0.00     0.007 A 
ATOM     28  C   UNL d   1      -4.895  -5.009  -1.124  0.00  0.00     0.048 C 
ATOM     29  C   UNL d   1      -3.228  -1.794   0.077  0.00  0.00     0.016 A 
ENDBRANCH   8  23
TORSDOF 4
