REMARK  2 active torsions:
REMARK  status: ('A' for Active; 'I' for Inactive)
REMARK    1  A    between atoms: C_2  and  C_1 
REMARK    2  A    between atoms: C_12  and  C_7 
ROOT
ATOM      1  C   UNL d   1       3.633   0.167  -0.031  0.00  0.00     0.057 A 
ATOM      2  N   UNL d   1       4.335   0.865   0.936  0.00  0.00    -0.348 N 
ATOM      3  HN  UNL d   1       3.902   1.360   1.716  1.00  0.00     0.166 HD
ATOM      4  C   UNL d   1       5.633   0.808   0.721  0.00  0.00     0.084 A 
ATOM      5  S   UNL d   1       6.086  -0.104  -0.668  0.00  0.00    -0.081 SA
ATOM      6  C   UNL d   1       4.436  -0.441  -0.978  0.00  0.00     0.082 A 
ENDROOT
BRANCH   1   7
ATOM      7  C   UNL d   1       2.125   0.076  -0.018  0.00  0.00     0.039 A 
ATOM      8  S   UNL d   1       1.272  -0.928  -1.110  0.00  0.00    -0.087 SA
ATOM      9  C   UNL d   1      -0.254  -0.521  -0.455  0.00  0.00     0.016 A 
ATOM     10  C   UNL d   1      -1.510  -1.014  -0.863  0.00  0.00     0.019 A 
ATOM     11  C   UNL d   1      -0.127   0.405   0.579  0.00  0.00    -0.012 A 
ATOM     12  C   UNL d   1      -2.661  -0.557  -0.219  0.00  0.00     0.001 A 
ATOM     13  C   UNL d   1      -2.569   0.372   0.805  0.00  0.00     0.001 A 
ATOM     14  C   UNL d   1      -1.320   0.853   1.207  0.00  0.00     0.013 A 
ATOM     15  C   UNL d   1       1.264   0.753   0.838  0.00  0.00    -0.031 A 
ATOM     16  C   UNL d   1       1.619   1.736   1.915  0.00  0.00     0.050 C 
ENDBRANCH   1   7
BRANCH   4  17
ATOM     17  C   UNL d   1       6.641   1.395   1.619  0.00  0.00    -0.002 A 
ATOM     18  C   UNL d   1       6.345   1.509   2.987  0.00  0.00     0.014 A 
ATOM     19  C   UNL d   1       7.282   2.020   3.887  0.00  0.00     0.001 A 
ATOM     20  C   UNL d   1       8.528   2.441   3.429  0.00  0.00     0.000 A 
ATOM     21  C   UNL d   1       8.830   2.363   2.071  0.00  0.00     0.001 A 
ATOM     22  C   UNL d   1       7.892   1.847   1.171  0.00  0.00     0.014 A 
ENDBRANCH   4  17
TORSDOF 2
