REMARK  8 active torsions:
REMARK  status: ('A' for Active; 'I' for Inactive)
REMARK    1  A    between atoms: C_4  and  S_1 
REMARK    2  A    between atoms: N_6  and  S_1 
REMARK    3  A    between atoms: C_2  and  C_3 
REMARK       I    between atoms: C_3  and  N_9 
REMARK    4  A    between atoms: C_5  and  C_7 
REMARK    5  A    between atoms: N_9  and  N_6 
REMARK    6  A    between atoms: O_21  and  C_8 
REMARK    7  A    between atoms: C_13  and  C_24 
REMARK    8  A    between atoms: C_24  and  O_21 
ROOT
ATOM      1  C   UNL d   1      -0.229   1.444   4.154  0.00  0.00     0.107 A 
ATOM      2  C   UNL d   1      -1.469   1.690   3.585  0.00  0.00     0.092 A 
ATOM      3  S   UNL d   1       0.106   2.594   5.402  0.00  0.00    -0.094 SA
ATOM      4  C   UNL d   1      -2.075   2.880   4.109  0.00  0.00     0.045 A 
ATOM      5  C   UNL d   1      -1.341   3.441   5.126  0.00  0.00     0.053 A 
ENDROOT
BRANCH   1   6
ATOM      6  C   UNL d   1       0.738   0.384   3.871  0.00  0.00     0.280 C 
ATOM      7  N   UNL d   1       2.020   0.641   4.336  0.00  0.00    -0.256 N 
ATOM      8  H   UNL d   1       2.239   1.515   4.811  0.00  0.00     0.191 HD
ATOM      9  O   UNL d   1       0.486  -0.658   3.265  0.00  0.00    -0.265 OA
BRANCH   7  10
ATOM     10  N   UNL d   1       3.098  -0.308   4.147  0.00  0.00    -0.220 N 
ATOM     11  H   UNL d   1       2.927  -1.158   3.600  0.00  0.00     0.200 HD
BRANCH  10  12
ATOM     12  S   UNL d   1       4.651   0.160   4.609  0.00  0.00     0.278 S 
ATOM     13  O   UNL d   1       5.079   1.239   3.746  0.00  0.00    -0.199 OA
ATOM     14  O   UNL d   1       4.592   0.368   6.045  0.00  0.00    -0.199 OA
BRANCH  12  15
ATOM     15  C   UNL d   1       5.680  -1.240   4.297  0.00  0.00     0.102 A 
ATOM     16  C   UNL d   1       5.805  -1.794   3.023  0.00  0.00     0.057 A 
ATOM     17 CL   UNL d   1       4.926  -1.243   1.645  0.00  0.00    -0.083 Cl
ATOM     18  C   UNL d   1       6.682  -2.869   2.825  0.00  0.00     0.025 A 
ATOM     19  C   UNL d   1       7.433  -3.381   3.886  0.00  0.00     0.002 A 
ATOM     20  C   UNL d   1       7.312  -2.822   5.155  0.00  0.00     0.002 A 
ATOM     21  C   UNL d   1       6.438  -1.754   5.363  0.00  0.00     0.027 A 
ENDBRANCH  12  15
ENDBRANCH  10  12
ENDBRANCH   7  10
ENDBRANCH   1   6
BRANCH   2  22
ATOM     22  O   UNL d   1      -1.976   0.875   2.617  0.00  0.00    -0.344 OA
BRANCH  22  23
ATOM     23  C   UNL d   1      -3.382   1.039   2.411  0.00  0.00     0.234 C 
BRANCH  23  24
ATOM     24  C   UNL d   1      -3.986  -0.086   1.603  0.00  0.00     0.055 A 
ATOM     25  N   UNL d   1      -4.865  -0.887   2.276  0.00  0.00    -0.365 N 
ATOM     26  C   UNL d   1      -5.525  -1.838   1.579  0.00  0.00     0.104 A 
ATOM     27  HN  UNL d   1      -5.018  -0.771   3.278  1.00  0.00     0.165 HD
ATOM     28  C   UNL d   1      -5.374  -2.038   0.218  0.00  0.00     0.064 A 
ATOM     29  C   UNL d   1      -4.453  -1.226  -0.456  0.00  0.00     0.043 A 
ATOM     30  C   UNL d   1      -3.750  -0.238   0.238  0.00  0.00     0.059 A 
ATOM     31 CL   UNL d   1      -2.683   0.783  -0.648  0.00  0.00    -0.082 Cl
BRANCH  28  32
ATOM     32  C   UNL d   1      -6.208  -3.071  -0.471  0.00  0.00     0.418 C 
ATOM     33  F   UNL d   1      -6.004  -3.127  -1.815  0.00  0.00    -0.166 F 
ATOM     34  F   UNL d   1      -5.981  -4.328  -0.003  0.00  0.00    -0.166 F 
ATOM     35  F   UNL d   1      -7.542  -2.848  -0.308  0.00  0.00    -0.166 F 
ENDBRANCH  28  32
ENDBRANCH  23  24
ENDBRANCH  22  23
ENDBRANCH   2  22
TORSDOF 8
