REMARK  2 active torsions:
REMARK  status: ('A' for Active; 'I' for Inactive)
REMARK    1  A    between atoms: N_3  and  C_1 
REMARK       I    between atoms: C_2  and  N_3 
REMARK       I    between atoms: N_5  and  C_2 
REMARK    2  A    between atoms: C_7  and  N_5 
ROOT
ATOM      1  C   UNL d   1      -2.949   2.227  -0.203  0.00  0.00     0.325 C 
ATOM      2  N   UNL d   1      -1.586   2.268  -0.037  0.00  0.00    -0.303 N 
ATOM      3  N   UNL d   1      -3.494   0.981  -0.367  0.00  0.00    -0.307 N 
ATOM      4  O   UNL d   1      -3.708   3.181  -0.355  0.00  0.00    -0.247 OA
ATOM      5  H   UNL d   1      -1.104   1.385  -0.010  0.00  0.00     0.171 HD
ATOM      6  H   UNL d   1      -4.356   1.036  -0.904  0.00  0.00     0.170 HD
ENDROOT
BRANCH   2   7
ATOM      7  C   UNL d   1      -0.777   3.380  -0.213  0.00  0.00     0.078 A 
ATOM      8  S   UNL d   1      -1.401   4.936  -0.481  0.00  0.00    -0.084 SA
ATOM      9  C   UNL d   1       0.151   5.599  -0.727  0.00  0.00     0.058 A 
ATOM     10  C   UNL d   1       1.157   4.668  -0.560  0.00  0.00    -0.053 A 
ATOM     11  C   UNL d   1       0.603   3.381  -0.242  0.00  0.00     0.044 A 
ATOM     12  C   UNL d   1       2.610   4.956  -0.719  0.00  0.00     0.049 C 
ENDBRANCH   2   7
BRANCH   3  13
ATOM     13  C   UNL d   1      -3.063  -0.310  -0.023  0.00  0.00     0.058 A 
ATOM     14  C   UNL d   1      -3.533  -1.403  -0.776  0.00  0.00     0.062 A 
ATOM     15  C   UNL d   1      -3.189  -2.712  -0.436  0.00  0.00     0.050 A 
ATOM     16 CL   UNL d   1      -4.518  -1.159  -2.178  0.00  0.00    -0.082 Cl
ATOM     17  C   UNL d   1      -2.402  -2.937   0.688  0.00  0.00     0.035 A 
ATOM     18  C   UNL d   1      -1.952  -1.869   1.464  0.00  0.00     0.026 A 
ATOM     19 CL   UNL d   1      -2.003  -4.549   1.135  0.00  0.00    -0.084 Cl
ATOM     20  C   UNL d   1      -2.275  -0.554   1.108  0.00  0.00     0.033 A 
ENDBRANCH   3  13
TORSDOF 2
