REMARK  3 active torsions:
REMARK  status: ('A' for Active; 'I' for Inactive)
REMARK    1  A    between atoms: N_4  and  C_1 
REMARK    2  A    between atoms: N_5  and  C_2 
REMARK    3  A    between atoms: N_6  and  C_3 
ROOT
ATOM      1  C   UNL d   1       1.763  -1.196   0.079  0.00  0.00     0.133 A 
ATOM      2  C   UNL d   1       1.760   1.146  -0.019  0.00  0.00     0.133 A 
ATOM      3  C   UNL d   1       2.577  -0.025   0.005  0.00  0.00     0.097 A 
ATOM      4  C   UNL d   1       0.341   1.153  -0.028  0.00  0.00     0.062 A 
ATOM      5  C   UNL d   1       0.345  -1.218   0.069  0.00  0.00     0.062 A 
ATOM      6  C   UNL d   1      -0.356  -0.034   0.004  0.00  0.00     0.038 A 
ATOM      7 CL   UNL d   1      -2.072  -0.040  -0.032  0.00  0.00    -0.084 Cl
ENDROOT
BRANCH   3   8
ATOM      8  N   UNL d   1       3.967  -0.034  -0.071  0.00  0.00    -0.377 N 
ATOM      9  C   UNL d   1       4.874   1.130  -0.013  0.00  0.00     0.123 C 
ATOM     10  C   UNL d   1       6.132   0.683  -0.745  0.00  0.00     0.021 C 
ATOM     11  C   UNL d   1       6.245  -0.772  -0.374  0.00  0.00     0.021 C 
ATOM     12  C   UNL d   1       4.795  -1.241  -0.300  0.00  0.00     0.123 C 
ENDBRANCH   3   8
BRANCH   2  13
ATOM     13  N   UNL d   1       2.290   2.487  -0.061  0.00  0.00    -0.113 N 
ATOM     14  O   UNL d   1       2.693   2.969   1.008  0.00  0.00    -0.532 OA
ATOM     15  O   UNL d   1       2.241   3.080  -1.149  0.00  0.00    -0.532 OA
ENDBRANCH   2  13
BRANCH   1  16
ATOM     16  N   UNL d   1       2.310  -2.528   0.230  0.00  0.00    -0.113 N 
ATOM     17  O   UNL d   1       2.615  -2.884   1.378  0.00  0.00    -0.532 OA
ATOM     18  O   UNL d   1       2.350  -3.235  -0.783  0.00  0.00    -0.532 OA
ENDBRANCH   1  16
TORSDOF 3
