REMARK  2 active torsions:
REMARK  status: ('A' for Active; 'I' for Inactive)
REMARK    1  A    between atoms: C_8  and  N_4 
REMARK    2  A    between atoms: C_11  and  C_8 
ROOT
ATOM      1  C   UNL d   1      -3.428  -0.724   0.066  0.00  0.00     0.170 C 
ATOM      2  N   UNL d   1      -2.514   0.274   0.082  0.00  0.00    -0.342 N 
ATOM      3  N   UNL d   1      -2.933  -1.984   0.043  0.00  0.00    -0.342 N 
ATOM      4  N   UNL d   1      -0.703  -1.232   0.308  0.00  0.00     0.127 N 
ATOM      5  C   UNL d   1      -1.132   0.051  -0.221  0.00  0.00     0.399 C 
ATOM      6  C   UNL d   1      -1.559  -2.267  -0.245  0.00  0.00     0.399 C 
ATOM      7  S   UNL d   1      -5.056  -0.423   0.135  0.00  0.00    -0.041 SA
ATOM      8  H   UNL d   1      -2.881   1.216   0.031  0.00  0.00     0.163 HD
ATOM      9  H   UNL d   1      -3.610  -2.731  -0.040  0.00  0.00     0.163 HD
ENDROOT
BRANCH   4  10
ATOM     10  C   UNL d   1      -0.636  -1.230   1.776  0.00  0.00     0.316 C 
BRANCH  10  11
ATOM     11  C   UNL d   1      -0.046  -2.494   2.352  0.00  0.00    -0.015 A 
ATOM     12  C   UNL d   1      -0.793  -3.305   3.201  0.00  0.00     0.096 A 
ATOM     13  N   UNL d   1      -0.343  -4.459   3.741  0.00  0.00    -0.375 N 
ATOM     14  C   UNL d   1       0.917  -4.825   3.425  0.00  0.00     0.087 A 
ATOM     15  HN  UNL d   1      -0.926  -5.026   4.357  1.00  0.00     0.164 HD
ATOM     16  C   UNL d   1       1.747  -4.089   2.595  0.00  0.00     0.018 A 
ATOM     17  C   UNL d   1       1.257  -2.905   2.054  0.00  0.00     0.011 A 
ENDBRANCH  10  11
ENDBRANCH   4  10
TORSDOF 2
