REMARK  4 active torsions:
REMARK  status: ('A' for Active; 'I' for Inactive)
REMARK    1  A    between atoms: C_8  and  N_1 
REMARK    2  A    between atoms: O_15  and  C_5 
REMARK    3  A    between atoms: N_16  and  C_7 
REMARK    4  A    between atoms: C_10  and  C_8 
ROOT
ATOM      1  N   UNL d   1      -0.680   1.037  -0.151  0.00  0.00    -0.298 N 
ATOM      2  C   UNL d   1      -1.246  -0.233  -0.394  0.00  0.00     0.181 A 
ATOM      3  N   UNL d   1      -0.460  -1.352  -0.222  0.00  0.00    -0.324 N 
ATOM      4  HN  UNL d   1      -0.872  -2.280  -0.320  1.00  0.00     0.169 HD
ATOM      5  C   UNL d   1       0.681   1.139   0.093  0.00  0.00     0.147 A 
ATOM      6  C   UNL d   1       1.462   0.067   0.190  0.00  0.00     0.098 A 
ATOM      7  C   UNL d   1       0.797  -1.232   0.063  0.00  0.00     0.083 A 
ATOM      8  S   UNL d   1      -2.852  -0.481  -0.889  0.00  0.00    -0.040 SA
ENDROOT
BRANCH   1   9
ATOM      9  C   UNL d   1      -1.520   2.250  -0.086  0.00  0.00     0.198 C 
BRANCH   9  10
ATOM     10  C   UNL d   1      -1.468   2.985  -1.380  0.00  0.00     0.070 A 
ATOM     11  O   UNL d   1      -0.430   3.862  -1.537  0.00  0.00    -0.325 OA
ATOM     12  C   UNL d   1      -0.564   4.415  -2.770  0.00  0.00     0.142 A 
ATOM     13  C   UNL d   1      -1.667   3.905  -3.410  0.00  0.00     0.027 A 
ATOM     14  C   UNL d   1      -2.258   2.986  -2.510  0.00  0.00     0.036 A 
ENDBRANCH   9  10
ENDBRANCH   1   9
BRANCH   5  15
ATOM     15  O   UNL d   1       1.253   2.385   0.227  0.00  0.00    -0.346 OA
ATOM     16  H   UNL d   1       0.809   2.983  -0.404  0.00  0.00     0.219 HD
ENDBRANCH   5  15
BRANCH   7  17
ATOM     17  N   UNL d   1       1.501  -2.389   0.242  0.00  0.00    -0.288 NA
ATOM     18  H   UNL d   1       2.466  -2.394  -0.064  0.00  0.00     0.125 HD
ATOM     19  H   UNL d   1       0.978  -3.206  -0.059  0.00  0.00     0.125 HD
ENDBRANCH   7  17
TORSDOF 4
