REMARK  10 active torsions:
REMARK  status: ('A' for Active; 'I' for Inactive)
REMARK    1  A    between atoms: C_3  and  S_1 
REMARK    2  A    between atoms: C_7  and  S_1 
REMARK    3  A    between atoms: C_2  and  O_6 
REMARK    4  A    between atoms: C_8  and  C_3 
REMARK    5  A    between atoms: O_6  and  C_13 
REMARK    6  A    between atoms: C_16  and  C_7 
REMARK    7  A    between atoms: C_15  and  C_8 
REMARK    8  A    between atoms: O_21  and  C_8 
REMARK    9  A    between atoms: O_12  and  C_15 
REMARK   10  A    between atoms: C_14  and  O_12 
ROOT
ATOM      1  C   UNL d   1       0.910   2.047   1.539  0.00  0.00     0.156 C 
ENDROOT
BRANCH   1   2
ATOM      2  C   UNL d   1       0.302   1.681   0.187  0.00  0.00     0.174 C 
BRANCH   2   3
ATOM      3  S   UNL d   1       0.615  -0.008  -0.266  0.00  0.00     0.150 S 
ATOM      4  O   UNL d   1       0.246  -0.827   0.878  0.00  0.00    -0.228 OA
ATOM      5  O   UNL d   1       1.967  -0.097  -0.791  0.00  0.00    -0.228 OA
BRANCH   3   6
ATOM      6  C   UNL d   1      -0.563  -0.388  -1.563  0.00  0.00     0.178 C 
BRANCH   6   7
ATOM      7  C   UNL d   1      -0.488   0.524  -2.763  0.00  0.00    -0.044 A 
ATOM      8  C   UNL d   1       0.676   0.644  -3.537  0.00  0.00     0.008 A 
ATOM      9  C   UNL d   1       0.684   1.406  -4.709  0.00  0.00     0.001 A 
ATOM     10  C   UNL d   1      -0.476   2.043  -5.140  0.00  0.00     0.000 A 
ATOM     11  C   UNL d   1      -1.646   1.919  -4.397  0.00  0.00     0.001 A 
ATOM     12  C   UNL d   1      -1.653   1.166  -3.220  0.00  0.00     0.008 A 
ENDBRANCH   6   7
ENDBRANCH   3   6
ENDBRANCH   2   3
ENDBRANCH   1   2
BRANCH   1  13
ATOM     13  C   UNL d   1       2.446   2.003   1.659  0.00  0.00     0.208 C 
BRANCH  13  14
ATOM     14  O   UNL d   1       3.038   2.892   0.704  0.00  0.00    -0.349 OA
BRANCH  14  15
ATOM     15  C   UNL d   1       4.409   2.948   0.722  0.00  0.00     0.069 A 
ATOM     16  C   UNL d   1       5.012   3.282  -0.490  0.00  0.00     0.039 A 
ATOM     17  C   UNL d   1       6.405   3.372  -0.593  0.00  0.00     0.040 A 
ATOM     18  C   UNL d   1       7.219   3.134   0.516  0.00  0.00     0.078 A 
ATOM     19  C   UNL d   1       6.619   2.867   1.749  0.00  0.00     0.040 A 
ATOM     20  C   UNL d   1       5.222   2.763   1.845  0.00  0.00     0.039 A 
BRANCH  18  21
ATOM     21  O   UNL d   1       8.553   3.280   0.296  0.00  0.00    -0.255 OA
BRANCH  21  22
ATOM     22  C   UNL d   1       9.468   2.426   0.971  0.00  0.00     0.530 C 
ATOM     23  F   UNL d   1       8.891   1.515   1.781  0.00  0.00    -0.144 F 
ATOM     24  F   UNL d   1      10.199   1.759   0.048  0.00  0.00    -0.144 F 
ATOM     25  F   UNL d   1      10.316   3.180   1.706  0.00  0.00    -0.144 F 
ENDBRANCH  21  22
ENDBRANCH  18  21
ENDBRANCH  14  15
ENDBRANCH  13  14
ENDBRANCH   1  13
BRANCH   1  26
ATOM     26  O   UNL d   1       0.463   3.381   1.855  0.00  0.00    -0.393 OA
ATOM     27  H   UNL d   1       1.014   3.992   1.329  0.00  0.00     0.210 HD
ENDBRANCH   1  26
TORSDOF 10
