REMARK  4 active torsions:
REMARK  status: ('A' for Active; 'I' for Inactive)
REMARK       I    between atoms: N_6  and  C_1 
REMARK       I    between atoms: N_7  and  C_1 
REMARK    1  A    between atoms: N_2  and  N_7 
REMARK    2  A    between atoms: N_4  and  N_6 
REMARK    3  A    between atoms: C_11  and  C_9 
REMARK    4  A    between atoms: C_12  and  C_10 
ROOT
ATOM      1  C   UNL d   1       0.988  -0.092   0.118  0.00  0.00     0.353 C 
ATOM      2  N   UNL d   1       0.311  -0.992  -0.712  0.00  0.00    -0.251 N 
ATOM      3  N   UNL d   1       0.095   0.723   0.814  0.00  0.00    -0.251 N 
ATOM      4  O   UNL d   1       2.210  -0.033   0.223  0.00  0.00    -0.244 OA
ATOM      5  H   UNL d   1      -0.698  -1.010  -0.740  0.00  0.00     0.191 HD
ATOM      6  H   UNL d   1      -0.894   0.670   0.625  0.00  0.00     0.191 HD
ENDROOT
BRANCH   2   7
ATOM      7  N   UNL d   1       1.020  -1.881  -1.462  0.00  0.00    -0.307 N 
ATOM      8  C   UNL d   1       0.345  -2.692  -2.211  0.00  0.00     0.118 C 
ATOM      9  HN  UNL d   1       2.040  -1.905  -1.435  1.00  0.00     0.186 HD
BRANCH   8  10
ATOM     10  C   UNL d   1       1.038  -3.692  -3.056  0.00  0.00    -0.019 A 
ATOM     11  C   UNL d   1       2.437  -3.772  -3.051  0.00  0.00     0.016 A 
ATOM     12  C   UNL d   1       3.085  -4.713  -3.853  0.00  0.00     0.043 A 
ATOM     13  C   UNL d   1       2.332  -5.564  -4.654  0.00  0.00     0.116 A 
ATOM     14  C   UNL d   1       0.942  -5.495  -4.665  0.00  0.00     0.043 A 
ATOM     15  F   UNL d   1       2.953  -6.464  -5.426  0.00  0.00    -0.206 F 
ATOM     16  C   UNL d   1       0.286  -4.556  -3.861  0.00  0.00     0.016 A 
ENDBRANCH   8  10
ENDBRANCH   2   7
BRANCH   3  17
ATOM     17  N   UNL d   1       0.557   1.694   1.660  0.00  0.00    -0.307 N 
ATOM     18  C   UNL d   1      -0.351   2.411   2.240  0.00  0.00     0.118 C 
ATOM     19  HN  UNL d   1       1.553   1.843   1.823  1.00  0.00     0.186 HD
BRANCH  18  20
ATOM     20  C   UNL d   1      -0.010   3.519   3.156  0.00  0.00    -0.019 A 
ATOM     21  C   UNL d   1       1.324   3.839   3.435  0.00  0.00     0.016 A 
ATOM     22  C   UNL d   1       1.617   4.919   4.271  0.00  0.00     0.043 A 
ATOM     23  C   UNL d   1       0.578   5.663   4.822  0.00  0.00     0.116 A 
ATOM     24  C   UNL d   1      -0.751   5.343   4.562  0.00  0.00     0.043 A 
ATOM     25  F   UNL d   1       0.860   6.707   5.612  0.00  0.00    -0.206 F 
ATOM     26  C   UNL d   1      -1.050   4.266   3.725  0.00  0.00     0.016 A 
ENDBRANCH  18  20
ENDBRANCH   3  17
TORSDOF 4
