REMARK  4 active torsions:
REMARK  status: ('A' for Active; 'I' for Inactive)
REMARK    1  A    between atoms: O_3  and  C_1 
REMARK    2  A    between atoms: C_4  and  O_3 
REMARK       I    between atoms: C_5  and  N_6 
REMARK    3  A    between atoms: C_17  and  C_5 
REMARK    4  A    between atoms: N_6  and  C_10 
ROOT
ATOM      1  C   UNL d   1       2.725   2.857   0.539  0.00  0.00     0.176 A 
ATOM      2  C   UNL d   1       3.198   2.929  -0.784  0.00  0.00     0.087 A 
ATOM      3  N   UNL d   1       3.041   3.726   1.519  0.00  0.00    -0.345 N 
ATOM      4  HN  UNL d   1       2.649   3.655   2.458  1.00  0.00     0.167 HD
ATOM      5  C   UNL d   1       4.133   3.910  -1.085  0.00  0.00     0.035 A 
ATOM      6  C   UNL d   1       3.914   4.698   1.173  0.00  0.00     0.090 A 
ATOM      7  C   UNL d   1       4.495   4.817  -0.086  0.00  0.00     0.019 A 
ENDROOT
BRANCH   1   8
ATOM      8  O   UNL d   1       1.893   1.777   0.779  0.00  0.00    -0.274 OA
BRANCH   8   9
ATOM      9  C   UNL d   1       1.657   1.262   2.022  0.00  0.00     0.163 A 
ATOM     10  C   UNL d   1       2.639   0.841   2.950  0.00  0.00     0.042 A 
ATOM     11  C   UNL d   1       2.152  -0.035   3.935  0.00  0.00     0.049 A 
ATOM     12  C   UNL d   1       4.026   1.162   2.983  0.00  0.00     0.020 A 
ATOM     13  C   UNL d   1       3.016  -0.587   4.868  0.00  0.00     0.054 A 
ATOM     14  N   UNL d   1       0.870  -0.407   4.026  0.00  0.00    -0.351 N 
ATOM     15  C   UNL d   1       4.368  -0.255   4.886  0.00  0.00     0.036 A 
ATOM     16  C   UNL d   1       4.877   0.639   3.964  0.00  0.00     0.025 A 
ATOM     17 CL   UNL d   1       5.405  -0.967   6.061  0.00  0.00    -0.084 Cl
ATOM     18  C   UNL d   1       0.030   0.089   3.114  0.00  0.00     0.182 A 
ATOM     19  HN  UNL d   1       0.548  -1.041   4.758  1.00  0.00     0.166 HD
ATOM     20  N   UNL d   1       0.360   0.885   2.105  0.00  0.00    -0.332 N 
ATOM     21  HN  UNL d   1      -0.332   1.199   1.424  1.00  0.00     0.168 HD
ENDBRANCH   8   9
ENDBRANCH   1   8
BRANCH   2  22
ATOM     22  N   UNL d   1       2.659   2.047  -1.744  0.00  0.00    -0.319 N 
ATOM     23  C   UNL d   1       3.244   1.640  -2.919  0.00  0.00     0.256 C 
ATOM     24  O   UNL d   1       4.381   1.864  -3.305  0.00  0.00    -0.267 OA
ATOM     25  H   UNL d   1       1.794   1.587  -1.471  0.00  0.00     0.169 HD
BRANCH  23  26
ATOM     26  C   UNL d   1       2.342   0.787  -3.722  0.00  0.00     0.032 A 
ATOM     27  C   UNL d   1       1.380   1.397  -4.534  0.00  0.00     0.020 A 
ATOM     28  C   UNL d   1       0.449   0.602  -5.203  0.00  0.00     0.043 A 
ATOM     29  C   UNL d   1       0.488  -0.781  -5.047  0.00  0.00     0.116 A 
ATOM     30  C   UNL d   1       1.452  -1.391  -4.248  0.00  0.00     0.043 A 
ATOM     31  F   UNL d   1      -0.427  -1.538  -5.668  0.00  0.00    -0.206 F 
ATOM     32  C   UNL d   1       2.392  -0.604  -3.579  0.00  0.00     0.020 A 
ENDBRANCH  23  26
ENDBRANCH   2  22
TORSDOF 4
