REMARK  4 active torsions:
REMARK  status: ('A' for Active; 'I' for Inactive)
REMARK       I    between atoms: N_2  and  C_1 
REMARK       I    between atoms: N_3  and  C_1 
REMARK    1  A    between atoms: C_8  and  N_2 
REMARK    2  A    between atoms: C_12  and  N_2 
REMARK    3  A    between atoms: C_7  and  N_3 
REMARK    4  A    between atoms: C_9  and  C_12 
ROOT
ATOM      1  N   UNL d   1       0.649  -4.196  -2.529  0.00  0.00    -0.197 NA
ATOM      2  C   UNL d   1       1.260  -3.215  -2.409  0.00  0.00     0.060 C 
ATOM      3  C   UNL d   1       2.033  -1.979  -2.284  0.00  0.00     0.144 C 
ENDROOT
BRANCH   3   4
ATOM      4  C   UNL d   1       1.127  -0.743  -2.266  0.00  0.00     0.142 C 
BRANCH   4   5
ATOM      5  N   UNL d   1       0.230  -0.632  -1.095  0.00  0.00    -0.329 N 
ATOM      6  C   UNL d   1       0.893  -0.323   0.103  0.00  0.00     0.323 C 
ATOM      7  N   UNL d   1       0.102   0.004   1.178  0.00  0.00    -0.309 N 
ATOM      8  O   UNL d   1       2.123  -0.328   0.138  0.00  0.00    -0.247 OA
ATOM      9  H   UNL d   1      -0.873  -0.237   1.132  0.00  0.00     0.170 HD
BRANCH   7  10
ATOM     10  C   UNL d   1       0.531   0.561   2.408  0.00  0.00     0.036 A 
ATOM     11  C   UNL d   1       1.857   0.914   2.686  0.00  0.00     0.032 A 
ATOM     12  C   UNL d   1       2.198   1.529   3.894  0.00  0.00     0.044 A 
ATOM     13  C   UNL d   1       1.210   1.795   4.829  0.00  0.00     0.116 A 
ATOM     14  C   UNL d   1      -0.110   1.437   4.587  0.00  0.00     0.044 A 
ATOM     15  F   UNL d   1       1.531   2.411   5.974  0.00  0.00    -0.206 F 
ATOM     16  C   UNL d   1      -0.449   0.816   3.380  0.00  0.00     0.032 A 
ENDBRANCH   7  10
BRANCH   5  17
ATOM     17  C   UNL d   1      -1.215  -0.399  -1.358  0.00  0.00     0.080 C 
ATOM     18  C   UNL d   1      -1.473   1.061  -1.741  0.00  0.00     0.032 C 
ATOM     19  C   UNL d   1      -1.823  -1.354  -2.392  0.00  0.00     0.032 C 
ENDBRANCH   5  17
ENDBRANCH   4   5
ENDBRANCH   3   4
TORSDOF 4
