REMARK  7 active torsions:
REMARK  status: ('A' for Active; 'I' for Inactive)
REMARK    1  A    between atoms: C_2  and  C_1 
REMARK       I    between atoms: N_10  and  C_2 
REMARK    2  A    between atoms: C_4  and  C_8 
REMARK    3  A    between atoms: C_5  and  O_14 
REMARK    4  A    between atoms: C_21  and  C_6 
REMARK       I    between atoms: C_7  and  N_12 
REMARK       I    between atoms: N_13  and  C_7 
REMARK    5  A    between atoms: N_12  and  N_10 
REMARK    6  A    between atoms: C_20  and  N_13 
REMARK    7  A    between atoms: O_14  and  C_22 
ROOT
ATOM      1  C   UNL d   1      -0.568  -2.343   0.237  0.00  0.00     0.293 C 
ATOM      2  N   UNL d   1       0.381  -3.300   0.535  0.00  0.00    -0.260 N 
ATOM      3  O   UNL d   1      -0.313  -1.419  -0.538  0.00  0.00    -0.264 OA
ATOM      4  H   UNL d   1       0.178  -4.112   1.118  0.00  0.00     0.190 HD
ENDROOT
BRANCH   2   5
ATOM      5  N   UNL d   1       1.591  -3.313  -0.199  0.00  0.00    -0.248 N 
ATOM      6  C   UNL d   1       2.535  -4.261   0.165  0.00  0.00     0.339 C 
ATOM      7  N   UNL d   1       3.692  -4.159  -0.586  0.00  0.00    -0.308 N 
ATOM      8  O   UNL d   1       2.291  -5.085   1.041  0.00  0.00    -0.245 OA
ATOM      9  H   UNL d   1       3.690  -3.467  -1.321  0.00  0.00     0.170 HD
ATOM     10  H   UNL d   1       1.891  -2.399  -0.527  0.00  0.00     0.192 HD
BRANCH   7  11
ATOM     11  C   UNL d   1       4.881  -4.906  -0.416  0.00  0.00     0.036 A 
ATOM     12  C   UNL d   1       5.025  -5.901   0.546  0.00  0.00     0.032 A 
ATOM     13  C   UNL d   1       6.262  -6.514   0.754  0.00  0.00     0.039 A 
ATOM     14  C   UNL d   1       7.380  -6.168  -0.006  0.00  0.00     0.078 A 
ATOM     15  C   UNL d   1       7.237  -5.208  -1.003  0.00  0.00     0.039 A 
ATOM     16  C   UNL d   1       5.988  -4.593  -1.218  0.00  0.00     0.032 A 
BRANCH  14  17
ATOM     17  O   UNL d   1       8.511  -6.814   0.379  0.00  0.00    -0.255 OA
BRANCH  17  18
ATOM     18  C   UNL d   1       9.628  -6.922  -0.483  0.00  0.00     0.530 C 
ATOM     19  F   UNL d   1       9.335  -6.716  -1.782  0.00  0.00    -0.144 F 
ATOM     20  F   UNL d   1      10.588  -6.054  -0.101  0.00  0.00    -0.144 F 
ATOM     21  F   UNL d   1      10.125  -8.175  -0.365  0.00  0.00    -0.144 F 
ENDBRANCH  17  18
ENDBRANCH  14  17
ENDBRANCH   7  11
ENDBRANCH   2   5
BRANCH   1  22
ATOM     22  C   UNL d   1      -1.858  -2.509   0.878  0.00  0.00     0.146 A 
ATOM     23  O   UNL d   1      -2.069  -3.496   1.814  0.00  0.00    -0.296 OA
ATOM     24  C   UNL d   1      -3.366  -3.377   2.217  0.00  0.00     0.130 A 
ATOM     25  C   UNL d   1      -3.996  -2.350   1.560  0.00  0.00     0.050 A 
ATOM     26  C   UNL d   1      -3.026  -1.786   0.702  0.00  0.00     0.046 A 
BRANCH  24  27
ATOM     27  C   UNL d   1      -3.862  -4.267   3.205  0.00  0.00    -0.036 C 
ATOM     28  C   UNL d   1      -4.375  -4.958   4.045  0.00  0.00    -0.059 C 
BRANCH  28  29
ATOM     29  C   UNL d   1      -5.028  -5.740   5.054  0.00  0.00     0.018 A 
ATOM     30  C   UNL d   1      -6.417  -5.658   5.217  0.00  0.00     0.020 A 
ATOM     31  C   UNL d   1      -7.052  -6.401   6.214  0.00  0.00     0.001 A 
ATOM     32  C   UNL d   1      -6.306  -7.223   7.053  0.00  0.00     0.000 A 
ATOM     33  C   UNL d   1      -4.919  -7.311   6.892  0.00  0.00     0.001 A 
ATOM     34  C   UNL d   1      -4.283  -6.568   5.892  0.00  0.00     0.020 A 
ENDBRANCH  28  29
ENDBRANCH  24  27
ENDBRANCH   1  22
TORSDOF 7
