REMARK  5 active torsions:
REMARK  status: ('A' for Active; 'I' for Inactive)
REMARK    1  A    between atoms: C_7  and  N_1 
REMARK    2  A    between atoms: C_4  and  C_3 
REMARK    3  A    between atoms: C_5  and  C_4 
REMARK       I    between atoms: N_8  and  C_5 
REMARK    4  A    between atoms: C_14  and  C_7 
REMARK    5  A    between atoms: C_11  and  N_8 
ROOT
ATOM      1  N   UNL d   1       0.296   1.425   0.068  0.00  0.00    -0.344 N 
ATOM      2  C   UNL d   1       0.846   0.317   0.719  0.00  0.00     0.254 C 
ATOM      3  C   UNL d   1       0.097  -1.008   0.431  0.00  0.00     0.320 C 
ATOM      4  N   UNL d   1      -1.329  -0.855   0.825  0.00  0.00     0.099 N 
ATOM      5  O   UNL d   1       1.870   0.374   1.398  0.00  0.00    -0.271 OA
ATOM      6  C   UNL d   1      -1.162   1.549   0.142  0.00  0.00     0.156 C 
ATOM      7  C   UNL d   1      -1.921   0.215   0.003  0.00  0.00     0.290 C 
ATOM      8  H   UNL d   1      -1.820  -1.728   0.630  0.00  0.00     0.317 HD
ENDROOT
BRANCH   3   9
ATOM      9  C   UNL d   1       0.752  -2.181   1.160  0.00  0.00     0.148 C 
BRANCH   9  10
ATOM     10  C   UNL d   1       2.085  -2.488   0.491  0.00  0.00     0.224 C 
ATOM     11  N   UNL d   1       3.171  -2.045   1.218  0.00  0.00    -0.327 N 
ATOM     12  H   UNL d   1       2.957  -1.537   2.071  0.00  0.00     0.169 HD
ATOM     13  O   UNL d   1       2.112  -3.044  -0.604  0.00  0.00    -0.273 OA
BRANCH  11  14
ATOM     14  C   UNL d   1       4.520  -1.982   0.820  0.00  0.00     0.034 A 
ATOM     15  C   UNL d   1       4.984  -2.345  -0.443  0.00  0.00     0.030 A 
ATOM     16  C   UNL d   1       6.334  -2.172  -0.776  0.00  0.00     0.009 A 
ATOM     17  C   UNL d   1       7.239  -1.644   0.151  0.00  0.00    -0.062 A 
ATOM     18  C   UNL d   1       6.780  -1.313   1.428  0.00  0.00     0.009 A 
ATOM     19  C   UNL d   1       8.682  -1.465  -0.217  0.00  0.00     0.048 C 
ATOM     20  C   UNL d   1       5.431  -1.471   1.754  0.00  0.00     0.030 A 
ENDBRANCH  11  14
ENDBRANCH   9  10
ENDBRANCH   3   9
BRANCH   1  21
ATOM     21  C   UNL d   1       1.077   2.654   0.064  0.00  0.00     0.164 C 
BRANCH  21  22
ATOM     22  C   UNL d   1       1.017   3.392  -1.254  0.00  0.00    -0.040 A 
ATOM     23  C   UNL d   1       0.422   4.658  -1.341  0.00  0.00     0.009 A 
ATOM     24  C   UNL d   1       0.443   5.368  -2.544  0.00  0.00     0.001 A 
ATOM     25  C   UNL d   1       1.053   4.821  -3.669  0.00  0.00     0.000 A 
ATOM     26  C   UNL d   1       1.635   3.557  -3.601  0.00  0.00     0.001 A 
ATOM     27  C   UNL d   1       1.613   2.845  -2.400  0.00  0.00     0.009 A 
ENDBRANCH  21  22
ENDBRANCH   1  21
TORSDOF 5
