REMARK  4 active torsions:
REMARK  status: ('A' for Active; 'I' for Inactive)
REMARK    1  A    between atoms: C_2  and  C_1 
REMARK       I    between atoms: N_6  and  C_2 
REMARK    2  A    between atoms: C_5  and  C_8 
REMARK    3  A    between atoms: C_10  and  N_6 
REMARK    4  A    between atoms: N_9  and  C_11 
ROOT
ATOM      1  C   UNL d   1      -3.276   0.470   0.872  0.00  0.00     0.237 C 
ATOM      2  N   UNL d   1      -3.867   1.338  -0.052  0.00  0.00    -0.223 NA
ATOM      3  O   UNL d   1      -2.180   0.619   1.386  0.00  0.00    -0.274 OA
ATOM      4  H   UNL d   1      -4.866   1.412   0.089  0.00  0.00     0.137 HD
ENDROOT
BRANCH   1   5
ATOM      5  C   UNL d   1      -4.150  -0.650   1.357  0.00  0.00     0.049 A 
ATOM      6  C   UNL d   1      -4.993  -1.412   0.548  0.00  0.00     0.021 A 
ATOM      7  N   UNL d   1      -5.844  -2.344   1.056  0.00  0.00    -0.355 N 
ATOM      8  C   UNL d   1      -5.088  -1.277  -0.936  0.00  0.00     0.069 C 
ATOM      9  C   UNL d   1      -5.868  -2.577   2.395  0.00  0.00     0.117 A 
ATOM     10  HN  UNL d   1      -6.462  -2.866   0.434  1.00  0.00     0.166 HD
ATOM     11  C   UNL d   1      -4.989  -1.921   3.253  0.00  0.00     0.035 A 
ATOM     12  C   UNL d   1      -4.128  -0.952   2.727  0.00  0.00     0.021 A 
BRANCH   9  13
ATOM     13  C   UNL d   1      -6.950  -3.492   2.955  0.00  0.00     0.432 C 
ATOM     14  F   UNL d   1      -7.787  -4.006   2.009  0.00  0.00    -0.165 F 
ATOM     15  F   UNL d   1      -6.454  -4.562   3.638  0.00  0.00    -0.165 F 
ATOM     16  F   UNL d   1      -7.760  -2.835   3.838  0.00  0.00    -0.165 F 
ENDBRANCH   9  13
ENDBRANCH   1   5
BRANCH   2  17
ATOM     17  C   UNL d   1      -3.241   2.592  -0.322  0.00  0.00     0.042 A 
ATOM     18  C   UNL d   1      -2.229   2.766  -1.303  0.00  0.00     0.052 A 
ATOM     19  C   UNL d   1      -1.652   4.056  -1.371  0.00  0.00     0.031 A 
ATOM     20  C   UNL d   1      -2.061   5.117  -0.557  0.00  0.00     0.002 A 
ATOM     21  C   UNL d   1      -3.093   4.932   0.347  0.00  0.00     0.002 A 
ATOM     22  C   UNL d   1      -3.689   3.677   0.458  0.00  0.00     0.026 A 
BRANCH  18  23
ATOM     23  N   UNL d   1      -1.849   1.822  -2.243  0.00  0.00    -0.375 N 
ATOM     24  C   UNL d   1      -0.468   1.703  -2.744  0.00  0.00     0.149 C 
ATOM     25  C   UNL d   1      -0.492   1.606  -4.278  0.00  0.00     0.187 C 
ATOM     26  O   UNL d   1      -1.285   0.489  -4.714  0.00  0.00    -0.388 OA
ATOM     27  C   UNL d   1      -2.638   0.640  -4.260  0.00  0.00     0.187 C 
ATOM     28  C   UNL d   1      -2.735   0.761  -2.727  0.00  0.00     0.149 C 
ENDBRANCH  18  23
ENDBRANCH   2  17
TORSDOF 4
