REMARK  6 active torsions:
REMARK  status: ('A' for Active; 'I' for Inactive)
REMARK    1  A    between atoms: C_2  and  S_1 
REMARK    2  A    between atoms: N_4  and  S_1 
REMARK    3  A    between atoms: C_15  and  N_4 
REMARK       I    between atoms: C_6  and  N_11 
REMARK    4  A    between atoms: C_13  and  C_6 
REMARK    5  A    between atoms: C_14  and  C_7 
REMARK    6  A    between atoms: N_11  and  C_14 
ROOT
ATOM      1  C   UNL d   1       0.489  -1.229   1.318  0.00  0.00     0.115 A 
ATOM      2  S   UNL d   1      -0.278  -0.665   2.742  0.00  0.00    -0.080 SA
ATOM      3  C   UNL d   1       0.766  -2.580   1.400  0.00  0.00     0.033 A 
ATOM      4  C   UNL d   1      -0.224  -2.216   3.480  0.00  0.00     0.002 A 
ATOM      5  C   UNL d   1       0.357  -3.147   2.641  0.00  0.00     0.018 A 
ENDROOT
BRANCH   1   6
ATOM      6  S   UNL d   1       0.818  -0.021   0.049  0.00  0.00     0.248 S 
ATOM      7  O   UNL d   1       1.415  -0.763  -1.040  0.00  0.00    -0.205 OA
ATOM      8  O   UNL d   1       1.532   1.046   0.714  0.00  0.00    -0.205 OA
BRANCH   6   9
ATOM      9  N   UNL d   1      -0.635   0.651  -0.487  0.00  0.00    -0.211 NA
ATOM     10  H   UNL d   1      -0.500   1.663  -0.536  0.00  0.00     0.140 HD
BRANCH   9  11
ATOM     11  C   UNL d   1      -1.300   0.087  -1.690  0.00  0.00     0.071 C 
ATOM     12  C   UNL d   1      -2.505   0.980  -2.040  0.00  0.00     0.020 C 
ATOM     13  C   UNL d   1      -3.643   0.867  -1.024  0.00  0.00     0.002 C 
ATOM     14  C   UNL d   1      -4.060  -0.582  -0.789  0.00  0.00     0.000 C 
ATOM     15  C   UNL d   1      -2.869  -1.464  -0.433  0.00  0.00     0.002 C 
ATOM     16  C   UNL d   1      -1.765  -1.356  -1.483  0.00  0.00     0.020 C 
ENDBRANCH   9  11
ENDBRANCH   6   9
ENDBRANCH   1   6
BRANCH   4  17
ATOM     17  C   UNL d   1      -0.757  -2.428   4.864  0.00  0.00     0.169 C 
BRANCH  17  18
ATOM     18  N   UNL d   1       0.302  -2.187   5.815  0.00  0.00    -0.352 N 
ATOM     19  C   UNL d   1       0.078  -2.320   7.169  0.00  0.00     0.251 C 
ATOM     20  O   UNL d   1      -0.993  -2.678   7.638  0.00  0.00    -0.268 OA
ATOM     21  H   UNL d   1       1.247  -2.085   5.468  0.00  0.00     0.163 HD
BRANCH  19  22
ATOM     22  C   UNL d   1       1.238  -2.026   8.062  0.00  0.00     0.032 A 
ATOM     23  C   UNL d   1       2.241  -1.121   7.692  0.00  0.00     0.017 A 
ATOM     24  C   UNL d   1       3.301  -0.855   8.561  0.00  0.00     0.001 A 
ATOM     25  C   UNL d   1       3.362  -1.484   9.804  0.00  0.00     0.000 A 
ATOM     26  C   UNL d   1       2.360  -2.377  10.184  0.00  0.00     0.001 A 
ATOM     27  C   UNL d   1       1.297  -2.645   9.318  0.00  0.00     0.017 A 
ENDBRANCH  19  22
ENDBRANCH  17  18
ENDBRANCH   4  17
TORSDOF 6
