REMARK  2 active torsions:
REMARK  status: ('A' for Active; 'I' for Inactive)
REMARK    1  A    between atoms: C_12  and  C_7 
REMARK       I    between atoms: C_8  and  N_9 
REMARK    2  A    between atoms: N_9  and  C_13 
ROOT
ATOM      1  C   UNL d   1       1.600  -3.110   0.022  0.00  0.00    -0.034 A 
ATOM      2  C   UNL d   1       1.388  -5.925  -0.081  0.00  0.00     0.034 A 
ATOM      3  C   UNL d   1       0.977  -3.733  -1.063  0.00  0.00     0.013 A 
ATOM      4  C   UNL d   1       2.127  -3.895   1.043  0.00  0.00     0.013 A 
ATOM      5  C   UNL d   1       0.872  -5.132  -1.117  0.00  0.00     0.030 A 
ATOM      6  C   UNL d   1       2.022  -5.289   0.986  0.00  0.00     0.030 A 
ENDROOT
BRANCH   1   7
ATOM      7  C   UNL d   1       1.690  -1.652   0.088  0.00  0.00     0.047 C 
ATOM      8  C   UNL d   1       0.761  -0.887   0.673  0.00  0.00     0.111 A 
ATOM      9  N   UNL d   1      -0.377  -1.292   1.319  0.00  0.00    -0.335 N 
ATOM     10  C   UNL d   1       0.860   0.597   0.679  0.00  0.00     0.316 A 
ATOM     11  C   UNL d   1      -0.902  -0.169   1.686  0.00  0.00     0.124 A 
ATOM     12  HN  UNL d   1      -0.722  -2.239   1.472  1.00  0.00     0.168 HD
ATOM     13  C   UNL d   1      -2.164  -0.002   2.447  0.00  0.00     0.098 C 
ATOM     14  O   UNL d   1      -0.259   0.972   1.358  0.00  0.00    -0.261 OA
ATOM     15  O   UNL d   1       1.707   1.317   0.193  0.00  0.00    -0.257 OA
ENDBRANCH   1   7
BRANCH   2  16
ATOM     16  N   UNL d   1       1.228  -7.331  -0.166  0.00  0.00    -0.328 N 
ATOM     17  C   UNL d   1       1.636  -8.257   0.782  0.00  0.00     0.218 C 
ATOM     18  O   UNL d   1       2.219  -8.022   1.837  0.00  0.00    -0.274 OA
ATOM     19  C   UNL d   1       1.304  -9.683   0.436  0.00  0.00     0.117 C 
ATOM     20  H   UNL d   1       0.748  -7.679  -0.986  0.00  0.00     0.169 HD
ENDBRANCH   2  16
TORSDOF 2
