REMARK  4 active torsions:
REMARK  status: ('A' for Active; 'I' for Inactive)
REMARK    1  A    between atoms: C_2  and  O_10 
REMARK    2  A    between atoms: N_5  and  C_3 
REMARK    3  A    between atoms: C_15  and  N_5 
REMARK    4  A    between atoms: O_10  and  C_17 
ROOT
ATOM      1  N   UNL d   1      -2.829  -2.521   0.152  0.00  0.00    -0.355 N 
ATOM      2  H   UNL d   1      -3.710  -2.664  -0.337  0.00  0.00     0.166 HD
ENDROOT
BRANCH   1   3
ATOM      3  C   UNL d   1      -2.338  -1.209  -0.129  0.00  0.00     0.046 A 
ATOM      4  C   UNL d   1      -3.096  -0.063   0.228  0.00  0.00     0.017 A 
ATOM      5  C   UNL d   1      -2.572   1.202  -0.128  0.00  0.00     0.046 A 
ATOM      6  C   UNL d   1      -4.327  -0.121   0.922  0.00  0.00     0.018 A 
ATOM      7  C   UNL d   1      -3.287   2.346   0.194  0.00  0.00     0.054 A 
ATOM      8  N   UNL d   1      -1.404   1.358  -0.767  0.00  0.00    -0.365 N 
ATOM      9  C   UNL d   1      -4.503   2.273   0.864  0.00  0.00     0.036 A 
ATOM     10  C   UNL d   1      -5.027   1.043   1.238  0.00  0.00     0.025 A 
ATOM     11 CL   UNL d   1      -5.361   3.718   1.238  0.00  0.00    -0.084 Cl
ATOM     12  C   UNL d   1      -0.706   0.251  -1.089  0.00  0.00     0.090 A 
ATOM     13  HN  UNL d   1      -1.055   2.287  -1.003  1.00  0.00     0.165 HD
ATOM     14  C   UNL d   1      -1.128  -1.031  -0.804  0.00  0.00     0.047 A 
ENDBRANCH   1   3
BRANCH   1  15
ATOM     15  C   UNL d   1      -2.047  -3.696   0.206  0.00  0.00     0.032 A 
ATOM     16  C   UNL d   1      -0.872  -3.739   0.968  0.00  0.00     0.032 A 
ATOM     17  C   UNL d   1      -0.031  -4.856   0.938  0.00  0.00     0.039 A 
ATOM     18  C   UNL d   1      -0.344  -5.936   0.119  0.00  0.00     0.078 A 
ATOM     19  C   UNL d   1      -1.555  -5.938  -0.577  0.00  0.00     0.039 A 
ATOM     20  C   UNL d   1      -2.401  -4.825  -0.538  0.00  0.00     0.032 A 
BRANCH  18  21
ATOM     21  O   UNL d   1       0.418  -7.055  -0.027  0.00  0.00    -0.255 OA
BRANCH  21  22
ATOM     22  C   UNL d   1       1.832  -6.901  -0.088  0.00  0.00     0.530 C 
ATOM     23  F   UNL d   1       2.253  -5.619  -0.117  0.00  0.00    -0.144 F 
ATOM     24  F   UNL d   1       2.393  -7.517   0.974  0.00  0.00    -0.144 F 
ATOM     25  F   UNL d   1       2.282  -7.506  -1.211  0.00  0.00    -0.144 F 
ENDBRANCH  21  22
ENDBRANCH  18  21
ENDBRANCH   1  15
TORSDOF 4
