REMARK  4 active torsions:
REMARK  status: ('A' for Active; 'I' for Inactive)
REMARK    1  A    between atoms: C_4  and  C_1 
REMARK    2  A    between atoms: C_5  and  N_3 
REMARK    3  A    between atoms: C_6  and  C_5 
REMARK    4  A    between atoms: C_12  and  C_6 
ROOT
ATOM      1  C   UNL d   1      -1.068   0.222  -0.913  0.00  0.00     0.115 C 
ATOM      2  C   UNL d   1       0.300   0.766  -1.119  0.00  0.00     0.263 C 
ATOM      3  N   UNL d   1       1.210   0.541  -0.081  0.00  0.00    -0.317 N 
ATOM      4  C   UNL d   1      -1.292  -0.603   0.129  0.00  0.00     0.023 C 
ATOM      5  C   UNL d   1       0.944  -0.340   0.954  0.00  0.00     0.095 C 
ATOM      6  O   UNL d   1       0.591   1.409  -2.124  0.00  0.00    -0.267 OA
ATOM      7  C   UNL d   1      -0.245  -0.940   1.056  0.00  0.00     0.018 C 
ENDROOT
BRANCH   3   8
ATOM      8  C   UNL d   1       2.517   1.198  -0.144  0.00  0.00     0.215 C 
BRANCH   8   9
ATOM      9  C   UNL d   1       3.645   0.291  -0.629  0.00  0.00     0.177 C 
ATOM     10  O   UNL d   1       3.545  -0.935  -0.673  0.00  0.00    -0.291 OA
BRANCH   9  11
ATOM     11  C   UNL d   1       4.956   0.923  -0.980  0.00  0.00     0.011 A 
ATOM     12  C   UNL d   1       5.206   2.292  -0.811  0.00  0.00     0.015 A 
ATOM     13  C   UNL d   1       6.455   2.825  -1.146  0.00  0.00     0.001 A 
ATOM     14  C   UNL d   1       7.461   1.997  -1.645  0.00  0.00     0.000 A 
ATOM     15  C   UNL d   1       7.222   0.637  -1.810  0.00  0.00     0.001 A 
ATOM     16  C   UNL d   1       5.976   0.100  -1.479  0.00  0.00     0.015 A 
ENDBRANCH   9  11
ENDBRANCH   8   9
ENDBRANCH   3   8
BRANCH   1  17
ATOM     17  C   UNL d   1      -2.147   0.682  -1.820  0.00  0.00     0.422 C 
ATOM     18  F   UNL d   1      -1.815   1.628  -2.730  0.00  0.00    -0.166 F 
ATOM     19  F   UNL d   1      -2.688  -0.355  -2.516  0.00  0.00    -0.166 F 
ATOM     20  F   UNL d   1      -3.176   1.214  -1.097  0.00  0.00    -0.166 F 
ENDBRANCH   1  17
TORSDOF 4
