REMARK  4 active torsions:
REMARK  status: ('A' for Active; 'I' for Inactive)
REMARK    1  A    between atoms: C_7  and  C_1 
REMARK       I    between atoms: C_6  and  N_11 
REMARK       I    between atoms: N_10  and  C_6 
REMARK    2  A    between atoms: N_11  and  N_8 
REMARK    3  A    between atoms: C_13  and  N_10 
REMARK    4  A    between atoms: C_15  and  C_13 
ROOT
ATOM      1  C   UNL d   1       6.058   2.851   0.009  0.00  0.00     0.335 C 
ATOM      2  N   UNL d   1       7.435   2.812   0.099  0.00  0.00    -0.338 N 
ATOM      3  N   UNL d   1       5.501   1.578  -0.065  0.00  0.00    -0.252 N 
ATOM      4  O   UNL d   1       5.436   3.904  -0.032  0.00  0.00    -0.246 OA
ATOM      5  H   UNL d   1       7.910   1.926   0.146  0.00  0.00     0.164 HD
ATOM      6  H   UNL d   1       6.068   0.804   0.255  0.00  0.00     0.191 HD
ENDROOT
BRANCH   3   7
ATOM      7  N   UNL d   1       4.148   1.286  -0.064  0.00  0.00    -0.307 N 
ATOM      8  C   UNL d   1       3.322   2.135  -0.601  0.00  0.00     0.126 C 
ATOM      9  HN  UNL d   1       3.804   0.420   0.351  1.00  0.00     0.186 HD
BRANCH   8  10
ATOM     10  C   UNL d   1       1.878   1.948  -0.614  0.00  0.00     0.029 A 
ATOM     11  S   UNL d   1       1.177   0.561   0.099  0.00  0.00    -0.088 SA
ATOM     12  C   UNL d   1      -0.423   1.035  -0.314  0.00  0.00     0.016 A 
ATOM     13  C   UNL d   1      -1.622   0.345  -0.031  0.00  0.00     0.019 A 
ATOM     14  C   UNL d   1      -0.427   2.247  -1.003  0.00  0.00    -0.012 A 
ATOM     15  C   UNL d   1      -2.837   0.886  -0.462  0.00  0.00     0.001 A 
ATOM     16  C   UNL d   1      -2.868   2.082  -1.161  0.00  0.00     0.001 A 
ATOM     17  C   UNL d   1      -1.678   2.763  -1.431  0.00  0.00     0.013 A 
ATOM     18  C   UNL d   1       0.912   2.788  -1.154  0.00  0.00    -0.032 A 
ATOM     19  C   UNL d   1       1.157   4.106  -1.825  0.00  0.00     0.050 C 
ENDBRANCH   8  10
ENDBRANCH   3   7
BRANCH   2  20
ATOM     20  C   UNL d   1       8.236   4.010  -0.059  0.00  0.00     0.162 C 
BRANCH  20  21
ATOM     21  C   UNL d   1       8.746   4.626   1.226  0.00  0.00    -0.040 A 
ATOM     22  C   UNL d   1       9.953   5.351   1.198  0.00  0.00     0.010 A 
ATOM     23  C   UNL d   1      10.418   6.021   2.333  0.00  0.00     0.024 A 
ATOM     24  C   UNL d   1       9.677   5.979   3.511  0.00  0.00     0.034 A 
ATOM     25  C   UNL d   1       8.476   5.277   3.557  0.00  0.00     0.024 A 
ATOM     26 CL   UNL d   1      10.239   6.816   4.905  0.00  0.00    -0.084 Cl
ATOM     27  C   UNL d   1       8.010   4.611   2.417  0.00  0.00     0.010 A 
ENDBRANCH  20  21
ENDBRANCH   2  20
TORSDOF 4
