REMARK  2 active torsions:
REMARK  status: ('A' for Active; 'I' for Inactive)
REMARK    1  A    between atoms: C_7  and  C_1 
REMARK    2  A    between atoms: O_12  and  C_7 
ROOT
ATOM      1  C   UNL d   1      -0.765   1.243  -0.054  0.00  0.00     0.076 A 
ATOM      2  C   UNL d   1      -1.453  -0.049  -0.064  0.00  0.00    -0.020 A 
ATOM      3  C   UNL d   1       0.575   1.284   0.055  0.00  0.00     0.070 A 
ATOM      4  C   UNL d   1      -0.732  -1.187   0.045  0.00  0.00     0.093 A 
ATOM      5  C   UNL d   1       0.753  -1.147   0.169  0.00  0.00     0.306 A 
ATOM      6  O   UNL d   1       1.331   0.091   0.173  0.00  0.00    -0.278 OA
ATOM      7  O   UNL d   1       1.443  -2.159   0.263  0.00  0.00    -0.258 OA
ATOM      8 BR   UNL d   1      -1.504  -2.906   0.080  0.00  0.00    -0.044 Br
ATOM      9  C   UNL d   1      -2.956  -0.057  -0.212  0.00  0.00     0.051 C 
ATOM     10  C   UNL d   1       1.452   2.503   0.090  0.00  0.00     0.078 C 
ENDROOT
BRANCH   1  11
ATOM     11  C   UNL d   1      -1.487   2.534  -0.228  0.00  0.00     0.296 C 
ATOM     12  O   UNL d   1      -1.259   3.327  -1.129  0.00  0.00    -0.259 OA
BRANCH  11  13
ATOM     13  O   UNL d   1      -2.409   2.675   0.756  0.00  0.00    -0.322 OA
ATOM     14  C   UNL d   1      -3.245   3.830   0.640  0.00  0.00     0.213 C 
ENDBRANCH  11  13
ENDBRANCH   1  11
TORSDOF 2
