REMARK  8 active torsions:
REMARK  status: ('A' for Active; 'I' for Inactive)
REMARK    1  A    between atoms: N_2  and  S_1 
REMARK    2  A    between atoms: C_8  and  S_1 
REMARK    3  A    between atoms: N_12  and  N_2 
REMARK    4  A    between atoms: C_3  and  S_21 
REMARK    5  A    between atoms: C_4  and  C_10 
REMARK    6  A    between atoms: C_5  and  C_9 
REMARK       I    between atoms: C_13  and  N_12 
REMARK    7  A    between atoms: C_29  and  C_13 
REMARK    8  A    between atoms: S_21  and  C_29 
ROOT
ATOM      1  S   UNL d   1       1.067   0.223  -0.073  0.00  0.00     0.276 S 
ATOM      2  O   UNL d   1       0.756   1.496  -0.687  0.00  0.00    -0.199 OA
ATOM      3  O   UNL d   1       2.445  -0.137   0.198  0.00  0.00    -0.199 OA
ENDROOT
BRANCH   1   4
ATOM      4  N   UNL d   1       0.405  -0.992  -1.024  0.00  0.00    -0.220 N 
ATOM      5  H   UNL d   1      -0.316  -1.635  -0.682  0.00  0.00     0.200 HD
BRANCH   4   6
ATOM      6  N   UNL d   1       0.899  -1.153  -2.380  0.00  0.00    -0.260 N 
ATOM      7  C   UNL d   1       0.365  -2.139  -3.187  0.00  0.00     0.246 C 
ATOM      8  O   UNL d   1      -0.475  -2.943  -2.779  0.00  0.00    -0.271 OA
ATOM      9  H   UNL d   1       1.532  -0.439  -2.738  0.00  0.00     0.190 HD
BRANCH   7  10
ATOM     10  C   UNL d   1       0.952  -2.166  -4.592  0.00  0.00     0.186 C 
BRANCH  10  11
ATOM     11  S   UNL d   1      -0.334  -2.061  -5.864  0.00  0.00    -0.096 SA
BRANCH  11  12
ATOM     12  C   UNL d   1      -0.957  -0.453  -5.573  0.00  0.00     0.112 A 
ATOM     13  N   UNL d   1      -0.477   0.312  -4.619  0.00  0.00    -0.348 N 
ATOM     14  C   UNL d   1      -1.185   1.503  -4.568  0.00  0.00     0.013 A 
ATOM     15  HN  UNL d   1       0.301   0.067  -4.006  1.00  0.00     0.167 HD
ATOM     16  C   UNL d   1      -0.847   2.496  -3.518  0.00  0.00     0.068 C 
ATOM     17  C   UNL d   1      -2.162   1.637  -5.536  0.00  0.00     0.077 A 
ATOM     18  S   UNL d   1      -2.221   0.226  -6.507  0.00  0.00    -0.075 SA
ENDBRANCH  11  12
ENDBRANCH  10  11
ENDBRANCH   7  10
ENDBRANCH   4   6
ENDBRANCH   1   4
BRANCH   1  19
ATOM     19  C   UNL d   1       0.170   0.136   1.458  0.00  0.00     0.082 A 
ATOM     20  C   UNL d   1       0.685  -0.626   2.513  0.00  0.00     0.041 A 
ATOM     21  C   UNL d   1       0.108  -0.538   3.790  0.00  0.00     0.050 A 
ATOM     22  C   UNL d   1      -0.987   0.324   3.986  0.00  0.00     0.032 A 
ATOM     23  C   UNL d   1      -1.501   1.105   2.933  0.00  0.00     0.050 A 
ATOM     24  C   UNL d   1      -0.918   0.993   1.662  0.00  0.00     0.041 A 
BRANCH  21  25
ATOM     25  C   UNL d   1       0.677  -1.307   4.962  0.00  0.00     0.417 C 
ATOM     26  F   UNL d   1       1.770  -2.054   4.644  0.00  0.00    -0.166 F 
ATOM     27  F   UNL d   1       1.065  -0.487   5.976  0.00  0.00    -0.166 F 
ATOM     28  F   UNL d   1      -0.226  -2.171   5.500  0.00  0.00    -0.166 F 
ENDBRANCH  21  25
BRANCH  23  29
ATOM     29  C   UNL d   1      -2.620   2.086   3.199  0.00  0.00     0.417 C 
ATOM     30  F   UNL d   1      -2.974   2.815   2.105  0.00  0.00    -0.166 F 
ATOM     31  F   UNL d   1      -3.757   1.474   3.629  0.00  0.00    -0.166 F 
ATOM     32  F   UNL d   1      -2.291   2.990   4.162  0.00  0.00    -0.166 F 
ENDBRANCH  23  29
ENDBRANCH   1  19
TORSDOF 8
