REMARK  4 active torsions:
REMARK  status: ('A' for Active; 'I' for Inactive)
REMARK    1  A    between atoms: C_7  and  C_3 
REMARK    2  A    between atoms: O_15  and  C_9 
REMARK    3  A    between atoms: O_17  and  C_10 
REMARK    4  A    between atoms: O_16  and  C_11 
ROOT
ATOM      1  N   UNL d   1      -2.183   0.364   0.373  0.00  0.00    -0.308 N 
ATOM      2  HN  UNL d   1      -3.119   0.209   0.748  1.00  0.00     0.170 HD
ATOM      3  C   UNL d   1      -1.851   1.530  -0.094  0.00  0.00     0.119 C 
ATOM      4  C   UNL d   1      -1.262  -0.662   0.360  0.00  0.00     0.259 C 
ATOM      5  N   UNL d   1      -0.615   1.838  -0.614  0.00  0.00    -0.341 N 
ATOM      6  C   UNL d   1       0.123  -0.394  -0.098  0.00  0.00     0.059 A 
ATOM      7  C   UNL d   1       0.413   0.896  -0.547  0.00  0.00     0.049 A 
ATOM      8  O   UNL d   1      -1.542  -1.794   0.744  0.00  0.00    -0.267 OA
ATOM      9  C   UNL d   1       1.109  -1.386  -0.069  0.00  0.00     0.019 A 
ATOM     10  C   UNL d   1       1.706   1.187  -0.989  0.00  0.00     0.030 A 
ATOM     11  C   UNL d   1       2.400  -1.082  -0.499  0.00  0.00     0.001 A 
ATOM     12  C   UNL d   1       2.698   0.203  -0.957  0.00  0.00     0.002 A 
ATOM     13  H   UNL d   1      -0.349   2.804  -0.755  0.00  0.00     0.167 HD
ENDROOT
BRANCH   3  14
ATOM     14  C   UNL d   1      -2.880   2.614  -0.024  0.00  0.00     0.014 A 
ATOM     15  C   UNL d   1      -3.812   2.602   1.017  0.00  0.00     0.055 A 
ATOM     16  C   UNL d   1      -4.760   3.627   1.151  0.00  0.00     0.105 A 
ATOM     17  C   UNL d   1      -4.793   4.676   0.202  0.00  0.00     0.135 A 
ATOM     18  C   UNL d   1      -3.837   4.681  -0.843  0.00  0.00     0.105 A 
ATOM     19  C   UNL d   1      -2.903   3.645  -0.958  0.00  0.00     0.055 A 
BRANCH  16  20
ATOM     20  O   UNL d   1      -5.653   3.657   2.192  0.00  0.00    -0.353 OA
ATOM     21  C   UNL d   1      -5.631   2.600   3.144  0.00  0.00     0.210 C 
ENDBRANCH  16  20
BRANCH  17  22
ATOM     22  O   UNL d   1      -5.696   5.707   0.166  0.00  0.00    -0.351 OA
ATOM     23  C   UNL d   1      -6.748   5.783   1.113  0.00  0.00     0.210 C 
ENDBRANCH  17  22
BRANCH  18  24
ATOM     24  O   UNL d   1      -3.720   5.599  -1.860  0.00  0.00    -0.353 OA
ATOM     25  C   UNL d   1      -4.061   6.948  -1.562  0.00  0.00     0.210 C 
ENDBRANCH  18  24
ENDBRANCH   3  14
TORSDOF 4
