REMARK  5 active torsions:
REMARK  status: ('A' for Active; 'I' for Inactive)
REMARK    1  A    between atoms: C_2  and  S_1 
REMARK    2  A    between atoms: N_8  and  S_1 
REMARK    3  A    between atoms: C_3  and  C_9 
REMARK       I    between atoms: C_4  and  N_7 
REMARK       I    between atoms: N_12  and  C_4 
REMARK    4  A    between atoms: N_7  and  C_5 
REMARK    5  A    between atoms: C_17  and  N_12 
ROOT
ATOM      1  C   UNL d   1      -0.814   4.649  -2.332  0.00  0.00     0.325 C 
ATOM      2  N   UNL d   1       0.104   4.088  -3.206  0.00  0.00    -0.308 N 
ATOM      3  N   UNL d   1      -1.182   5.936  -2.690  0.00  0.00    -0.309 N 
ATOM      4  O   UNL d   1      -1.288   4.051  -1.369  0.00  0.00    -0.247 OA
ATOM      5  H   UNL d   1       0.183   4.518  -4.112  0.00  0.00     0.170 HD
ATOM      6  H   UNL d   1      -1.044   6.204  -3.652  0.00  0.00     0.170 HD
ENDROOT
BRANCH   2   7
ATOM      7  C   UNL d   1       0.579   2.755  -3.070  0.00  0.00     0.043 C 
ATOM      8  C   UNL d   1       0.660   2.152  -1.804  0.00  0.00     0.055 C 
ATOM      9  C   UNL d   1       0.977   0.801  -1.669  0.00  0.00     0.081 C 
ATOM     10  C   UNL d   1       1.248   0.035  -2.801  0.00  0.00     0.026 C 
ATOM     11  C   UNL d   1       1.262   0.648  -4.057  0.00  0.00     0.010 C 
ATOM     12  C   UNL d   1       0.963   2.017  -4.205  0.00  0.00    -0.035 C 
ATOM     13  C   UNL d   1       1.130   2.640  -5.565  0.00  0.00     0.050 C 
BRANCH   9  14
ATOM     14  S   UNL d   1       1.249   0.127  -0.041  0.00  0.00     0.260 S 
ATOM     15  O   UNL d   1       1.861   1.169   0.755  0.00  0.00    -0.200 OA
ATOM     16  O   UNL d   1       1.918  -1.148  -0.221  0.00  0.00    -0.200 OA
BRANCH  14  17
ATOM     17  N   UNL d   1      -0.293  -0.188   0.583  0.00  0.00    -0.315 N 
ATOM     18  C   UNL d   1      -1.093   0.955   1.051  0.00  0.00     0.162 C 
ATOM     19  C   UNL d   1      -1.081  -1.261  -0.035  0.00  0.00     0.162 C 
ENDBRANCH  14  17
ENDBRANCH   9  14
ENDBRANCH   2   7
BRANCH   3  20
ATOM     20  C   UNL d   1      -2.074   6.729  -1.927  0.00  0.00     0.037 A 
ATOM     21  C   UNL d   1      -2.252   6.538  -0.551  0.00  0.00     0.045 A 
ATOM     22  C   UNL d   1      -3.208   7.265   0.172  0.00  0.00     0.050 A 
ATOM     23  C   UNL d   1      -3.972   8.226  -0.502  0.00  0.00     0.016 A 
ATOM     24  C   UNL d   1      -3.766   8.461  -1.863  0.00  0.00     0.003 A 
ATOM     25  C   UNL d   1      -2.812   7.723  -2.572  0.00  0.00     0.029 A 
BRANCH  22  26
ATOM     26  C   UNL d   1      -3.419   7.004   1.642  0.00  0.00     0.417 C 
ATOM     27  F   UNL d   1      -2.624   6.021   2.151  0.00  0.00    -0.166 F 
ATOM     28  F   UNL d   1      -3.177   8.107   2.405  0.00  0.00    -0.166 F 
ATOM     29  F   UNL d   1      -4.698   6.630   1.925  0.00  0.00    -0.166 F 
ENDBRANCH  22  26
ENDBRANCH   3  20
TORSDOF 5
