REMARK  8 active torsions:
REMARK  status: ('A' for Active; 'I' for Inactive)
REMARK    1  A    between atoms: C_8  and  C_1 
REMARK    2  A    between atoms: C_2  and  O_10 
REMARK    3  A    between atoms: C_5  and  C_2 
REMARK    4  A    between atoms: O_10  and  N_3 
REMARK    5  A    between atoms: C_21  and  C_17 
REMARK    6  A    between atoms: C_22  and  C_21 
REMARK    7  A    between atoms: C_24  and  C_22 
REMARK    8  A    between atoms: C_23  and  C_24 
ROOT
ATOM      1  C   UNL d   1      -2.245   5.015  -0.034  0.00  0.00     0.315 C 
ATOM      2  O   UNL d   1      -1.359   4.786   0.778  0.00  0.00    -0.257 OA
ENDROOT
BRANCH   1   3
ATOM      3  O   UNL d   1      -2.176   5.907  -1.067  0.00  0.00    -0.195 OA
BRANCH   3   4
ATOM      4  N   UNL d   1      -1.681   7.133  -0.581  0.00  0.00    -0.268 N 
ATOM      5  C   UNL d   1      -1.002   7.742  -1.495  0.00  0.00     0.129 C 
ATOM      6  HN  UNL d   1      -1.836   7.489   0.362  1.00  0.00     0.194 HD
BRANCH   5   7
ATOM      7  C   UNL d   1      -0.491   9.126  -1.316  0.00  0.00     0.025 A 
ATOM      8  C   UNL d   1      -0.253   9.695  -0.052  0.00  0.00     0.047 A 
ATOM      9 CL   UNL d   1      -0.352   8.829   1.442  0.00  0.00    -0.083 Cl
ATOM     10  C   UNL d   1       0.134  11.040   0.057  0.00  0.00     0.025 A 
ATOM     11  C   UNL d   1       0.302  11.826  -1.079  0.00  0.00     0.003 A 
ATOM     12  C   UNL d   1       0.098  11.265  -2.335  0.00  0.00     0.025 A 
ATOM     13  C   UNL d   1      -0.295   9.925  -2.457  0.00  0.00     0.047 A 
ATOM     14 CL   UNL d   1      -0.556   9.351  -4.071  0.00  0.00    -0.083 Cl
ENDBRANCH   5   7
ENDBRANCH   3   4
ENDBRANCH   1   3
BRANCH   1  15
ATOM     15  C   UNL d   1      -3.560   4.315  -0.023  0.00  0.00     0.041 A 
ATOM     16  C   UNL d   1      -3.767   3.303   0.924  0.00  0.00     0.018 A 
ATOM     17  C   UNL d   1      -4.991   2.632   0.993  0.00  0.00     0.008 A 
ATOM     18  C   UNL d   1      -6.033   2.961   0.117  0.00  0.00    -0.058 A 
ATOM     19  C   UNL d   1      -5.837   4.001  -0.805  0.00  0.00     0.008 A 
ATOM     20  C   UNL d   1      -4.610   4.670  -0.880  0.00  0.00     0.018 A 
BRANCH  18  21
ATOM     21  C   UNL d   1      -7.339   2.202   0.161  0.00  0.00     0.038 C 
BRANCH  21  22
ATOM     22  C   UNL d   1      -7.697   1.504  -1.159  0.00  0.00     0.005 C 
BRANCH  22  23
ATOM     23  C   UNL d   1      -6.675   0.442  -1.581  0.00  0.00    -0.000 C 
BRANCH  23  24
ATOM     24  C   UNL d   1      -7.075  -0.207  -2.907  0.00  0.00    -0.005 C 
ATOM     25  C   UNL d   1      -6.060  -1.246  -3.352  0.00  0.00     0.005 C 
ENDBRANCH  23  24
ENDBRANCH  22  23
ENDBRANCH  21  22
ENDBRANCH  18  21
ENDBRANCH   1  15
TORSDOF 8
