REMARK  13 active torsions:
REMARK  status: ('A' for Active; 'I' for Inactive)
REMARK    1  A    between atoms: O_4  and  C_1 
REMARK    2  A    between atoms: C_5  and  C_1 
REMARK    3  A    between atoms: C_3  and  C_6 
REMARK    4  A    between atoms: C_10  and  C_5 
REMARK    5  A    between atoms: C_6  and  C_11 
REMARK    6  A    between atoms: C_13  and  C_10 
REMARK    7  A    between atoms: C_11  and  C_14 
REMARK    8  A    between atoms: C_12  and  C_13 
REMARK    9  A    between atoms: C_18  and  C_12 
REMARK   10  A    between atoms: C_14  and  C_15 
REMARK   11  A    between atoms: C_15  and  C_16 
REMARK   12  A    between atoms: C_16  and  C_17 
REMARK   13  A    between atoms: C_17  and  C_18 
ROOT
ATOM      1  C   UNL d   1       6.993   3.343   2.581  0.00  0.00     0.000 C 
ENDROOT
BRANCH   1   2
ATOM      2  C   UNL d   1       8.515   3.341   2.571  0.00  0.00     0.000 C 
BRANCH   2   3
ATOM      3  C   UNL d   1       9.027   4.446   3.474  0.00  0.00     0.000 C 
BRANCH   3   4
ATOM      4  C   UNL d   1      10.549   4.461   3.523  0.00  0.00     0.000 C 
BRANCH   4   5
ATOM      5  C   UNL d   1      11.066   5.589   4.410  0.00  0.00     0.001 C 
BRANCH   5   6
ATOM      6  C   UNL d   1      10.604   5.462   5.870  0.00  0.00     0.008 C 
BRANCH   6   7
ATOM      7  C   UNL d   1      11.100   6.584   6.810  0.00  0.00    -0.051 C 
ATOM      8  C   UNL d   1      10.561   7.952   6.357  0.00  0.00     0.014 C 
ATOM      9  C   UNL d   1      10.573   6.301   8.230  0.00  0.00     0.014 C 
ATOM     10  C   UNL d   1      12.633   6.611   6.849  0.00  0.00     0.014 C 
ENDBRANCH   6   7
ENDBRANCH   5   6
ENDBRANCH   4   5
ENDBRANCH   3   4
ENDBRANCH   2   3
ENDBRANCH   1   2
BRANCH   1  11
ATOM     11  C   UNL d   1       6.461   2.232   1.692  0.00  0.00     0.000 C 
BRANCH  11  12
ATOM     12  C   UNL d   1       4.940   2.232   1.694  0.00  0.00     0.000 C 
BRANCH  12  13
ATOM     13  C   UNL d   1       4.401   1.122   0.800  0.00  0.00     0.001 C 
BRANCH  13  14
ATOM     14  C   UNL d   1       2.876   1.134   0.809  0.00  0.00     0.010 C 
BRANCH  14  15
ATOM     15  C   UNL d   1       2.307   0.034  -0.078  0.00  0.00     0.110 C 
BRANCH  15  16
ATOM     16  C   UNL d   1       0.792   0.051  -0.064  0.00  0.00     0.139 C 
ATOM     17  O   UNL d   1       0.098   0.831   0.559  0.00  0.00    -0.650 OA
BRANCH  16  18
ATOM     18  O   UNL d   1       0.270  -0.924  -0.851  0.00  0.00    -0.776 OA
ATOM     19  H   UNL d   1       0.948  -1.473  -1.289  0.00  0.00     0.167 HD
ENDBRANCH  16  18
ENDBRANCH  15  16
ENDBRANCH  14  15
ENDBRANCH  13  14
ENDBRANCH  12  13
ENDBRANCH  11  12
ENDBRANCH   1  11
TORSDOF 13
