REMARK  4 active torsions:
REMARK  status: ('A' for Active; 'I' for Inactive)
REMARK    1  A    between atoms: C_9  and  C_3 
REMARK    2  A    between atoms: C_8  and  C_4 
REMARK    3  A    between atoms: C_10  and  C_5 
REMARK    4  A    between atoms: O_22  and  C_16 
ROOT
ATOM      1  N   UNL d   1      -1.335  -0.066   0.003  0.00  0.00    -0.355 N 
ATOM      2  HN  UNL d   1      -2.354  -0.107   0.008  1.00  0.00     0.166 HD
ATOM      3  C   UNL d   1      -0.691   1.128  -0.018  0.00  0.00     0.043 A 
ATOM      4  C   UNL d   1      -0.598  -1.203   0.015  0.00  0.00     0.043 A 
ATOM      5  C   UNL d   1       1.480   0.048   0.002  0.00  0.00    -0.022 A 
ATOM      6  C   UNL d   1       0.700   1.209   0.014  0.00  0.00     0.042 A 
ATOM      7  C   UNL d   1       0.794  -1.169  -0.021  0.00  0.00     0.042 A 
ENDROOT
BRANCH   3   8
ATOM      8  C   UNL d   1      -1.546   2.331  -0.075  0.00  0.00    -0.009 A 
ATOM      9  C   UNL d   1      -2.830   2.332   0.494  0.00  0.00     0.016 A 
ATOM     10  C   UNL d   1      -3.656   3.465   0.442  0.00  0.00     0.037 A 
ATOM     11  C   UNL d   1      -3.215   4.625  -0.189  0.00  0.00     0.068 A 
ATOM     12  C   UNL d   1      -1.946   4.646  -0.761  0.00  0.00     0.037 A 
ATOM     13  C   UNL d   1      -1.124   3.515  -0.708  0.00  0.00     0.016 A 
BRANCH  11  14
ATOM     14  O   UNL d   1      -3.920   5.789  -0.321  0.00  0.00    -0.356 OA
ATOM     15  C   UNL d   1      -5.231   5.806   0.229  0.00  0.00     0.210 C 
ENDBRANCH  11  14
ENDBRANCH   3   8
BRANCH   4  16
ATOM     16  C   UNL d   1      -1.347  -2.477   0.067  0.00  0.00    -0.009 A 
ATOM     17  C   UNL d   1      -2.632  -2.589  -0.494  0.00  0.00     0.015 A 
ATOM     18  C   UNL d   1      -3.330  -3.803  -0.479  0.00  0.00     0.020 A 
ATOM     19  C   UNL d   1      -2.754  -4.926   0.105  0.00  0.00     0.011 A 
ATOM     20  C   UNL d   1      -1.493  -4.844   0.689  0.00  0.00     0.020 A 
ATOM     21 BR   UNL d   1      -3.680  -6.572   0.111  0.00  0.00    -0.051 Br
ATOM     22  C   UNL d   1      -0.804  -3.629   0.674  0.00  0.00     0.015 A 
ENDBRANCH   4  16
BRANCH   5  23
ATOM     23  C   UNL d   1       2.958   0.103   0.032  0.00  0.00    -0.026 A 
ATOM     24  C   UNL d   1       3.668   1.145  -0.591  0.00  0.00     0.012 A 
ATOM     25  C   UNL d   1       5.063   1.217  -0.524  0.00  0.00     0.001 A 
ATOM     26  C   UNL d   1       5.780   0.236   0.152  0.00  0.00     0.000 A 
ATOM     27  C   UNL d   1       5.105  -0.816   0.761  0.00  0.00     0.001 A 
ATOM     28  C   UNL d   1       3.710  -0.877   0.706  0.00  0.00     0.012 A 
ENDBRANCH   5  23
TORSDOF 4
