REMARK  6 active torsions:
REMARK  status: ('A' for Active; 'I' for Inactive)
REMARK       I    between atoms: N_8  and  C_1 
REMARK       I    between atoms: N_9  and  C_1 
REMARK    1  A    between atoms: C_2  and  C_16 
REMARK    2  A    between atoms: C_3  and  C_15 
REMARK    3  A    between atoms: N_4  and  N_9 
REMARK    4  A    between atoms: N_6  and  N_8 
REMARK    5  A    between atoms: O_26  and  C_10 
REMARK    6  A    between atoms: O_25  and  C_11 
ROOT
ATOM      1  C   UNL d   1       1.015  -0.021   0.047  0.00  0.00     0.353 C 
ATOM      2  N   UNL d   1       0.338  -0.304  -1.138  0.00  0.00    -0.251 N 
ATOM      3  N   UNL d   1       0.136   0.250   1.093  0.00  0.00    -0.251 N 
ATOM      4  O   UNL d   1       2.238  -0.012   0.156  0.00  0.00    -0.244 OA
ATOM      5  H   UNL d   1      -0.667  -0.224  -1.190  0.00  0.00     0.191 HD
ATOM      6  H   UNL d   1      -0.861   0.163   0.959  0.00  0.00     0.191 HD
ENDROOT
BRANCH   2   7
ATOM      7  N   UNL d   1       1.052  -0.559  -2.268  0.00  0.00    -0.307 N 
ATOM      8  C   UNL d   1       0.375  -0.792  -3.345  0.00  0.00     0.121 C 
ATOM      9  HN  UNL d   1       2.072  -0.566  -2.265  1.00  0.00     0.186 HD
BRANCH   8  10
ATOM     10  C   UNL d   1       1.071  -1.052  -4.622  0.00  0.00     0.015 A 
ATOM     11  C   UNL d   1       2.469  -1.050  -4.719  0.00  0.00     0.077 A 
ATOM     12  C   UNL d   1       3.089  -1.283  -5.945  0.00  0.00     0.039 A 
ATOM     13  C   UNL d   1       2.317  -1.519  -7.082  0.00  0.00     0.026 A 
ATOM     14  C   UNL d   1       0.926  -1.522  -6.984  0.00  0.00     0.035 A 
ATOM     15  C   UNL d   1       0.295  -1.292  -5.761  0.00  0.00     0.039 A 
ATOM     16 CL   UNL d   1      -0.026  -1.807  -8.390  0.00  0.00    -0.084 Cl
BRANCH  11  17
ATOM     17  O   UNL d   1       3.300  -0.822  -3.658  0.00  0.00    -0.360 OA
ATOM     18  H   UNL d   1       2.757  -0.664  -2.851  0.00  0.00     0.217 HD
ENDBRANCH  11  17
ENDBRANCH   8  10
ENDBRANCH   2   7
BRANCH   3  19
ATOM     19  N   UNL d   1       0.627   0.529   2.333  0.00  0.00    -0.307 N 
ATOM     20  C   UNL d   1      -0.251   0.727   3.263  0.00  0.00     0.121 C 
ATOM     21  HN  UNL d   1       1.629   0.579   2.518  1.00  0.00     0.186 HD
BRANCH  20  22
ATOM     22  C   UNL d   1       0.163   1.020   4.649  0.00  0.00     0.015 A 
ATOM     23  C   UNL d   1       1.509   1.113   5.025  0.00  0.00     0.077 A 
ATOM     24  C   UNL d   1       1.852   1.377   6.350  0.00  0.00     0.039 A 
ATOM     25  C   UNL d   1       0.852   1.548   7.308  0.00  0.00     0.026 A 
ATOM     26  C   UNL d   1      -0.488   1.458   6.932  0.00  0.00     0.035 A 
ATOM     27  C   UNL d   1      -0.841   1.197   5.608  0.00  0.00     0.039 A 
ATOM     28 CL   UNL d   1      -1.722   1.668   8.113  0.00  0.00    -0.084 Cl
BRANCH  23  29
ATOM     29  O   UNL d   1       2.549   0.956   4.151  0.00  0.00    -0.360 OA
ATOM     30  H   UNL d   1       2.189   0.758   3.256  0.00  0.00     0.217 HD
ENDBRANCH  23  29
ENDBRANCH  20  22
ENDBRANCH   3  19
TORSDOF 6
