REMARK  5 active torsions:
REMARK  status: ('A' for Active; 'I' for Inactive)
REMARK    1  A    between atoms: C_4  and  C_1 
REMARK       I    between atoms: N_9  and  C_4 
REMARK    2  A    between atoms: N_13  and  N_9 
REMARK    3  A    between atoms: O_12  and  C_11 
REMARK    4  A    between atoms: C_15  and  O_12 
REMARK    5  A    between atoms: C_16  and  C_15 
ROOT
ATOM      1  C   UNL d   1      -2.503  -0.187  -0.163  0.00  0.00     0.103 A 
ATOM      2  N   UNL d   1      -1.690   0.929  -0.145  0.00  0.00    -0.351 N 
ATOM      3  C   UNL d   1      -1.659  -1.283  -0.168  0.00  0.00     0.049 A 
ATOM      4  C   UNL d   1      -0.320  -0.817  -0.114  0.00  0.00    -0.004 A 
ATOM      5  C   UNL d   1      -0.363   0.574  -0.105  0.00  0.00     0.043 A 
ATOM      6  C   UNL d   1       0.928  -1.466  -0.054  0.00  0.00     0.050 A 
ATOM      7  C   UNL d   1       0.795   1.356  -0.052  0.00  0.00     0.033 A 
ATOM      8  C   UNL d   1       2.097  -0.706   0.063  0.00  0.00     0.070 A 
ATOM      9  C   UNL d   1       2.025   0.688   0.033  0.00  0.00     0.039 A 
ATOM     10  H   UNL d   1      -2.042   1.880  -0.135  0.00  0.00     0.166 HD
ENDROOT
BRANCH   8  11
ATOM     11  O   UNL d   1       3.355  -1.234   0.221  0.00  0.00    -0.347 OA
BRANCH  11  12
ATOM     12  C   UNL d   1       3.389  -2.597   0.656  0.00  0.00     0.214 C 
BRANCH  12  13
ATOM     13  C   UNL d   1       4.751  -2.978   1.188  0.00  0.00    -0.034 A 
ATOM     14  C   UNL d   1       4.843  -3.833   2.300  0.00  0.00     0.009 A 
ATOM     15  C   UNL d   1       6.086  -4.246   2.778  0.00  0.00     0.001 A 
ATOM     16  C   UNL d   1       7.251  -3.820   2.146  0.00  0.00     0.000 A 
ATOM     17  C   UNL d   1       7.172  -2.980   1.034  0.00  0.00     0.001 A 
ATOM     18  C   UNL d   1       5.929  -2.565   0.554  0.00  0.00     0.009 A 
ENDBRANCH  12  13
ENDBRANCH  11  12
ENDBRANCH   8  11
BRANCH   1  19
ATOM     19  C   UNL d   1      -3.946  -0.087  -0.153  0.00  0.00     0.282 C 
ATOM     20  O   UNL d   1      -4.536   0.989  -0.069  0.00  0.00    -0.265 OA
ATOM     21  N   UNL d   1      -4.625  -1.298  -0.243  0.00  0.00    -0.288 N 
ATOM     22  H   UNL d   1      -4.117  -2.157  -0.433  0.00  0.00     0.183 HD
BRANCH  21  23
ATOM     23  N   UNL d   1      -6.038  -1.327  -0.283  0.00  0.00    -0.247 NA
ATOM     24  H   UNL d   1      -6.348  -0.379  -0.542  0.00  0.00     0.143 HD
ATOM     25  H   UNL d   1      -6.372  -1.437   0.679  0.00  0.00     0.143 HD
ENDBRANCH  21  23
ENDBRANCH   1  19
TORSDOF 5
