REMARK  3 active torsions:
REMARK  status: ('A' for Active; 'I' for Inactive)
REMARK    1  A    between atoms: C_11  and  C_4 
REMARK    2  A    between atoms: C_16  and  C_11 
REMARK    3  A    between atoms: O_15  and  C_16 
ROOT
ATOM      1  C   UNL d   1       0.730   0.749   1.173  0.00  0.00    -0.042 C 
ATOM      2  C   UNL d   1      -1.535   0.270   0.126  0.00  0.00    -0.042 C 
ATOM      3  C   UNL d   1       0.254  -1.533   0.154  0.00  0.00    -0.042 C 
ATOM      4  C   UNL d   1       0.535   0.501  -1.359  0.00  0.00    -0.036 C 
ATOM      5  C   UNL d   1      -0.788   1.010   1.258  0.00  0.00     0.018 C 
ATOM      6  C   UNL d   1       0.984  -0.771   1.284  0.00  0.00     0.018 C 
ATOM      7  C   UNL d   1      -1.258  -1.244   0.254  0.00  0.00     0.018 C 
ATOM      8  C   UNL d   1       1.245   1.238  -0.198  0.00  0.00     0.018 C 
ATOM      9  C   UNL d   1      -0.990   0.763  -1.235  0.00  0.00     0.018 C 
ATOM     10  C   UNL d   1       0.774  -1.020  -1.205  0.00  0.00     0.018 C 
ATOM     11  C   UNL d   1       1.463   1.489   2.297  0.00  0.00     0.015 C 
ATOM     12  C   UNL d   1      -3.040   0.537   0.229  0.00  0.00     0.015 C 
ATOM     13  C   UNL d   1       0.516  -3.038   0.277  0.00  0.00     0.015 C 
ENDROOT
BRANCH   4  14
ATOM     14  C   UNL d   1       1.036   1.011  -2.733  0.00  0.00     0.035 C 
BRANCH  14  15
ATOM     15  C   UNL d   1       2.528   0.806  -3.003  0.00  0.00     0.165 C 
BRANCH  15  16
ATOM     16  O   UNL d   1       2.845   1.316  -4.292  0.00  0.00    -0.401 OA
ATOM     17  H   UNL d   1       3.795   1.162  -4.430  0.00  0.00     0.209 HD
ENDBRANCH  15  16
ENDBRANCH  14  15
ENDBRANCH   4  14
TORSDOF 3
