REMARK  7 active torsions:
REMARK  status: ('A' for Active; 'I' for Inactive)
REMARK    1  A    between atoms: S_17  and  C_2 
REMARK    2  A    between atoms: S_18  and  C_3 
REMARK    3  A    between atoms: C_9  and  C_20 
REMARK    4  A    between atoms: C_10  and  C_15 
REMARK    5  A    between atoms: C_15  and  S_17 
REMARK    6  A    between atoms: C_20  and  S_18 
REMARK    7  A    between atoms: O_28  and  C_24 
ROOT
ATOM      1  S   UNL d   1       1.236  -0.038  -0.157  0.00  0.00    -0.038 SA
ATOM      2  C   UNL d   1      -0.004   1.155  -0.188  0.00  0.00     0.129 A 
ATOM      3  C   UNL d   1       0.004  -1.221   0.020  0.00  0.00     0.129 A 
ATOM      4  N   UNL d   1      -1.209  -0.711   0.070  0.00  0.00    -0.287 N 
ATOM      5  HN  UNL d   1      -2.054  -1.271   0.182  1.00  0.00     0.188 HD
ATOM      6  N   UNL d   1      -1.216   0.666  -0.047  0.00  0.00    -0.287 N 
ATOM      7  HN  UNL d   1      -2.061   1.236  -0.026  1.00  0.00     0.188 HD
ENDROOT
BRANCH   3   8
ATOM      8  S   UNL d   1       0.198  -2.961   0.147  0.00  0.00    -0.099 SA
BRANCH   8   9
ATOM      9  C   UNL d   1       1.973  -3.271  -0.037  0.00  0.00     0.121 C 
BRANCH   9  10
ATOM     10  C   UNL d   1       2.242  -4.763  -0.010  0.00  0.00    -0.030 A 
ATOM     11  C   UNL d   1       2.416  -5.501   1.256  0.00  0.00     0.005 A 
ATOM     12  C   UNL d   1       2.694  -6.874   1.207  0.00  0.00     0.092 A 
ATOM     13  C   UNL d   1       2.322  -4.914   2.525  0.00  0.00     0.017 A 
ATOM     14  C   UNL d   1       2.879  -7.643   2.355  0.00  0.00     0.074 A 
ATOM     15  O   UNL d   1       2.806  -7.560  -0.018  0.00  0.00    -0.275 OA
ATOM     16  C   UNL d   1       2.787  -7.031   3.595  0.00  0.00     0.068 A 
ATOM     17  C   UNL d   1       2.508  -5.671   3.690  0.00  0.00     0.037 A 
ATOM     18  C   UNL d   1       2.655  -6.898  -1.220  0.00  0.00     0.288 A 
ATOM     19  C   UNL d   1       2.375  -5.456  -1.154  0.00  0.00     0.091 A 
ATOM     20  O   UNL d   1       2.756  -7.465  -2.302  0.00  0.00    -0.260 OA
BRANCH  16  21
ATOM     21  O   UNL d   1       2.975  -7.799   4.703  0.00  0.00    -0.361 OA
ATOM     22  H   UNL d   1       2.859  -7.249   5.495  0.00  0.00     0.217 HD
ENDBRANCH  16  21
ENDBRANCH   9  10
ENDBRANCH   8   9
ENDBRANCH   3   8
BRANCH   2  23
ATOM     23  S   UNL d   1       0.308   2.868  -0.403  0.00  0.00    -0.099 SA
BRANCH  23  24
ATOM     24  C   UNL d   1      -1.388   3.535  -0.360  0.00  0.00     0.123 C 
BRANCH  24  25
ATOM     25  C   UNL d   1      -1.458   5.002  -0.741  0.00  0.00    -0.005 A 
ATOM     26  C   UNL d   1      -1.627   5.402  -2.083  0.00  0.00     0.042 A 
ATOM     27 CL   UNL d   1      -1.700   4.258  -3.381  0.00  0.00    -0.084 Cl
ATOM     28  C   UNL d   1      -1.751   6.754  -2.433  0.00  0.00     0.024 A 
ATOM     29  C   UNL d   1      -1.698   7.740  -1.455  0.00  0.00     0.003 A 
ATOM     30  C   UNL d   1      -1.504   7.375  -0.128  0.00  0.00     0.024 A 
ATOM     31  C   UNL d   1      -1.379   6.023   0.226  0.00  0.00     0.042 A 
ATOM     32 CL   UNL d   1      -1.129   5.683   1.904  0.00  0.00    -0.084 Cl
ENDBRANCH  24  25
ENDBRANCH  23  24
ENDBRANCH   2  23
TORSDOF 7
