REMARK  4 active torsions:
REMARK  status: ('A' for Active; 'I' for Inactive)
REMARK    1  A    between atoms: C_3  and  S_1 
REMARK    2  A    between atoms: C_13  and  S_1 
REMARK    3  A    between atoms: C_6  and  C_3 
REMARK       I    between atoms: N_10  and  C_6 
REMARK    4  A    between atoms: C_7  and  N_10 
ROOT
ATOM      1  C   UNL d   1      -0.132   2.443  -3.147  0.00  0.00     0.232 C 
ATOM      2  N   UNL d   1       0.374   1.349  -2.499  0.00  0.00    -0.356 N 
ATOM      3  O   UNL d   1       0.586   3.373  -3.523  0.00  0.00    -0.273 OA
ATOM      4  H   UNL d   1      -0.202   0.532  -2.293  0.00  0.00     0.162 HD
ENDROOT
BRANCH   1   5
ATOM      5  C   UNL d   1      -1.625   2.584  -3.220  0.00  0.00     0.248 C 
BRANCH   5   6
ATOM      6  S   UNL d   1      -2.404   1.250  -4.060  0.00  0.00     0.183 S 
ATOM      7  O   UNL d   1      -2.689   0.203  -3.094  0.00  0.00    -0.222 OA
ATOM      8  O   UNL d   1      -1.669   0.961  -5.276  0.00  0.00    -0.222 OA
BRANCH   6   9
ATOM      9  C   UNL d   1      -3.989   1.915  -4.563  0.00  0.00     0.059 A 
ATOM     10  C   UNL d   1      -4.379   1.829  -5.904  0.00  0.00     0.023 A 
ATOM     11  C   UNL d   1      -5.595   2.386  -6.307  0.00  0.00     0.002 A 
ATOM     12  C   UNL d   1      -6.414   3.026  -5.376  0.00  0.00     0.000 A 
ATOM     13  C   UNL d   1      -6.027   3.101  -4.037  0.00  0.00     0.002 A 
ATOM     14  C   UNL d   1      -4.815   2.540  -3.623  0.00  0.00     0.023 A 
ENDBRANCH   6   9
ENDBRANCH   5   6
ENDBRANCH   1   5
BRANCH   2  15
ATOM     15  C   UNL d   1       1.812   1.156  -2.222  0.00  0.00     0.088 C 
ATOM     16  C   UNL d   1       2.008   0.870  -0.719  0.00  0.00     0.061 C 
ATOM     17  C   UNL d   1       1.796  -0.620  -0.360  0.00  0.00     0.225 C 
ATOM     18  C   UNL d   1       3.125  -1.390  -0.331  0.00  0.00     0.038 C 
ATOM     19  N   UNL d   1       1.036  -1.238  -1.464  0.00  0.00     0.093 N 
ATOM     20  C   UNL d   1       3.277  -1.956  -1.739  0.00  0.00     0.038 C 
ATOM     21  C   UNL d   1       2.075  -1.391  -2.502  0.00  0.00     0.225 C 
ATOM     22  C   UNL d   1       2.385   0.014  -3.084  0.00  0.00     0.061 C 
ATOM     23  C   UNL d   1       0.388  -2.489  -1.088  0.00  0.00     0.310 C 
ENDBRANCH   2  15
TORSDOF 4
