REMARK  4 active torsions:
REMARK  status: ('A' for Active; 'I' for Inactive)
REMARK    1  A    between atoms: O_10  and  C_1 
REMARK    2  A    between atoms: C_6  and  C_2 
REMARK    3  A    between atoms: O_11  and  C_6 
REMARK    4  A    between atoms: O_12  and  C_7 
ROOT
ATOM      1  C   UNL d   1      -0.834   1.126   0.011  0.00  0.00     0.159 A 
ATOM      2  C   UNL d   1      -1.552  -0.068  -0.029  0.00  0.00     0.094 A 
ATOM      3  N   UNL d   1       0.506   1.249   0.033  0.00  0.00    -0.317 N 
ATOM      4  HN  UNL d   1       0.977   2.153   0.058  1.00  0.00     0.170 HD
ATOM      5  C   UNL d   1      -0.809  -1.262  -0.043  0.00  0.00    -0.037 A 
ATOM      6  C   UNL d   1       1.172   0.086   0.018  0.00  0.00     0.142 A 
ATOM      7  C   UNL d   1       0.592  -1.166  -0.014  0.00  0.00     0.063 A 
ATOM      8  C   UNL d   1      -1.406  -2.641  -0.070  0.00  0.00     0.049 C 
ENDROOT
BRANCH   2   9
ATOM      9  C   UNL d   1      -3.039  -0.045  -0.020  0.00  0.00     0.181 C 
ATOM     10  O   UNL d   1      -3.711  -0.886   0.549  0.00  0.00    -0.646 OA
BRANCH   9  11
ATOM     11  O   UNL d   1      -3.586   0.947  -0.754  0.00  0.00    -0.773 OA
ATOM     12  H   UNL d   1      -2.958   1.660  -0.993  0.00  0.00     0.167 HD
ENDBRANCH   9  11
ENDBRANCH   2   9
BRANCH   1  13
ATOM     13  O   UNL d   1      -1.461   2.335   0.001  0.00  0.00    -0.345 OA
ATOM     14  H   UNL d   1      -0.704   2.929   0.171  0.00  0.00     0.219 HD
ENDBRANCH   1  13
BRANCH   6  15
ATOM     15  O   UNL d   1       2.521   0.213   0.021  0.00  0.00    -0.346 OA
ATOM     16  H   UNL d   1       2.620   1.181   0.025  0.00  0.00     0.219 HD
ENDBRANCH   6  15
TORSDOF 4
