REMARK  5 active torsions:
REMARK  status: ('A' for Active; 'I' for Inactive)
REMARK    1  A    between atoms: N_2  and  C_1 
REMARK    2  A    between atoms: N_4  and  C_1 
REMARK    3  A    between atoms: C_5  and  N_2 
REMARK    4  A    between atoms: C_12  and  N_4 
REMARK    5  A    between atoms: C_13  and  C_12 
ROOT
ATOM      1  N   UNL d   1       0.537   1.259   0.107  0.00  0.00    -0.333 N 
ATOM      2  H   UNL d   1       0.919   1.946  -0.530  0.00  0.00     0.168 HD
ENDROOT
BRANCH   1   3
ATOM      3  C   UNL d   1       1.117   0.022   0.005  0.00  0.00     0.172 C 
ATOM      4  S   UNL d   1       0.325  -1.443  -0.131  0.00  0.00    -0.041 SA
BRANCH   3   5
ATOM      5  N   UNL d   1       2.484   0.017  -0.055  0.00  0.00    -0.367 N 
ATOM      6  H   UNL d   1       2.869  -0.918  -0.158  0.00  0.00     0.161 HD
BRANCH   5   7
ATOM      7  C   UNL d   1       3.379   1.013   0.518  0.00  0.00     0.121 C 
BRANCH   7   8
ATOM      8  C   UNL d   1       3.776   0.678   1.959  0.00  0.00     0.015 C 
ATOM      9  C   UNL d   1       2.617   0.725   2.944  0.00  0.00     0.006 C 
ENDBRANCH   7   8
ENDBRANCH   5   7
ENDBRANCH   3   5
ENDBRANCH   1   3
BRANCH   1  10
ATOM     10  C   UNL d   1      -0.640   1.617   0.795  0.00  0.00     0.034 A 
ATOM     11  C   UNL d   1      -1.052   0.945   1.949  0.00  0.00     0.031 A 
ATOM     12  C   UNL d   1      -2.139   1.415   2.692  0.00  0.00     0.026 A 
ATOM     13  C   UNL d   1      -2.829   2.545   2.267  0.00  0.00     0.034 A 
ATOM     14  C   UNL d   1      -2.445   3.207   1.103  0.00  0.00     0.026 A 
ATOM     15 CL   UNL d   1      -4.141   3.149   3.202  0.00  0.00    -0.084 Cl
ATOM     16  C   UNL d   1      -1.339   2.752   0.376  0.00  0.00     0.031 A 
ENDBRANCH   1  10
TORSDOF 5
