REMARK  5 active torsions:
REMARK  status: ('A' for Active; 'I' for Inactive)
REMARK    1  A    between atoms: C_10  and  C_3 
REMARK    2  A    between atoms: C_12  and  N_5 
REMARK    3  A    between atoms: O_17  and  C_10 
REMARK    4  A    between atoms: C_15  and  C_12 
REMARK    5  A    between atoms: C_24  and  O_17 
ROOT
ATOM      1  N   UNL d   1      -0.329  -0.605   0.102  0.00  0.00    -0.203 N 
ATOM      2  C   UNL d   1      -0.270   0.781   0.115  0.00  0.00     0.135 A 
ATOM      3  C   UNL d   1       2.086  -0.767   0.109  0.00  0.00     0.124 A 
ATOM      4  C   UNL d   1       0.776  -1.472   0.088  0.00  0.00     0.285 A 
ATOM      5  N   UNL d   1       0.956   1.389   0.124  0.00  0.00    -0.336 N 
ATOM      6  C   UNL d   1       2.091   0.580   0.114  0.00  0.00     0.116 A 
ATOM      7  N   UNL d   1      -1.607  -1.065   0.056  0.00  0.00    -0.294 N 
ATOM      8  HN  UNL d   1      -1.921  -2.035   0.031  1.00  0.00     0.187 HD
ATOM      9  C   UNL d   1      -1.575   1.215   0.093  0.00  0.00     0.076 A 
ATOM     10  C   UNL d   1      -2.359   0.038   0.053  0.00  0.00     0.026 A 
ATOM     11  O   UNL d   1       0.616  -2.684   0.019  0.00  0.00    -0.265 OA
ATOM     12  C   UNL d   1      -3.837  -0.071   0.002  0.00  0.00     0.070 C 
ENDROOT
BRANCH   5  13
ATOM     13  C   UNL d   1       1.043   2.851  -0.047  0.00  0.00     0.168 C 
BRANCH  13  14
ATOM     14  C   UNL d   1       0.982   3.605   1.265  0.00  0.00    -0.038 A 
ATOM     15  C   UNL d   1      -0.090   4.470   1.537  0.00  0.00     0.032 A 
ATOM     16  C   UNL d   1      -0.105   5.229   2.708  0.00  0.00     0.034 A 
ATOM     17 CL   UNL d   1      -1.416   6.303   3.011  0.00  0.00    -0.084 Cl
ATOM     18  C   UNL d   1       0.939   5.138   3.625  0.00  0.00     0.024 A 
ATOM     19  C   UNL d   1       2.003   4.273   3.373  0.00  0.00     0.002 A 
ATOM     20  C   UNL d   1       2.024   3.511   2.202  0.00  0.00     0.009 A 
ENDBRANCH  13  14
ENDBRANCH   5  13
BRANCH   3  21
ATOM     21  C   UNL d   1       3.383  -1.463   0.022  0.00  0.00     0.300 C 
ATOM     22  O   UNL d   1       4.420  -0.922  -0.336  0.00  0.00    -0.259 OA
BRANCH  21  23
ATOM     23  O   UNL d   1       3.244  -2.768   0.338  0.00  0.00    -0.318 OA
BRANCH  23  24
ATOM     24  C   UNL d   1       4.275  -3.653  -0.118  0.00  0.00     0.174 C 
ATOM     25  C   UNL d   1       3.928  -4.103  -1.527  0.00  0.00     0.034 C 
ENDBRANCH  23  24
ENDBRANCH  21  23
ENDBRANCH   3  21
TORSDOF 5
