REMARK  4 active torsions:
REMARK  status: ('A' for Active; 'I' for Inactive)
REMARK       I    between atoms: C_6  and  N_1 
REMARK    1  A    between atoms: C_5  and  C_4 
REMARK    2  A    between atoms: C_15  and  C_6 
REMARK    3  A    between atoms: C_10  and  C_11 
REMARK    4  A    between atoms: C_19  and  C_12 
ROOT
ATOM      1  N   UNL d   1      -0.472  -0.442   0.179  0.00  0.00    -0.231 N 
ATOM      2  N   UNL d   1      -0.823   0.814   0.562  0.00  0.00    -0.290 N 
ATOM      3  HN  UNL d   1      -1.480   1.080   1.296  1.00  0.00     0.187 HD
ATOM      4  C   UNL d   1      -0.116   1.626  -0.237  0.00  0.00     0.067 A 
ATOM      5  C   UNL d   1      -1.054  -1.578   0.781  0.00  0.00     0.276 C 
ATOM      6  C   UNL d   1       0.730   0.900  -1.103  0.00  0.00     0.051 A 
ATOM      7  C   UNL d   1       0.456  -0.419  -0.840  0.00  0.00     0.122 A 
ATOM      8  O   UNL d   1      -0.886  -2.659   0.216  0.00  0.00    -0.265 OA
ENDROOT
BRANCH   4   9
ATOM      9  C   UNL d   1      -0.272   3.117  -0.180  0.00  0.00     0.034 A 
ATOM     10  S   UNL d   1       0.638   4.232  -1.105  0.00  0.00    -0.079 SA
ATOM     11  C   UNL d   1      -0.240   5.561  -0.493  0.00  0.00     0.059 A 
ATOM     12  C   UNL d   1      -1.184   5.168   0.432  0.00  0.00     0.029 A 
ATOM     13  C   UNL d   1      -1.204   3.756   0.613  0.00  0.00     0.023 A 
BRANCH  11  14
ATOM     14  C   UNL d   1      -0.088   6.905  -0.938  0.00  0.00    -0.054 C 
ATOM     15  C   UNL d   1      -0.165   8.034  -1.339  0.00  0.00    -0.061 C 
BRANCH  15  16
ATOM     16  C   UNL d   1      -0.509   9.325  -1.854  0.00  0.00     0.018 A 
ATOM     17  C   UNL d   1       0.440  10.323  -2.048  0.00  0.00     0.020 A 
ATOM     18  C   UNL d   1       0.049  11.556  -2.582  0.00  0.00     0.001 A 
ATOM     19  C   UNL d   1      -1.287  11.785  -2.916  0.00  0.00     0.000 A 
ATOM     20  C   UNL d   1      -2.239  10.789  -2.710  0.00  0.00     0.001 A 
ATOM     21  C   UNL d   1      -1.849   9.561  -2.178  0.00  0.00     0.020 A 
ENDBRANCH  15  16
ENDBRANCH  11  14
ENDBRANCH   4   9
BRANCH   5  22
ATOM     22  C   UNL d   1      -1.819  -1.562   2.055  0.00  0.00     0.034 A 
ATOM     23  C   UNL d   1      -2.881  -2.461   2.224  0.00  0.00     0.019 A 
ATOM     24  C   UNL d   1      -3.549  -2.537   3.450  0.00  0.00     0.025 A 
ATOM     25  C   UNL d   1      -3.143  -1.727   4.511  0.00  0.00     0.034 A 
ATOM     26  C   UNL d   1      -2.084  -0.834   4.353  0.00  0.00     0.025 A 
ATOM     27 CL   UNL d   1      -3.939  -1.845   6.031  0.00  0.00    -0.084 Cl
ATOM     28  C   UNL d   1      -1.421  -0.750   3.126  0.00  0.00     0.019 A 
ENDBRANCH   5  22
TORSDOF 4
