REMARK  4 active torsions:
REMARK  status: ('A' for Active; 'I' for Inactive)
REMARK    1  A    between atoms: N_3  and  C_1 
REMARK    2  A    between atoms: C_2  and  N_3 
REMARK    3  A    between atoms: O_12  and  C_8 
REMARK    4  A    between atoms: O_14  and  C_10 
ROOT
ATOM      1  C   UNL d   1       1.109  -3.125   0.533  0.00  0.00     0.070 A 
ATOM      2  C   UNL d   1       2.135  -2.791   1.430  0.00  0.00     0.069 A 
ATOM      3  C   UNL d   1       1.342  -4.188  -0.361  0.00  0.00     0.095 A 
ATOM      4  C   UNL d   1       2.526  -4.925  -0.317  0.00  0.00     0.042 A 
ATOM      5  C   UNL d   1       3.325  -3.520   1.484  0.00  0.00     0.070 A 
ATOM      6  C   UNL d   1       3.518  -4.583   0.602  0.00  0.00     0.039 A 
ENDROOT
BRANCH   1   7
ATOM      7  N   UNL d   1      -0.097  -2.407   0.461  0.00  0.00    -0.335 N 
ATOM      8  H   UNL d   1      -0.861  -2.914   0.035  0.00  0.00     0.168 HD
BRANCH   7   9
ATOM      9  C   UNL d   1      -0.359  -1.141   0.882  0.00  0.00     0.140 C 
ATOM     10  N   UNL d   1       0.441  -0.260   1.380  0.00  0.00    -0.370 N 
ATOM     11  C   UNL d   1      -0.292   0.971   1.723  0.00  0.00     0.132 C 
ATOM     12  HN  UNL d   1       1.442  -0.396   1.516  1.00  0.00     0.161 HD
ATOM     13  C   UNL d   1      -1.532   1.087   0.857  0.00  0.00     0.102 C 
ATOM     14  S   UNL d   1      -2.024  -0.632   0.649  0.00  0.00    -0.093 SA
ENDBRANCH   7   9
ENDBRANCH   1   7
BRANCH   3  15
ATOM     15  O   UNL d   1       0.389  -4.590  -1.266  0.00  0.00    -0.354 OA
ATOM     16  C   UNL d   1       0.244  -3.658  -2.340  0.00  0.00     0.210 C 
ENDBRANCH   3  15
BRANCH   5  17
ATOM     17  O   UNL d   1       4.362  -3.292   2.350  0.00  0.00    -0.356 OA
ATOM     18  C   UNL d   1       4.145  -2.310   3.358  0.00  0.00     0.210 C 
ENDBRANCH   5  17
TORSDOF 4
