REMARK  3 active torsions:
REMARK  status: ('A' for Active; 'I' for Inactive)
REMARK    1  A    between atoms: C_10  and  C_5 
REMARK    2  A    between atoms: S_11  and  C_8 
REMARK    3  A    between atoms: O_14  and  C_9 
ROOT
ATOM      1  N   UNL d   1      -0.640   1.210  -0.033  0.00  0.00    -0.322 N 
ATOM      2  HN  UNL d   1      -1.126   2.107  -0.059  1.00  0.00     0.169 HD
ATOM      3  N   UNL d   1      -0.701  -1.148   0.044  0.00  0.00    -0.307 N 
ATOM      4  HN  UNL d   1      -1.219  -2.026   0.077  1.00  0.00     0.171 HD
ATOM      5  C   UNL d   1      -1.292   0.044   0.012  0.00  0.00     0.120 A 
ATOM      6  N   UNL d   1       1.380  -0.019  -0.011  0.00  0.00    -0.302 N 
ATOM      7  HN  UNL d   1       2.399  -0.056  -0.019  1.00  0.00     0.171 HD
ATOM      8  C   UNL d   1       0.689   1.117  -0.041  0.00  0.00     0.148 A 
ATOM      9  C   UNL d   1       0.616  -1.091   0.029  0.00  0.00     0.224 A 
ENDROOT
BRANCH   5  10
ATOM     10  C   UNL d   1      -2.772   0.070   0.036  0.00  0.00     0.008 A 
ATOM     11  C   UNL d   1      -3.523  -1.122   0.118  0.00  0.00     0.017 A 
ATOM     12  C   UNL d   1      -4.923  -1.110   0.147  0.00  0.00     0.025 A 
ATOM     13  C   UNL d   1      -5.603   0.101   0.096  0.00  0.00     0.034 A 
ATOM     14  C   UNL d   1      -4.896   1.296   0.013  0.00  0.00     0.025 A 
ATOM     15 CL   UNL d   1      -7.322   0.121   0.135  0.00  0.00    -0.084 Cl
ATOM     16  C   UNL d   1      -3.495   1.278  -0.017  0.00  0.00     0.017 A 
ENDBRANCH   5  10
BRANCH   9  17
ATOM     17  O   UNL d   1       1.290  -2.271   0.062  0.00  0.00    -0.332 OA
ATOM     18  H   UNL d   1       2.203  -1.941   0.046  0.00  0.00     0.221 HD
ENDBRANCH   9  17
BRANCH   8  19
ATOM     19  S   UNL d   1       1.670   2.601  -0.084  0.00  0.00    -0.098 SA
ATOM     20  C   UNL d   1       0.379   3.865  -0.145  0.00  0.00     0.099 C 
ENDBRANCH   8  19
TORSDOF 3
