REMARK  6 active torsions:
REMARK  status: ('A' for Active; 'I' for Inactive)
REMARK       I    between atoms: N_6  and  C_1 
REMARK       I    between atoms: N_7  and  C_1 
REMARK    1  A    between atoms: N_2  and  N_7 
REMARK    2  A    between atoms: N_4  and  N_6 
REMARK    3  A    between atoms: C_11  and  C_9 
REMARK    4  A    between atoms: C_12  and  C_10 
REMARK    5  A    between atoms: O_23  and  C_13 
REMARK    6  A    between atoms: O_24  and  C_14 
ROOT
ATOM      1  C   UNL d   1       0.977  -0.067  -0.038  0.00  0.00     0.353 C 
ATOM      2  N   UNL d   1       0.305   1.010   0.545  0.00  0.00    -0.251 N 
ATOM      3  N   UNL d   1       0.084  -1.044  -0.482  0.00  0.00    -0.251 N 
ATOM      4  O   UNL d   1       2.198  -0.146  -0.145  0.00  0.00    -0.244 OA
ATOM      5  H   UNL d   1      -0.702   1.058   0.533  0.00  0.00     0.191 HD
ATOM      6  H   UNL d   1      -0.902  -0.954  -0.294  0.00  0.00     0.191 HD
ENDROOT
BRANCH   2   7
ATOM      7  N   UNL d   1       1.022   2.067   1.018  0.00  0.00    -0.307 N 
ATOM      8  C   UNL d   1       0.355   3.050   1.530  0.00  0.00     0.118 C 
ATOM      9  HN  UNL d   1       2.041   2.082   0.972  1.00  0.00     0.186 HD
BRANCH   8  10
ATOM     10  C   UNL d   1       1.058   4.243   2.049  0.00  0.00    -0.019 A 
ATOM     11  C   UNL d   1       2.452   4.321   1.974  0.00  0.00     0.015 A 
ATOM     12  C   UNL d   1       3.121   5.452   2.452  0.00  0.00     0.037 A 
ATOM     13  C   UNL d   1       2.400   6.507   3.010  0.00  0.00     0.068 A 
ATOM     14  C   UNL d   1       1.005   6.421   3.086  0.00  0.00     0.037 A 
ATOM     15  C   UNL d   1       0.328   5.292   2.606  0.00  0.00     0.015 A 
BRANCH  13  16
ATOM     16  O   UNL d   1       2.934   7.662   3.514  0.00  0.00    -0.356 OA
ATOM     17  C   UNL d   1       4.349   7.795   3.442  0.00  0.00     0.210 C 
ENDBRANCH  13  16
ENDBRANCH   8  10
ENDBRANCH   2   7
BRANCH   3  18
ATOM     18  N   UNL d   1       0.557  -2.194  -1.045  0.00  0.00    -0.307 N 
ATOM     19  C   UNL d   1      -0.334  -3.058  -1.407  0.00  0.00     0.118 C 
ATOM     20  HN  UNL d   1       1.555  -2.362  -1.173  1.00  0.00     0.186 HD
BRANCH  19  21
ATOM     21  C   UNL d   1       0.042  -4.352  -2.013  0.00  0.00    -0.019 A 
ATOM     22  C   UNL d   1       1.384  -4.695  -2.195  0.00  0.00     0.015 A 
ATOM     23  C   UNL d   1       1.722  -5.921  -2.778  0.00  0.00     0.037 A 
ATOM     24  C   UNL d   1       0.717  -6.801  -3.184  0.00  0.00     0.068 A 
ATOM     25  C   UNL d   1      -0.622  -6.465  -2.974  0.00  0.00     0.037 A 
ATOM     26  C   UNL d   1      -0.966  -5.239  -2.398  0.00  0.00     0.015 A 
BRANCH  24  27
ATOM     27  O   UNL d   1       0.928  -8.026  -3.757  0.00  0.00    -0.356 OA
ATOM     28  C   UNL d   1       2.126  -8.146  -4.519  0.00  0.00     0.210 C 
ENDBRANCH  24  27
ENDBRANCH  19  21
ENDBRANCH   3  18
TORSDOF 6
