REMARK  2 active torsions:
REMARK  status: ('A' for Active; 'I' for Inactive)
REMARK    1  A    between atoms: O_12  and  C_6 
REMARK    2  A    between atoms: O_13  and  C_7 
ROOT
ATOM      1  C   UNL d   1      -0.026   0.659   0.019  0.00  0.00    -0.038 A 
ATOM      2  C   UNL d   1      -2.551   0.625  -0.307  0.00  0.00     0.263 C 
ATOM      3  C   UNL d   1      -0.030  -0.729  -0.055  0.00  0.00    -0.024 A 
ATOM      4  O   UNL d   1      -2.528  -0.706  -0.103  0.00  0.00    -0.317 OA
ATOM      5  C   UNL d   1       1.193   1.346   0.115  0.00  0.00     0.047 A 
ATOM      6  C   UNL d   1       2.409   0.656   0.121  0.00  0.00     0.102 A 
ATOM      7  C   UNL d   1       2.410  -0.747   0.021  0.00  0.00     0.102 A 
ATOM      8  C   UNL d   1       1.188  -1.426  -0.057  0.00  0.00     0.049 A 
ATOM      9  C   UNL d   1      -1.315   1.419   0.013  0.00  0.00     0.150 C 
ATOM     10  C   UNL d   1      -1.322  -1.482  -0.160  0.00  0.00     0.218 C 
ATOM     11  O   UNL d   1      -3.592   1.185  -0.642  0.00  0.00    -0.265 OA
ENDROOT
BRANCH   6  12
ATOM     12  O   UNL d   1       3.635   1.272   0.174  0.00  0.00    -0.353 OA
ATOM     13  C   UNL d   1       3.670   2.568   0.758  0.00  0.00     0.210 C 
ENDBRANCH   6  12
BRANCH   7  14
ATOM     14  O   UNL d   1       3.638  -1.358   0.017  0.00  0.00    -0.353 OA
ATOM     15  C   UNL d   1       3.671  -2.774  -0.092  0.00  0.00     0.210 C 
ENDBRANCH   7  14
TORSDOF 2
