REMARK  7 active torsions:
REMARK  status: ('A' for Active; 'I' for Inactive)
REMARK    1  A    between atoms: S_9  and  C_3 
REMARK    2  A    between atoms: C_10  and  C_4 
REMARK    3  A    between atoms: C_5  and  C_17 
REMARK       I    between atoms: N_8  and  C_5 
REMARK    4  A    between atoms: C_18  and  N_8 
REMARK    5  A    between atoms: C_17  and  S_9 
REMARK    6  A    between atoms: C_22  and  C_11 
REMARK    7  A    between atoms: O_27  and  C_21 
ROOT
ATOM      1  N   UNL d   1       0.424   4.257   3.430  0.00  0.00    -0.336 N 
ATOM      2  HN  UNL d   1       1.396   4.199   3.126  1.00  0.00     0.168 HD
ATOM      3  C   UNL d   1      -0.551   3.606   2.782  0.00  0.00     0.145 A 
ATOM      4  C   UNL d   1       0.065   4.993   4.503  0.00  0.00     0.045 A 
ATOM      5  N   UNL d   1      -1.848   3.621   3.112  0.00  0.00    -0.347 N 
ATOM      6  HN  UNL d   1      -2.549   3.106   2.578  1.00  0.00     0.167 HD
ATOM      7  C   UNL d   1      -1.251   5.069   4.920  0.00  0.00     0.047 A 
ATOM      8  C   UNL d   1      -2.171   4.356   4.188  0.00  0.00     0.092 A 
ENDROOT
BRANCH   3   9
ATOM      9  S   UNL d   1      -0.075   2.873   1.242  0.00  0.00    -0.085 SA
BRANCH   9  10
ATOM     10  C   UNL d   1      -1.341   3.623   0.187  0.00  0.00     0.185 C 
BRANCH  10  11
ATOM     11  C   UNL d   1      -1.349   5.147   0.102  0.00  0.00     0.231 C 
ATOM     12  N   UNL d   1      -0.286   5.823   0.673  0.00  0.00    -0.327 N 
ATOM     13  H   UNL d   1       0.477   5.256   1.032  0.00  0.00     0.169 HD
ATOM     14  O   UNL d   1      -2.284   5.687  -0.494  0.00  0.00    -0.272 OA
BRANCH  12  15
ATOM     15  C   UNL d   1      -0.180   7.215   0.898  0.00  0.00     0.034 A 
ATOM     16  C   UNL d   1      -1.190   8.124   0.590  0.00  0.00     0.030 A 
ATOM     17  C   UNL d   1      -1.052   9.482   0.896  0.00  0.00     0.010 A 
ATOM     18  C   UNL d   1       0.106   9.968   1.518  0.00  0.00    -0.055 A 
ATOM     19  C   UNL d   1       1.130   9.056   1.809  0.00  0.00     0.010 A 
ATOM     20  C   UNL d   1       0.986   7.694   1.506  0.00  0.00     0.030 A 
BRANCH  18  21
ATOM     21  C   UNL d   1       0.233  11.430   1.909  0.00  0.00     0.010 C 
ATOM     22  C   UNL d   1       0.108  12.366   0.703  0.00  0.00     0.015 C 
ATOM     23  C   UNL d   1      -0.799  11.794   2.981  0.00  0.00     0.015 C 
ENDBRANCH  18  21
ENDBRANCH  12  15
ENDBRANCH  10  11
ENDBRANCH   9  10
ENDBRANCH   3   9
BRANCH   4  24
ATOM     24  C   UNL d   1       1.163   5.720   5.167  0.00  0.00    -0.009 A 
ATOM     25  C   UNL d   1       0.969   6.984   5.745  0.00  0.00     0.016 A 
ATOM     26  C   UNL d   1       2.020   7.672   6.372  0.00  0.00     0.037 A 
ATOM     27  C   UNL d   1       3.290   7.111   6.426  0.00  0.00     0.068 A 
ATOM     28  C   UNL d   1       3.506   5.860   5.850  0.00  0.00     0.037 A 
ATOM     29  C   UNL d   1       2.458   5.174   5.227  0.00  0.00     0.016 A 
BRANCH  27  30
ATOM     30  O   UNL d   1       4.395   7.681   6.999  0.00  0.00    -0.356 OA
ATOM     31  C   UNL d   1       4.222   8.968   7.577  0.00  0.00     0.210 C 
ENDBRANCH  27  30
ENDBRANCH   4  24
TORSDOF 7
