REMARK  3 active torsions:
REMARK  status: ('A' for Active; 'I' for Inactive)
REMARK    1  A    between atoms: C_6  and  C_1 
REMARK    2  A    between atoms: C_9  and  N_2 
REMARK       I    between atoms: N_8  and  C_6 
REMARK    3  A    between atoms: O_22  and  C_19 
ROOT
ATOM      1  C   UNL d   1      -0.350   1.151   0.037  0.00  0.00     0.073 C 
ATOM      2  N   UNL d   1       1.012  -0.608   0.038  0.00  0.00    -0.260 N 
ATOM      3  C   UNL d   1       0.994   0.783   0.034  0.00  0.00     0.048 C 
ATOM      4  N   UNL d   1      -0.244  -1.121  -0.034  0.00  0.00    -0.304 N 
ATOM      5  HN  UNL d   1      -0.514  -2.096  -0.162  1.00  0.00     0.186 HD
ATOM      6  C   UNL d   1      -1.042  -0.069   0.102  0.00  0.00     0.126 C 
ATOM      7  C   UNL d   1       2.178   1.679  -0.068  0.00  0.00     0.071 C 
ENDROOT
BRANCH   1   8
ATOM      8  C   UNL d   1      -0.882   2.505  -0.009  0.00  0.00     0.257 C 
ATOM      9  N   UNL d   1      -2.026   2.718  -0.782  0.00  0.00    -0.344 N 
ATOM     10  C   UNL d   1      -2.548   4.087  -0.826  0.00  0.00     0.156 C 
ATOM     11  C   UNL d   1      -2.336   1.918  -1.978  0.00  0.00     0.156 C 
ATOM     12  C   UNL d   1      -4.016   4.152  -1.298  0.00  0.00     0.291 C 
ATOM     13  N   UNL d   1      -4.325   3.374  -2.518  0.00  0.00     0.087 N 
ATOM     14  C   UNL d   1      -3.825   1.998  -2.352  0.00  0.00     0.291 C 
ATOM     15  C   UNL d   1      -3.774   3.999  -3.718  0.00  0.00     0.310 C 
ATOM     16  O   UNL d   1      -0.329   3.416   0.611  0.00  0.00    -0.267 OA
ENDBRANCH   1   8
BRANCH   2  17
ATOM     17  C   UNL d   1       2.104  -1.512   0.117  0.00  0.00     0.056 A 
ATOM     18  C   UNL d   1       3.273  -1.176   0.800  0.00  0.00     0.034 A 
ATOM     19  C   UNL d   1       4.325  -2.094   0.884  0.00  0.00     0.039 A 
ATOM     20  C   UNL d   1       4.214  -3.354   0.292  0.00  0.00     0.068 A 
ATOM     21  C   UNL d   1       3.039  -3.694  -0.378  0.00  0.00     0.039 A 
ATOM     22  C   UNL d   1       1.979  -2.787  -0.455  0.00  0.00     0.034 A 
BRANCH  20  23
ATOM     23  O   UNL d   1       5.174  -4.328   0.310  0.00  0.00    -0.356 OA
ATOM     24  C   UNL d   1       6.341  -4.051   1.075  0.00  0.00     0.210 C 
ENDBRANCH  20  23
ENDBRANCH   2  17
TORSDOF 3
