REMARK  7 active torsions:
REMARK  status: ('A' for Active; 'I' for Inactive)
REMARK    1  A    between atoms: C_8  and  C_2 
REMARK    2  A    between atoms: S_13  and  C_5 
REMARK    3  A    between atoms: C_9  and  C_17 
REMARK    4  A    between atoms: O_16  and  C_12 
REMARK    5  A    between atoms: C_22  and  S_13 
REMARK    6  A    between atoms: C_17  and  O_16 
REMARK    7  A    between atoms: C_24  and  C_22 
ROOT
ATOM      1  O   UNL d   1      -1.180   0.025  -0.047  0.00  0.00    -0.267 OA
ATOM      2  C   UNL d   1      -0.316  -1.040   0.086  0.00  0.00     0.176 A 
ATOM      3  N   UNL d   1       0.930  -0.657   0.273  0.00  0.00    -0.277 N 
ATOM      4  HN  UNL d   1       1.739  -1.262   0.415  1.00  0.00     0.189 HD
ATOM      5  C   UNL d   1      -0.320   1.096   0.049  0.00  0.00     0.204 A 
ATOM      6  N   UNL d   1       0.927   0.717   0.241  0.00  0.00    -0.272 N 
ATOM      7  HN  UNL d   1       1.737   1.328   0.346  1.00  0.00     0.189 HD
ENDROOT
BRANCH   2   8
ATOM      8  C   UNL d   1      -0.843  -2.390  -0.024  0.00  0.00     0.032 A 
ATOM      9  C   UNL d   1       0.014  -3.481   0.099  0.00  0.00     0.106 A 
ATOM     10  N   UNL d   1      -0.361  -4.780  -0.029  0.00  0.00    -0.346 N 
ATOM     11  C   UNL d   1      -1.655  -5.034  -0.292  0.00  0.00     0.142 A 
ATOM     12  HN  UNL d   1       0.315  -5.537   0.072  1.00  0.00     0.167 HD
ATOM     13  C   UNL d   1      -2.593  -4.019  -0.427  0.00  0.00     0.057 A 
ATOM     14  C   UNL d   1      -2.181  -2.687  -0.288  0.00  0.00     0.021 A 
BRANCH  11  15
ATOM     15  O   UNL d   1      -1.912  -6.358  -0.504  0.00  0.00    -0.327 OA
BRANCH  15  16
ATOM     16  C   UNL d   1      -3.183  -6.831  -0.053  0.00  0.00     0.294 C 
BRANCH  16  17
ATOM     17  C   UNL d   1      -3.305  -8.347  -0.211  0.00  0.00     0.408 C 
ATOM     18  F   UNL d   1      -2.162  -8.938  -0.614  0.00  0.00    -0.169 F 
ATOM     19  F   UNL d   1      -3.673  -8.923   0.957  0.00  0.00    -0.169 F 
ATOM     20  F   UNL d   1      -4.263  -8.651  -1.121  0.00  0.00    -0.169 F 
ENDBRANCH  16  17
ENDBRANCH  15  16
ENDBRANCH  11  15
ENDBRANCH   2   8
BRANCH   5  21
ATOM     21  S   UNL d   1      -0.763   2.762  -0.157  0.00  0.00    -0.080 SA
BRANCH  21  22
ATOM     22  C   UNL d   1      -2.403   2.830   0.604  0.00  0.00     0.121 C 
BRANCH  22  23
ATOM     23  C   UNL d   1      -2.937   4.247   0.618  0.00  0.00    -0.048 A 
ATOM     24  C   UNL d   1      -3.613   4.769  -0.497  0.00  0.00     0.009 A 
ATOM     25  C   UNL d   1      -4.079   6.087  -0.500  0.00  0.00     0.024 A 
ATOM     26  C   UNL d   1      -3.867   6.899   0.612  0.00  0.00     0.034 A 
ATOM     27  C   UNL d   1      -3.191   6.405   1.723  0.00  0.00     0.024 A 
ATOM     28 CL   UNL d   1      -4.441   8.520   0.609  0.00  0.00    -0.084 Cl
ATOM     29  C   UNL d   1      -2.723   5.087   1.726  0.00  0.00     0.009 A 
ENDBRANCH  22  23
ENDBRANCH  21  22
ENDBRANCH   5  21
TORSDOF 7
