REMARK  4 active torsions:
REMARK  status: ('A' for Active; 'I' for Inactive)
REMARK    1  A    between atoms: C_7  and  C_1 
REMARK    2  A    between atoms: C_8  and  C_5 
REMARK    3  A    between atoms: O_21  and  C_7 
REMARK    4  A    between atoms: C_22  and  O_21 
ROOT
ATOM      1  C   UNL d   1      -0.538  -1.415  -0.029  0.00  0.00     0.067 C 
ATOM      2  C   UNL d   1      -1.449  -0.411  -0.058  0.00  0.00     0.026 C 
ATOM      3  C   UNL d   1       0.352   1.264  -0.142  0.00  0.00     0.323 C 
ATOM      4  N   UNL d   1      -0.994   0.920  -0.070  0.00  0.00    -0.308 N 
ATOM      5  C   UNL d   1       0.942  -1.142  -0.009  0.00  0.00     0.161 C 
ATOM      6  N   UNL d   1       1.236   0.250  -0.235  0.00  0.00    -0.330 N 
ATOM      7  O   UNL d   1       0.769   2.422  -0.147  0.00  0.00    -0.247 OA
ATOM      8  C   UNL d   1      -2.947  -0.618  -0.071  0.00  0.00     0.069 C 
ATOM      9  C   UNL d   1      -1.895   2.065  -0.003  0.00  0.00     0.161 C 
ATOM     10  H   UNL d   1       2.202   0.546  -0.237  0.00  0.00     0.165 HD
ENDROOT
BRANCH   5  11
ATOM     11  C   UNL d   1       1.640  -1.598   1.268  0.00  0.00    -0.028 A 
ATOM     12  C   UNL d   1       2.698  -2.523   1.190  0.00  0.00     0.049 A 
ATOM     13  C   UNL d   1       3.292  -2.938   2.362  0.00  0.00     0.105 A 
ATOM     14  O   UNL d   1       4.309  -3.835   2.460  0.00  0.00    -0.323 OA
ATOM     15  C   UNL d   1       2.886  -2.466   3.587  0.00  0.00     0.105 A 
ATOM     16  C   UNL d   1       4.515  -3.854   3.888  0.00  0.00     0.352 A 
ATOM     17  O   UNL d   1       3.600  -3.005   4.611  0.00  0.00    -0.323 OA
ATOM     18  C   UNL d   1       1.865  -1.550   3.709  0.00  0.00     0.040 A 
ATOM     19  C   UNL d   1       1.240  -1.111   2.537  0.00  0.00     0.012 A 
ENDBRANCH   5  11
BRANCH   1  20
ATOM     20  C   UNL d   1      -0.915  -2.859   0.097  0.00  0.00     0.293 C 
ATOM     21  O   UNL d   1      -1.959  -3.264   0.583  0.00  0.00    -0.259 OA
BRANCH  20  22
ATOM     22  O   UNL d   1       0.108  -3.661  -0.305  0.00  0.00    -0.318 OA
BRANCH  22  23
ATOM     23  C   UNL d   1       0.059  -5.022   0.160  0.00  0.00     0.174 C 
ATOM     24  C   UNL d   1      -0.112  -5.973  -1.006  0.00  0.00     0.034 C 
ENDBRANCH  22  23
ENDBRANCH  20  22
ENDBRANCH   1  20
TORSDOF 4
