REMARK  5 active torsions:
REMARK  status: ('A' for Active; 'I' for Inactive)
REMARK       I    between atoms: N_2  and  C_1 
REMARK       I    between atoms: N_6  and  C_1 
REMARK    1  A    between atoms: C_5  and  N_2 
REMARK    2  A    between atoms: C_11  and  N_6 
REMARK    3  A    between atoms: O_13  and  C_14 
REMARK    4  A    between atoms: C_15  and  O_13 
REMARK    5  A    between atoms: C_20  and  C_15 
ROOT
ATOM      1  C   UNL d   1       1.179   0.166  -0.501  0.00  0.00     0.326 C 
ATOM      2  N   UNL d   1       2.475  -0.253  -0.311  0.00  0.00    -0.294 N 
ATOM      3  N   UNL d   1       0.251  -0.829  -0.629  0.00  0.00    -0.309 N 
ATOM      4  O   UNL d   1       0.956   1.375  -0.504  0.00  0.00    -0.247 OA
ATOM      5  H   UNL d   1       3.115   0.511  -0.146  0.00  0.00     0.172 HD
ATOM      6  H   UNL d   1       0.656  -1.762  -0.613  0.00  0.00     0.170 HD
ENDROOT
BRANCH   3   7
ATOM      7  C   UNL d   1      -1.137  -0.756  -0.776  0.00  0.00     0.036 A 
ATOM      8  C   UNL d   1      -1.842   0.440  -0.863  0.00  0.00     0.032 A 
ATOM      9  C   UNL d   1      -3.232   0.427  -1.007  0.00  0.00     0.039 A 
ATOM     10  C   UNL d   1      -3.928  -0.783  -1.054  0.00  0.00     0.069 A 
ATOM     11  C   UNL d   1      -3.223  -1.981  -0.987  0.00  0.00     0.039 A 
ATOM     12  C   UNL d   1      -1.835  -1.968  -0.841  0.00  0.00     0.032 A 
BRANCH  10  13
ATOM     13  O   UNL d   1      -5.282  -0.901  -1.210  0.00  0.00    -0.347 OA
BRANCH  13  14
ATOM     14  C   UNL d   1      -6.048   0.158  -0.631  0.00  0.00     0.214 C 
BRANCH  14  15
ATOM     15  C   UNL d   1      -7.528  -0.096  -0.801  0.00  0.00    -0.034 A 
ATOM     16  C   UNL d   1      -8.059  -1.392  -0.847  0.00  0.00     0.009 A 
ATOM     17  C   UNL d   1      -9.434  -1.589  -0.987  0.00  0.00     0.001 A 
ATOM     18  C   UNL d   1     -10.292  -0.493  -1.067  0.00  0.00     0.000 A 
ATOM     19  C   UNL d   1      -9.778   0.800  -1.004  0.00  0.00     0.001 A 
ATOM     20  C   UNL d   1      -8.406   0.998  -0.866  0.00  0.00     0.009 A 
ENDBRANCH  14  15
ENDBRANCH  13  14
ENDBRANCH  10  13
ENDBRANCH   3   7
BRANCH   2  21
ATOM     21  C   UNL d   1       2.962  -1.562  -0.276  0.00  0.00     0.109 A 
ATOM     22  N   UNL d   1       2.125  -2.577  -0.592  0.00  0.00    -0.342 N 
ATOM     23  C   UNL d   1       2.570  -3.838  -0.530  0.00  0.00     0.043 A 
ATOM     24  HN  UNL d   1       1.165  -2.382  -0.874  1.00  0.00     0.167 HD
ATOM     25  C   UNL d   1       1.707  -4.869  -0.875  0.00  0.00     0.030 A 
ATOM     26  C   UNL d   1       3.877  -4.153  -0.118  0.00  0.00    -0.009 A 
ATOM     27  C   UNL d   1       2.103  -6.205  -0.800  0.00  0.00     0.002 A 
ATOM     28  C   UNL d   1       3.386  -6.520  -0.370  0.00  0.00     0.001 A 
ATOM     29  C   UNL d   1       4.275  -5.499  -0.034  0.00  0.00     0.013 A 
ATOM     30  C   UNL d   1       4.734  -3.089   0.194  0.00  0.00     0.017 A 
ATOM     31  C   UNL d   1       4.278  -1.775   0.101  0.00  0.00     0.049 A 
ENDBRANCH   2  21
TORSDOF 5
