REMARK  4 active torsions:
REMARK  status: ('A' for Active; 'I' for Inactive)
REMARK    1  A    between atoms: C_4  and  C_1 
REMARK    2  A    between atoms: C_8  and  N_2 
REMARK    3  A    between atoms: C_16  and  C_7 
REMARK    4  A    between atoms: O_19  and  C_9 
ROOT
ATOM      1  N   UNL d   1      -4.107  -2.471   0.085  0.00  0.00    -0.364 N 
ATOM      2  HN  UNL d   1      -3.845  -2.057   0.980  1.00  0.00     0.165 HD
ATOM      3  C   UNL d   1      -3.826  -1.874  -1.031  0.00  0.00     0.102 C 
ENDROOT
BRANCH   1   4
ATOM      4  C   UNL d   1      -4.786  -3.712   0.030  0.00  0.00     0.049 A 
ATOM      5  C   UNL d   1      -4.426  -4.776   0.871  0.00  0.00     0.038 A 
ATOM      6  C   UNL d   1      -5.129  -5.991   0.843  0.00  0.00     0.029 A 
ATOM      7 BR   UNL d   1      -2.987  -4.612   2.102  0.00  0.00    -0.049 Br
ATOM      8  C   UNL d   1      -6.215  -6.173  -0.028  0.00  0.00    -0.053 A 
ATOM      9  C   UNL d   1      -6.593  -5.102  -0.845  0.00  0.00     0.010 A 
ATOM     10  C   UNL d   1      -5.896  -3.891  -0.808  0.00  0.00     0.031 A 
BRANCH   8  11
ATOM     11  C   UNL d   1      -6.981  -7.486  -0.012  0.00  0.00     0.010 C 
ATOM     12  C   UNL d   1      -8.150  -7.400   0.973  0.00  0.00     0.015 C 
ATOM     13  C   UNL d   1      -7.479  -7.930  -1.392  0.00  0.00     0.015 C 
ENDBRANCH   8  11
ENDBRANCH   1   4
BRANCH   3  14
ATOM     14  C   UNL d   1      -3.158  -0.558  -1.053  0.00  0.00     0.014 A 
ATOM     15  C   UNL d   1      -2.632   0.032   0.103  0.00  0.00     0.077 A 
ATOM     16  C   UNL d   1      -2.012   1.277   0.035  0.00  0.00     0.039 A 
ATOM     17  C   UNL d   1      -1.923   1.945  -1.188  0.00  0.00     0.022 A 
ATOM     18  C   UNL d   1      -2.454   1.359  -2.336  0.00  0.00     0.011 A 
ATOM     19  C   UNL d   1      -3.070   0.109  -2.280  0.00  0.00     0.034 A 
ATOM     20 BR   UNL d   1      -2.345   2.271  -3.990  0.00  0.00    -0.051 Br
BRANCH  15  21
ATOM     21  O   UNL d   1      -2.689  -0.562   1.332  0.00  0.00    -0.360 OA
ATOM     22  H   UNL d   1      -3.187  -1.406   1.232  0.00  0.00     0.217 HD
ENDBRANCH  15  21
ENDBRANCH   3  14
TORSDOF 4
