REMARK  3 active torsions:
REMARK  status: ('A' for Active; 'I' for Inactive)
REMARK    1  A    between atoms: O_5  and  C_1 
REMARK    2  A    between atoms: C_9  and  O_5 
REMARK    3  A    between atoms: O_17  and  C_6 
ROOT
ATOM      1  C   UNL d   1       2.716  -2.841  -2.683  0.00  0.00     0.026 A 
ATOM      2  C   UNL d   1       1.776  -3.683  -3.316  0.00  0.00     0.045 A 
ATOM      3  C   UNL d   1       2.297  -2.016  -1.603  0.00  0.00     0.053 A 
ATOM      4  C   UNL d   1       4.030  -2.893  -3.197  0.00  0.00     0.079 A 
ATOM      5  N   UNL d   1       2.083  -4.501  -4.332  0.00  0.00    -0.365 N 
ATOM      6  HN  UNL d   1       1.372  -5.095  -4.758  1.00  0.00     0.165 HD
ATOM      7  C   UNL d   1       0.958  -1.968  -1.217  0.00  0.00     0.079 A 
ATOM      8  C   UNL d   1       0.463  -3.666  -2.870  0.00  0.00     0.033 A 
ATOM      9  C   UNL d   1       3.358  -4.519  -4.777  0.00  0.00     0.091 A 
ATOM     10  C   UNL d   1       4.361  -3.742  -4.246  0.00  0.00     0.054 A 
ATOM     11  C   UNL d   1       0.052  -2.822  -1.835  0.00  0.00     0.039 A 
ENDROOT
BRANCH   7  12
ATOM     12  O   UNL d   1       0.414  -1.174  -0.254  0.00  0.00    -0.255 OA
BRANCH  12  13
ATOM     13  C   UNL d   1       1.072   0.025   0.121  0.00  0.00     0.530 C 
ATOM     14  F   UNL d   1       1.905   0.503  -0.829  0.00  0.00    -0.144 F 
ATOM     15  F   UNL d   1       1.772  -0.175   1.258  0.00  0.00    -0.144 F 
ATOM     16  F   UNL d   1       0.136   0.972   0.359  0.00  0.00    -0.144 F 
ENDBRANCH  12  13
ENDBRANCH   7  12
BRANCH   4  17
ATOM     17  O   UNL d   1       5.057  -2.117  -2.727  0.00  0.00    -0.360 OA
ATOM     18  H   UNL d   1       4.698  -1.363  -2.236  0.00  0.00     0.217 HD
ENDBRANCH   4  17
TORSDOF 3
