REMARK  4 active torsions:
REMARK  status: ('A' for Active; 'I' for Inactive)
REMARK    1  A    between atoms: C_8  and  C_1 
REMARK    2  A    between atoms: C_7  and  C_2 
REMARK    3  A    between atoms: N_10  and  C_3 
REMARK    4  A    between atoms: C_9  and  C_4 
ROOT
ATOM      1  C   UNL d   1       1.579  -0.263   0.193  0.00  0.00    -0.028 C 
ATOM      2  C   UNL d   1      -0.718  -1.232   0.177  0.00  0.00    -0.028 C 
ATOM      3  C   UNL d   1       0.718  -1.418   0.228  0.00  0.00     0.022 C 
ATOM      4  C   UNL d   1      -0.400   1.234   0.149  0.00  0.00    -0.049 C 
ATOM      5  C   UNL d   1      -1.212   0.098   0.162  0.00  0.00     0.017 C 
ATOM      6  C   UNL d   1       0.970   1.014   0.068  0.00  0.00     0.017 C 
ENDROOT
BRANCH   1   7
ATOM      7  C   UNL d   1       3.135  -0.227   0.396  0.00  0.00    -0.022 C 
ATOM      8  C   UNL d   1       3.834  -0.208  -0.982  0.00  0.00     0.019 C 
ATOM      9  C   UNL d   1       3.617   1.079   1.118  0.00  0.00     0.019 C 
ATOM     10  C   UNL d   1       3.689  -1.349   1.304  0.00  0.00     0.019 C 
ENDBRANCH   1   7
BRANCH   3  11
ATOM     11  N   UNL d   1       1.249  -2.712   0.384  0.00  0.00    -0.296 NA
ATOM     12  C   UNL d   1       2.035  -3.337  -0.667  0.00  0.00     0.113 C 
ATOM     13  H   UNL d   1       0.536  -3.366   0.671  0.00  0.00     0.127 HD
ENDBRANCH   3  11
BRANCH   2  14
ATOM     14  C   UNL d   1      -1.795  -2.375   0.186  0.00  0.00    -0.022 C 
ATOM     15  C   UNL d   1      -1.806  -3.134   1.533  0.00  0.00     0.019 C 
ATOM     16  C   UNL d   1      -3.268  -1.870   0.025  0.00  0.00     0.019 C 
ATOM     17  C   UNL d   1      -1.602  -3.341  -1.002  0.00  0.00     0.019 C 
ENDBRANCH   2  14
BRANCH   4  18
ATOM     18  C   UNL d   1      -1.007   2.641   0.301  0.00  0.00    -0.024 C 
ATOM     19  C   UNL d   1       0.049   3.761   0.473  0.00  0.00     0.019 C 
ATOM     20  C   UNL d   1      -1.861   2.987  -0.932  0.00  0.00     0.019 C 
ATOM     21  C   UNL d   1      -1.895   2.687   1.569  0.00  0.00     0.019 C 
ENDBRANCH   4  18
TORSDOF 4
