REMARK  4 active torsions:
REMARK  status: ('A' for Active; 'I' for Inactive)
REMARK    1  A    between atoms: C_2  and  C_1 
REMARK       I    between atoms: N_6  and  C_1 
REMARK       I    between atoms: C_3  and  N_4 
REMARK    2  A    between atoms: C_9  and  C_3 
REMARK    3  A    between atoms: N_4  and  C_5 
REMARK    4  A    between atoms: C_10  and  N_6 
ROOT
ATOM      1  C   UNL d   1       0.293  -0.800   0.974  0.00  0.00     0.059 A 
ATOM      2  C   UNL d   1       0.896  -0.623   2.235  0.00  0.00     0.050 A 
ATOM      3  C   UNL d   1      -0.933  -1.480   0.878  0.00  0.00     0.019 A 
ATOM      4  C   UNL d   1       0.201  -1.042   3.380  0.00  0.00     0.030 A 
ATOM      5  C   UNL d   1      -1.597  -1.913   2.027  0.00  0.00     0.001 A 
ATOM      6  C   UNL d   1      -1.039  -1.676   3.276  0.00  0.00     0.002 A 
ENDROOT
BRANCH   1   7
ATOM      7  C   UNL d   1       0.983  -0.351  -0.275  0.00  0.00     0.258 C 
ATOM      8  N   UNL d   1       0.145   0.011  -1.317  0.00  0.00    -0.323 N 
ATOM      9  H   UNL d   1      -0.829   0.174  -1.088  0.00  0.00     0.169 HD
ATOM     10  O   UNL d   1       2.208  -0.251  -0.282  0.00  0.00    -0.267 OA
BRANCH   8  11
ATOM     11  C   UNL d   1       0.550   0.401  -2.608  0.00  0.00     0.035 A 
ATOM     12  C   UNL d   1       1.811   0.105  -3.136  0.00  0.00     0.032 A 
ATOM     13  C   UNL d   1       2.167   0.563  -4.407  0.00  0.00     0.044 A 
ATOM     14  C   UNL d   1       1.261   1.313  -5.144  0.00  0.00     0.116 A 
ATOM     15  C   UNL d   1      -0.009   1.583  -4.650  0.00  0.00     0.044 A 
ATOM     16  F   UNL d   1       1.615   1.784  -6.347  0.00  0.00    -0.206 F 
ATOM     17  C   UNL d   1      -0.372   1.111  -3.387  0.00  0.00     0.032 A 
ENDBRANCH   8  11
ENDBRANCH   1   7
BRANCH   2  18
ATOM     18  N   UNL d   1       2.178  -0.025   2.358  0.00  0.00    -0.322 N 
ATOM     19  C   UNL d   1       3.117  -0.443   3.284  0.00  0.00     0.256 C 
ATOM     20  O   UNL d   1       2.978  -1.368   4.082  0.00  0.00    -0.267 OA
ATOM     21  H   UNL d   1       2.563   0.383   1.505  0.00  0.00     0.169 HD
BRANCH  19  22
ATOM     22  C   UNL d   1       4.424   0.253   3.248  0.00  0.00     0.032 A 
ATOM     23  C   UNL d   1       4.500   1.647   3.185  0.00  0.00     0.017 A 
ATOM     24  C   UNL d   1       5.745   2.275   3.269  0.00  0.00     0.001 A 
ATOM     25  C   UNL d   1       6.909   1.515   3.404  0.00  0.00     0.000 A 
ATOM     26  C   UNL d   1       6.835   0.123   3.454  0.00  0.00     0.001 A 
ATOM     27  C   UNL d   1       5.593  -0.509   3.385  0.00  0.00     0.017 A 
ENDBRANCH  19  22
ENDBRANCH   2  18
TORSDOF 4
