REMARK  10 active torsions:
REMARK  status: ('A' for Active; 'I' for Inactive)
REMARK    1  A    between atoms: C_3  and  C_1 
REMARK       I    between atoms: N_10  and  C_1 
REMARK       I    between atoms: C_2  and  N_9 
REMARK    2  A    between atoms: C_4  and  C_2 
REMARK    3  A    between atoms: C_5  and  C_8 
REMARK    4  A    between atoms: O_21  and  C_5 
REMARK    5  A    between atoms: C_6  and  C_7 
REMARK    6  A    between atoms: O_20  and  C_6 
REMARK    7  A    between atoms: N_9  and  C_15 
REMARK    8  A    between atoms: C_16  and  N_10 
REMARK    9  A    between atoms: C_19  and  C_17 
REMARK   10  A    between atoms: C_18  and  C_19 
ROOT
ATOM      1  C   UNL d   1      -5.421  -1.369  -0.035  0.00  0.00     0.077 C 
ENDROOT
BRANCH   1   2
ATOM      2  C   UNL d   1      -6.221  -0.528  -1.006  0.00  0.00    -0.054 A 
ATOM      3  C   UNL d   1      -6.776  -1.077  -2.169  0.00  0.00     0.010 A 
ATOM      4  C   UNL d   1      -7.674  -0.334  -2.953  0.00  0.00     0.030 A 
ATOM      5  C   UNL d   1      -8.027   0.973  -2.589  0.00  0.00     0.035 A 
ATOM      6  C   UNL d   1      -7.369   1.557  -1.507  0.00  0.00     0.030 A 
ATOM      7  C   UNL d   1      -6.481   0.816  -0.721  0.00  0.00     0.010 A 
BRANCH   5   8
ATOM      8  N   UNL d   1      -9.073   1.611  -3.303  0.00  0.00    -0.324 N 
ATOM      9  C   UNL d   1      -9.670   2.813  -2.970  0.00  0.00     0.245 C 
ATOM     10  O   UNL d   1      -9.358   3.572  -2.061  0.00  0.00    -0.268 OA
ATOM     11  H   UNL d   1      -9.480   1.075  -4.058  0.00  0.00     0.169 HD
BRANCH   9  12
ATOM     12  C   UNL d   1     -10.825   3.151  -3.843  0.00  0.00     0.081 C 
ATOM     13  C   UNL d   1     -11.480   4.300  -3.619  0.00  0.00     0.086 C 
BRANCH  13  14
ATOM     14  C   UNL d   1     -12.602   4.669  -4.495  0.00  0.00     0.165 C 
ATOM     15  O   UNL d   1     -12.989   3.985  -5.430  0.00  0.00    -0.647 OA
BRANCH  14  16
ATOM     16  O   UNL d   1     -13.155   5.848  -4.162  0.00  0.00    -0.773 OA
ATOM     17  H   UNL d   1     -12.754   6.303  -3.399  0.00  0.00     0.167 HD
ENDBRANCH  14  16
ENDBRANCH  13  14
ENDBRANCH   9  12
ENDBRANCH   5   8
ENDBRANCH   1   2
BRANCH   1  18
ATOM     18  C   UNL d   1      -3.925  -1.279  -0.189  0.00  0.00    -0.054 A 
ATOM     19  C   UNL d   1      -3.191  -0.263   0.436  0.00  0.00     0.010 A 
ATOM     20  C   UNL d   1      -1.809  -0.161   0.243  0.00  0.00     0.030 A 
ATOM     21  C   UNL d   1      -1.133  -1.073  -0.576  0.00  0.00     0.035 A 
ATOM     22  C   UNL d   1      -1.857  -2.115  -1.155  0.00  0.00     0.030 A 
ATOM     23  C   UNL d   1      -3.239  -2.216  -0.969  0.00  0.00     0.010 A 
BRANCH  21  24
ATOM     24  N   UNL d   1       0.249  -0.862  -0.788  0.00  0.00    -0.324 N 
ATOM     25  C   UNL d   1       1.084  -1.607  -1.593  0.00  0.00     0.245 C 
ATOM     26  O   UNL d   1       0.802  -2.609  -2.238  0.00  0.00    -0.268 OA
ATOM     27  H   UNL d   1       0.639  -0.051  -0.327  0.00  0.00     0.169 HD
BRANCH  25  28
ATOM     28  C   UNL d   1       2.469  -1.069  -1.627  0.00  0.00     0.081 C 
ATOM     29  C   UNL d   1       3.405  -1.740  -2.320  0.00  0.00     0.086 C 
BRANCH  29  30
ATOM     30  C   UNL d   1       4.780  -1.230  -2.356  0.00  0.00     0.165 C 
ATOM     31  O   UNL d   1       5.146  -0.204  -1.805  0.00  0.00    -0.647 OA
BRANCH  30  32
ATOM     32  O   UNL d   1       5.603  -2.028  -3.060  0.00  0.00    -0.773 OA
ATOM     33  H   UNL d   1       5.193  -2.823  -3.449  0.00  0.00     0.167 HD
ENDBRANCH  30  32
ENDBRANCH  29  30
ENDBRANCH  25  28
ENDBRANCH  21  24
ENDBRANCH   1  18
TORSDOF 10
