REMARK  0 active torsions:
REMARK  status: ('A' for Active; 'I' for Inactive)
ROOT
ATOM      1  C   UNL d   1      -1.429  -1.008   0.489  0.00  0.00     0.118 A 
ATOM      2  C   UNL d   1      -1.721   0.273   0.133  0.00  0.00     0.118 A 
ATOM      3  C   UNL d   1      -3.106   0.161   0.580  0.00  0.00     0.253 A 
ATOM      4  C   UNL d   1      -2.776  -1.251   1.001  0.00  0.00     0.253 A 
ATOM      5  N   UNL d   1      -0.252  -1.575   0.380  0.00  0.00    -0.349 N 
ATOM      6  N   UNL d   1      -0.866   1.131  -0.369  0.00  0.00    -0.349 N 
ATOM      7  C   UNL d   1       0.815  -0.699  -0.040  0.00  0.00     0.062 A 
ATOM      8  C   UNL d   1       0.501   0.682  -0.421  0.00  0.00     0.059 A 
ATOM      9  C   UNL d   1       2.141  -1.114   0.023  0.00  0.00     0.074 A 
ATOM     10  O   UNL d   1      -3.388  -2.107   1.597  0.00  0.00    -0.281 OA
ATOM     11  O   UNL d   1      -4.092   0.848   0.691  0.00  0.00    -0.281 OA
ATOM     12  C   UNL d   1       1.532   1.571  -0.712  0.00  0.00     0.035 A 
ATOM     13  C   UNL d   1       3.143  -0.185  -0.246  0.00  0.00     0.118 A 
ATOM     14  C   UNL d   1       2.856   1.135  -0.607  0.00  0.00     0.044 A 
ATOM     15  F   UNL d   1       4.425  -0.558  -0.118  0.00  0.00    -0.206 F 
ATOM     16  H   UNL d   1      -0.007  -2.523   0.636  0.00  0.00     0.166 HD
ATOM     17  H   UNL d   1      -1.060   2.086  -0.652  0.00  0.00     0.166 HD
ENDROOT
TORSDOF 0
