REMARK  9 active torsions:
REMARK  status: ('A' for Active; 'I' for Inactive)
REMARK    1  A    between atoms: N_2  and  S_1 
REMARK    2  A    between atoms: C_3  and  S_1 
REMARK    3  A    between atoms: C_4  and  N_2 
REMARK    4  A    between atoms: C_10  and  N_2 
REMARK    5  A    between atoms: C_6  and  C_4 
REMARK    6  A    between atoms: C_5  and  C_9 
REMARK       I    between atoms: N_12  and  C_5 
REMARK    7  A    between atoms: C_9  and  C_10 
REMARK    8  A    between atoms: C_19  and  N_12 
REMARK    9  A    between atoms: O_29  and  C_21 
ROOT
ATOM      1  N   UNL d   1       0.245  -0.356  -1.497  0.00  0.00    -0.200 NA
ENDROOT
BRANCH   1   2
ATOM      2  S   UNL d   1       0.999  -0.238   0.043  0.00  0.00     0.244 S 
ATOM      3  O   UNL d   1       0.771   1.110   0.517  0.00  0.00    -0.206 OA
ATOM      4  O   UNL d   1       2.345  -0.765  -0.104  0.00  0.00    -0.206 OA
BRANCH   2   5
ATOM      5  C   UNL d   1       0.164  -1.349   1.145  0.00  0.00     0.074 A 
ATOM      6  C   UNL d   1       0.163  -2.720   0.877  0.00  0.00     0.026 A 
ATOM      7  C   UNL d   1      -0.369  -3.601   1.823  0.00  0.00     0.025 A 
ATOM      8  C   UNL d   1      -0.881  -3.111   3.027  0.00  0.00     0.034 A 
ATOM      9  C   UNL d   1      -0.883  -1.742   3.291  0.00  0.00     0.025 A 
ATOM     10 CL   UNL d   1      -1.491  -4.205   4.206  0.00  0.00    -0.084 Cl
ATOM     11  C   UNL d   1      -0.361  -0.854   2.348  0.00  0.00     0.026 A 
ENDBRANCH   2   5
ENDBRANCH   1   2
BRANCH   1  12
ATOM     12  C   UNL d   1      -1.255  -0.261  -1.433  0.00  0.00     0.172 C 
BRANCH  12  13
ATOM     13  C   UNL d   1      -1.878  -0.531  -2.765  0.00  0.00     0.066 A 
ATOM     14  O   UNL d   1      -2.631   0.480  -3.293  0.00  0.00    -0.326 OA
ATOM     15  C   UNL d   1      -3.091   0.052  -4.496  0.00  0.00     0.142 A 
ATOM     16  C   UNL d   1      -2.649  -1.223  -4.754  0.00  0.00     0.027 A 
ATOM     17  C   UNL d   1      -1.865  -1.603  -3.636  0.00  0.00     0.036 A 
ENDBRANCH  12  13
ENDBRANCH   1  12
BRANCH   1  18
ATOM     18  C   UNL d   1       0.779   0.685  -2.479  0.00  0.00     0.117 C 
BRANCH  18  19
ATOM     19  C   UNL d   1       2.289   0.713  -2.683  0.00  0.00     0.118 C 
BRANCH  19  20
ATOM     20  C   UNL d   1       2.747  -0.451  -3.528  0.00  0.00     0.223 C 
ATOM     21  N   UNL d   1       3.282  -1.500  -2.804  0.00  0.00    -0.327 N 
ATOM     22  H   UNL d   1       3.205  -1.438  -1.788  0.00  0.00     0.169 HD
ATOM     23  O   UNL d   1       2.604  -0.401  -4.748  0.00  0.00    -0.273 OA
BRANCH  21  24
ATOM     24  C   UNL d   1       3.824  -2.693  -3.334  0.00  0.00     0.034 A 
ATOM     25  C   UNL d   1       4.051  -2.895  -4.697  0.00  0.00     0.032 A 
ATOM     26  C   UNL d   1       4.537  -4.118  -5.178  0.00  0.00     0.039 A 
ATOM     27  C   UNL d   1       4.804  -5.161  -4.298  0.00  0.00     0.068 A 
ATOM     28  C   UNL d   1       4.632  -4.948  -2.928  0.00  0.00     0.039 A 
ATOM     29  C   UNL d   1       4.149  -3.723  -2.447  0.00  0.00     0.032 A 
BRANCH  27  30
ATOM     30  O   UNL d   1       5.238  -6.410  -4.650  0.00  0.00    -0.356 OA
ATOM     31  C   UNL d   1       5.209  -6.720  -6.040  0.00  0.00     0.210 C 
ENDBRANCH  27  30
ENDBRANCH  21  24
ENDBRANCH  19  20
ENDBRANCH  18  19
ENDBRANCH   1  18
TORSDOF 9
