REMARK  2 active torsions:
REMARK  status: ('A' for Active; 'I' for Inactive)
REMARK       I    between atoms: N_2  and  C_1 
REMARK       I    between atoms: N_3  and  C_1 
REMARK       I    between atoms: C_4  and  N_2 
REMARK       I    between atoms: C_5  and  N_3 
REMARK    1  A    between atoms: C_10  and  C_4 
REMARK    2  A    between atoms: C_9  and  C_5 
ROOT
ATOM      1  C   UNL d   1       0.920  -0.037  -0.229  0.00  0.00     0.333 C 
ATOM      2  N   UNL d   1       0.189   0.859   0.591  0.00  0.00    -0.270 N 
ATOM      3  N   UNL d   1       0.362  -0.582  -1.385  0.00  0.00    -0.270 N 
ATOM      4  C   UNL d   1      -1.120   0.602   1.075  0.00  0.00     0.261 C 
ATOM      5  C   UNL d   1       1.221  -1.288  -2.238  0.00  0.00     0.261 C 
ATOM      6  O   UNL d   1       2.067  -0.348   0.122  0.00  0.00    -0.246 OA
ATOM      7  O   UNL d   1      -1.791  -0.366   0.710  0.00  0.00    -0.267 OA
ATOM      8  O   UNL d   1       2.403  -1.002  -2.432  0.00  0.00    -0.267 OA
ATOM      9  C   UNL d   1       1.065   1.710   1.401  0.00  0.00     0.164 C 
ATOM     10  C   UNL d   1      -1.002  -0.352  -1.848  0.00  0.00     0.164 C 
ENDROOT
BRANCH   4  11
ATOM     11  C   UNL d   1      -1.772   1.472   2.127  0.00  0.00     0.032 A 
ATOM     12  C   UNL d   1      -1.516   2.834   2.331  0.00  0.00     0.017 A 
ATOM     13  C   UNL d   1      -2.045   3.503   3.445  0.00  0.00     0.001 A 
ATOM     14  C   UNL d   1      -2.908   2.844   4.316  0.00  0.00     0.000 A 
ATOM     15  C   UNL d   1      -3.269   1.526   4.059  0.00  0.00     0.001 A 
ATOM     16  C   UNL d   1      -2.703   0.846   2.976  0.00  0.00     0.017 A 
ENDBRANCH   4  11
BRANCH   5  17
ATOM     17  C   UNL d   1       0.654  -2.349  -3.118  0.00  0.00     0.032 A 
ATOM     18  C   UNL d   1       1.069  -2.398  -4.461  0.00  0.00     0.017 A 
ATOM     19  C   UNL d   1       0.545  -3.353  -5.324  0.00  0.00     0.001 A 
ATOM     20  C   UNL d   1      -0.384  -4.281  -4.861  0.00  0.00     0.000 A 
ATOM     21  C   UNL d   1      -0.774  -4.266  -3.520  0.00  0.00     0.001 A 
ATOM     22  C   UNL d   1      -0.251  -3.311  -2.643  0.00  0.00     0.017 A 
ENDBRANCH   5  17
TORSDOF 2
