REMARK  3 active torsions:
REMARK  status: ('A' for Active; 'I' for Inactive)
REMARK    1  A    between atoms: C_8  and  C_3 
REMARK    2  A    between atoms: C_10  and  C_4 
REMARK    3  A    between atoms: C_5  and  C_9 
ROOT
ATOM      1  N   UNL d   1       1.379  -0.612  -0.025  0.00  0.00    -0.349 N 
ATOM      2  HN  UNL d   1       2.258  -1.128  -0.038  1.00  0.00     0.166 HD
ATOM      3  C   UNL d   1       0.182  -1.166  -0.046  0.00  0.00     0.085 A 
ATOM      4  C   UNL d   1       1.276   0.769   0.018  0.00  0.00     0.050 A 
ATOM      5  S   UNL d   1      -1.129  -0.045   0.005  0.00  0.00    -0.081 SA
ATOM      6  C   UNL d   1      -0.016   1.254   0.029  0.00  0.00     0.082 A 
ENDROOT
BRANCH   4   7
ATOM      7  C   UNL d   1       2.466   1.610   0.023  0.00  0.00    -0.008 A 
ATOM      8  C   UNL d   1       3.626   1.161  -0.626  0.00  0.00     0.029 A 
ATOM      9  C   UNL d   1       4.796   1.938  -0.640  0.00  0.00     0.048 A 
ATOM     10  C   UNL d   1       4.792   3.180   0.012  0.00  0.00     0.016 A 
ATOM     11  C   UNL d   1       3.647   3.632   0.666  0.00  0.00     0.002 A 
ATOM     12  C   UNL d   1       2.490   2.851   0.673  0.00  0.00     0.014 A 
BRANCH   9  13
ATOM     13  C   UNL d   1       6.043   1.457  -1.339  0.00  0.00     0.417 C 
ATOM     14  F   UNL d   1       5.911   0.234  -1.923  0.00  0.00    -0.166 F 
ATOM     15  F   UNL d   1       6.439   2.302  -2.332  0.00  0.00    -0.166 F 
ATOM     16  F   UNL d   1       7.105   1.354  -0.493  0.00  0.00    -0.166 F 
ENDBRANCH   9  13
ENDBRANCH   4   7
BRANCH   3  17
ATOM     17  C   UNL d   1      -0.058  -2.618  -0.065  0.00  0.00     0.001 A 
ATOM     18  C   UNL d   1      -1.185  -3.187  -0.672  0.00  0.00     0.057 A 
ATOM     19  C   UNL d   1      -1.367  -4.568  -0.660  0.00  0.00     0.123 A 
ATOM     20  F   UNL d   1      -2.458  -5.077  -1.250  0.00  0.00    -0.206 F 
ATOM     21  C   UNL d   1      -0.444  -5.423  -0.056  0.00  0.00    -0.023 A 
ATOM     22  C   UNL d   1       0.691  -4.866   0.538  0.00  0.00     0.011 A 
ATOM     23  C   UNL d   1      -0.682  -6.901  -0.062  0.00  0.00     0.051 C 
ATOM     24  C   UNL d   1       0.882  -3.479   0.528  0.00  0.00     0.015 A 
ENDBRANCH   3  17
TORSDOF 3
