REMARK  19 active torsions:
REMARK  status: ('A' for Active; 'I' for Inactive)
REMARK    1  A    between atoms: C_1  and  O_6 
REMARK    2  A    between atoms: C_2  and  O_19 
REMARK    3  A    between atoms: C_3  and  O_20 
REMARK    4  A    between atoms: C_5  and  C_9 
REMARK    5  A    between atoms: C_5  and  O_6 
REMARK    6  A    between atoms: C_16  and  C_5 
REMARK    7  A    between atoms: C_7  and  O_21 
REMARK    8  A    between atoms: C_15  and  C_8 
REMARK    9  A    between atoms: C_9  and  C_8 
REMARK   10  A    between atoms: C_9  and  O_22 
REMARK   11  A    between atoms: C_10  and  C_25 
REMARK   12  A    between atoms: N_17  and  N_11 
REMARK   13  A    between atoms: N_18  and  N_13 
REMARK   14  A    between atoms: C_29  and  C_16 
REMARK   15  A    between atoms: C_16  and  O_24 
REMARK   16  A    between atoms: C_23  and  N_17 
REMARK   17  A    between atoms: C_26  and  N_18 
REMARK   18  A    between atoms: O_27  and  C_25 
REMARK   19  A    between atoms: O_28  and  C_29 
ROOT
ATOM      1  C   UNL d   1       5.610  -6.200  -5.613  0.00  0.00     0.202 C 
ENDROOT
BRANCH   1   2
ATOM      2  C   UNL d   1       5.528  -6.092  -4.059  0.00  0.00     0.190 C 
BRANCH   2   3
ATOM      3  O   UNL d   1       5.197  -4.773  -3.579  0.00  0.00    -0.348 OA
BRANCH   3   4
ATOM      4  C   UNL d   1       3.978  -4.190  -4.097  0.00  0.00     0.292 C 
ATOM      5  C   UNL d   1       2.714  -5.002  -3.688  0.00  0.00     0.204 C 
ATOM      6  C   UNL d   1       1.414  -4.232  -3.956  0.00  0.00     0.183 C 
ATOM      7  C   UNL d   1       1.486  -2.772  -3.515  0.00  0.00     0.180 C 
ATOM      8  C   UNL d   1       2.744  -2.143  -4.122  0.00  0.00     0.179 C 
ATOM      9  O   UNL d   1       3.892  -2.836  -3.615  0.00  0.00    -0.348 OA
BRANCH   5  10
ATOM     10  O   UNL d   1       2.631  -6.264  -4.375  0.00  0.00    -0.388 OA
ATOM     11  H   UNL d   1       2.305  -6.127  -5.283  0.00  0.00     0.210 HD
ENDBRANCH   5  10
BRANCH   6  12
ATOM     12  O   UNL d   1       0.291  -4.859  -3.315  0.00  0.00    -0.390 OA
ATOM     13  H   UNL d   1       0.506  -4.986  -2.376  0.00  0.00     0.210 HD
ENDBRANCH   6  12
BRANCH   7  14
ATOM     14  O   UNL d   1       0.306  -2.063  -3.923  0.00  0.00    -0.390 OA
ATOM     15  H   UNL d   1      -0.281  -2.694  -4.385  0.00  0.00     0.210 HD
ENDBRANCH   7  14
BRANCH   8  16
ATOM     16  C   UNL d   1       2.836  -0.645  -3.796  0.00  0.00     0.198 C 
BRANCH  16  17
ATOM     17  O   UNL d   1       1.725   0.100  -4.303  0.00  0.00    -0.398 OA
ATOM     18  H   UNL d   1       0.912  -0.403  -4.066  0.00  0.00     0.209 HD
ENDBRANCH  16  17
ENDBRANCH   8  16
ENDBRANCH   3   4
ENDBRANCH   2   3
BRANCH   2  19
ATOM     19  C   UNL d   1       6.860  -6.617  -3.435  0.00  0.00     0.173 C 
BRANCH  19  20
ATOM     20  C   UNL d   1       6.920  -6.652  -1.910  0.00  0.00     0.198 C 
BRANCH  20  21
ATOM     21  O   UNL d   1       6.062  -7.693  -1.426  0.00  0.00    -0.398 OA
ATOM     22  H   UNL d   1       6.326  -7.861  -0.504  0.00  0.00     0.209 HD
ENDBRANCH  20  21
ENDBRANCH  19  20
BRANCH  19  23
ATOM     23  O   UNL d   1       7.087  -7.969  -3.896  0.00  0.00    -0.391 OA
ATOM     24  H   UNL d   1       6.544  -8.523  -3.288  0.00  0.00     0.210 HD
ENDBRANCH  19  23
ENDBRANCH   2  19
ENDBRANCH   1   2
BRANCH   1  25
ATOM     25  O   UNL d   1       5.523  -7.564  -6.001  0.00  0.00    -0.387 OA
ATOM     26  H   UNL d   1       6.272  -8.035  -5.579  0.00  0.00     0.210 HD
ENDBRANCH   1  25
BRANCH   1  27
ATOM     27  C   UNL d   1       6.785  -5.363  -6.163  0.00  0.00     0.069 C 
ATOM     28  N   UNL d   1       6.792  -4.065  -6.028  0.00  0.00    -0.317 N 
ATOM     29  HN  UNL d   1       6.052  -3.572  -5.528  1.00  0.00     0.181 HD
BRANCH  28  30
ATOM     30  N   UNL d   1       7.842  -3.403  -6.593  0.00  0.00    -0.206 NA
ATOM     31  H   UNL d   1       7.867  -3.417  -7.616  0.00  0.00     0.153 HD
BRANCH  30  32
ATOM     32  C   UNL d   1       8.139  -2.095  -6.123  0.00  0.00     0.027 A 
ATOM     33  C   UNL d   1       7.723  -1.623  -4.871  0.00  0.00     0.025 A 
ATOM     34  C   UNL d   1       8.143  -0.372  -4.400  0.00  0.00     0.002 A 
ATOM     35  C   UNL d   1       9.001   0.414  -5.166  0.00  0.00     0.000 A 
ATOM     36  C   UNL d   1       9.441  -0.049  -6.403  0.00  0.00     0.002 A 
ATOM     37  C   UNL d   1       9.021  -1.298  -6.871  0.00  0.00     0.025 A 
ENDBRANCH  30  32
ENDBRANCH  28  30
BRANCH  27  38
ATOM     38  C   UNL d   1       7.920  -6.101  -6.815  0.00  0.00     0.136 C 
ATOM     39  N   UNL d   1       7.647  -6.992  -7.703  0.00  0.00    -0.309 N 
ATOM     40  HN  UNL d   1       6.686  -7.189  -7.984  1.00  0.00     0.186 HD
BRANCH  39  41
ATOM     41  N   UNL d   1       8.695  -7.654  -8.247  0.00  0.00    -0.301 N 
ATOM     42  H   UNL d   1       9.623  -7.600  -7.832  0.00  0.00     0.187 HD
BRANCH  41  43
ATOM     43  C   UNL d   1       8.421  -8.907  -8.843  0.00  0.00     0.048 A 
ATOM     44  C   UNL d   1       7.120  -9.423  -8.940  0.00  0.00     0.031 A 
ATOM     45  C   UNL d   1       6.866 -10.629  -9.595  0.00  0.00     0.002 A 
ATOM     46  C   UNL d   1       7.913 -11.329 -10.193  0.00  0.00     0.000 A 
ATOM     47  C   UNL d   1       9.207 -10.817 -10.131  0.00  0.00     0.002 A 
ATOM     48  C   UNL d   1       9.459  -9.614  -9.465  0.00  0.00     0.031 A 
ENDBRANCH  41  43
ENDBRANCH  39  41
ENDBRANCH  27  38
ENDBRANCH   1  27
TORSDOF 19
