REMARK  9 active torsions:
REMARK  status: ('A' for Active; 'I' for Inactive)
REMARK    1  A    between atoms: N_2  and  S_1 
REMARK    2  A    between atoms: C_8  and  S_1 
REMARK    3  A    between atoms: C_3  and  N_2 
REMARK       I    between atoms: C_9  and  N_13 
REMARK    4  A    between atoms: C_18  and  C_9 
REMARK    5  A    between atoms: C_12  and  C_18 
REMARK    6  A    between atoms: C_20  and  C_12 
REMARK    7  A    between atoms: N_13  and  C_24 
REMARK    8  A    between atoms: C_14  and  C_20 
REMARK    9  A    between atoms: O_25  and  C_14 
ROOT
ATOM      1  C   UNL d   1       0.790   0.496   1.815  0.00  0.00     0.080 A 
ATOM      2  C   UNL d   1       1.267  -0.537   2.624  0.00  0.00     0.027 A 
ATOM      3  C   UNL d   1       0.043   1.534   2.368  0.00  0.00     0.027 A 
ATOM      4  C   UNL d   1       0.070   0.405   4.524  0.00  0.00     0.034 A 
ATOM      5  C   UNL d   1      -0.314   1.484   3.719  0.00  0.00     0.031 A 
ATOM      6  C   UNL d   1       0.907  -0.578   3.977  0.00  0.00     0.031 A 
ENDROOT
BRANCH   1   7
ATOM      7  S   UNL d   1       1.152   0.503   0.075  0.00  0.00     0.276 S 
ATOM      8  O   UNL d   1       1.008   1.865  -0.406  0.00  0.00    -0.200 OA
ATOM      9  O   UNL d   1       2.408  -0.204  -0.096  0.00  0.00    -0.200 OA
BRANCH   7  10
ATOM     10  N   UNL d   1      -0.018  -0.461  -0.558  0.00  0.00    -0.112 N 
ATOM     11  H   UNL d   1       0.219  -1.312  -1.044  0.00  0.00     0.197 HD
BRANCH  10  12
ATOM     12  C   UNL d   1      -1.322  -0.004  -0.593  0.00  0.00     0.692 A 
ATOM     13  N   UNL d   1      -1.681   0.704  -1.664  0.00  0.00    -0.195 N 
ATOM     14  C   UNL d   1      -2.994   0.990  -1.772  0.00  0.00     0.024 A 
ATOM     15  HN  UNL d   1      -1.003   1.011  -2.361  1.00  0.00     0.184 HD
ATOM     16  C   UNL d   1      -3.429   1.839  -2.929  0.00  0.00     0.068 C 
ATOM     17  C   UNL d   1      -3.926   0.532  -0.860  0.00  0.00     0.050 A 
ATOM     18  C   UNL d   1      -3.449  -0.256   0.172  0.00  0.00     0.024 A 
ATOM     19  N   UNL d   1      -2.140  -0.546   0.312  0.00  0.00    -0.195 N 
ATOM     20  C   UNL d   1      -4.395  -0.817   1.191  0.00  0.00     0.068 C 
ATOM     21  HN  UNL d   1      -1.795  -1.143   1.063  1.00  0.00     0.184 HD
ENDBRANCH  10  12
ENDBRANCH   7  10
ENDBRANCH   1   7
BRANCH   4  22
ATOM     22  N   UNL d   1      -0.400   0.198   5.845  0.00  0.00    -0.327 N 
ATOM     23  C   UNL d   1      -1.379   0.936   6.483  0.00  0.00     0.222 C 
ATOM     24  O   UNL d   1      -1.814   2.016   6.095  0.00  0.00    -0.273 OA
ATOM     25  H   UNL d   1      -0.090  -0.651   6.303  0.00  0.00     0.169 HD
BRANCH  23  26
ATOM     26  C   UNL d   1      -1.932   0.271   7.750  0.00  0.00     0.113 C 
BRANCH  26  27
ATOM     27  C   UNL d   1      -3.431   0.621   8.002  0.00  0.00    -0.023 C 
ATOM     28  C   UNL d   1      -3.565   2.123   8.375  0.00  0.00     0.010 C 
ATOM     29  C   UNL d   1      -4.771   2.265   9.300  0.00  0.00     0.001 C 
ATOM     30  C   UNL d   1      -5.204   0.850   9.648  0.00  0.00     0.001 C 
ATOM     31  C   UNL d   1      -4.009  -0.029   9.281  0.00  0.00     0.010 C 
BRANCH  27  32
ATOM     32  C   UNL d   1      -4.312   0.254   6.767  0.00  0.00     0.119 C 
BRANCH  32  33
ATOM     33  C   UNL d   1      -4.275  -1.216   6.362  0.00  0.00     0.140 C 
ATOM     34  O   UNL d   1      -3.646  -2.095   6.924  0.00  0.00    -0.650 OA
BRANCH  33  35
ATOM     35  O   UNL d   1      -5.041  -1.466   5.276  0.00  0.00    -0.776 OA
ATOM     36  H   UNL d   1      -5.484  -0.668   4.929  0.00  0.00     0.167 HD
ENDBRANCH  33  35
ENDBRANCH  32  33
ENDBRANCH  27  32
ENDBRANCH  26  27
ENDBRANCH  23  26
ENDBRANCH   4  22
TORSDOF 9
