REMARK  1 active torsions:
REMARK  status: ('A' for Active; 'I' for Inactive)
REMARK    1  A    between atoms: C_8  and  C_3 
ROOT
ATOM      1  C   UNL d   1      -0.028   0.700   0.044  0.00  0.00     0.024 C 
ATOM      2  C   UNL d   1      -0.060  -0.649   0.062  0.00  0.00     0.021 C 
ATOM      3  C   UNL d   1      -1.297   1.527  -0.082  0.00  0.00     0.103 C 
ATOM      4  C   UNL d   1      -2.575   0.689   0.032  0.00  0.00     0.057 C 
ATOM      5  N   UNL d   1      -1.278  -1.305   0.027  0.00  0.00    -0.362 N 
ATOM      6  C   UNL d   1      -2.511  -0.664   0.057  0.00  0.00     0.023 C 
ATOM      7  C   UNL d   1       1.271   1.421   0.152  0.00  0.00     0.159 C 
ATOM      8  C   UNL d   1      -3.813   1.392   0.101  0.00  0.00     0.098 C 
ATOM      9  N   UNL d   1      -4.822   1.967   0.160  0.00  0.00    -0.192 NA
ATOM     10  C   UNL d   1       1.194  -1.498   0.081  0.00  0.00     0.067 C 
ATOM     11  C   UNL d   1       2.453  -0.735  -0.394  0.00  0.00    -0.036 C 
ATOM     12  C   UNL d   1       2.523   0.602   0.358  0.00  0.00     0.092 C 
ATOM     13  O   UNL d   1       1.314   2.649   0.143  0.00  0.00    -0.293 OA
ATOM     14  C   UNL d   1      -3.721  -1.567   0.099  0.00  0.00     0.069 C 
ATOM     15  C   UNL d   1       2.410  -0.500  -1.920  0.00  0.00     0.015 C 
ATOM     16  C   UNL d   1       3.716  -1.553  -0.077  0.00  0.00     0.015 C 
ATOM     17  H   UNL d   1      -1.274  -2.321   0.092  0.00  0.00     0.165 HD
ENDROOT
BRANCH   3  18
ATOM     18  C   UNL d   1      -1.301   2.321  -1.392  0.00  0.00    -0.043 A 
ATOM     19  C   UNL d   1      -1.250   1.669  -2.638  0.00  0.00     0.033 A 
ATOM     20  C   UNL d   1      -1.210   2.405  -3.826  0.00  0.00     0.056 A 
ATOM     21 CL   UNL d   1      -1.122   1.523  -5.309  0.00  0.00    -0.083 Cl
ATOM     22  C   UNL d   1      -1.230   3.802  -3.780  0.00  0.00     0.055 A 
ATOM     23  C   UNL d   1      -1.296   4.457  -2.548  0.00  0.00     0.026 A 
ATOM     24 CL   UNL d   1      -1.164   4.776  -5.205  0.00  0.00    -0.083 Cl
ATOM     25  C   UNL d   1      -1.332   3.723  -1.362  0.00  0.00     0.010 A 
ENDBRANCH   3  18
TORSDOF 1
