REMARK  4 active torsions:
REMARK  status: ('A' for Active; 'I' for Inactive)
REMARK    1  A    between atoms: N_2  and  C_1 
REMARK    2  A    between atoms: C_5  and  C_4 
REMARK       I    between atoms: N_8  and  C_5 
REMARK    3  A    between atoms: C_15  and  N_8 
REMARK    4  A    between atoms: C_14  and  C_15 
ROOT
ATOM      1  C   UNL d   1      -0.893  -2.316   0.002  0.00  0.00     0.275 C 
ATOM      2  N   UNL d   1      -2.229  -2.648   0.045  0.00  0.00    -0.351 N 
ATOM      3  O   UNL d   1      -0.513  -1.148  -0.056  0.00  0.00    -0.265 OA
ATOM      4  H   UNL d   1      -2.482  -3.625   0.130  0.00  0.00     0.163 HD
ENDROOT
BRANCH   1   5
ATOM      5  C   UNL d   1       0.027  -3.437   0.011  0.00  0.00     0.145 A 
ATOM      6  O   UNL d   1      -0.443  -4.729   0.002  0.00  0.00    -0.283 OA
ATOM      7  C   UNL d   1       0.659  -5.532  -0.019  0.00  0.00     0.215 A 
ATOM      8  C   UNL d   1       1.823  -4.803  -0.016  0.00  0.00     0.066 A 
ATOM      9  C   UNL d   1       1.414  -3.448   0.004  0.00  0.00     0.047 A 
BRANCH   7  10
ATOM     10  N   UNL d   1       0.430  -6.943  -0.047  0.00  0.00    -0.090 N 
ATOM     11  O   UNL d   1       1.437  -7.663  -0.058  0.00  0.00    -0.530 OA
ATOM     12  O   UNL d   1      -0.744  -7.334  -0.061  0.00  0.00    -0.530 OA
ENDBRANCH   7  10
ENDBRANCH   1   5
BRANCH   2  13
ATOM     13  C   UNL d   1      -3.263  -1.641  -0.016  0.00  0.00     0.162 C 
BRANCH  13  14
ATOM     14  C   UNL d   1      -3.691  -1.166   1.342  0.00  0.00    -0.025 A 
ATOM     15  C   UNL d   1      -3.058  -0.087   1.955  0.00  0.00     0.096 A 
ATOM     16  N   UNL d   1      -3.406   0.412   3.165  0.00  0.00    -0.375 N 
ATOM     17  C   UNL d   1      -4.427  -0.196   3.802  0.00  0.00     0.087 A 
ATOM     18  HN  UNL d   1      -2.920   1.210   3.574  1.00  0.00     0.164 HD
ATOM     19  C   UNL d   1      -5.114  -1.283   3.289  0.00  0.00     0.018 A 
ATOM     20  C   UNL d   1      -4.737  -1.776   2.042  0.00  0.00     0.011 A 
ENDBRANCH  13  14
ENDBRANCH   2  13
TORSDOF 4
