REMARK  4 active torsions:
REMARK  status: ('A' for Active; 'I' for Inactive)
REMARK    1  A    between atoms: C_6  and  C_1 
REMARK    2  A    between atoms: C_4  and  C_5 
REMARK    3  A    between atoms: C_9  and  C_6 
REMARK       I    between atoms: N_11  and  C_9 
REMARK    4  A    between atoms: C_10  and  N_11 
ROOT
ATOM      1  C   UNL d   1       4.078   1.460  -0.966  0.00  0.00     0.226 C 
ATOM      2  N   UNL d   1       4.118   2.540  -0.146  0.00  0.00    -0.326 N 
ATOM      3  O   UNL d   1       3.978   1.734  -2.173  0.00  0.00    -0.273 OA
ATOM      4  H   UNL d   1       3.964   3.321  -0.773  0.00  0.00     0.169 HD
ENDROOT
BRANCH   1   5
ATOM      5  C   UNL d   1       4.107   0.017  -0.561  0.00  0.00     0.150 C 
BRANCH   5   6
ATOM      6  C   UNL d   1       2.752  -0.552  -0.245  0.00  0.00    -0.001 C 
ATOM      7  S   UNL d   1       1.812   0.084   1.033  0.00  0.00    -0.093 SA
ATOM      8  C   UNL d   1       0.765  -1.270   1.052  0.00  0.00     0.016 A 
ATOM      9  C   UNL d   1      -0.234  -1.548   2.006  0.00  0.00     0.019 A 
ATOM     10  C   UNL d   1       1.016  -2.118  -0.028  0.00  0.00    -0.012 A 
ATOM     11  C   UNL d   1      -0.977  -2.723   1.883  0.00  0.00     0.001 A 
ATOM     12  C   UNL d   1      -0.754  -3.586   0.822  0.00  0.00     0.001 A 
ATOM     13  C   UNL d   1       0.220  -3.288  -0.138  0.00  0.00     0.013 A 
ATOM     14  C   UNL d   1       2.110  -1.628  -0.847  0.00  0.00    -0.037 C 
ATOM     15  C   UNL d   1       2.560  -2.281  -2.119  0.00  0.00     0.050 C 
ENDBRANCH   5   6
ENDBRANCH   1   5
BRANCH   2  16
ATOM     16  C   UNL d   1       4.192   2.926   1.213  0.00  0.00     0.049 A 
ATOM     17  C   UNL d   1       4.615   2.262   2.379  0.00  0.00     0.074 A 
ATOM     18  C   UNL d   1       4.523   2.956   3.625  0.00  0.00     0.018 A 
ATOM     19  C   UNL d   1       4.088   4.275   3.728  0.00  0.00     0.001 A 
ATOM     20  C   UNL d   1       3.718   4.945   2.584  0.00  0.00     0.002 A 
ATOM     21  C   UNL d   1       3.769   4.278   1.359  0.00  0.00     0.030 A 
BRANCH  17  22
ATOM     22  C   UNL d   1       5.280   0.912   2.479  0.00  0.00     0.419 C 
ATOM     23  F   UNL d   1       4.443  -0.138   2.306  0.00  0.00    -0.166 F 
ATOM     24  F   UNL d   1       6.306   0.757   1.595  0.00  0.00    -0.166 F 
ATOM     25  F   UNL d   1       5.849   0.679   3.705  0.00  0.00    -0.166 F 
ENDBRANCH  17  22
ENDBRANCH   2  16
TORSDOF 4
