REMARK  2 active torsions:
REMARK  status: ('A' for Active; 'I' for Inactive)
REMARK       I    between atoms: N_2  and  C_1 
REMARK    1  A    between atoms: C_7  and  C_1 
REMARK    2  A    between atoms: C_5  and  N_2 
ROOT
ATOM      1  N   UNL d   1       2.044   1.320   2.318  0.00  0.00    -0.342 N 
ATOM      2  HN  UNL d   1       2.382   1.694   1.432  1.00  0.00     0.167 HD
ATOM      3  C   UNL d   1       0.985   0.494   2.343  0.00  0.00     0.108 A 
ATOM      4  C   UNL d   1       2.653   1.649   3.466  0.00  0.00     0.043 A 
ATOM      5  C   UNL d   1       2.222   1.161   4.713  0.00  0.00    -0.009 A 
ATOM      6  C   UNL d   1       1.095   0.330   4.729  0.00  0.00     0.017 A 
ATOM      7  C   UNL d   1       0.461   0.004   3.531  0.00  0.00     0.049 A 
ATOM      8  C   UNL d   1       3.753   2.494   3.429  0.00  0.00     0.030 A 
ATOM      9  C   UNL d   1       2.917   1.509   5.886  0.00  0.00     0.013 A 
ATOM     10  C   UNL d   1       4.440   2.852   4.592  0.00  0.00     0.002 A 
ATOM     11  C   UNL d   1       4.025   2.353   5.821  0.00  0.00     0.001 A 
ENDROOT
BRANCH   3  12
ATOM     12  N   UNL d   1       0.379   0.090   1.142  0.00  0.00    -0.309 N 
ATOM     13  C   UNL d   1       0.952   0.260  -0.103  0.00  0.00     0.257 C 
ATOM     14  O   UNL d   1       2.060   0.724  -0.351  0.00  0.00    -0.267 OA
ATOM     15  H   UNL d   1      -0.451  -0.477   1.221  0.00  0.00     0.170 HD
BRANCH  13  16
ATOM     16  C   UNL d   1       0.159  -0.247  -1.258  0.00  0.00     0.032 A 
ATOM     17  C   UNL d   1      -1.242  -0.241  -1.272  0.00  0.00     0.018 A 
ATOM     18  C   UNL d   1      -1.929  -0.694  -2.404  0.00  0.00     0.025 A 
ATOM     19  C   UNL d   1      -1.220  -1.144  -3.519  0.00  0.00     0.034 A 
ATOM     20  C   UNL d   1       0.173  -1.151  -3.515  0.00  0.00     0.025 A 
ATOM     21 CL   UNL d   1      -2.071  -1.680  -4.915  0.00  0.00    -0.084 Cl
ATOM     22  C   UNL d   1       0.860  -0.700  -2.387  0.00  0.00     0.018 A 
ENDBRANCH  13  16
ENDBRANCH   3  12
TORSDOF 2
