REMARK  4 active torsions:
REMARK  status: ('A' for Active; 'I' for Inactive)
REMARK       I    between atoms: C_2  and  N_1 
REMARK       I    between atoms: N_7  and  C_2 
REMARK    1  A    between atoms: C_5  and  C_3 
REMARK    2  A    between atoms: C_6  and  C_5 
REMARK       I    between atoms: N_9  and  C_6 
REMARK    3  A    between atoms: C_13  and  N_7 
REMARK    4  A    between atoms: C_14  and  N_9 
ROOT
ATOM      1  N   UNL d   1      -1.449  -1.104   0.387  0.00  0.00    -0.318 N 
ATOM      2  C   UNL d   1      -2.280  -1.977   1.084  0.00  0.00     0.323 C 
ATOM      3  C   UNL d   1       0.042  -1.217   0.459  0.00  0.00     0.189 C 
ATOM      4  C   UNL d   1       0.641  -0.067   1.312  0.00  0.00     0.241 C 
ATOM      5  N   UNL d   1      -3.629  -1.720   0.998  0.00  0.00    -0.309 N 
ATOM      6  N   UNL d   1       0.036   1.165   1.196  0.00  0.00    -0.358 N 
ATOM      7  O   UNL d   1      -1.831  -2.938   1.705  0.00  0.00    -0.247 OA
ATOM      8  O   UNL d   1       1.707  -0.141   1.919  0.00  0.00    -0.271 OA
ATOM      9  C   UNL d   1      -1.865   0.222  -0.102  0.00  0.00     0.148 C 
ATOM     10  C   UNL d   1      -1.359   1.317   0.844  0.00  0.00     0.142 C 
ATOM     11  H   UNL d   1      -3.941  -1.211   0.187  0.00  0.00     0.170 HD
ATOM     12  H   UNL d   1       0.481   1.878   1.764  0.00  0.00     0.162 HD
ENDROOT
BRANCH   3  13
ATOM     13  C   UNL d   1       0.704  -2.538   0.855  0.00  0.00     0.138 C 
BRANCH  13  14
ATOM     14  C   UNL d   1       0.570  -3.575  -0.238  0.00  0.00     0.224 C 
ATOM     15  N   UNL d   1      -0.367  -4.544   0.047  0.00  0.00    -0.327 N 
ATOM     16  H   UNL d   1      -1.003  -4.333   0.817  0.00  0.00     0.169 HD
ATOM     17  O   UNL d   1       1.256  -3.496  -1.254  0.00  0.00    -0.273 OA
BRANCH  15  18
ATOM     18  C   UNL d   1      -0.552  -5.772  -0.617  0.00  0.00     0.034 A 
ATOM     19  C   UNL d   1       0.302  -6.247  -1.618  0.00  0.00     0.032 A 
ATOM     20  C   UNL d   1       0.110  -7.516  -2.172  0.00  0.00     0.044 A 
ATOM     21  C   UNL d   1      -0.940  -8.307  -1.728  0.00  0.00     0.116 A 
ATOM     22  C   UNL d   1      -1.812  -7.848  -0.750  0.00  0.00     0.044 A 
ATOM     23  F   UNL d   1      -1.109  -9.532  -2.244  0.00  0.00    -0.206 F 
ATOM     24  C   UNL d   1      -1.619  -6.580  -0.194  0.00  0.00     0.032 A 
ENDBRANCH  15  18
ENDBRANCH  13  14
ENDBRANCH   3  13
BRANCH   5  25
ATOM     25  C   UNL d   1      -4.660  -2.322   1.761  0.00  0.00     0.036 A 
ATOM     26  C   UNL d   1      -4.433  -3.176   2.847  0.00  0.00     0.032 A 
ATOM     27  C   UNL d   1      -5.501  -3.700   3.581  0.00  0.00     0.044 A 
ATOM     28  C   UNL d   1      -6.801  -3.359   3.239  0.00  0.00     0.116 A 
ATOM     29  C   UNL d   1      -7.053  -2.515   2.166  0.00  0.00     0.044 A 
ATOM     30  F   UNL d   1      -7.823  -3.840   3.958  0.00  0.00    -0.206 F 
ATOM     31  C   UNL d   1      -5.984  -2.001   1.424  0.00  0.00     0.032 A 
ENDBRANCH   5  25
TORSDOF 4
