REMARK  4 active torsions:
REMARK  status: ('A' for Active; 'I' for Inactive)
REMARK    1  A    between atoms: C_10  and  C_2 
REMARK       I    between atoms: N_14  and  C_10 
REMARK    2  A    between atoms: C_11  and  N_15 
REMARK    3  A    between atoms: N_18  and  C_11 
REMARK    4  A    between atoms: N_15  and  N_14 
ROOT
ATOM      1  C   UNL d   1       0.206  -0.589   0.016  0.00  0.00     0.086 A 
ATOM      2  C   UNL d   1      -2.163  -0.775   0.048  0.00  0.00     0.036 A 
ATOM      3  C   UNL d   1       0.100   0.862   0.036  0.00  0.00     0.085 A 
ATOM      4  C   UNL d   1      -0.918  -1.441   0.024  0.00  0.00     0.051 A 
ATOM      5  O   UNL d   1       2.194   0.289  -0.010  0.00  0.00    -0.156 OA
ATOM      6  N   UNL d   1       1.506  -0.913  -0.013  0.00  0.00    -0.240 N 
ATOM      7  HN  UNL d   1       1.906  -1.851  -0.033  1.00  0.00     0.197 HD
ATOM      8  N   UNL d   1       1.334   1.375   0.018  0.00  0.00    -0.240 N 
ATOM      9  HN  UNL d   1       1.590   2.362   0.025  1.00  0.00     0.197 HD
ATOM     10  C   UNL d   1      -2.254   0.656   0.069  0.00  0.00     0.019 A 
ATOM     11  C   UNL d   1      -1.139   1.521   0.065  0.00  0.00     0.035 A 
ENDROOT
BRANCH   2  12
ATOM     12  C   UNL d   1      -3.463  -1.521   0.027  0.00  0.00     0.270 C 
ATOM     13  N   UNL d   1      -3.428  -2.902   0.001  0.00  0.00    -0.264 N 
ATOM     14  H   UNL d   1      -2.599  -3.483   0.052  0.00  0.00     0.190 HD
ATOM     15  O   UNL d   1      -4.530  -0.907   0.021  0.00  0.00    -0.266 OA
BRANCH  13  16
ATOM     16  N   UNL d   1      -4.657  -3.583  -0.058  0.00  0.00    -0.274 N 
ATOM     17  H   UNL d   1      -5.468  -2.965  -0.065  0.00  0.00     0.189 HD
BRANCH  16  18
ATOM     18  C   UNL d   1      -4.791  -4.869   0.450  0.00  0.00     0.186 C 
ATOM     19  S   UNL d   1      -3.515  -5.755   1.075  0.00  0.00    -0.040 SA
BRANCH  18  20
ATOM     20  N   UNL d   1      -6.093  -5.311   0.323  0.00  0.00    -0.370 N 
ATOM     21  C   UNL d   1      -6.627  -6.609   0.693  0.00  0.00     0.148 C 
ATOM     22  H   UNL d   1      -6.704  -4.735  -0.240  0.00  0.00     0.161 HD
ENDBRANCH  18  20
ENDBRANCH  16  18
ENDBRANCH  13  16
ENDBRANCH   2  12
TORSDOF 4
