REMARK  5 active torsions:
REMARK  status: ('A' for Active; 'I' for Inactive)
REMARK    1  A    between atoms: N_5  and  C_1 
REMARK    2  A    between atoms: N_2  and  N_5 
REMARK    3  A    between atoms: C_8  and  C_7 
REMARK    4  A    between atoms: O_14  and  C_9 
REMARK    5  A    between atoms: C_15  and  O_14 
ROOT
ATOM      1  N   UNL d   1      -1.190   1.604  -0.258  0.00  0.00    -0.309 N 
ATOM      2  HN  UNL d   1      -1.657   1.350   0.613  1.00  0.00     0.186 HD
ATOM      3  C   UNL d   1      -1.848   2.008  -1.297  0.00  0.00     0.118 C 
ENDROOT
BRANCH   3   4
ATOM      4  C   UNL d   1      -3.320   2.113  -1.255  0.00  0.00    -0.019 A 
ATOM      5  C   UNL d   1      -4.007   1.791  -0.081  0.00  0.00     0.015 A 
ATOM      6  C   UNL d   1      -5.399   1.872  -0.037  0.00  0.00     0.037 A 
ATOM      7  C   UNL d   1      -6.112   2.272  -1.167  0.00  0.00     0.068 A 
ATOM      8  C   UNL d   1      -5.419   2.618  -2.332  0.00  0.00     0.037 A 
ATOM      9  C   UNL d   1      -4.023   2.533  -2.384  0.00  0.00     0.015 A 
BRANCH   7  10
ATOM     10  O   UNL d   1      -7.473   2.398  -1.229  0.00  0.00    -0.352 OA
BRANCH  10  11
ATOM     11  C   UNL d   1      -8.213   1.548  -0.349  0.00  0.00     0.171 C 
ATOM     12  C   UNL d   1      -9.692   1.776  -0.597  0.00  0.00     0.034 C 
ENDBRANCH  10  11
ENDBRANCH   7  10
ENDBRANCH   3   4
BRANCH   1  13
ATOM     13  N   UNL d   1       0.164   1.537  -0.397  0.00  0.00    -0.277 N 
ATOM     14  H   UNL d   1       0.612   1.791  -1.271  0.00  0.00     0.189 HD
BRANCH  13  15
ATOM     15  C   UNL d   1       0.949   1.124   0.647  0.00  0.00     0.184 C 
ATOM     16  S   UNL d   1       2.599   1.024   0.541  0.00  0.00    -0.040 SA
ATOM     17  N   UNL d   1       0.278   0.803   1.780  0.00  0.00    -0.375 N 
ATOM     18  H   UNL d   1       0.751   0.475   2.608  0.00  0.00     0.158 HD
ATOM     19  H   UNL d   1      -0.730   0.877   1.746  0.00  0.00     0.158 HD
ENDBRANCH  13  15
ENDBRANCH   1  13
TORSDOF 5
