REMARK  5 active torsions:
REMARK  status: ('A' for Active; 'I' for Inactive)
REMARK    1  A    between atoms: C_7  and  C_1 
REMARK    2  A    between atoms: C_6  and  C_7 
REMARK    3  A    between atoms: O_10  and  C_6 
REMARK    4  A    between atoms: C_13  and  O_10 
REMARK    5  A    between atoms: C_16  and  C_13 
ROOT
ATOM      1  C   UNL d   1       2.297  -2.380   0.067  0.00  0.00     0.151 C 
ENDROOT
BRANCH   1   2
ATOM      2  C   UNL d   1       3.808  -2.432   0.045  0.00  0.00     0.263 C 
ATOM      3  O   UNL d   1       4.519  -1.437   0.056  0.00  0.00    -0.265 OA
BRANCH   2   4
ATOM      4  O   UNL d   1       4.256  -3.708  -0.119  0.00  0.00    -0.317 OA
BRANCH   4   5
ATOM      5  C   UNL d   1       5.572  -3.816  -0.681  0.00  0.00     0.217 C 
BRANCH   5   6
ATOM      6  C   UNL d   1       6.583  -4.377   0.285  0.00  0.00    -0.034 A 
ATOM      7  C   UNL d   1       6.802  -5.760   0.367  0.00  0.00     0.009 A 
ATOM      8  C   UNL d   1       7.785  -6.274   1.216  0.00  0.00     0.001 A 
ATOM      9  C   UNL d   1       8.555  -5.413   1.996  0.00  0.00     0.000 A 
ATOM     10  C   UNL d   1       8.343  -4.037   1.927  0.00  0.00     0.001 A 
ATOM     11  C   UNL d   1       7.359  -3.521   1.080  0.00  0.00     0.009 A 
ENDBRANCH   5   6
ENDBRANCH   4   5
ENDBRANCH   2   4
ENDBRANCH   1   2
BRANCH   1  12
ATOM     12  C   UNL d   1       1.669  -2.384   1.431  0.00  0.00    -0.031 A 
ATOM     13  C   UNL d   1       1.855  -1.375   2.459  0.00  0.00    -0.010 A 
ATOM     14  C   UNL d   1       1.087  -1.653   3.597  0.00  0.00     0.015 A 
ATOM     15  C   UNL d   1       2.655  -0.202   2.482  0.00  0.00     0.037 A 
ATOM     16  C   UNL d   1       1.111  -0.823   4.736  0.00  0.00     0.021 A 
ATOM     17  S   UNL d   1       0.155  -3.083   3.398  0.00  0.00    -0.101 SA
ATOM     18  C   UNL d   1       1.924   0.311   4.733  0.00  0.00     0.025 A 
ATOM     19  C   UNL d   1       2.686   0.616   3.616  0.00  0.00     0.035 A 
ATOM     20 CL   UNL d   1       3.686   2.017   3.626  0.00  0.00    -0.084 Cl
ATOM     21  C   UNL d   1       0.758  -3.343   1.831  0.00  0.00     0.058 A 
ENDBRANCH   1  12
TORSDOF 5
