REMARK  4 active torsions:
REMARK  status: ('A' for Active; 'I' for Inactive)
REMARK    1  A    between atoms: C_3  and  N_1 
REMARK    2  A    between atoms: C_8  and  N_4 
REMARK    3  A    between atoms: O_13  and  C_6 
REMARK    4  A    between atoms: O_15  and  C_12 
ROOT
ATOM      1  N   UNL d   1       1.081  -0.019   0.046  0.00  0.00    -0.296 N 
ATOM      2  HN  UNL d   1       1.436  -0.913   0.384  1.00  0.00     0.187 HD
ATOM      3  N   UNL d   1       1.192   1.063   0.664  0.00  0.00    -0.285 N 
ATOM      4  HN  UNL d   1       0.887   1.960   0.284  1.00  0.00     0.188 HD
ENDROOT
BRANCH   1   5
ATOM      5  C   UNL d   1       0.401   0.157  -1.183  0.00  0.00     0.081 A 
ATOM      6  C   UNL d   1       0.794  -0.599  -2.299  0.00  0.00     0.096 A 
ATOM      7  C   UNL d   1       0.133  -0.495  -3.522  0.00  0.00     0.075 A 
ATOM      8  C   UNL d   1      -0.943   0.376  -3.638  0.00  0.00     0.068 A 
ATOM      9  C   UNL d   1      -1.366   1.137  -2.552  0.00  0.00     0.039 A 
ATOM     10  C   UNL d   1      -0.698   1.020  -1.328  0.00  0.00     0.036 A 
BRANCH   6  11
ATOM     11  O   UNL d   1       1.847  -1.473  -2.227  0.00  0.00    -0.358 OA
ATOM     12  H   UNL d   1       2.189  -1.417  -1.316  0.00  0.00     0.217 HD
ENDBRANCH   6  11
BRANCH   8  13
ATOM     13  O   UNL d   1      -1.571   0.458  -4.844  0.00  0.00    -0.361 OA
ATOM     14  H   UNL d   1      -2.295   1.103  -4.779  0.00  0.00     0.217 HD
ENDBRANCH   8  13
ENDBRANCH   1   5
BRANCH   3  15
ATOM     15  C   UNL d   1       1.779   0.921   1.936  0.00  0.00     0.119 A 
ATOM     16  N   UNL d   1       1.263   1.742   2.882  0.00  0.00    -0.351 N 
ATOM     17  C   UNL d   1       1.815   1.700   4.114  0.00  0.00     0.089 A 
ATOM     18  HN  UNL d   1       0.486   2.368   2.672  1.00  0.00     0.166 HD
ATOM     19  C   UNL d   1       2.874   0.877   4.459  0.00  0.00     0.017 A 
ATOM     20  C   UNL d   1       3.398   0.043   3.480  0.00  0.00     0.005 A 
ATOM     21  C   UNL d   1       2.847   0.065   2.201  0.00  0.00     0.050 A 
ENDBRANCH   3  15
TORSDOF 4
