REMARK  4 active torsions:
REMARK  status: ('A' for Active; 'I' for Inactive)
REMARK    1  A    between atoms: C_2  and  N_1 
REMARK    2  A    between atoms: C_3  and  O_5 
REMARK    3  A    between atoms: C_6  and  C_3 
REMARK    4  A    between atoms: O_5  and  C_4 
ROOT
ATOM      1  O   UNL d   1      -0.845   1.492   0.774  0.00  0.00    -0.272 OA
ENDROOT
BRANCH   1   2
ATOM      2  C   UNL d   1      -1.831   2.197   1.438  0.00  0.00     0.298 C 
ATOM      3  O   UNL d   1      -2.963   2.420   1.040  0.00  0.00    -0.259 OA
BRANCH   2   4
ATOM      4  C   UNL d   1      -1.272   2.727   2.713  0.00  0.00     0.041 A 
ATOM      5  C   UNL d   1       0.083   2.591   3.052  0.00  0.00     0.043 A 
ATOM      6  C   UNL d   1       0.585   3.191   4.212  0.00  0.00     0.056 A 
ATOM      7 CL   UNL d   1       2.272   3.009   4.541  0.00  0.00    -0.083 Cl
ATOM      8  C   UNL d   1      -0.266   3.925   5.046  0.00  0.00     0.055 A 
ATOM      9  C   UNL d   1      -1.618   4.053   4.717  0.00  0.00     0.026 A 
ATOM     10 CL   UNL d   1       0.291   4.704   6.483  0.00  0.00    -0.083 Cl
ATOM     11  C   UNL d   1      -2.120   3.460   3.554  0.00  0.00     0.019 A 
ENDBRANCH   2   4
ENDBRANCH   1   2
BRANCH   1  12
ATOM     12  C   UNL d   1      -0.766   1.400  -0.633  0.00  0.00     0.112 A 
ATOM     13  C   UNL d   1       0.036   0.404  -1.199  0.00  0.00     0.137 A 
ATOM     14  C   UNL d   1       0.311   0.391  -2.574  0.00  0.00     0.045 A 
ATOM     15  C   UNL d   1      -0.209   1.402  -3.392  0.00  0.00    -0.059 A 
ATOM     16  C   UNL d   1      -1.052   2.371  -2.829  0.00  0.00     0.009 A 
ATOM     17  C   UNL d   1       0.126   1.464  -4.853  0.00  0.00     0.048 C 
ATOM     18  C   UNL d   1      -1.324   2.378  -1.458  0.00  0.00     0.040 A 
BRANCH  13  19
ATOM     19  N   UNL d   1       0.634  -0.632  -0.376  0.00  0.00    -0.113 N 
ATOM     20  O   UNL d   1       1.223  -0.279   0.656  0.00  0.00    -0.532 OA
ATOM     21  O   UNL d   1       0.545  -1.798  -0.783  0.00  0.00    -0.532 OA
ENDBRANCH  13  19
ENDBRANCH   1  12
TORSDOF 4
