REMARK  6 active torsions:
REMARK  status: ('A' for Active; 'I' for Inactive)
REMARK    1  A    between atoms: C_3  and  C_1 
REMARK       I    between atoms: N_9  and  C_1 
REMARK    2  A    between atoms: C_4  and  C_16 
REMARK    3  A    between atoms: C_19  and  N_9 
REMARK    4  A    between atoms: S_15  and  C_21 
REMARK    5  A    between atoms: C_16  and  S_15 
REMARK    6  A    between atoms: C_21  and  C_19 
ROOT
ATOM      1  C   UNL d   1       4.591   1.248  -0.009  0.00  0.00     0.133 C 
ENDROOT
BRANCH   1   2
ATOM      2  N   UNL d   1       3.142   1.257   0.000  0.00  0.00    -0.356 N 
ATOM      3  C   UNL d   1       2.428   1.285  -1.182  0.00  0.00     0.251 C 
ATOM      4  O   UNL d   1       2.960   1.386  -2.279  0.00  0.00    -0.268 OA
ATOM      5  H   UNL d   1       2.664   1.300   0.889  0.00  0.00     0.162 HD
BRANCH   3   6
ATOM      6  C   UNL d   1       0.945   1.218  -1.066  0.00  0.00     0.032 A 
ATOM      7  C   UNL d   1       0.306   0.568   0.000  0.00  0.00     0.023 A 
ATOM      8  C   UNL d   1      -1.094   0.531   0.070  0.00  0.00    -0.061 A 
ATOM      9  C   UNL d   1      -1.795  -0.158   1.204  0.00  0.00     0.048 C 
ATOM     10  C   UNL d   1      -1.846   1.142  -0.943  0.00  0.00     0.007 A 
ATOM     11  C   UNL d   1      -1.212   1.769  -2.017  0.00  0.00     0.002 A 
ATOM     12  C   UNL d   1       0.179   1.802  -2.081  0.00  0.00     0.017 A 
ENDBRANCH   3   6
ENDBRANCH   1   2
BRANCH   1  13
ATOM     13  C   UNL d   1       5.202   2.648  -0.072  0.00  0.00     0.093 C 
BRANCH  13  14
ATOM     14  S   UNL d   1       7.032   2.606  -0.076  0.00  0.00    -0.163 SA
BRANCH  14  15
ATOM     15  C   UNL d   1       7.317   1.694  -1.631  0.00  0.00     0.114 C 
BRANCH  15  16
ATOM     16  C   UNL d   1       8.783   1.401  -1.847  0.00  0.00    -0.027 A 
ATOM     17  C   UNL d   1       9.400   0.232  -1.364  0.00  0.00     0.042 A 
ATOM     18  C   UNL d   1      10.758  -0.006  -1.593  0.00  0.00     0.048 A 
ATOM     19 CL   UNL d   1       8.525  -0.971  -0.480  0.00  0.00    -0.084 Cl
ATOM     20  C   UNL d   1      11.511   0.925  -2.300  0.00  0.00     0.035 A 
ATOM     21  C   UNL d   1      10.924   2.092  -2.780  0.00  0.00     0.024 A 
ATOM     22 CL   UNL d   1      13.183   0.632  -2.584  0.00  0.00    -0.084 Cl
ATOM     23  C   UNL d   1       9.567   2.330  -2.552  0.00  0.00     0.011 A 
ENDBRANCH  15  16
ENDBRANCH  14  15
ENDBRANCH  13  14
ENDBRANCH   1  13
TORSDOF 6
