REMARK  7 active torsions:
REMARK  status: ('A' for Active; 'I' for Inactive)
REMARK    1  A    between atoms: N_2  and  C_1 
REMARK    2  A    between atoms: N_5  and  C_1 
REMARK    3  A    between atoms: C_8  and  N_2 
REMARK    4  A    between atoms: C_9  and  C_4 
REMARK    5  A    between atoms: C_12  and  N_5 
REMARK    6  A    between atoms: C_14  and  C_12 
REMARK    7  A    between atoms: C_13  and  C_14 
ROOT
ATOM      1  C   UNL d   1       1.190   0.068   0.096  0.00  0.00     0.172 C 
ATOM      2  S   UNL d   1       2.762  -0.270   0.541  0.00  0.00    -0.041 SA
ENDROOT
BRANCH   1   3
ATOM      3  N   UNL d   1       0.406   1.103   0.535  0.00  0.00    -0.333 N 
ATOM      4  H   UNL d   1      -0.534   0.836   0.790  0.00  0.00     0.168 HD
BRANCH   3   5
ATOM      5  C   UNL d   1       0.803   2.413   0.871  0.00  0.00     0.034 A 
ATOM      6  C   UNL d   1       1.885   3.042   0.253  0.00  0.00     0.030 A 
ATOM      7  C   UNL d   1       2.148   4.397   0.476  0.00  0.00     0.010 A 
ATOM      8  C   UNL d   1       1.324   5.162   1.312  0.00  0.00    -0.055 A 
ATOM      9  C   UNL d   1       0.281   4.508   1.986  0.00  0.00     0.010 A 
ATOM     10  C   UNL d   1       0.009   3.154   1.750  0.00  0.00     0.030 A 
BRANCH   8  11
ATOM     11  C   UNL d   1       1.503   6.663   1.471  0.00  0.00     0.010 C 
ATOM     12  C   UNL d   1       2.519   6.999   2.561  0.00  0.00     0.015 C 
ATOM     13  C   UNL d   1       1.874   7.363   0.157  0.00  0.00     0.015 C 
ENDBRANCH   8  11
ENDBRANCH   3   5
ENDBRANCH   1   3
BRANCH   1  14
ATOM     14  N   UNL d   1       0.577  -0.805  -0.767  0.00  0.00    -0.367 N 
ATOM     15  H   UNL d   1       1.227  -1.523  -1.074  0.00  0.00     0.161 HD
BRANCH  14  16
ATOM     16  C   UNL d   1      -0.450  -0.420  -1.734  0.00  0.00     0.126 C 
BRANCH  16  17
ATOM     17  C   UNL d   1      -0.761  -1.565  -2.701  0.00  0.00     0.058 C 
BRANCH  17  18
ATOM     18  C   UNL d   1      -1.754  -1.180  -3.769  0.00  0.00    -0.057 A 
ATOM     19  C   UNL d   1      -1.317  -0.643  -4.989  0.00  0.00     0.007 A 
ATOM     20  C   UNL d   1      -2.238  -0.298  -5.981  0.00  0.00     0.001 A 
ATOM     21  C   UNL d   1      -3.602  -0.478  -5.761  0.00  0.00     0.000 A 
ATOM     22  C   UNL d   1      -4.046  -1.003  -4.549  0.00  0.00     0.001 A 
ATOM     23  C   UNL d   1      -3.127  -1.351  -3.556  0.00  0.00     0.007 A 
ENDBRANCH  17  18
ENDBRANCH  16  17
ENDBRANCH  14  16
ENDBRANCH   1  14
TORSDOF 7
