REMARK  4 active torsions:
REMARK  status: ('A' for Active; 'I' for Inactive)
REMARK    1  A    between atoms: N_2  and  C_1 
REMARK    2  A    between atoms: S_11  and  C_5 
REMARK    3  A    between atoms: C_7  and  C_10 
REMARK    4  A    between atoms: C_19  and  S_11 
ROOT
ATOM      1  C   UNL d   1       1.296   0.140  -0.143  0.00  0.00     0.120 C 
ATOM      2  C   UNL d   1       0.341  -0.877  -0.228  0.00  0.00     0.038 C 
ATOM      3  C   UNL d   1       0.981   1.417   0.335  0.00  0.00     0.051 C 
ATOM      4  C   UNL d   1      -0.324   1.684   0.767  0.00  0.00    -0.006 C 
ATOM      5  C   UNL d   1      -0.995  -0.538   0.034  0.00  0.00     0.022 C 
ATOM      6  C   UNL d   1      -1.324   0.730   0.533  0.00  0.00     0.015 C 
ENDROOT
BRANCH   4   7
ATOM      7  C   UNL d   1      -0.537   2.785   1.704  0.00  0.00     0.058 A 
ATOM      8  N   UNL d   1      -0.692   4.040   1.234  0.00  0.00    -0.353 N 
ATOM      9  C   UNL d   1      -0.677   5.031   2.162  0.00  0.00     0.059 A 
ATOM     10  HN  UNL d   1      -0.814   4.233   0.240  1.00  0.00     0.166 HD
ATOM     11  C   UNL d   1      -0.824   6.360   1.780  0.00  0.00     0.032 A 
ATOM     12  C   UNL d   1      -0.485   4.751   3.545  0.00  0.00     0.059 A 
ATOM     13  C   UNL d   1      -0.748   7.402   2.711  0.00  0.00     0.002 A 
ATOM     14  C   UNL d   1      -0.518   7.117   4.052  0.00  0.00     0.002 A 
ATOM     15  C   UNL d   1      -0.394   5.791   4.454  0.00  0.00     0.032 A 
ATOM     16  N   UNL d   1      -0.367   3.498   4.002  0.00  0.00    -0.362 N 
ATOM     17  C   UNL d   1      -0.399   2.530   3.067  0.00  0.00     0.118 A 
ATOM     18  HN  UNL d   1      -0.259   3.290   4.995  1.00  0.00     0.165 HD
ENDBRANCH   4   7
BRANCH   1  19
ATOM     19  N   UNL d   1       2.693  -0.139  -0.384  0.00  0.00    -0.114 N 
ATOM     20  O   UNL d   1       3.401  -0.338   0.609  0.00  0.00    -0.532 OA
ATOM     21  O   UNL d   1       3.074  -0.103  -1.564  0.00  0.00    -0.532 OA
ENDBRANCH   1  19
BRANCH   2  22
ATOM     22  S   UNL d   1       0.723  -2.599  -0.491  0.00  0.00    -0.088 SA
BRANCH  22  23
ATOM     23  C   UNL d   1       1.225  -3.180   1.137  0.00  0.00     0.005 A 
ATOM     24  C   UNL d   1       1.051  -2.461   2.331  0.00  0.00     0.020 A 
ATOM     25  C   UNL d   1       1.472  -2.991   3.557  0.00  0.00     0.025 A 
ATOM     26  C   UNL d   1       2.060  -4.250   3.605  0.00  0.00     0.034 A 
ATOM     27  C   UNL d   1       2.232  -4.984   2.435  0.00  0.00     0.025 A 
ATOM     28 CL   UNL d   1       2.567  -4.904   5.112  0.00  0.00    -0.084 Cl
ATOM     29  C   UNL d   1       1.818  -4.449   1.208  0.00  0.00     0.020 A 
ENDBRANCH  22  23
ENDBRANCH   2  22
TORSDOF 4
