REMARK  6 active torsions:
REMARK  status: ('A' for Active; 'I' for Inactive)
REMARK       I    between atoms: N_2  and  C_1 
REMARK    1  A    between atoms: C_9  and  C_1 
REMARK    2  A    between atoms: C_4  and  N_2 
REMARK    3  A    between atoms: C_3  and  C_10 
REMARK    4  A    between atoms: O_12  and  C_3 
REMARK    5  A    between atoms: S_11  and  C_8 
REMARK    6  A    between atoms: C_10  and  C_9 
ROOT
ATOM      1  C   UNL d   1       0.753   0.216   0.631  0.00  0.00     0.222 C 
ATOM      2  N   UNL d   1       0.377  -1.112   0.682  0.00  0.00    -0.327 N 
ATOM      3  O   UNL d   1       1.675   0.744   1.244  0.00  0.00    -0.273 OA
ATOM      4  H   UNL d   1      -0.311  -1.420  -0.008  0.00  0.00     0.169 HD
ENDROOT
BRANCH   2   5
ATOM      5  C   UNL d   1       0.919  -2.129   1.496  0.00  0.00     0.035 A 
ATOM      6  C   UNL d   1       1.842  -1.892   2.521  0.00  0.00     0.048 A 
ATOM      7  C   UNL d   1       2.370  -2.946   3.279  0.00  0.00     0.002 A 
ATOM      8  C   UNL d   1       1.939  -4.250   3.009  0.00  0.00     0.018 A 
ATOM      9  C   UNL d   1       1.001  -4.497   2.005  0.00  0.00     0.004 A 
ATOM     10  C   UNL d   1       0.494  -3.439   1.253  0.00  0.00     0.029 A 
BRANCH   7  11
ATOM     11  S   UNL d   1       3.578  -2.750   4.588  0.00  0.00    -0.134 SA
ATOM     12  C   UNL d   1       3.964  -0.978   4.539  0.00  0.00     0.095 C 
ENDBRANCH   7  11
ENDBRANCH   2   5
BRANCH   1  13
ATOM     13  C   UNL d   1      -0.082   1.039  -0.336  0.00  0.00     0.113 C 
BRANCH  13  14
ATOM     14  C   UNL d   1       0.382   0.858  -1.777  0.00  0.00     0.119 C 
BRANCH  14  15
ATOM     15  C   UNL d   1      -0.186  -0.395  -2.396  0.00  0.00     0.139 C 
ATOM     16  O   UNL d   1      -0.795  -1.258  -1.779  0.00  0.00    -0.650 OA
BRANCH  15  17
ATOM     17  O   UNL d   1       0.063  -0.489  -3.719  0.00  0.00    -0.776 OA
ATOM     18  H   UNL d   1       0.576   0.256  -4.086  0.00  0.00     0.167 HD
ENDBRANCH  15  17
ENDBRANCH  14  15
ENDBRANCH  13  14
ENDBRANCH   1  13
TORSDOF 6
