REMARK  8 active torsions:
REMARK  status: ('A' for Active; 'I' for Inactive)
REMARK    1  A    between atoms: C_10  and  C_1 
REMARK    2  A    between atoms: C_7  and  C_2 
REMARK    3  A    between atoms: N_9  and  C_3 
REMARK    4  A    between atoms: O_24  and  C_10 
REMARK    5  A    between atoms: C_13  and  C_16 
REMARK    6  A    between atoms: O_25  and  C_13 
REMARK    7  A    between atoms: C_26  and  O_24 
REMARK    8  A    between atoms: C_27  and  O_25 
ROOT
ATOM      1  C   UNL d   1      -0.687   1.427  -0.960  0.00  0.00     0.072 A 
ATOM      2  C   UNL d   1       0.454   1.133  -0.218  0.00  0.00     0.134 A 
ATOM      3  C   UNL d   1      -0.152  -1.156  -0.092  0.00  0.00     0.104 A 
ATOM      4  N   UNL d   1       0.712  -0.155   0.194  0.00  0.00    -0.341 N 
ATOM      5  HN  UNL d   1       1.562  -0.356   0.719  1.00  0.00     0.167 HD
ATOM      6  C   UNL d   1      -1.358  -0.889  -0.746  0.00  0.00     0.084 A 
ATOM      7  C   UNL d   1      -1.617   0.408  -1.194  0.00  0.00     0.046 A 
ATOM      8  C   UNL d   1      -2.345  -1.900  -0.953  0.00  0.00     0.102 C 
ATOM      9  N   UNL d   1      -3.169  -2.696  -1.155  0.00  0.00    -0.191 NA
ENDROOT
BRANCH   3  10
ATOM     10  N   UNL d   1       0.179  -2.458   0.296  0.00  0.00    -0.268 NA
ATOM     11  C   UNL d   1       1.107  -2.555   1.429  0.00  0.00     0.098 C 
ATOM     12  C   UNL d   1       1.016  -3.983   1.972  0.00  0.00     0.029 C 
ATOM     13  C   UNL d   1       1.302  -5.030   0.887  0.00  0.00     0.088 C 
ATOM     14  C   UNL d   1       0.499  -4.761  -0.395  0.00  0.00     0.029 C 
ATOM     15  C   UNL d   1       0.597  -3.303  -0.837  0.00  0.00     0.098 C 
BRANCH  13  16
ATOM     16  C   UNL d   1       2.785  -5.154   0.586  0.00  0.00     0.263 C 
ATOM     17  O   UNL d   1       3.283  -5.073  -0.526  0.00  0.00    -0.265 OA
BRANCH  16  18
ATOM     18  O   UNL d   1       3.453  -5.505   1.721  0.00  0.00    -0.322 OA
BRANCH  18  19
ATOM     19  C   UNL d   1       4.753  -6.077   1.526  0.00  0.00     0.174 C 
ATOM     20  C   UNL d   1       4.583  -7.578   1.371  0.00  0.00     0.034 C 
ENDBRANCH  18  19
ENDBRANCH  16  18
ENDBRANCH  13  16
ENDBRANCH   3  10
BRANCH   1  21
ATOM     21  C   UNL d   1      -0.928   2.748  -1.554  0.00  0.00     0.295 C 
ATOM     22  O   UNL d   1      -0.059   3.395  -2.113  0.00  0.00    -0.259 OA
BRANCH  21  23
ATOM     23  O   UNL d   1      -2.219   3.091  -1.353  0.00  0.00    -0.318 OA
BRANCH  23  24
ATOM     24  C   UNL d   1      -2.551   4.464  -1.607  0.00  0.00     0.174 C 
ATOM     25  C   UNL d   1      -2.621   5.157  -0.261  0.00  0.00     0.034 C 
ENDBRANCH  23  24
ENDBRANCH  21  23
ENDBRANCH   1  21
BRANCH   2  26
ATOM     26  C   UNL d   1       1.445   2.188   0.256  0.00  0.00     0.433 C 
ATOM     27  F   UNL d   1       1.090   3.485   0.054  0.00  0.00    -0.165 F 
ATOM     28  F   UNL d   1       1.641   2.109   1.609  0.00  0.00    -0.165 F 
ATOM     29  F   UNL d   1       2.681   2.038  -0.297  0.00  0.00    -0.165 F 
ENDBRANCH   2  26
TORSDOF 8
