REMARK  6 active torsions:
REMARK  status: ('A' for Active; 'I' for Inactive)
REMARK    1  A    between atoms: C_10  and  C_3 
REMARK    2  A    between atoms: C_9  and  C_4 
REMARK    3  A    between atoms: O_14  and  C_9 
REMARK    4  A    between atoms: O_13  and  C_10 
REMARK    5  A    between atoms: C_20  and  O_13 
REMARK    6  A    between atoms: C_19  and  O_14 
ROOT
ATOM      1  C   UNL d   1       0.064   0.694  -1.335  0.00  0.00     0.067 C 
ATOM      2  C   UNL d   1       0.082   0.807   1.302  0.00  0.00     0.067 C 
ATOM      3  C   UNL d   1       0.243   2.243   0.700  0.00  0.00     0.113 C 
ATOM      4  C   UNL d   1       0.129   2.181  -0.872  0.00  0.00     0.113 C 
ATOM      5  C   UNL d   1      -1.206   0.135  -0.693  0.00  0.00    -0.042 A 
ATOM      6  C   UNL d   1      -1.203   0.205   0.725  0.00  0.00    -0.042 A 
ATOM      7  C   UNL d   1       1.241  -0.003   0.723  0.00  0.00    -0.042 A 
ATOM      8  C   UNL d   1       1.244  -0.039  -0.695  0.00  0.00    -0.042 A 
ATOM      9  C   UNL d   1      -2.252  -0.340   1.453  0.00  0.00     0.008 A 
ATOM     10  C   UNL d   1       2.263  -0.596   1.451  0.00  0.00     0.008 A 
ATOM     11  C   UNL d   1      -2.257  -0.460  -1.379  0.00  0.00     0.008 A 
ATOM     12  C   UNL d   1       2.277  -0.655  -1.383  0.00  0.00     0.008 A 
ATOM     13  C   UNL d   1      -3.310  -1.003  -0.642  0.00  0.00     0.001 A 
ATOM     14  C   UNL d   1      -3.306  -0.946   0.760  0.00  0.00     0.001 A 
ATOM     15  C   UNL d   1       3.303  -1.212   0.754  0.00  0.00     0.001 A 
ATOM     16  C   UNL d   1       3.311  -1.239  -0.650  0.00  0.00     0.001 A 
ENDROOT
BRANCH   3  17
ATOM     17  C   UNL d   1       1.530   2.853   1.228  0.00  0.00     0.264 C 
ATOM     18  O   UNL d   1       2.596   2.894   0.627  0.00  0.00    -0.265 OA
BRANCH  17  19
ATOM     19  O   UNL d   1       1.353   3.320   2.496  0.00  0.00    -0.322 OA
BRANCH  19  20
ATOM     20  C   UNL d   1       2.534   3.869   3.105  0.00  0.00     0.174 C 
ATOM     21  C   UNL d   1       3.372   2.760   3.716  0.00  0.00     0.034 C 
ENDBRANCH  19  20
ENDBRANCH  17  19
ENDBRANCH   3  17
BRANCH   4  22
ATOM     22  C   UNL d   1       1.181   2.917  -1.676  0.00  0.00     0.264 C 
ATOM     23  O   UNL d   1       1.882   2.411  -2.544  0.00  0.00    -0.265 OA
BRANCH  22  24
ATOM     24  O   UNL d   1       1.141   4.253  -1.395  0.00  0.00    -0.322 OA
BRANCH  24  25
ATOM     25  C   UNL d   1       2.111   5.037  -2.107  0.00  0.00     0.174 C 
ATOM     26  C   UNL d   1       1.621   5.339  -3.512  0.00  0.00     0.034 C 
ENDBRANCH  24  25
ENDBRANCH  22  24
ENDBRANCH   4  22
TORSDOF 6
