REMARK  4 active torsions:
REMARK  status: ('A' for Active; 'I' for Inactive)
REMARK    1  A    between atoms: C_10  and  C_2 
REMARK       I    between atoms: N_15  and  C_10 
REMARK    2  A    between atoms: N_13  and  N_15 
REMARK    3  A    between atoms: C_18  and  C_17 
REMARK    4  A    between atoms: O_24  and  C_19 
ROOT
ATOM      1  C   UNL d   1      -3.547  -1.519   0.254  0.00  0.00     0.270 C 
ATOM      2  N   UNL d   1      -3.522  -2.883   0.030  0.00  0.00    -0.266 N 
ATOM      3  O   UNL d   1      -4.590  -0.887   0.085  0.00  0.00    -0.266 OA
ATOM      4  H   UNL d   1      -4.385  -3.300  -0.304  0.00  0.00     0.190 HD
ENDROOT
BRANCH   1   5
ATOM      5  C   UNL d   1      -2.316  -0.795   0.707  0.00  0.00     0.036 A 
ATOM      6  C   UNL d   1      -1.026  -1.208   0.308  0.00  0.00     0.051 A 
ATOM      7  C   UNL d   1       0.032  -0.439   0.827  0.00  0.00     0.086 A 
ATOM      8  C   UNL d   1      -0.188   0.724   1.673  0.00  0.00     0.085 A 
ATOM      9  N   UNL d   1       1.351  -0.597   0.663  0.00  0.00    -0.240 N 
ATOM     10  N   UNL d   1       1.005   1.237   1.999  0.00  0.00    -0.240 N 
ATOM     11  C   UNL d   1      -1.475   1.161   2.030  0.00  0.00     0.035 A 
ATOM     12  O   UNL d   1       1.944   0.427   1.384  0.00  0.00    -0.156 OA
ATOM     13  HN  UNL d   1       1.184   2.056   2.580  1.00  0.00     0.197 HD
ATOM     14  C   UNL d   1      -2.522   0.363   1.520  0.00  0.00     0.019 A 
ATOM     15  HN  UNL d   1       1.822  -1.320   0.120  1.00  0.00     0.197 HD
ENDBRANCH   1   5
BRANCH   2  16
ATOM     16  N   UNL d   1      -2.456  -3.663   0.323  0.00  0.00    -0.308 N 
ATOM     17  C   UNL d   1      -2.500  -4.887  -0.092  0.00  0.00     0.118 C 
ATOM     18  HN  UNL d   1      -1.657  -3.304   0.846  1.00  0.00     0.186 HD
BRANCH  17  19
ATOM     19  C   UNL d   1      -1.328  -5.764   0.090  0.00  0.00    -0.019 A 
ATOM     20  C   UNL d   1      -0.320  -5.411   0.991  0.00  0.00     0.015 A 
ATOM     21  C   UNL d   1       0.838  -6.186   1.089  0.00  0.00     0.037 A 
ATOM     22  C   UNL d   1       0.995  -7.311   0.278  0.00  0.00     0.068 A 
ATOM     23  C   UNL d   1      -0.026  -7.666  -0.611  0.00  0.00     0.037 A 
ATOM     24  C   UNL d   1      -1.194  -6.902  -0.705  0.00  0.00     0.015 A 
BRANCH  22  25
ATOM     25  O   UNL d   1       2.091  -8.129   0.249  0.00  0.00    -0.356 OA
ATOM     26  C   UNL d   1       3.160  -7.796   1.128  0.00  0.00     0.210 C 
ENDBRANCH  22  25
ENDBRANCH  17  19
ENDBRANCH   2  16
TORSDOF 4
