REMARK  2 active torsions:
REMARK  status: ('A' for Active; 'I' for Inactive)
REMARK       I    between atoms: N_2  and  C_1 
REMARK    1  A    between atoms: C_3  and  C_1 
REMARK    2  A    between atoms: C_5  and  N_2 
ROOT
ATOM      1  C   UNL d   1       1.075  -0.024  -0.202  0.00  0.00     0.263 C 
ATOM      2  N   UNL d   1       0.497   0.539   0.923  0.00  0.00    -0.321 N 
ATOM      3  O   UNL d   1       2.227   0.211  -0.565  0.00  0.00    -0.267 OA
ATOM      4  H   UNL d   1      -0.356   0.097   1.258  0.00  0.00     0.169 HD
ENDROOT
BRANCH   2   5
ATOM      5  C   UNL d   1       1.055   1.535   1.762  0.00  0.00     0.058 A 
ATOM      6  C   UNL d   1       0.538   1.712   3.062  0.00  0.00     0.082 A 
ATOM      7  C   UNL d   1       1.098   2.678   3.915  0.00  0.00     0.058 A 
ATOM      8 CL   UNL d   1      -0.769   0.698   3.599  0.00  0.00    -0.080 Cl
ATOM      9 CL   UNL d   1       0.553   2.914   5.539  0.00  0.00    -0.082 Cl
ATOM     10  C   UNL d   1       2.145   3.487   3.467  0.00  0.00     0.026 A 
ATOM     11  C   UNL d   1       2.633   3.340   2.173  0.00  0.00     0.004 A 
ATOM     12  C   UNL d   1       2.093   2.369   1.328  0.00  0.00     0.031 A 
ENDBRANCH   2   5
BRANCH   1  13
ATOM     13  C   UNL d   1       0.246  -0.989  -0.914  0.00  0.00     0.072 A 
ATOM     14  S   UNL d   1      -1.462  -1.004  -0.791  0.00  0.00    -0.097 SA
ATOM     15  C   UNL d   1      -1.602  -2.264  -1.941  0.00  0.00     0.050 A 
ATOM     16  C   UNL d   1      -0.373  -2.697  -2.385  0.00  0.00     0.009 A 
ATOM     17  C   UNL d   1       0.692  -1.959  -1.795  0.00  0.00     0.025 A 
ENDBRANCH   1  13
TORSDOF 2
