REMARK  5 active torsions:
REMARK  status: ('A' for Active; 'I' for Inactive)
REMARK    1  A    between atoms: C_7  and  C_1 
REMARK    2  A    between atoms: C_10  and  N_4 
REMARK    3  A    between atoms: S_14  and  C_5 
REMARK    4  A    between atoms: S_8  and  C_7 
REMARK    5  A    between atoms: C_9  and  S_8 
ROOT
ATOM      1  C   UNL d   1      -0.131   1.022  -0.188  0.00  0.00     0.074 C 
ATOM      2  N   UNL d   1       1.017  -0.967  -0.183  0.00  0.00    -0.287 N 
ATOM      3  HN  UNL d   1       1.782  -1.641  -0.153  1.00  0.00     0.188 HD
ATOM      4  N   UNL d   1      -0.295  -1.194   0.047  0.00  0.00    -0.266 N 
ATOM      5  C   UNL d   1       1.087   0.338  -0.457  0.00  0.00     0.101 C 
ATOM      6  C   UNL d   1      -0.996  -0.022   0.120  0.00  0.00     0.135 C 
ENDROOT
BRANCH   1   7
ATOM      7  C   UNL d   1      -0.576   2.405  -0.224  0.00  0.00     0.229 C 
ATOM      8  O   UNL d   1      -1.776   2.677  -0.163  0.00  0.00    -0.279 OA
BRANCH   7   9
ATOM      9  S   UNL d   1       0.551   3.714  -0.463  0.00  0.00    -0.029 SA
BRANCH   9  10
ATOM     10  C   UNL d   1       1.616   3.658   0.960  0.00  0.00     0.077 A 
ATOM     11  N   UNL d   1       1.726   2.514   1.668  0.00  0.00    -0.360 N 
ATOM     12  C   UNL d   1       2.726   2.432   2.574  0.00  0.00     0.089 A 
ATOM     13  HN  UNL d   1       1.077   1.740   1.524  1.00  0.00     0.166 HD
ATOM     14  C   UNL d   1       3.613   3.460   2.837  0.00  0.00     0.017 A 
ATOM     15  C   UNL d   1       3.444   4.657   2.155  0.00  0.00     0.004 A 
ATOM     16  C   UNL d   1       2.433   4.760   1.203  0.00  0.00     0.037 A 
ENDBRANCH   9  10
ENDBRANCH   7   9
ENDBRANCH   1   7
BRANCH   5  17
ATOM     17  S   UNL d   1       2.544   0.973  -1.193  0.00  0.00    -0.114 SA
ATOM     18  C   UNL d   1       3.829   0.127  -0.250  0.00  0.00     0.097 C 
ENDBRANCH   5  17
BRANCH   4  19
ATOM     19  C   UNL d   1      -0.801  -2.519   0.064  0.00  0.00     0.056 A 
ATOM     20  C   UNL d   1      -2.157  -2.772  -0.198  0.00  0.00     0.031 A 
ATOM     21  C   UNL d   1      -2.603  -4.087  -0.339  0.00  0.00     0.002 A 
ATOM     22  C   UNL d   1      -1.715  -5.152  -0.178  0.00  0.00     0.000 A 
ATOM     23  C   UNL d   1      -0.380  -4.907   0.135  0.00  0.00     0.002 A 
ATOM     24  C   UNL d   1       0.082  -3.595   0.249  0.00  0.00     0.031 A 
ENDBRANCH   4  19
TORSDOF 5
