REMARK  8 active torsions:
REMARK  status: ('A' for Active; 'I' for Inactive)
REMARK    1  A    between atoms: S_9  and  C_3 
REMARK    2  A    between atoms: C_11  and  C_6 
REMARK    3  A    between atoms: O_17  and  C_8 
REMARK    4  A    between atoms: C_13  and  S_9 
REMARK    5  A    between atoms: C_10  and  C_13 
REMARK    6  A    between atoms: C_12  and  C_10 
REMARK    7  A    between atoms: O_21  and  C_11 
REMARK    8  A    between atoms: O_22  and  C_11 
ROOT
ATOM      1  N   UNL d   1      -0.274  -1.073   0.529  0.00  0.00    -0.318 N 
ATOM      2  HN  UNL d   1      -0.819  -1.926   0.656  1.00  0.00     0.170 HD
ATOM      3  C   UNL d   1       1.051  -1.046   0.707  0.00  0.00     0.146 A 
ATOM      4  N   UNL d   1       1.817   0.039   0.536  0.00  0.00    -0.336 N 
ATOM      5  HN  UNL d   1       2.826  -0.002   0.679  1.00  0.00     0.168 HD
ATOM      6  C   UNL d   1       1.208   1.192   0.167  0.00  0.00     0.070 A 
ATOM      7  C   UNL d   1      -0.161   1.261  -0.014  0.00  0.00     0.086 A 
ATOM      8  C   UNL d   1      -0.842   0.083   0.176  0.00  0.00     0.143 A 
ENDROOT
BRANCH   3   9
ATOM      9  S   UNL d   1       1.888  -2.521   1.221  0.00  0.00    -0.086 SA
BRANCH   9  10
ATOM     10  C   UNL d   1       0.478  -3.658   1.327  0.00  0.00     0.166 C 
BRANCH  10  11
ATOM     11  C   UNL d   1       0.955  -5.002   1.835  0.00  0.00     0.169 C 
ATOM     12  O   UNL d   1       1.285  -5.894   1.050  0.00  0.00    -0.291 OA
BRANCH  11  13
ATOM     13  C   UNL d   1       1.025  -5.267   3.308  0.00  0.00     0.011 A 
ATOM     14  C   UNL d   1       0.735  -4.298   4.276  0.00  0.00     0.015 A 
ATOM     15  C   UNL d   1       0.823  -4.612   5.637  0.00  0.00     0.007 A 
ATOM     16  C   UNL d   1       1.204  -5.894   6.053  0.00  0.00    -0.062 A 
ATOM     17  C   UNL d   1       1.498  -6.860   5.087  0.00  0.00     0.007 A 
ATOM     18  C   UNL d   1       1.327  -6.203   7.516  0.00  0.00     0.048 C 
ATOM     19  C   UNL d   1       1.407  -6.549   3.728  0.00  0.00     0.015 A 
ENDBRANCH  11  13
ENDBRANCH  10  11
ENDBRANCH   9  10
ENDBRANCH   3   9
BRANCH   8  20
ATOM     20  O   UNL d   1      -2.193   0.016   0.003  0.00  0.00    -0.346 OA
ATOM     21  H   UNL d   1      -2.531   0.903  -0.187  0.00  0.00     0.219 HD
ENDBRANCH   8  20
BRANCH   6  22
ATOM     22  C   UNL d   1       2.070   2.438  -0.044  0.00  0.00     0.309 C 
BRANCH  22  23
ATOM     23  O   UNL d   1       2.201   3.070   1.235  0.00  0.00    -0.360 OA
ATOM     24  C   UNL d   1       2.909   4.299   1.164  0.00  0.00     0.205 C 
ENDBRANCH  22  23
BRANCH  22  25
ATOM     25  O   UNL d   1       3.355   2.132  -0.593  0.00  0.00    -0.360 OA
ATOM     26  C   UNL d   1       3.294   1.651  -1.927  0.00  0.00     0.205 C 
ENDBRANCH  22  25
ENDBRANCH   6  22
TORSDOF 8
