REMARK  4 active torsions:
REMARK  status: ('A' for Active; 'I' for Inactive)
REMARK    1  A    between atoms: C_8  and  C_1 
REMARK    2  A    between atoms: C_2  and  N_11 
REMARK    3  A    between atoms: O_17  and  C_9 
REMARK    4  A    between atoms: N_11  and  C_13 
ROOT
ATOM      1  N   UNL d   1       0.344  -3.249   3.574  0.00  0.00    -0.342 N 
ATOM      2  H   UNL d   1       0.050  -3.385   4.533  0.00  0.00     0.167 HD
ENDROOT
BRANCH   1   3
ATOM      3  C   UNL d   1       0.069  -4.395   2.795  0.00  0.00     0.110 A 
ATOM      4  N   UNL d   1      -0.770  -4.312   1.744  0.00  0.00    -0.338 N 
ATOM      5  C   UNL d   1      -0.961  -5.425   1.021  0.00  0.00     0.183 A 
ATOM      6  HN  UNL d   1      -1.241  -3.439   1.507  1.00  0.00     0.168 HD
ATOM      7  N   UNL d   1      -0.376  -6.608   1.230  0.00  0.00    -0.333 N 
ATOM      8  C   UNL d   1       0.444  -6.629   2.280  0.00  0.00     0.144 A 
ATOM      9  HN  UNL d   1      -0.543  -7.422   0.638  1.00  0.00     0.168 HD
ATOM     10  C   UNL d   1       0.698  -5.577   3.121  0.00  0.00     0.104 A 
BRANCH   8  11
ATOM     11  O   UNL d   1       1.079  -7.814   2.461  0.00  0.00    -0.346 OA
ATOM     12  H   UNL d   1       0.746  -8.310   1.690  0.00  0.00     0.219 HD
ENDBRANCH   8  11
ENDBRANCH   1   3
BRANCH   1  13
ATOM     13  C   UNL d   1       0.286  -1.910   3.135  0.00  0.00     0.034 A 
ATOM     14  C   UNL d   1       0.591  -1.567   1.810  0.00  0.00     0.045 A 
ATOM     15  C   UNL d   1       0.610  -0.234   1.377  0.00  0.00     0.050 A 
ATOM     16  C   UNL d   1       0.319   0.778   2.300  0.00  0.00     0.016 A 
ATOM     17  C   UNL d   1       0.032   0.458   3.626  0.00  0.00     0.003 A 
ATOM     18  C   UNL d   1       0.029  -0.877   4.043  0.00  0.00     0.029 A 
BRANCH  15  19
ATOM     19  C   UNL d   1       0.954   0.104  -0.051  0.00  0.00     0.417 C 
ATOM     20  F   UNL d   1       1.251  -0.982  -0.820  0.00  0.00    -0.166 F 
ATOM     21  F   UNL d   1       2.036   0.927  -0.143  0.00  0.00    -0.166 F 
ATOM     22  F   UNL d   1      -0.059   0.748  -0.695  0.00  0.00    -0.166 F 
ENDBRANCH  15  19
ENDBRANCH   1  13
TORSDOF 4
