REMARK  3 active torsions:
REMARK  status: ('A' for Active; 'I' for Inactive)
REMARK    1  A    between atoms: N_13  and  C_2 
REMARK    2  A    between atoms: C_6  and  C_5 
REMARK    3  A    between atoms: C_9  and  C_7 
ROOT
ATOM      1  C   UNL d   1       0.612   0.075  -0.058  0.00  0.00     0.103 A 
ATOM      2  C   UNL d   1      -0.131  -1.131  -0.054  0.00  0.00     0.125 A 
ATOM      3  N   UNL d   1      -1.488  -1.096  -0.054  0.00  0.00    -0.340 N 
ATOM      4  HN  UNL d   1      -2.018  -1.968  -0.046  1.00  0.00     0.167 HD
ATOM      5  C   UNL d   1      -0.068   1.301   0.019  0.00  0.00     0.074 A 
ATOM      6  C   UNL d   1      -2.141   0.089  -0.063  0.00  0.00     0.051 A 
ATOM      7  C   UNL d   1      -1.469   1.294   0.014  0.00  0.00     0.048 A 
ATOM      8  C   UNL d   1       2.033   0.037  -0.228  0.00  0.00     0.104 C 
ATOM      9  N   UNL d   1       3.187   0.019  -0.354  0.00  0.00    -0.191 NA
ENDROOT
BRANCH   2  10
ATOM     10  N   UNL d   1       0.475  -2.388  -0.155  0.00  0.00    -0.375 N 
ATOM     11  C   UNL d   1      -0.396  -3.499  -0.534  0.00  0.00     0.150 C 
ATOM     12  C   UNL d   1       1.537  -2.748   0.788  0.00  0.00     0.150 C 
ENDBRANCH   2  10
BRANCH   5  13
ATOM     13  C   UNL d   1       0.612   2.644   0.041  0.00  0.00     0.419 C 
ATOM     14  F   UNL d   1       1.958   2.620   0.193  0.00  0.00    -0.166 F 
ATOM     15  F   UNL d   1       0.373   3.348  -1.100  0.00  0.00    -0.166 F 
ATOM     16  F   UNL d   1       0.147   3.424   1.058  0.00  0.00    -0.166 F 
ENDBRANCH   5  13
BRANCH   6  17
ATOM     17  C   UNL d   1      -3.598  -0.012  -0.220  0.00  0.00     0.031 A 
ATOM     18  S   UNL d   1      -4.476   1.200  -1.075  0.00  0.00    -0.100 SA
ATOM     19  C   UNL d   1      -5.957   0.374  -0.886  0.00  0.00     0.050 A 
ATOM     20  C   UNL d   1      -5.806  -0.800  -0.188  0.00  0.00     0.008 A 
ATOM     21  C   UNL d   1      -4.447  -1.027   0.187  0.00  0.00     0.021 A 
ENDBRANCH   6  17
TORSDOF 3
