REMARK  10 active torsions:
REMARK  status: ('A' for Active; 'I' for Inactive)
REMARK    1  A    between atoms: N_2  and  C_1 
REMARK    2  A    between atoms: C_3  and  C_1 
REMARK    3  A    between atoms: N_4  and  C_1 
REMARK    4  A    between atoms: C_7  and  C_1 
REMARK       I    between atoms: C_9  and  N_2 
REMARK    5  A    between atoms: C_8  and  N_4 
REMARK    6  A    between atoms: C_5  and  C_6 
REMARK    7  A    between atoms: O_19  and  C_7 
REMARK    8  A    between atoms: O_18  and  C_9 
REMARK    9  A    between atoms: C_22  and  O_18 
REMARK   10  A    between atoms: C_23  and  O_19 
ROOT
ATOM      1  C   UNL d   1       1.087   0.296  -0.139  0.00  0.00     0.298 C 
ENDROOT
BRANCH   1   2
ATOM      2  N   UNL d   1       0.489   1.522  -0.619  0.00  0.00    -0.294 N 
ATOM      3  C   UNL d   1       0.634   1.999  -1.869  0.00  0.00     0.363 C 
ATOM      4  O   UNL d   1       1.274   1.458  -2.756  0.00  0.00    -0.238 OA
ATOM      5  H   UNL d   1      -0.004   2.093   0.047  0.00  0.00     0.168 HD
BRANCH   3   6
ATOM      6  O   UNL d   1      -0.043   3.163  -1.956  0.00  0.00    -0.304 OA
BRANCH   6   7
ATOM      7  C   UNL d   1       0.147   3.938  -3.145  0.00  0.00     0.176 C 
ATOM      8  C   UNL d   1       1.093   5.074  -2.803  0.00  0.00     0.034 C 
ENDBRANCH   6   7
ENDBRANCH   3   6
ENDBRANCH   1   2
BRANCH   1   9
ATOM      9  C   UNL d   1       1.052  -0.969  -1.064  0.00  0.00     0.442 C 
ATOM     10  F   UNL d   1       0.025  -0.940  -1.950  0.00  0.00    -0.166 F 
ATOM     11  F   UNL d   1       2.188  -1.162  -1.774  0.00  0.00    -0.166 F 
ATOM     12  F   UNL d   1       0.878  -2.100  -0.324  0.00  0.00    -0.166 F 
ENDBRANCH   1   9
BRANCH   1  13
ATOM     13  N   UNL d   1       0.405   0.139   1.192  0.00  0.00    -0.347 N 
ATOM     14  H   UNL d   1       1.035  -0.315   1.861  0.00  0.00     0.163 HD
BRANCH  13  15
ATOM     15  C   UNL d   1      -0.940  -0.191   1.377  0.00  0.00     0.045 A 
ATOM     16  C   UNL d   1      -1.444  -0.458   2.670  0.00  0.00     0.074 A 
ATOM     17  C   UNL d   1      -2.832  -0.657   2.868  0.00  0.00     0.018 A 
ATOM     18  C   UNL d   1      -3.730  -0.583   1.810  0.00  0.00     0.001 A 
ATOM     19  C   UNL d   1      -3.252  -0.311   0.540  0.00  0.00     0.002 A 
ATOM     20  C   UNL d   1      -1.883  -0.106   0.335  0.00  0.00     0.030 A 
BRANCH  16  21
ATOM     21  C   UNL d   1      -0.576  -0.559   3.904  0.00  0.00     0.419 C 
ATOM     22  F   UNL d   1       0.754  -0.337   3.688  0.00  0.00    -0.166 F 
ATOM     23  F   UNL d   1      -0.945   0.317   4.881  0.00  0.00    -0.166 F 
ATOM     24  F   UNL d   1      -0.643  -1.797   4.476  0.00  0.00    -0.166 F 
ENDBRANCH  16  21
ENDBRANCH  13  15
ENDBRANCH   1  13
BRANCH   1  25
ATOM     25  C   UNL d   1       2.605   0.542   0.087  0.00  0.00     0.318 C 
ATOM     26  O   UNL d   1       3.292   1.362  -0.513  0.00  0.00    -0.260 OA
BRANCH  25  27
ATOM     27  O   UNL d   1       3.102  -0.300   1.050  0.00  0.00    -0.318 OA
BRANCH  27  28
ATOM     28  C   UNL d   1       4.534  -0.270   1.200  0.00  0.00     0.174 C 
ATOM     29  C   UNL d   1       4.991   0.925   2.018  0.00  0.00     0.034 C 
ENDBRANCH  27  28
ENDBRANCH  25  27
ENDBRANCH   1  25
TORSDOF 10
