REMARK  5 active torsions:
REMARK  status: ('A' for Active; 'I' for Inactive)
REMARK    1  A    between atoms: C_3  and  C_1 
REMARK    2  A    between atoms: N_2  and  C_5 
REMARK    3  A    between atoms: C_8  and  N_4 
REMARK    4  A    between atoms: C_19  and  C_8 
REMARK    5  A    between atoms: C_20  and  C_8 
ROOT
ATOM      1  N   UNL d   1      -0.311  -2.607   4.941  0.00  0.00    -0.364 N 
ATOM      2  N   UNL d   1      -1.038  -5.126   6.366  0.00  0.00     0.105 N 
ATOM      3  C   UNL d   1       0.731  -3.522   5.437  0.00  0.00     0.154 C 
ATOM      4  C   UNL d   1      -1.683  -2.819   5.437  0.00  0.00     0.154 C 
ATOM      5  C   UNL d   1       0.235  -4.971   5.611  0.00  0.00     0.293 C 
ATOM      6  C   UNL d   1      -2.037  -4.317   5.614  0.00  0.00     0.293 C 
ENDROOT
BRANCH   2   7
ATOM      7  C   UNL d   1      -0.947  -4.685   7.793  0.00  0.00     0.289 C 
BRANCH   7   8
ATOM      8  C   UNL d   1      -2.285  -4.851   8.531  0.00  0.00    -0.021 A 
ATOM      9  C   UNL d   1      -2.908  -6.107   8.634  0.00  0.00     0.010 A 
ATOM     10  C   UNL d   1      -4.106  -6.256   9.334  0.00  0.00     0.001 A 
ATOM     11  C   UNL d   1      -4.705  -5.150   9.933  0.00  0.00     0.000 A 
ATOM     12  C   UNL d   1      -4.110  -3.894   9.828  0.00  0.00     0.001 A 
ATOM     13  C   UNL d   1      -2.907  -3.744   9.135  0.00  0.00     0.010 A 
ENDBRANCH   7   8
BRANCH   7  14
ATOM     14  C   UNL d   1       0.166  -5.343   8.625  0.00  0.00    -0.021 A 
ATOM     15  C   UNL d   1       0.798  -4.593   9.635  0.00  0.00     0.010 A 
ATOM     16  C   UNL d   1       1.777  -5.170  10.452  0.00  0.00     0.001 A 
ATOM     17  C   UNL d   1       2.135  -6.501  10.272  0.00  0.00     0.000 A 
ATOM     18  C   UNL d   1       1.516  -7.263   9.285  0.00  0.00     0.001 A 
ATOM     19  C   UNL d   1       0.531  -6.689   8.472  0.00  0.00     0.010 A 
ENDBRANCH   7  14
ENDBRANCH   2   7
BRANCH   1  20
ATOM     20  C   UNL d   1      -0.203  -2.157   3.628  0.00  0.00     0.103 A 
ATOM     21  C   UNL d   1      -0.792  -0.938   3.283  0.00  0.00     0.049 A 
ATOM     22  C   UNL d   1      -0.707  -0.459   1.979  0.00  0.00     0.021 A 
ATOM     23  C   UNL d   1      -0.031  -1.207   1.018  0.00  0.00     0.063 A 
ATOM     24  C   UNL d   1       0.554  -2.390   1.442  0.00  0.00     0.106 A 
ATOM     25  N   UNL d   1       0.488  -2.866   2.712  0.00  0.00    -0.352 N 
ATOM     26  HN  UNL d   1       0.950  -3.739   2.966  1.00  0.00     0.166 HD
BRANCH  23  27
ATOM     27  C   UNL d   1       0.048  -0.758  -0.406  0.00  0.00     0.418 C 
ATOM     28  F   UNL d   1       0.716  -1.621  -1.220  0.00  0.00    -0.166 F 
ATOM     29  F   UNL d   1       0.673   0.445  -0.543  0.00  0.00    -0.166 F 
ATOM     30  F   UNL d   1      -1.184  -0.598  -0.966  0.00  0.00    -0.166 F 
ENDBRANCH  23  27
ENDBRANCH   1  20
TORSDOF 5
