REMARK  2 active torsions:
REMARK  status: ('A' for Active; 'I' for Inactive)
REMARK    1  A    between atoms: C_6  and  C_3 
REMARK    2  A    between atoms: C_8  and  C_4 
ROOT
ATOM      1  N   UNL d   1       1.212  -0.569   0.510  0.00  0.00    -0.348 N 
ATOM      2  HN  UNL d   1       1.991  -1.043   0.968  1.00  0.00     0.166 HD
ATOM      3  C   UNL d   1       1.069   0.807   0.418  0.00  0.00     0.057 A 
ATOM      4  C   UNL d   1       0.200  -1.182  -0.076  0.00  0.00     0.085 A 
ATOM      5  S   UNL d   1      -0.975  -0.123  -0.769  0.00  0.00    -0.081 SA
ATOM      6  C   UNL d   1      -0.065   1.227  -0.247  0.00  0.00     0.082 A 
ENDROOT
BRANCH   4   7
ATOM      7  C   UNL d   1       0.013  -2.644  -0.107  0.00  0.00     0.001 A 
ATOM      8  C   UNL d   1       0.531  -3.425   0.938  0.00  0.00     0.054 A 
ATOM      9  C   UNL d   1       0.351  -4.810   0.953  0.00  0.00     0.103 A 
ATOM     10  O   UNL d   1       0.891  -5.493   2.013  0.00  0.00    -0.346 OA
ATOM     11  C   UNL d   1      -0.364  -5.435  -0.072  0.00  0.00     0.102 A 
ATOM     12  C   UNL d   1       0.945  -6.901   1.755  0.00  0.00     0.202 C 
ATOM     13  C   UNL d   1      -0.368  -7.392   1.166  0.00  0.00     0.202 C 
ATOM     14  O   UNL d   1      -0.611  -6.783  -0.107  0.00  0.00    -0.346 OA
ATOM     15  C   UNL d   1      -0.858  -4.683  -1.131  0.00  0.00     0.040 A 
ATOM     16  C   UNL d   1      -0.671  -3.296  -1.150  0.00  0.00     0.017 A 
ENDBRANCH   4   7
BRANCH   3  17
ATOM     17  C   UNL d   1       2.079   1.740   1.016  0.00  0.00     0.032 A 
ATOM     18  S   UNL d   1       1.949   3.445   1.038  0.00  0.00    -0.100 SA
ATOM     19  C   UNL d   1       3.423   3.613   1.890  0.00  0.00     0.050 A 
ATOM     20  C   UNL d   1       4.016   2.395   2.135  0.00  0.00     0.008 A 
ATOM     21  C   UNL d   1       3.238   1.311   1.630  0.00  0.00     0.021 A 
ENDBRANCH   3  17
TORSDOF 2
