REMARK  1 active torsions:
REMARK  status: ('A' for Active; 'I' for Inactive)
REMARK    1  A    between atoms: C_7  and  C_2 
ROOT
ATOM      1  N   UNL d   1       1.797  -1.071  -0.119  0.00  0.00    -0.348 N 
ATOM      2  C   UNL d   1       0.572  -1.633   0.415  0.00  0.00     0.151 C 
ATOM      3  C   UNL d   1       2.093   0.264  -0.101  0.00  0.00     0.222 C 
ATOM      4  C   UNL d   1      -0.605  -0.717   0.150  0.00  0.00    -0.024 A 
ATOM      5  C   UNL d   1      -0.405   0.674   0.115  0.00  0.00    -0.041 A 
ATOM      6  C   UNL d   1       0.985   1.236   0.263  0.00  0.00     0.142 C 
ATOM      7  O   UNL d   1       3.240   0.638  -0.338  0.00  0.00    -0.273 OA
ATOM      8  C   UNL d   1      -1.897  -1.229  -0.047  0.00  0.00     0.010 A 
ATOM      9  C   UNL d   1      -1.501   1.533  -0.041  0.00  0.00     0.008 A 
ATOM     10  C   UNL d   1      -2.978  -0.367  -0.237  0.00  0.00     0.001 A 
ATOM     11  C   UNL d   1      -2.782   1.012  -0.217  0.00  0.00     0.001 A 
ATOM     12  H   UNL d   1       2.587  -1.681  -0.273  0.00  0.00     0.163 HD
ENDROOT
BRANCH   2  13
ATOM     13  C   UNL d   1       0.708  -2.040   1.881  0.00  0.00    -0.031 A 
ATOM     14  C   UNL d   1       1.526  -1.343   2.790  0.00  0.00     0.011 A 
ATOM     15  C   UNL d   1       1.633  -1.746   4.124  0.00  0.00     0.019 A 
ATOM     16  C   UNL d   1       0.915  -2.850   4.571  0.00  0.00     0.011 A 
ATOM     17  C   UNL d   1       0.085  -3.548   3.699  0.00  0.00     0.019 A 
ATOM     18 BR   UNL d   1       1.076  -3.408   6.370  0.00  0.00    -0.051 Br
ATOM     19  C   UNL d   1      -0.018  -3.144   2.364  0.00  0.00     0.011 A 
ENDBRANCH   2  13
TORSDOF 1
