REMARK  5 active torsions:
REMARK  status: ('A' for Active; 'I' for Inactive)
REMARK    1  A    between atoms: O_11  and  C_1 
REMARK    2  A    between atoms: O_12  and  C_2 
REMARK    3  A    between atoms: O_13  and  C_3 
REMARK    4  A    between atoms: C_10  and  N_4 
REMARK    5  A    between atoms: C_9  and  C_8 
ROOT
ATOM      1  C   UNL d   1       1.383  -0.359  -0.065  0.00  0.00     0.135 A 
ATOM      2  C   UNL d   1       0.425  -1.394   0.074  0.00  0.00     0.105 A 
ATOM      3  C   UNL d   1       0.954   0.979  -0.147  0.00  0.00     0.105 A 
ATOM      4  C   UNL d   1      -0.420   1.257  -0.160  0.00  0.00     0.052 A 
ATOM      5  C   UNL d   1      -0.941  -1.096   0.002  0.00  0.00     0.052 A 
ATOM      6  C   UNL d   1      -1.357   0.227  -0.108  0.00  0.00    -0.015 A 
ENDROOT
BRANCH   6   7
ATOM      7  C   UNL d   1      -2.806   0.513  -0.149  0.00  0.00     0.100 C 
ATOM      8  N   UNL d   1      -3.259   1.724  -0.123  0.00  0.00    -0.365 N 
ATOM      9  HN  UNL d   1      -2.611   2.510  -0.075  1.00  0.00     0.165 HD
BRANCH   8  10
ATOM     10  C   UNL d   1      -4.641   1.954  -0.160  0.00  0.00     0.032 A 
ATOM     11  C   UNL d   1      -5.582   1.173   0.526  0.00  0.00     0.032 A 
ATOM     12  C   UNL d   1      -6.939   1.499   0.493  0.00  0.00     0.044 A 
ATOM     13  C   UNL d   1      -7.357   2.618  -0.220  0.00  0.00     0.116 A 
ATOM     14  C   UNL d   1      -6.443   3.416  -0.893  0.00  0.00     0.044 A 
ATOM     15  F   UNL d   1      -8.656   2.941  -0.236  0.00  0.00    -0.206 F 
ATOM     16  C   UNL d   1      -5.089   3.082  -0.862  0.00  0.00     0.032 A 
ENDBRANCH   8  10
ENDBRANCH   6   7
BRANCH   3  17
ATOM     17  O   UNL d   1       1.699   2.125  -0.225  0.00  0.00    -0.353 OA
ATOM     18  C   UNL d   1       3.113   2.047  -0.198  0.00  0.00     0.210 C 
ENDBRANCH   3  17
BRANCH   2  19
ATOM     19  O   UNL d   1       0.900  -2.666   0.286  0.00  0.00    -0.353 OA
ATOM     20  C   UNL d   1      -0.016  -3.619   0.814  0.00  0.00     0.210 C 
ENDBRANCH   2  19
BRANCH   1  21
ATOM     21  O   UNL d   1       2.726  -0.632  -0.002  0.00  0.00    -0.351 OA
ATOM     22  C   UNL d   1       3.192  -1.562  -0.982  0.00  0.00     0.210 C 
ENDBRANCH   1  21
TORSDOF 5
