REMARK  8 active torsions:
REMARK  status: ('A' for Active; 'I' for Inactive)
REMARK    1  A    between atoms: C_2  and  C_1 
REMARK    2  A    between atoms: C_3  and  C_2 
REMARK    3  A    between atoms: N_6  and  C_4 
REMARK    4  A    between atoms: C_9  and  N_5 
REMARK       I    between atoms: C_7  and  N_6 
REMARK    5  A    between atoms: C_13  and  C_7 
REMARK    6  A    between atoms: N_8  and  C_13 
REMARK    7  A    between atoms: C_18  and  C_9 
REMARK    8  A    between atoms: C_19  and  C_9 
ROOT
ATOM      1  N   UNL d   1       6.357   3.204  -0.192  0.00  0.00    -0.325 N 
ATOM      2  C   UNL d   1       5.133   3.559   0.369  0.00  0.00     0.239 C 
ATOM      3  O   UNL d   1       4.652   4.687   0.334  0.00  0.00    -0.271 OA
ATOM      4  H   UNL d   1       6.406   2.228  -0.451  0.00  0.00     0.169 HD
ENDROOT
BRANCH   2   5
ATOM      5  C   UNL d   1       4.407   2.328   0.987  0.00  0.00     0.220 C 
BRANCH   5   6
ATOM      6  N   UNL d   1       3.058   2.130   0.461  0.00  0.00    -0.401 N 
ATOM      7  C   UNL d   1       2.858   1.829  -0.951  0.00  0.00     0.147 C 
ATOM      8  C   UNL d   1       1.947   0.609  -1.294  0.00  0.00     0.293 C 
ATOM      9  N   UNL d   1       0.783   0.503  -0.413  0.00  0.00     0.104 N 
ATOM     10  C   UNL d   1       1.222   0.427   0.979  0.00  0.00     0.293 C 
ATOM     11  C   UNL d   1       2.031   1.681   1.393  0.00  0.00     0.147 C 
BRANCH   9  12
ATOM     12  C   UNL d   1      -0.271  -0.443  -0.849  0.00  0.00     0.289 C 
BRANCH  12  13
ATOM     13  C   UNL d   1      -0.176  -1.867  -0.274  0.00  0.00    -0.021 A 
ATOM     14  C   UNL d   1      -0.677  -2.187   1.003  0.00  0.00     0.010 A 
ATOM     15  C   UNL d   1      -0.682  -3.504   1.471  0.00  0.00     0.001 A 
ATOM     16  C   UNL d   1      -0.183  -4.527   0.670  0.00  0.00     0.000 A 
ATOM     17  C   UNL d   1       0.330  -4.232  -0.592  0.00  0.00     0.001 A 
ATOM     18  C   UNL d   1       0.340  -2.913  -1.058  0.00  0.00     0.010 A 
ENDBRANCH  12  13
BRANCH  12  19
ATOM     19  C   UNL d   1      -1.687   0.179  -0.749  0.00  0.00    -0.021 A 
ATOM     20  C   UNL d   1      -1.867   1.571  -0.645  0.00  0.00     0.010 A 
ATOM     21  C   UNL d   1      -3.145   2.138  -0.616  0.00  0.00     0.001 A 
ATOM     22  C   UNL d   1      -4.272   1.327  -0.700  0.00  0.00     0.000 A 
ATOM     23  C   UNL d   1      -4.124  -0.049  -0.830  0.00  0.00     0.001 A 
ATOM     24  C   UNL d   1      -2.846  -0.615  -0.873  0.00  0.00     0.010 A 
ENDBRANCH  12  19
ENDBRANCH   9  12
ENDBRANCH   5   6
ENDBRANCH   2   5
BRANCH   1  25
ATOM     25  C   UNL d   1       7.181   4.070  -0.950  0.00  0.00     0.049 A 
ATOM     26  C   UNL d   1       7.729   5.316  -0.546  0.00  0.00     0.043 A 
ATOM     27  C   UNL d   1       8.632   5.949  -1.431  0.00  0.00     0.041 A 
ATOM     28  C   UNL d   1       8.893   5.439  -2.702  0.00  0.00     0.035 A 
ATOM     29  C   UNL d   1       8.338   4.236  -3.100  0.00  0.00     0.026 A 
ATOM     30 CL   UNL d   1       9.930   6.296  -3.774  0.00  0.00    -0.084 Cl
ATOM     31  C   UNL d   1       7.519   3.544  -2.214  0.00  0.00     0.032 A 
BRANCH  26  32
ATOM     32  C   UNL d   1       7.576   5.901   0.834  0.00  0.00     0.196 C 
ATOM     33  O   UNL d   1       7.300   5.157   1.776  0.00  0.00    -0.287 OA
BRANCH  32  34
ATOM     34  C   UNL d   1       7.973   7.317   1.170  0.00  0.00     0.037 A 
ATOM     35  C   UNL d   1       7.707   8.454   0.391  0.00  0.00     0.048 A 
ATOM     36 CL   UNL d   1       6.644   8.449  -0.973  0.00  0.00    -0.083 Cl
ATOM     37  C   UNL d   1       8.292   9.692   0.722  0.00  0.00     0.025 A 
ATOM     38  C   UNL d   1       9.073   9.825   1.870  0.00  0.00     0.002 A 
ATOM     39  C   UNL d   1       9.263   8.731   2.702  0.00  0.00     0.001 A 
ATOM     40  C   UNL d   1       8.720   7.483   2.350  0.00  0.00     0.017 A 
ENDBRANCH  32  34
ENDBRANCH  26  32
ENDBRANCH   1  25
TORSDOF 8
