REMARK  5 active torsions:
REMARK  status: ('A' for Active; 'I' for Inactive)
REMARK    1  A    between atoms: C_2  and  S_1 
REMARK    2  A    between atoms: N_5  and  S_1 
REMARK    3  A    between atoms: C_6  and  N_8 
REMARK    4  A    between atoms: C_25  and  C_21 
REMARK    5  A    between atoms: C_26  and  C_25 
ROOT
ATOM      1  N   UNL d   1       0.419  -1.253  -0.578  0.00  0.00    -0.202 NA
ATOM      2  N   UNL d   1      -0.785  -2.641   1.631  0.00  0.00    -0.215 N 
ATOM      3  C   UNL d   1      -1.030  -1.068  -0.235  0.00  0.00     0.128 C 
ATOM      4  C   UNL d   1       0.933  -2.573  -0.108  0.00  0.00     0.128 C 
ATOM      5  C   UNL d   1      -1.331  -1.337   1.255  0.00  0.00     0.157 C 
ATOM      6  C   UNL d   1       0.649  -2.813   1.385  0.00  0.00     0.157 C 
ENDROOT
BRANCH   2   7
ATOM      7  C   UNL d   1      -1.345  -3.314   2.692  0.00  0.00     0.679 A 
ATOM      8  N   UNL d   1      -2.454  -2.825   3.270  0.00  0.00    -0.201 N 
ATOM      9  C   UNL d   1      -3.053  -3.573   4.216  0.00  0.00     0.114 A 
ATOM     10  HN  UNL d   1      -2.830  -1.915   3.001  1.00  0.00     0.183 HD
ATOM     11  C   UNL d   1      -2.605  -4.811   4.612  0.00  0.00    -0.026 A 
ATOM     12  C   UNL d   1      -1.462  -5.226   3.969  0.00  0.00     0.114 A 
ATOM     13  N   UNL d   1      -0.820  -4.501   3.035  0.00  0.00    -0.201 N 
ATOM     14  HN  UNL d   1       0.039  -4.842   2.602  1.00  0.00     0.183 HD
BRANCH  11  15
ATOM     15  C   UNL d   1      -3.325  -5.654   5.617  0.00  0.00     0.041 C 
BRANCH  15  16
ATOM     16  C   UNL d   1      -2.451  -6.013   6.820  0.00  0.00     0.000 C 
ATOM     17  C   UNL d   1      -3.202  -6.890   7.809  0.00  0.00     0.005 C 
ENDBRANCH  15  16
ENDBRANCH  11  15
ENDBRANCH   2   7
BRANCH   1  18
ATOM     18  S   UNL d   1       1.424   0.079  -0.289  0.00  0.00     0.260 S 
ATOM     19  O   UNL d   1       1.145   0.604   1.032  0.00  0.00    -0.204 OA
ATOM     20  O   UNL d   1       2.774  -0.265  -0.689  0.00  0.00    -0.204 OA
BRANCH  18  21
ATOM     21  C   UNL d   1       0.985   1.375  -1.373  0.00  0.00     0.160 A 
ATOM     22  N   UNL d   1      -0.028   1.279  -2.319  0.00  0.00    -0.341 N 
ATOM     23  C   UNL d   1      -0.011   2.431  -2.953  0.00  0.00     0.183 A 
ATOM     24  HN  UNL d   1      -0.649   0.488  -2.485  1.00  0.00     0.167 HD
ATOM     25  N   UNL d   1       0.949   3.264  -2.453  0.00  0.00    -0.354 N 
ATOM     26  C   UNL d   1       1.583   2.618  -1.433  0.00  0.00     0.134 A 
ATOM     27  C   UNL d   1       1.247   4.582  -2.951  0.00  0.00     0.156 C 
ENDBRANCH  18  21
ENDBRANCH   1  18
TORSDOF 5
