REMARK  6 active torsions:
REMARK  status: ('A' for Active; 'I' for Inactive)
REMARK    1  A    between atoms: C_8  and  C_1 
REMARK       I    between atoms: C_3  and  N_2 
REMARK       I    between atoms: N_12  and  C_3 
REMARK    2  A    between atoms: N_10  and  C_4 
REMARK    3  A    between atoms: C_5  and  C_7 
REMARK    4  A    between atoms: C_7  and  C_9 
REMARK    5  A    between atoms: O_22  and  C_8 
REMARK       I    between atoms: C_9  and  N_10 
REMARK    6  A    between atoms: C_21  and  N_12 
ROOT
ATOM      1  N   UNL d   1       0.746   1.236   0.292  0.00  0.00    -0.319 N 
ATOM      2  C   UNL d   1       1.349   0.565  -0.763  0.00  0.00     0.323 C 
ATOM      3  C   UNL d   1       0.595   2.749   0.211  0.00  0.00     0.184 C 
ATOM      4  C   UNL d   1       0.011   3.365   1.531  0.00  0.00     0.221 C 
ATOM      5  N   UNL d   1       1.525  -0.788  -0.845  0.00  0.00    -0.309 N 
ATOM      6  N   UNL d   1      -0.959   2.654   2.189  0.00  0.00    -0.260 NA
ATOM      7  O   UNL d   1       1.912   1.192  -1.666  0.00  0.00    -0.247 OA
ATOM      8  O   UNL d   1       0.277   4.472   1.983  0.00  0.00    -0.278 OA
ATOM      9  C   UNL d   1      -0.264   0.574   1.102  0.00  0.00     0.143 C 
ATOM     10  C   UNL d   1      -0.672   1.274   2.386  0.00  0.00     0.115 C 
ATOM     11  H   UNL d   1       2.279  -0.929  -1.510  0.00  0.00     0.170 HD
ATOM     12  H   UNL d   1      -1.276   3.170   3.001  0.00  0.00     0.130 HD
ENDROOT
BRANCH   3  13
ATOM     13  C   UNL d   1       1.855   3.603  -0.126  0.00  0.00     0.137 C 
BRANCH  13  14
ATOM     14  C   UNL d   1       1.449   5.087  -0.293  0.00  0.00     0.224 C 
ATOM     15  N   UNL d   1       2.233   5.945   0.467  0.00  0.00    -0.326 N 
ATOM     16  H   UNL d   1       3.000   5.495   0.954  0.00  0.00     0.169 HD
ATOM     17  O   UNL d   1       0.476   5.409  -0.963  0.00  0.00    -0.273 OA
BRANCH  15  18
ATOM     18  C   UNL d   1       1.808   7.125   1.108  0.00  0.00     0.058 A 
ATOM     19  C   UNL d   1       0.791   8.046   0.854  0.00  0.00     0.106 A 
ATOM     20  S   UNL d   1       0.659   9.192   2.168  0.00  0.00    -0.094 SA
ATOM     21  C   UNL d   1       1.929   8.493   3.036  0.00  0.00     0.053 A 
ATOM     22  C   UNL d   1       2.479   7.442   2.351  0.00  0.00     0.038 A 
BRANCH  19  23
ATOM     23  C   UNL d   1      -0.177   8.312  -0.203  0.00  0.00     0.302 C 
ATOM     24  O   UNL d   1      -1.281   8.818  -0.014  0.00  0.00    -0.259 OA
BRANCH  23  25
ATOM     25  O   UNL d   1       0.348   8.119  -1.446  0.00  0.00    -0.322 OA
ATOM     26  C   UNL d   1      -0.514   8.511  -2.527  0.00  0.00     0.213 C 
ENDBRANCH  23  25
ENDBRANCH  19  23
ENDBRANCH  15  18
ENDBRANCH  13  14
ENDBRANCH   3  13
BRANCH   5  27
ATOM     27  C   UNL d   1       1.108  -1.994  -0.241  0.00  0.00     0.036 C 
ATOM     28  C   UNL d   1      -0.166  -2.260   0.255  0.00  0.00     0.029 C 
ATOM     29  C   UNL d   1      -0.413  -3.386   1.051  0.00  0.00     0.002 C 
ATOM     30  C   UNL d   1       0.579  -4.340   1.237  0.00  0.00     0.000 C 
ATOM     31  C   UNL d   1       1.788  -4.199   0.564  0.00  0.00     0.002 C 
ATOM     32  C   UNL d   1       2.045  -3.038  -0.179  0.00  0.00     0.029 C 
ENDBRANCH   5  27
TORSDOF 6
