REMARK  5 active torsions:
REMARK  status: ('A' for Active; 'I' for Inactive)
REMARK       I    between atoms: N_2  and  C_1 
REMARK    1  A    between atoms: C_3  and  C_1 
REMARK    2  A    between atoms: C_4  and  N_2 
REMARK    3  A    between atoms: C_6  and  N_2 
REMARK    4  A    between atoms: C_9  and  C_4 
REMARK    5  A    between atoms: C_15  and  C_12 
ROOT
ATOM      1  C   UNL d   1       0.997  -0.103   0.085  0.00  0.00     0.254 C 
ATOM      2  N   UNL d   1       0.299  -0.531   1.231  0.00  0.00    -0.340 N 
ATOM      3  O   UNL d   1       0.455  -0.023  -1.019  0.00  0.00    -0.267 OA
ENDROOT
BRANCH   2   4
ATOM      4  C   UNL d   1      -1.141  -0.784   1.055  0.00  0.00     0.165 C 
BRANCH   4   5
ATOM      5  C   UNL d   1      -2.048   0.402   1.318  0.00  0.00    -0.040 A 
ATOM      6  C   UNL d   1      -2.132   1.458   0.399  0.00  0.00     0.009 A 
ATOM      7  C   UNL d   1      -3.059   2.488   0.576  0.00  0.00     0.001 A 
ATOM      8  C   UNL d   1      -3.911   2.478   1.678  0.00  0.00     0.000 A 
ATOM      9  C   UNL d   1      -3.829   1.444   2.608  0.00  0.00     0.001 A 
ATOM     10  C   UNL d   1      -2.903   0.412   2.429  0.00  0.00     0.009 A 
ENDBRANCH   4   5
ENDBRANCH   2   4
BRANCH   2  11
ATOM     11  C   UNL d   1       0.954  -0.988   2.482  0.00  0.00     0.079 C 
ATOM     12  C   UNL d   1       0.610  -0.095   3.673  0.00  0.00     0.032 C 
ATOM     13  C   UNL d   1       0.668  -2.458   2.813  0.00  0.00     0.032 C 
ENDBRANCH   2  11
BRANCH   1  14
ATOM     14  C   UNL d   1       2.439   0.274   0.123  0.00  0.00     0.032 A 
ATOM     15  C   UNL d   1       3.237  -0.065  -0.978  0.00  0.00     0.017 A 
ATOM     16  C   UNL d   1       4.576   0.343  -1.048  0.00  0.00     0.008 A 
ATOM     17  C   UNL d   1       5.149   1.090  -0.013  0.00  0.00    -0.059 A 
ATOM     18  C   UNL d   1       4.338   1.445   1.077  0.00  0.00     0.008 A 
ATOM     19  C   UNL d   1       2.991   1.062   1.134  0.00  0.00     0.017 A 
BRANCH  17  20
ATOM     20  C   UNL d   1       6.564   1.624  -0.063  0.00  0.00     0.034 C 
ATOM     21  C   UNL d   1       7.559   0.848  -0.917  0.00  0.00     0.010 C 
ENDBRANCH  17  20
ENDBRANCH   1  14
TORSDOF 5
