REMARK  7 active torsions:
REMARK  status: ('A' for Active; 'I' for Inactive)
REMARK    1  A    between atoms: C_10  and  C_1 
REMARK    2  A    between atoms: C_9  and  C_2 
REMARK    3  A    between atoms: C_11  and  C_3 
REMARK    4  A    between atoms: C_4  and  C_14 
REMARK    5  A    between atoms: N_25  and  C_11 
REMARK    6  A    between atoms: C_14  and  O_19 
REMARK    7  A    between atoms: O_19  and  N_17 
ROOT
ATOM      1  C   UNL d   1       0.276  -2.699   0.117  0.00  0.00     0.114 C 
ATOM      2  N   UNL d   1      -0.605  -3.645   0.173  0.00  0.00    -0.245 N 
ATOM      3  HN  UNL d   1      -0.406  -4.639   0.063  1.00  0.00     0.196 HD
ENDROOT
BRANCH   2   4
ATOM      4  O   UNL d   1      -1.887  -3.092   0.409  0.00  0.00    -0.193 OA
BRANCH   4   5
ATOM      5  C   UNL d   1      -2.810  -4.080   0.677  0.00  0.00     0.320 C 
ATOM      6  O   UNL d   1      -2.720  -5.261   0.354  0.00  0.00    -0.257 OA
BRANCH   5   7
ATOM      7  C   UNL d   1      -3.870  -3.571   1.513  0.00  0.00     0.102 A 
ATOM      8  C   UNL d   1      -4.460  -4.156   2.683  0.00  0.00     0.087 A 
ATOM      9  N   UNL d   1      -5.335  -3.295   3.228  0.00  0.00    -0.259 N 
ATOM     10  O   UNL d   1      -5.401  -2.206   2.392  0.00  0.00    -0.241 OA
ATOM     11  HN  UNL d   1      -5.853  -3.424   4.097  1.00  0.00     0.195 HD
ATOM     12  C   UNL d   1      -4.529  -2.367   1.365  0.00  0.00     0.091 A 
ATOM     13  C   UNL d   1      -4.507  -1.283   0.364  0.00  0.00     0.080 C 
BRANCH   8  14
ATOM     14  C   UNL d   1      -4.209  -5.464   3.307  0.00  0.00     0.037 A 
ATOM     15  C   UNL d   1      -2.902  -5.925   3.572  0.00  0.00     0.048 A 
ATOM     16 CL   UNL d   1      -1.492  -4.925   3.431  0.00  0.00    -0.083 Cl
ATOM     17  C   UNL d   1      -2.676  -7.221   4.062  0.00  0.00     0.025 A 
ATOM     18  C   UNL d   1      -3.743  -8.051   4.383  0.00  0.00     0.003 A 
ATOM     19  C   UNL d   1      -5.041  -7.588   4.211  0.00  0.00     0.025 A 
ATOM     20  C   UNL d   1      -5.278  -6.319   3.660  0.00  0.00     0.048 A 
ATOM     21 CL   UNL d   1      -6.949  -5.907   3.437  0.00  0.00    -0.083 Cl
ENDBRANCH   8  14
ENDBRANCH   5   7
ENDBRANCH   4   5
ENDBRANCH   2   4
BRANCH   1  22
ATOM     22  C   UNL d   1       1.676  -3.025  -0.075  0.00  0.00     0.065 A 
ATOM     23  C   UNL d   1       2.284  -4.098  -0.820  0.00  0.00     0.086 A 
ATOM     24  N   UNL d   1       3.622  -3.978  -0.789  0.00  0.00    -0.259 N 
ATOM     25  O   UNL d   1       3.909  -2.921   0.031  0.00  0.00    -0.241 OA
ATOM     26  HN  UNL d   1       4.296  -4.564  -1.283  1.00  0.00     0.195 HD
ATOM     27  C   UNL d   1       2.760  -2.351   0.465  0.00  0.00     0.088 A 
ATOM     28  C   UNL d   1       2.958  -1.215   1.390  0.00  0.00     0.080 C 
BRANCH  23  29
ATOM     29  C   UNL d   1       1.670  -5.168  -1.608  0.00  0.00     0.054 A 
ATOM     30  C   UNL d   1       0.595  -4.874  -2.458  0.00  0.00     0.130 A 
ATOM     31  F   UNL d   1       0.148  -3.614  -2.588  0.00  0.00    -0.205 F 
ATOM     32  C   UNL d   1      -0.030  -5.857  -3.227  0.00  0.00     0.043 A 
ATOM     33  C   UNL d   1       0.442  -7.164  -3.199  0.00  0.00     0.005 A 
ATOM     34  C   UNL d   1       1.531  -7.480  -2.390  0.00  0.00     0.025 A 
ATOM     35  C   UNL d   1       2.135  -6.498  -1.588  0.00  0.00     0.049 A 
ATOM     36 CL   UNL d   1       3.437  -7.045  -0.582  0.00  0.00    -0.083 Cl
ENDBRANCH  23  29
ENDBRANCH   1  22
BRANCH   1  37
ATOM     37  N   UNL d   1       0.032  -1.353   0.198  0.00  0.00    -0.286 NA
ATOM     38  H   UNL d   1       0.634  -0.772  -0.374  0.00  0.00     0.125 HD
ATOM     39  H   UNL d   1      -0.947  -1.130   0.064  0.00  0.00     0.125 HD
ENDBRANCH   1  37
TORSDOF 7
