REMARK  5 active torsions:
REMARK  status: ('A' for Active; 'I' for Inactive)
REMARK    1  A    between atoms: C_10  and  C_5 
REMARK    2  A    between atoms: C_11  and  C_6 
REMARK    3  A    between atoms: C_9  and  C_8 
REMARK    4  A    between atoms: O_23  and  C_13 
REMARK    5  A    between atoms: O_30  and  C_14 
ROOT
ATOM      1  N   UNL d   1      -0.348   1.281  -0.273  0.00  0.00    -0.358 N 
ATOM      2  HN  UNL d   1      -0.645   2.113  -0.784  1.00  0.00     0.162 HD
ATOM      3  N   UNL d   1      -0.761  -1.101  -0.199  0.00  0.00    -0.358 N 
ATOM      4  HN  UNL d   1      -1.328  -1.814  -0.659  1.00  0.00     0.162 HD
ATOM      5  C   UNL d   1       0.867   1.168   0.114  0.00  0.00     0.084 C 
ATOM      6  C   UNL d   1       0.426  -1.383   0.186  0.00  0.00     0.084 C 
ATOM      7  S   UNL d   1       1.460  -0.226   0.977  0.00  0.00    -0.053 SA
ATOM      8  C   UNL d   1      -1.306   0.227   0.015  0.00  0.00     0.217 C 
ENDROOT
BRANCH   8   9
ATOM      9  C   UNL d   1      -2.473   0.388  -0.946  0.00  0.00    -0.013 A 
ATOM     10  C   UNL d   1      -2.215   0.287  -2.325  0.00  0.00     0.050 A 
ATOM     11  C   UNL d   1      -3.223   0.371  -3.287  0.00  0.00     0.102 A 
ATOM     12  C   UNL d   1      -4.540   0.588  -2.851  0.00  0.00     0.101 A 
ATOM     13  C   UNL d   1      -4.802   0.702  -1.472  0.00  0.00     0.040 A 
ATOM     14  C   UNL d   1      -3.783   0.599  -0.522  0.00  0.00     0.014 A 
BRANCH  11  15
ATOM     15  O   UNL d   1      -2.965   0.241  -4.626  0.00  0.00    -0.353 OA
ATOM     16  C   UNL d   1      -1.619   0.005  -5.023  0.00  0.00     0.210 C 
ENDBRANCH  11  15
BRANCH  12  17
ATOM     17  O   UNL d   1      -5.678   0.712  -3.606  0.00  0.00    -0.353 OA
ATOM     18  C   UNL d   1      -5.570   0.595  -5.016  0.00  0.00     0.210 C 
ENDBRANCH  12  17
ENDBRANCH   8   9
BRANCH   6  19
ATOM     19  C   UNL d   1       0.963  -2.757  -0.069  0.00  0.00    -0.002 A 
ATOM     20  C   UNL d   1       0.365  -3.532  -1.082  0.00  0.00     0.016 A 
ATOM     21  C   UNL d   1       0.818  -4.827  -1.354  0.00  0.00     0.024 A 
ATOM     22  C   UNL d   1       1.868  -5.360  -0.612  0.00  0.00     0.034 A 
ATOM     23  C   UNL d   1       2.468  -4.609   0.397  0.00  0.00     0.024 A 
ATOM     24 CL   UNL d   1       2.424  -6.955  -0.934  0.00  0.00    -0.084 Cl
ATOM     25  C   UNL d   1       2.018  -3.312   0.669  0.00  0.00     0.016 A 
ENDBRANCH   6  19
BRANCH   5  26
ATOM     26  C   UNL d   1       1.834   2.270  -0.199  0.00  0.00    -0.002 A 
ATOM     27  C   UNL d   1       3.033   2.455   0.504  0.00  0.00     0.016 A 
ATOM     28  C   UNL d   1       3.890   3.514   0.179  0.00  0.00     0.024 A 
ATOM     29  C   UNL d   1       3.555   4.394  -0.847  0.00  0.00     0.034 A 
ATOM     30  C   UNL d   1       2.368   4.228  -1.555  0.00  0.00     0.024 A 
ATOM     31 CL   UNL d   1       4.610   5.696  -1.234  0.00  0.00    -0.084 Cl
ATOM     32  C   UNL d   1       1.510   3.172  -1.230  0.00  0.00     0.016 A 
ENDBRANCH   5  26
TORSDOF 5
