REMARK  5 active torsions:
REMARK  status: ('A' for Active; 'I' for Inactive)
REMARK       I    between atoms: N_4  and  C_1 
REMARK       I    between atoms: N_5  and  C_1 
REMARK    1  A    between atoms: C_2  and  C_3 
REMARK    2  A    between atoms: O_11  and  C_2 
REMARK    3  A    between atoms: C_8  and  N_4 
REMARK    4  A    between atoms: C_10  and  N_5 
REMARK    5  A    between atoms: C_12  and  C_10 
ROOT
ATOM      1  C   UNL d   1       0.994  -0.140   0.130  0.00  0.00     0.320 C 
ATOM      2  N   UNL d   1       0.404   0.491  -0.948  0.00  0.00    -0.309 N 
ATOM      3  N   UNL d   1       0.097  -0.385   1.138  0.00  0.00    -0.339 N 
ATOM      4  O   UNL d   1       2.179  -0.429   0.231  0.00  0.00    -0.247 OA
ATOM      5  H   UNL d   1      -0.520   0.857  -0.786  0.00  0.00     0.170 HD
ATOM      6  H   UNL d   1      -0.890  -0.352   0.943  0.00  0.00     0.164 HD
ENDROOT
BRANCH   2   7
ATOM      7  C   UNL d   1       1.053   0.897  -2.135  0.00  0.00     0.037 A 
ATOM      8  C   UNL d   1       2.324   0.448  -2.504  0.00  0.00     0.047 A 
ATOM      9  C   UNL d   1       2.950   0.933  -3.660  0.00  0.00     0.041 A 
ATOM     10  C   UNL d   1       2.285   1.865  -4.466  0.00  0.00     0.018 A 
ATOM     11  C   UNL d   1       1.001   2.290  -4.125  0.00  0.00     0.003 A 
ATOM     12  C   UNL d   1       0.385   1.802  -2.969  0.00  0.00     0.029 A 
BRANCH   9  13
ATOM     13  C   UNL d   1       4.319   0.495  -4.058  0.00  0.00     0.293 C 
ATOM     14  O   UNL d   1       4.893   0.911  -5.049  0.00  0.00    -0.259 OA
BRANCH  13  15
ATOM     15  O   UNL d   1       4.810  -0.401  -3.170  0.00  0.00    -0.323 OA
ATOM     16  C   UNL d   1       6.133  -0.854  -3.454  0.00  0.00     0.213 C 
ENDBRANCH  13  15
ENDBRANCH   9  13
ENDBRANCH   2   7
BRANCH   3  17
ATOM     17  C   UNL d   1       0.515  -1.020   2.369  0.00  0.00     0.162 C 
BRANCH  17  18
ATOM     18  C   UNL d   1      -0.128  -2.370   2.556  0.00  0.00    -0.040 A 
ATOM     19  C   UNL d   1       0.112  -3.409   1.643  0.00  0.00     0.009 A 
ATOM     20  C   UNL d   1      -0.448  -4.672   1.844  0.00  0.00     0.001 A 
ATOM     21  C   UNL d   1      -1.247  -4.912   2.960  0.00  0.00     0.000 A 
ATOM     22  C   UNL d   1      -1.490  -3.889   3.874  0.00  0.00     0.001 A 
ATOM     23  C   UNL d   1      -0.935  -2.624   3.674  0.00  0.00     0.009 A 
ENDBRANCH  17  18
ENDBRANCH   3  17
TORSDOF 5
