REMARK  2 active torsions:
REMARK  status: ('A' for Active; 'I' for Inactive)
REMARK       I    between atoms: N_2  and  C_1 
REMARK       I    between atoms: N_11  and  C_1 
REMARK    1  A    between atoms: C_3  and  N_2 
REMARK    2  A    between atoms: C_7  and  C_4 
ROOT
ATOM      1  C   UNL d   1       0.812   2.377   1.063  0.00  0.00     0.058 A 
ATOM      2  C   UNL d   1       2.148   4.434   2.503  0.00  0.00    -0.049 A 
ATOM      3  C   UNL d   1       1.854   3.099   0.474  0.00  0.00     0.061 A 
ATOM      4  C   UNL d   1       2.490   4.128   1.172  0.00  0.00     0.034 A 
ATOM      5  C   UNL d   1       0.418   2.701   2.364  0.00  0.00     0.032 A 
ATOM      6  C   UNL d   1       1.088   3.708   3.075  0.00  0.00     0.010 A 
ATOM      7 CL   UNL d   1       2.352   2.783  -1.153  0.00  0.00    -0.082 Cl
ENDROOT
BRANCH   1   8
ATOM      8  N   UNL d   1       0.251   1.288   0.371  0.00  0.00    -0.307 N 
ATOM      9  C   UNL d   1      -1.044   0.887   0.244  0.00  0.00     0.320 C 
ATOM     10  O   UNL d   1      -1.301  -0.161  -0.336  0.00  0.00    -0.247 OA
ATOM     11  N   UNL d   1      -1.998   1.772   0.665  0.00  0.00    -0.347 N 
ATOM     12  C   UNL d   1      -3.359   1.633   0.206  0.00  0.00     0.151 C 
ATOM     13  H   UNL d   1      -1.676   2.715   0.812  0.00  0.00     0.163 HD
ATOM     14  H   UNL d   1       0.849   0.826  -0.307  0.00  0.00     0.170 HD
ENDBRANCH   1   8
BRANCH   2  15
ATOM     15  C   UNL d   1       2.964   5.486   3.278  0.00  0.00    -0.024 C 
ATOM     16  C   UNL d   1       2.517   5.664   4.746  0.00  0.00     0.019 C 
ATOM     17  C   UNL d   1       4.449   5.058   3.307  0.00  0.00     0.019 C 
ATOM     18  C   UNL d   1       2.851   6.864   2.592  0.00  0.00     0.019 C 
ENDBRANCH   2  15
TORSDOF 2
