REMARK  8 active torsions:
REMARK  status: ('A' for Active; 'I' for Inactive)
REMARK    1  A    between atoms: N_2  and  S_1 
REMARK    2  A    between atoms: C_12  and  S_1 
REMARK    3  A    between atoms: C_3  and  N_2 
REMARK    4  A    between atoms: N_8  and  C_4 
REMARK    5  A    between atoms: O_14  and  C_7 
REMARK    6  A    between atoms: O_15  and  C_9 
REMARK    7  A    between atoms: C_22  and  O_14 
REMARK    8  A    between atoms: C_23  and  O_15 
ROOT
ATOM      1  C   UNL d   1       0.780  -2.805   0.254  0.00  0.00     0.078 A 
ATOM      2  C   UNL d   1       1.242  -5.350  -0.909  0.00  0.00     0.067 A 
ATOM      3  C   UNL d   1      -0.058  -4.855  -0.670  0.00  0.00     0.071 A 
ATOM      4  C   UNL d   1       2.080  -3.265   0.042  0.00  0.00     0.072 A 
ATOM      5  C   UNL d   1       2.319  -4.497  -0.585  0.00  0.00     0.097 A 
ATOM      6  C   UNL d   1      -0.308  -3.576  -0.155  0.00  0.00     0.098 A 
ENDROOT
BRANCH   1   7
ATOM      7  N   UNL d   1       0.630  -1.518   0.857  0.00  0.00    -0.281 N 
ATOM      8  H   UNL d   1      -0.097  -1.448   1.568  0.00  0.00     0.178 HD
BRANCH   7   9
ATOM      9  S   UNL d   1       0.822  -0.150  -0.103  0.00  0.00     0.234 S 
ATOM     10  O   UNL d   1       1.677  -0.470  -1.231  0.00  0.00    -0.205 OA
ATOM     11  O   UNL d   1       1.168   0.931   0.796  0.00  0.00    -0.205 OA
BRANCH   9  12
ATOM     12  C   UNL d   1      -0.849   0.167  -0.714  0.00  0.00     0.121 C 
ATOM     13  C   UNL d   1      -1.829   0.406   0.431  0.00  0.00     0.027 C 
ATOM     14  C   UNL d   1      -0.845   1.372  -1.655  0.00  0.00     0.027 C 
ENDBRANCH   9  12
ENDBRANCH   7   9
ENDBRANCH   1   7
BRANCH   6  15
ATOM     15  O   UNL d   1      -1.571  -3.047  -0.012  0.00  0.00    -0.349 OA
BRANCH  15  16
ATOM     16  C   UNL d   1      -2.572  -3.664  -0.838  0.00  0.00     0.171 C 
ATOM     17  C   UNL d   1      -3.794  -2.769  -0.919  0.00  0.00     0.034 C 
ENDBRANCH  15  16
ENDBRANCH   6  15
BRANCH   5  18
ATOM     18  O   UNL d   1       3.588  -4.901  -0.923  0.00  0.00    -0.349 OA
BRANCH  18  19
ATOM     19  C   UNL d   1       4.543  -3.860  -1.149  0.00  0.00     0.171 C 
ATOM     20  C   UNL d   1       5.600  -4.388  -2.100  0.00  0.00     0.034 C 
ENDBRANCH  18  19
ENDBRANCH   5  18
BRANCH   2  21
ATOM     21  N   UNL d   1       1.363  -6.632  -1.428  0.00  0.00    -0.374 N 
ATOM     22  C   UNL d   1       2.508  -7.513  -1.147  0.00  0.00     0.149 C 
ATOM     23  C   UNL d   1       3.344  -7.741  -2.414  0.00  0.00     0.187 C 
ATOM     24  O   UNL d   1       2.532  -8.238  -3.494  0.00  0.00    -0.388 OA
ATOM     25  C   UNL d   1       1.502  -7.287  -3.808  0.00  0.00     0.187 C 
ATOM     26  C   UNL d   1       0.576  -7.032  -2.608  0.00  0.00     0.149 C 
ENDBRANCH   2  21
TORSDOF 8
