REMARK  1 active torsions:
REMARK  status: ('A' for Active; 'I' for Inactive)
REMARK       I    between atoms: C_2  and  N_1 
REMARK    1  A    between atoms: C_4  and  C_2 
ROOT
ATOM      1  N   UNL d   1      -1.076   1.512  -0.104  0.00  0.00    -0.309 N 
ATOM      2  C   UNL d   1      -1.233   2.839  -0.525  0.00  0.00     0.258 C 
ATOM      3  C   UNL d   1       0.122   0.757   0.069  0.00  0.00     0.071 A 
ATOM      4  C   UNL d   1       0.040  -0.649   0.082  0.00  0.00     0.095 A 
ATOM      5  O   UNL d   1      -2.282   3.457  -0.333  0.00  0.00    -0.267 OA
ATOM      6  O   UNL d   1      -1.131  -1.366   0.002  0.00  0.00    -0.347 OA
ATOM      7  C   UNL d   1      -2.277   0.778   0.299  0.00  0.00     0.159 C 
ATOM      8  C   UNL d   1      -2.275  -0.588  -0.361  0.00  0.00     0.196 C 
ATOM      9  C   UNL d   1       1.375   1.348   0.275  0.00  0.00     0.033 A 
ATOM     10  C   UNL d   1       1.193  -1.431   0.198  0.00  0.00     0.039 A 
ATOM     11  C   UNL d   1       2.529   0.564   0.379  0.00  0.00     0.002 A 
ATOM     12  C   UNL d   1       2.441  -0.823   0.321  0.00  0.00     0.003 A 
ENDROOT
BRANCH   2  13
ATOM     13  C   UNL d   1      -0.185   3.550  -1.308  0.00  0.00     0.032 A 
ATOM     14  C   UNL d   1       0.639   2.911  -2.244  0.00  0.00     0.018 A 
ATOM     15  C   UNL d   1       1.645   3.629  -2.902  0.00  0.00     0.025 A 
ATOM     16  C   UNL d   1       1.782   4.998  -2.677  0.00  0.00     0.034 A 
ATOM     17  C   UNL d   1       0.913   5.661  -1.813  0.00  0.00     0.025 A 
ATOM     18 CL   UNL d   1       3.030   5.875  -3.472  0.00  0.00    -0.084 Cl
ATOM     19  C   UNL d   1      -0.069   4.938  -1.131  0.00  0.00     0.018 A 
ENDBRANCH   2  13
TORSDOF 1
