REMARK  0 active torsions:
REMARK  status: ('A' for Active; 'I' for Inactive)
ROOT
ATOM      1  N   UNL d   1       2.280  -0.072   0.050  0.00  0.00    -0.289 N 
ATOM      2  C   UNL d   1       1.707   1.178   0.021  0.00  0.00     0.259 A 
ATOM      3  C   UNL d   1       1.630  -1.283   0.030  0.00  0.00     0.259 A 
ATOM      4  C   UNL d   1      -0.492   0.015   0.014  0.00  0.00     0.005 A 
ATOM      5  C   UNL d   1       0.228   1.220  -0.005  0.00  0.00     0.044 A 
ATOM      6  C   UNL d   1       0.151  -1.233   0.035  0.00  0.00     0.044 A 
ATOM      7  O   UNL d   1       2.240  -2.345   0.006  0.00  0.00    -0.267 OA
ATOM      8  O   UNL d   1       2.381   2.200   0.016  0.00  0.00    -0.267 OA
ATOM      9  C   UNL d   1      -1.905   0.059   0.009  0.00  0.00    -0.024 A 
ATOM     10  C   UNL d   1      -0.430   2.454  -0.044  0.00  0.00     0.018 A 
ATOM     11  C   UNL d   1      -0.583  -2.423   0.058  0.00  0.00     0.018 A 
ATOM     12  C   UNL d   1      -1.974  -2.376   0.064  0.00  0.00     0.002 A 
ATOM     13  C   UNL d   1      -1.822   2.494  -0.058  0.00  0.00     0.002 A 
ATOM     14  C   UNL d   1      -2.554   1.305  -0.028  0.00  0.00     0.012 A 
ATOM     15  C   UNL d   1      -2.631  -1.144   0.039  0.00  0.00     0.012 A 
ATOM     16  H   UNL d   1       3.290  -0.103   0.053  0.00  0.00     0.172 HD
ENDROOT
TORSDOF 0
