REMARK  1 active torsions:
REMARK  status: ('A' for Active; 'I' for Inactive)
REMARK    1  A    between atoms: C_7  and  N_3 
ROOT
ATOM      1  C   UNL d   1      -1.422  -0.204  -0.058  0.00  0.00     0.329 A 
ATOM      2  N   UNL d   1      -0.806   1.024  -0.072  0.00  0.00    -0.274 N 
ATOM      3  N   UNL d   1      -0.556  -1.298  -0.110  0.00  0.00    -0.303 N 
ATOM      4  C   UNL d   1       1.409   0.063  -0.112  0.00  0.00     0.128 A 
ATOM      5  C   UNL d   1       0.818  -1.139  -0.118  0.00  0.00     0.124 A 
ATOM      6  C   UNL d   1       0.542   1.259  -0.087  0.00  0.00     0.271 A 
ATOM      7  C   UNL d   1       2.820   0.201  -0.113  0.00  0.00     0.106 C 
ATOM      8  N   UNL d   1       3.980   0.242  -0.110  0.00  0.00    -0.191 NA
ATOM      9  O   UNL d   1      -2.647  -0.276   0.005  0.00  0.00    -0.246 OA
ATOM     10  O   UNL d   1       0.994   2.399  -0.074  0.00  0.00    -0.266 OA
ATOM     11  H   UNL d   1      -1.413   1.829  -0.034  0.00  0.00     0.173 HD
ENDROOT
BRANCH   3  12
ATOM     12  C   UNL d   1      -1.062  -2.650  -0.040  0.00  0.00     0.094 A 
ATOM     13  C   UNL d   1      -0.780  -3.642  -1.146  0.00  0.00     0.028 A 
ATOM     14  C   UNL d   1      -2.179  -3.164  -0.912  0.00  0.00     0.028 A 
ENDBRANCH   3  12
TORSDOF 1
