REMARK  7 active torsions:
REMARK  status: ('A' for Active; 'I' for Inactive)
REMARK    1  A    between atoms: C_2  and  S_1 
REMARK    2  A    between atoms: N_5  and  S_1 
REMARK    3  A    between atoms: C_3  and  C_7 
REMARK    4  A    between atoms: C_4  and  C_6 
REMARK    5  A    between atoms: C_8  and  N_5 
REMARK    6  A    between atoms: O_25  and  C_13 
REMARK    7  A    between atoms: O_26  and  C_23 
ROOT
ATOM      1  N   UNL d   1       0.176  -1.237  -1.151  0.00  0.00    -0.281 N 
ATOM      2  H   UNL d   1      -0.412  -1.978  -0.774  0.00  0.00     0.179 HD
ENDROOT
BRANCH   1   3
ATOM      3  S   UNL d   1       0.854  -0.307   0.087  0.00  0.00     0.266 S 
ATOM      4  O   UNL d   1       0.030  -0.494   1.266  0.00  0.00    -0.200 OA
ATOM      5  O   UNL d   1       2.270  -0.603   0.144  0.00  0.00    -0.200 OA
BRANCH   3   6
ATOM      6  C   UNL d   1       0.648   1.367  -0.451  0.00  0.00     0.115 A 
ATOM      7  C   UNL d   1       1.803   2.171  -0.480  0.00  0.00     0.065 A 
ATOM      8  C   UNL d   1       1.754   3.466  -0.993  0.00  0.00     0.069 A 
ATOM      9  C   UNL d   1       0.536   3.963  -1.456  0.00  0.00     0.039 A 
ATOM     10  C   UNL d   1      -0.617   3.172  -1.421  0.00  0.00     0.041 A 
ATOM     11  C   UNL d   1      -0.571   1.869  -0.913  0.00  0.00     0.091 A 
BRANCH   8  12
ATOM     12  O   UNL d   1       2.813   4.321  -1.114  0.00  0.00    -0.356 OA
ATOM     13  C   UNL d   1       4.090   3.826  -0.723  0.00  0.00     0.210 C 
ENDBRANCH   8  12
BRANCH  11  14
ATOM     14  O   UNL d   1      -1.718   1.143  -1.069  0.00  0.00    -0.354 OA
ATOM     15  C   UNL d   1      -2.358   0.787   0.157  0.00  0.00     0.210 C 
ENDBRANCH  11  14
ENDBRANCH   3   6
ENDBRANCH   1   3
BRANCH   1  16
ATOM     16  C   UNL d   1       0.997  -1.530  -2.270  0.00  0.00     0.044 A 
ATOM     17  C   UNL d   1       1.739  -2.709  -2.283  0.00  0.00     0.046 A 
ATOM     18  C   UNL d   1       2.628  -2.975  -3.336  0.00  0.00     0.050 A 
ATOM     19  C   UNL d   1       2.756  -2.032  -4.370  0.00  0.00     0.032 A 
ATOM     20  C   UNL d   1       2.023  -0.833  -4.354  0.00  0.00     0.050 A 
ATOM     21  C   UNL d   1       1.140  -0.593  -3.291  0.00  0.00     0.046 A 
BRANCH  18  22
ATOM     22  C   UNL d   1       3.444  -4.245  -3.323  0.00  0.00     0.417 C 
ATOM     23  F   UNL d   1       4.235  -4.391  -4.421  0.00  0.00    -0.166 F 
ATOM     24  F   UNL d   1       4.275  -4.318  -2.249  0.00  0.00    -0.166 F 
ATOM     25  F   UNL d   1       2.664  -5.360  -3.273  0.00  0.00    -0.166 F 
ENDBRANCH  18  22
BRANCH  20  26
ATOM     26  C   UNL d   1       2.183   0.203  -5.441  0.00  0.00     0.417 C 
ATOM     27  F   UNL d   1       3.092  -0.147  -6.392  0.00  0.00    -0.166 F 
ATOM     28  F   UNL d   1       1.020   0.445  -6.104  0.00  0.00    -0.166 F 
ATOM     29  F   UNL d   1       2.597   1.404  -4.952  0.00  0.00    -0.166 F 
ENDBRANCH  20  26
ENDBRANCH   1  16
TORSDOF 7
