REMARK  5 active torsions:
REMARK  status: ('A' for Active; 'I' for Inactive)
REMARK    1  A    between atoms: C_2  and  C_1 
REMARK    2  A    between atoms: O_3  and  C_2 
REMARK    3  A    between atoms: C_8  and  O_3 
REMARK    4  A    between atoms: C_4  and  C_8 
REMARK    5  A    between atoms: C_10  and  C_4 
ROOT
ATOM      1  C   UNL d   1       0.499   3.207  -1.353  0.00  0.00     0.297 C 
ATOM      2  O   UNL d   1       0.977   2.728  -2.368  0.00  0.00    -0.259 OA
ENDROOT
BRANCH   1   3
ATOM      3  C   UNL d   1      -0.895   3.678  -1.262  0.00  0.00     0.082 A 
ATOM      4  C   UNL d   1      -1.794   3.082  -0.362  0.00  0.00     0.052 A 
ATOM      5 CL   UNL d   1      -1.342   1.824   0.740  0.00  0.00    -0.083 Cl
ATOM      6  C   UNL d   1      -3.144   3.454  -0.362  0.00  0.00     0.025 A 
ATOM      7  C   UNL d   1      -3.613   4.401  -1.269  0.00  0.00     0.003 A 
ATOM      8  C   UNL d   1      -2.728   4.992  -2.168  0.00  0.00     0.025 A 
ATOM      9  C   UNL d   1      -1.371   4.637  -2.166  0.00  0.00     0.052 A 
ATOM     10 CL   UNL d   1      -0.349   5.446  -3.301  0.00  0.00    -0.083 Cl
ENDBRANCH   1   3
BRANCH   1  11
ATOM     11  O   UNL d   1       1.102   3.311  -0.146  0.00  0.00    -0.310 OA
BRANCH  11  12
ATOM     12  C   UNL d   1       2.351   2.624  -0.028  0.00  0.00     0.263 C 
BRANCH  12  13
ATOM     13  C   UNL d   1       3.557   3.556  -0.020  0.00  0.00     0.183 C 
ATOM     14  O   UNL d   1       3.445   4.780  -0.070  0.00  0.00    -0.290 OA
BRANCH  13  15
ATOM     15  C   UNL d   1       4.920   2.943   0.085  0.00  0.00     0.012 A 
ATOM     16  C   UNL d   1       5.120   1.558   0.182  0.00  0.00     0.015 A 
ATOM     17  C   UNL d   1       6.414   1.036   0.285  0.00  0.00     0.001 A 
ATOM     18  C   UNL d   1       7.515   1.891   0.291  0.00  0.00     0.000 A 
ATOM     19  C   UNL d   1       7.327   3.268   0.198  0.00  0.00     0.001 A 
ATOM     20  C   UNL d   1       6.036   3.792   0.094  0.00  0.00     0.015 A 
ENDBRANCH  13  15
ENDBRANCH  12  13
ENDBRANCH  11  12
ENDBRANCH   1  11
TORSDOF 5
