REMARK  5 active torsions:
REMARK  status: ('A' for Active; 'I' for Inactive)
REMARK    1  A    between atoms: N_8  and  S_1 
REMARK    2  A    between atoms: C_10  and  S_1 
REMARK    3  A    between atoms: S_18  and  C_2 
REMARK    4  A    between atoms: N_5  and  C_12 
REMARK    5  A    between atoms: C_16  and  N_8 
ROOT
ATOM      1  N   UNL d   1       0.429   1.151   1.236  0.00  0.00    -0.281 N 
ATOM      2  H   UNL d   1      -0.497   1.499   0.991  0.00  0.00     0.179 HD
ENDROOT
BRANCH   1   3
ATOM      3  S   UNL d   1       1.000   0.023   0.106  0.00  0.00     0.263 S 
ATOM      4  O   UNL d   1       2.419  -0.183   0.303  0.00  0.00    -0.200 OA
ATOM      5  O   UNL d   1       0.459   0.420  -1.176  0.00  0.00    -0.200 OA
BRANCH   3   6
ATOM      6  C   UNL d   1       0.157  -1.473   0.592  0.00  0.00     0.080 A 
ATOM      7  C   UNL d   1      -1.112  -1.750   0.062  0.00  0.00     0.028 A 
ATOM      8  C   UNL d   1      -1.808  -2.881   0.497  0.00  0.00     0.037 A 
ATOM      9  C   UNL d   1      -1.227  -3.729   1.453  0.00  0.00     0.102 A 
ATOM     10  C   UNL d   1       0.059  -3.470   1.952  0.00  0.00     0.037 A 
ATOM     11  C   UNL d   1       0.758  -2.345   1.507  0.00  0.00     0.028 A 
BRANCH   9  12
ATOM     12  N   UNL d   1      -1.981  -4.887   1.951  0.00  0.00    -0.116 N 
ATOM     13  O   UNL d   1      -3.110  -5.084   1.478  0.00  0.00    -0.532 OA
ATOM     14  O   UNL d   1      -1.451  -5.586   2.825  0.00  0.00    -0.532 OA
ENDBRANCH   9  12
ENDBRANCH   3   6
ENDBRANCH   1   3
BRANCH   1  15
ATOM     15  C   UNL d   1       0.705   0.924   2.613  0.00  0.00     0.044 A 
ATOM     16  C   UNL d   1       1.946   1.310   3.129  0.00  0.00     0.051 A 
ATOM     17  C   UNL d   1       2.225   1.010   4.473  0.00  0.00     0.036 A 
ATOM     18  S   UNL d   1       3.626   1.375   5.405  0.00  0.00    -0.063 SA
ATOM     19  C   UNL d   1       1.318   0.317   5.277  0.00  0.00     0.050 A 
ATOM     20  C   UNL d   1       2.930   0.586   6.755  0.00  0.00     0.112 A 
ATOM     21  N   UNL d   1       1.737   0.071   6.571  0.00  0.00    -0.344 N 
ATOM     22  HN  UNL d   1       1.200  -0.435   7.275  1.00  0.00     0.167 HD
ATOM     23  C   UNL d   1       0.081  -0.073   4.727  0.00  0.00     0.033 A 
ATOM     24  C   UNL d   1      -0.223   0.250   3.401  0.00  0.00     0.032 A 
BRANCH  20  25
ATOM     25  S   UNL d   1       3.757   0.471   8.295  0.00  0.00    -0.109 SA
ATOM     26  C   UNL d   1       2.579  -0.527   9.233  0.00  0.00     0.097 C 
ENDBRANCH  20  25
ENDBRANCH   1  15
TORSDOF 5
