REMARK  1 active torsions:
REMARK  status: ('A' for Active; 'I' for Inactive)
REMARK    1  A    between atoms: C_10  and  N_7 
ROOT
ATOM      1  C   UNL d   1       2.042   0.889   0.055  0.00  0.00     0.147 A 
ATOM      2  S   UNL d   1       1.724  -0.680  -0.591  0.00  0.00    -0.034 SA
ATOM      3  N   UNL d   1       0.987   1.553   0.475  0.00  0.00    -0.334 N 
ATOM      4  HN  UNL d   1       1.000   2.500   0.852  1.00  0.00     0.168 HD
ATOM      5  C   UNL d   1       0.069  -0.469  -0.265  0.00  0.00     0.104 A 
ATOM      6  C   UNL d   1      -0.144   0.771   0.326  0.00  0.00     0.068 A 
ATOM      7  N   UNL d   1       3.316   1.343   0.097  0.00  0.00    -0.366 N 
ATOM      8  N   UNL d   1      -0.857  -1.412  -0.541  0.00  0.00    -0.358 N 
ATOM      9  HN  UNL d   1      -0.638  -2.300  -0.993  1.00  0.00     0.166 HD
ATOM     10  C   UNL d   1      -1.461   1.083   0.704  0.00  0.00     0.034 A 
ATOM     11  C   UNL d   1      -2.105  -1.058  -0.159  0.00  0.00     0.089 A 
ATOM     12  C   UNL d   1      -2.455   0.136   0.457  0.00  0.00     0.019 A 
ATOM     13  H   UNL d   1       4.017   0.758  -0.347  0.00  0.00     0.162 HD
ENDROOT
BRANCH   7  14
ATOM     14  C   UNL d   1       3.577   2.777   0.078  0.00  0.00     0.075 C 
ATOM     15  C   UNL d   1       3.567   3.338   1.498  0.00  0.00     0.032 C 
ATOM     16  C   UNL d   1       4.939   3.022  -0.575  0.00  0.00     0.032 C 
ENDBRANCH   7  14
TORSDOF 1
