REMARK  6 active torsions:
REMARK  status: ('A' for Active; 'I' for Inactive)
REMARK    1  A    between atoms: O_7  and  C_1 
REMARK       I    between atoms: C_2  and  N_3 
REMARK    2  A    between atoms: C_13  and  C_2 
REMARK    3  A    between atoms: N_3  and  C_14 
REMARK    4  A    between atoms: C_4  and  S_8 
REMARK    5  A    between atoms: C_15  and  O_7 
REMARK    6  A    between atoms: S_8  and  C_13 
ROOT
ATOM      1  C   UNL d   1       3.619  -6.222   2.415  0.00  0.00     0.231 C 
ATOM      2  N   UNL d   1       2.399  -5.654   2.746  0.00  0.00    -0.327 N 
ATOM      3  O   UNL d   1       4.450  -5.745   1.650  0.00  0.00    -0.272 OA
ATOM      4  H   UNL d   1       1.796  -6.185   3.363  0.00  0.00     0.169 HD
ENDROOT
BRANCH   2   5
ATOM      5  C   UNL d   1       1.909  -4.393   2.341  0.00  0.00     0.034 A 
ATOM      6  C   UNL d   1       2.635  -3.477   1.571  0.00  0.00     0.032 A 
ATOM      7  C   UNL d   1       2.107  -2.215   1.263  0.00  0.00     0.039 A 
ATOM      8  C   UNL d   1       0.849  -1.846   1.732  0.00  0.00     0.078 A 
ATOM      9  C   UNL d   1       0.097  -2.777   2.450  0.00  0.00     0.039 A 
ATOM     10  C   UNL d   1       0.623  -4.036   2.759  0.00  0.00     0.032 A 
BRANCH   8  11
ATOM     11  O   UNL d   1       0.247  -0.632   1.570  0.00  0.00    -0.255 OA
BRANCH  11  12
ATOM     12  C   UNL d   1       1.060   0.467   1.191  0.00  0.00     0.530 C 
ATOM     13  F   UNL d   1       2.241   0.484   1.845  0.00  0.00    -0.144 F 
ATOM     14  F   UNL d   1       0.404   1.609   1.498  0.00  0.00    -0.144 F 
ATOM     15  F   UNL d   1       1.281   0.452  -0.140  0.00  0.00    -0.144 F 
ENDBRANCH  11  12
ENDBRANCH   8  11
ENDBRANCH   2   5
BRANCH   1  16
ATOM     16  C   UNL d   1       3.882  -7.557   3.105  0.00  0.00     0.184 C 
BRANCH  16  17
ATOM     17  S   UNL d   1       5.114  -7.314   4.425  0.00  0.00    -0.103 SA
BRANCH  17  18
ATOM     18  C   UNL d   1       5.640  -8.998   4.685  0.00  0.00     0.069 A 
ATOM     19  N   UNL d   1       4.883  -9.995   4.175  0.00  0.00    -0.361 N 
ATOM     20  C   UNL d   1       5.310 -11.261   4.386  0.00  0.00     0.089 A 
ATOM     21  HN  UNL d   1       4.028  -9.801   3.654  1.00  0.00     0.165 HD
ATOM     22  C   UNL d   1       6.455 -11.585   5.096  0.00  0.00     0.017 A 
ATOM     23  C   UNL d   1       7.213 -10.546   5.622  0.00  0.00     0.004 A 
ATOM     24  C   UNL d   1       6.802  -9.232   5.414  0.00  0.00     0.037 A 
ENDBRANCH  17  18
ENDBRANCH  16  17
ENDBRANCH   1  16
TORSDOF 6
