REMARK  6 active torsions:
REMARK  status: ('A' for Active; 'I' for Inactive)
REMARK    1  A    between atoms: N_3  and  S_1 
REMARK    2  A    between atoms: C_11  and  S_1 
REMARK    3  A    between atoms: C_2  and  N_3 
REMARK    4  A    between atoms: C_14  and  C_8 
REMARK    5  A    between atoms: C_15  and  C_9 
REMARK    6  A    between atoms: N_19  and  C_18 
ROOT
ATOM      1  C   UNL d   1       0.818  -2.748  -0.576  0.00  0.00     0.172 A 
ATOM      2  N   UNL d   1      -0.118  -3.657  -0.847  0.00  0.00    -0.331 N 
ATOM      3  HN  UNL d   1      -1.067  -3.585  -0.480  1.00  0.00     0.168 HD
ATOM      4  N   UNL d   1       2.080  -2.722  -1.004  0.00  0.00    -0.331 N 
ATOM      5  HN  UNL d   1       2.722  -1.969  -0.756  1.00  0.00     0.168 HD
ATOM      6  C   UNL d   1       0.271  -4.677  -1.637  0.00  0.00     0.046 A 
ATOM      7  C   UNL d   1       2.453  -3.755  -1.785  0.00  0.00     0.046 A 
ATOM      8  C   UNL d   1       1.561  -4.756  -2.133  0.00  0.00     0.060 A 
ENDROOT
BRANCH   1   9
ATOM      9  N   UNL d   1       0.488  -1.757   0.352  0.00  0.00    -0.151 NA
ATOM     10  H   UNL d   1       1.035  -0.921   0.163  0.00  0.00     0.149 HD
BRANCH   9  11
ATOM     11  S   UNL d   1       0.841  -2.229   1.931  0.00  0.00     0.248 S 
ATOM     12  O   UNL d   1       1.585  -1.116   2.491  0.00  0.00    -0.205 OA
ATOM     13  O   UNL d   1       1.351  -3.579   1.998  0.00  0.00    -0.205 OA
BRANCH  11  14
ATOM     14  C   UNL d   1      -0.756  -2.231   2.709  0.00  0.00     0.075 A 
ATOM     15  C   UNL d   1      -1.745  -3.101   2.248  0.00  0.00     0.026 A 
ATOM     16  C   UNL d   1      -2.986  -3.134   2.890  0.00  0.00     0.025 A 
ATOM     17  C   UNL d   1      -3.261  -2.284   3.966  0.00  0.00     0.005 A 
ATOM     18  C   UNL d   1      -2.235  -1.473   4.461  0.00  0.00     0.025 A 
ATOM     19  C   UNL d   1      -0.991  -1.424   3.825  0.00  0.00     0.026 A 
BRANCH  17  20
ATOM     20  N   UNL d   1      -4.456  -2.419   4.681  0.00  0.00    -0.303 NA
ATOM     21  H   UNL d   1      -4.707  -1.597   5.222  0.00  0.00     0.124 HD
ATOM     22  H   UNL d   1      -5.231  -2.762   4.122  0.00  0.00     0.124 HD
ENDBRANCH  17  20
ENDBRANCH  11  14
ENDBRANCH   9  11
ENDBRANCH   1   9
BRANCH   6  23
ATOM     23  C   UNL d   1      -0.741  -5.717  -1.915  0.00  0.00    -0.009 A 
ATOM     24  C   UNL d   1      -2.107  -5.397  -2.013  0.00  0.00     0.013 A 
ATOM     25  C   UNL d   1      -3.067  -6.380  -2.271  0.00  0.00     0.001 A 
ATOM     26  C   UNL d   1      -2.682  -7.708  -2.435  0.00  0.00     0.000 A 
ATOM     27  C   UNL d   1      -1.339  -8.054  -2.343  0.00  0.00     0.001 A 
ATOM     28  C   UNL d   1      -0.382  -7.069  -2.083  0.00  0.00     0.013 A 
ENDBRANCH   6  23
BRANCH   7  29
ATOM     29  C   UNL d   1       3.870  -3.793  -2.204  0.00  0.00    -0.009 A 
ATOM     30  C   UNL d   1       4.885  -3.296  -1.366  0.00  0.00     0.013 A 
ATOM     31  C   UNL d   1       6.232  -3.369  -1.734  0.00  0.00     0.001 A 
ATOM     32  C   UNL d   1       6.595  -3.941  -2.950  0.00  0.00     0.000 A 
ATOM     33  C   UNL d   1       5.612  -4.434  -3.801  0.00  0.00     0.001 A 
ATOM     34  C   UNL d   1       4.266  -4.356  -3.433  0.00  0.00     0.013 A 
ENDBRANCH   7  29
TORSDOF 6
