REMARK  5 active torsions:
REMARK  status: ('A' for Active; 'I' for Inactive)
REMARK       I    between atoms: N_3  and  C_1 
REMARK       I    between atoms: N_5  and  C_1 
REMARK    1  A    between atoms: C_2  and  N_3 
REMARK    2  A    between atoms: C_10  and  N_5 
REMARK    3  A    between atoms: S_11  and  C_8 
REMARK    4  A    between atoms: C_12  and  C_10 
REMARK    5  A    between atoms: O_19  and  C_13 
ROOT
ATOM      1  C   UNL d   1       1.067   0.049  -0.038  0.00  0.00     0.321 C 
ATOM      2  N   UNL d   1       0.426  -0.373  -1.189  0.00  0.00    -0.308 N 
ATOM      3  N   UNL d   1       0.158   0.402   0.935  0.00  0.00    -0.339 N 
ATOM      4  O   UNL d   1       2.279   0.155   0.096  0.00  0.00    -0.247 OA
ATOM      5  H   UNL d   1      -0.438   0.119  -1.358  0.00  0.00     0.170 HD
ATOM      6  H   UNL d   1      -0.726  -0.084   0.917  0.00  0.00     0.164 HD
ENDROOT
BRANCH   2   7
ATOM      7  C   UNL d   1       1.147  -0.820  -2.321  0.00  0.00     0.043 A 
ATOM      8  C   UNL d   1       2.094  -1.853  -2.165  0.00  0.00     0.048 A 
ATOM      9  C   UNL d   1       2.761  -2.391  -3.270  0.00  0.00     0.002 A 
ATOM     10  C   UNL d   1       2.479  -1.883  -4.540  0.00  0.00     0.019 A 
ATOM     11  C   UNL d   1       1.556  -0.844  -4.701  0.00  0.00     0.010 A 
ATOM     12  C   UNL d   1       0.880  -0.300  -3.597  0.00  0.00    -0.035 A 
ATOM     13  C   UNL d   1      -0.046   0.856  -3.860  0.00  0.00     0.050 C 
BRANCH   9  14
ATOM     14  S   UNL d   1       3.892  -3.776  -3.186  0.00  0.00    -0.134 SA
ATOM     15  C   UNL d   1       4.661  -3.565  -1.560  0.00  0.00     0.095 C 
ENDBRANCH   9  14
ENDBRANCH   2   7
BRANCH   3  16
ATOM     16  C   UNL d   1       0.585   0.937   2.213  0.00  0.00     0.162 C 
BRANCH  16  17
ATOM     17  C   UNL d   1       0.821  -0.127   3.258  0.00  0.00    -0.040 A 
ATOM     18  C   UNL d   1       1.867  -1.050   3.120  0.00  0.00     0.011 A 
ATOM     19  C   UNL d   1       2.104  -2.028   4.093  0.00  0.00     0.037 A 
ATOM     20  C   UNL d   1       1.306  -2.091   5.232  0.00  0.00     0.068 A 
ATOM     21  C   UNL d   1       0.273  -1.165   5.387  0.00  0.00     0.037 A 
ATOM     22  C   UNL d   1       0.029  -0.191   4.412  0.00  0.00     0.011 A 
BRANCH  20  23
ATOM     23  O   UNL d   1       1.435  -2.989   6.255  0.00  0.00    -0.356 OA
ATOM     24  C   UNL d   1       2.470  -3.958   6.129  0.00  0.00     0.210 C 
ENDBRANCH  20  23
ENDBRANCH  16  17
ENDBRANCH   3  16
TORSDOF 5
