REMARK  8 active torsions:
REMARK  status: ('A' for Active; 'I' for Inactive)
REMARK    1  A    between atoms: N_2  and  C_1 
REMARK    2  A    between atoms: C_3  and  C_1 
REMARK    3  A    between atoms: C_5  and  C_1 
REMARK    4  A    between atoms: N_6  and  C_1 
REMARK       I    between atoms: C_4  and  N_2 
REMARK    5  A    between atoms: C_7  and  C_4 
REMARK    6  A    between atoms: O_19  and  C_5 
REMARK    7  A    between atoms: C_11  and  N_6 
REMARK    8  A    between atoms: C_24  and  O_19 
ROOT
ATOM      1  C   UNL d   1       0.912   0.040   0.084  0.00  0.00     0.297 C 
ENDROOT
BRANCH   1   2
ATOM      2  N   UNL d   1       0.399  -0.800   1.166  0.00  0.00    -0.313 N 
ATOM      3  C   UNL d   1       0.226  -0.391   2.459  0.00  0.00     0.277 C 
ATOM      4  O   UNL d   1       0.476   0.752   2.824  0.00  0.00    -0.265 OA
ATOM      5  H   UNL d   1       0.112  -1.744   0.941  0.00  0.00     0.166 HD
BRANCH   3   6
ATOM      6  C   UNL d   1      -0.292  -1.435   3.320  0.00  0.00     0.142 A 
ATOM      7  O   UNL d   1      -0.303  -2.729   2.859  0.00  0.00    -0.317 OA
ATOM      8  C   UNL d   1      -0.798  -3.507   3.855  0.00  0.00     0.143 A 
ATOM      9  C   UNL d   1      -1.135  -2.739   4.944  0.00  0.00     0.027 A 
ATOM     10  C   UNL d   1      -0.809  -1.403   4.601  0.00  0.00     0.045 A 
ENDBRANCH   3   6
ENDBRANCH   1   2
BRANCH   1  11
ATOM     11  C   UNL d   1       0.292   1.481  -0.017  0.00  0.00     0.442 C 
ATOM     12  F   UNL d   1      -0.914   1.573   0.599  0.00  0.00    -0.166 F 
ATOM     13  F   UNL d   1       1.108   2.411   0.548  0.00  0.00    -0.166 F 
ATOM     14  F   UNL d   1       0.091   1.892  -1.295  0.00  0.00    -0.166 F 
ENDBRANCH   1  11
BRANCH   1  15
ATOM     15  C   UNL d   1       0.471  -0.605  -1.252  0.00  0.00     0.318 C 
ATOM     16  O   UNL d   1      -0.512  -1.329  -1.369  0.00  0.00    -0.260 OA
BRANCH  15  17
ATOM     17  O   UNL d   1       1.325  -0.302  -2.277  0.00  0.00    -0.318 OA
BRANCH  17  18
ATOM     18  C   UNL d   1       1.054  -0.922  -3.545  0.00  0.00     0.174 C 
ATOM     19  C   UNL d   1       1.548  -2.358  -3.562  0.00  0.00     0.034 C 
ENDBRANCH  17  18
ENDBRANCH  15  17
ENDBRANCH   1  15
BRANCH   1  20
ATOM     20  N   UNL d   1       2.392   0.050   0.238  0.00  0.00    -0.348 N 
ATOM     21  H   UNL d   1       2.721   0.812   0.828  0.00  0.00     0.163 HD
BRANCH  20  22
ATOM     22  C   UNL d   1       3.263  -1.021   0.127  0.00  0.00     0.030 A 
ATOM     23  C   UNL d   1       2.867  -2.344  -0.106  0.00  0.00     0.036 A 
ATOM     24  C   UNL d   1       3.795  -3.376  -0.322  0.00  0.00    -0.060 A 
ATOM     25  C   UNL d   1       3.327  -4.783  -0.554  0.00  0.00     0.048 C 
ATOM     26  C   UNL d   1       5.157  -3.077  -0.325  0.00  0.00     0.007 A 
ATOM     27  C   UNL d   1       5.578  -1.768  -0.113  0.00  0.00     0.003 A 
ATOM     28  C   UNL d   1       4.639  -0.755   0.107  0.00  0.00     0.029 A 
ENDBRANCH  20  22
ENDBRANCH   1  20
TORSDOF 8
