REMARK  2 active torsions:
REMARK  status: ('A' for Active; 'I' for Inactive)
REMARK    1  A    between atoms: C_8  and  N_1 
REMARK    2  A    between atoms: S_17  and  C_5 
ROOT
ATOM      1  N   UNL d   1      -0.280  -1.319   0.066  0.00  0.00    -0.273 N 
ATOM      2  C   UNL d   1      -1.150  -0.344  -0.418  0.00  0.00     0.163 A 
ATOM      3  N   UNL d   1      -0.577   0.841  -0.366  0.00  0.00    -0.281 N 
ATOM      4  HN  UNL d   1      -0.976   1.715  -0.709  1.00  0.00     0.188 HD
ATOM      5  C   UNL d   1       0.822  -0.580   0.486  0.00  0.00     0.165 A 
ATOM      6  N   UNL d   1       0.644   0.694   0.227  0.00  0.00    -0.278 N 
ATOM      7  HN  UNL d   1       1.304   1.445   0.432  1.00  0.00     0.189 HD
ATOM      8  C   UNL d   1      -2.507  -0.525  -0.834  0.00  0.00     0.120 A 
ATOM      9  O   UNL d   1      -3.343  -1.470  -0.294  0.00  0.00    -0.319 OA
ATOM     10  C   UNL d   1      -3.213   0.190  -1.788  0.00  0.00     0.043 A 
ATOM     11  C   UNL d   1      -4.544  -1.367  -0.915  0.00  0.00     0.142 A 
ATOM     12  C   UNL d   1      -4.514  -0.365  -1.853  0.00  0.00     0.027 A 
ENDROOT
BRANCH   1  13
ATOM     13  C   UNL d   1      -0.469  -2.734   0.062  0.00  0.00     0.046 A 
ATOM     14  C   UNL d   1      -0.003  -3.528   1.117  0.00  0.00     0.069 A 
ATOM     15  C   UNL d   1      -0.162  -4.915   1.070  0.00  0.00     0.104 A 
ATOM     16  O   UNL d   1       0.377  -5.627   2.111  0.00  0.00    -0.346 OA
ATOM     17  C   UNL d   1      -0.844  -5.513   0.008  0.00  0.00     0.102 A 
ATOM     18  C   UNL d   1       0.466  -7.022   1.794  0.00  0.00     0.202 C 
ATOM     19  C   UNL d   1      -0.835  -7.511   1.178  0.00  0.00     0.202 C 
ATOM     20  O   UNL d   1      -1.070  -6.862  -0.077  0.00  0.00    -0.346 OA
ATOM     21  C   UNL d   1      -1.320  -4.731  -1.038  0.00  0.00     0.042 A 
ATOM     22  C   UNL d   1      -1.126  -3.348  -1.018  0.00  0.00     0.033 A 
ENDBRANCH   1  13
BRANCH   5  23
ATOM     23  S   UNL d   1       2.339  -1.189   1.074  0.00  0.00    -0.105 SA
ATOM     24  H   UNL d   1       2.273  -2.450   0.631  0.00  0.00     0.110 HD
ENDBRANCH   5  23
TORSDOF 2
