REMARK  7 active torsions:
REMARK  status: ('A' for Active; 'I' for Inactive)
REMARK    1  A    between atoms: C_2  and  C_1 
REMARK    2  A    between atoms: N_12  and  C_3 
REMARK    3  A    between atoms: C_11  and  C_4 
REMARK    4  A    between atoms: C_5  and  C_16 
REMARK    5  A    between atoms: N_8  and  N_12 
REMARK    6  A    between atoms: O_22  and  C_11 
REMARK    7  A    between atoms: C_20  and  C_18 
ROOT
ATOM      1  N   UNL d   1      -5.022  -0.865   1.137  0.00  0.00    -0.309 N 
ATOM      2  HN  UNL d   1      -4.972  -1.416   1.994  1.00  0.00     0.186 HD
ATOM      3  C   UNL d   1      -5.788  -1.217   0.155  0.00  0.00     0.118 C 
ENDROOT
BRANCH   1   4
ATOM      4  N   UNL d   1      -4.285   0.270   0.980  0.00  0.00    -0.285 N 
ATOM      5  H   UNL d   1      -4.569   0.959   0.286  0.00  0.00     0.188 HD
BRANCH   4   6
ATOM      6  C   UNL d   1      -3.685   0.806   2.145  0.00  0.00     0.135 A 
ATOM      7  C   UNL d   1      -2.821   1.903   2.077  0.00  0.00     0.094 A 
ATOM      8  C   UNL d   1      -2.150   2.318   3.249  0.00  0.00     0.045 A 
ATOM      9  C   UNL d   1      -2.350   1.644   4.443  0.00  0.00     0.050 A 
ATOM     10  C   UNL d   1      -3.221   0.578   4.436  0.00  0.00     0.113 A 
ATOM     11 CL   UNL d   1      -1.536   2.120   5.873  0.00  0.00    -0.083 Cl
ATOM     12  N   UNL d   1      -3.874   0.158   3.328  0.00  0.00    -0.349 N 
ATOM     13  HN  UNL d   1      -4.506  -0.641   3.378  1.00  0.00     0.167 HD
BRANCH   7  14
ATOM     14  C   UNL d   1      -2.560   2.660   0.814  0.00  0.00     0.421 C 
ATOM     15  F   UNL d   1      -3.309   2.271  -0.257  0.00  0.00    -0.166 F 
ATOM     16  F   UNL d   1      -2.815   3.993   0.960  0.00  0.00    -0.166 F 
ATOM     17  F   UNL d   1      -1.261   2.580   0.414  0.00  0.00    -0.166 F 
ENDBRANCH   7  14
ENDBRANCH   4   6
ENDBRANCH   1   4
BRANCH   3  18
ATOM     18  C   UNL d   1      -6.573  -2.469   0.232  0.00  0.00    -0.019 A 
ATOM     19  C   UNL d   1      -7.708  -2.637  -0.565  0.00  0.00     0.014 A 
ATOM     20  C   UNL d   1      -8.428  -3.839  -0.500  0.00  0.00     0.021 A 
ATOM     21  C   UNL d   1      -8.006  -4.874   0.341  0.00  0.00     0.017 A 
ATOM     22  C   UNL d   1      -6.867  -4.701   1.132  0.00  0.00     0.021 A 
ATOM     23  C   UNL d   1      -6.157  -3.497   1.085  0.00  0.00     0.014 A 
BRANCH  21  24
ATOM     24  C   UNL d   1      -8.737  -6.103   0.401  0.00  0.00    -0.064 C 
ATOM     25  C   UNL d   1      -9.354  -7.136   0.464  0.00  0.00    -0.064 C 
BRANCH  25  26
ATOM     26  C   UNL d   1     -10.121  -8.389   0.554  0.00  0.00     0.114 C 
ATOM     27  C   UNL d   1      -9.214  -9.559   0.934  0.00  0.00     0.060 C 
ATOM     28  C   UNL d   1     -10.840  -8.675  -0.762  0.00  0.00     0.060 C 
BRANCH  26  29
ATOM     29  O   UNL d   1     -11.117  -8.251   1.567  0.00  0.00    -0.378 OA
ATOM     30  H   UNL d   1     -10.660  -7.971   2.379  0.00  0.00     0.211 HD
ENDBRANCH  26  29
ENDBRANCH  25  26
ENDBRANCH  21  24
ENDBRANCH   3  18
TORSDOF 7
