REMARK  10 active torsions:
REMARK  status: ('A' for Active; 'I' for Inactive)
REMARK    1  A    between atoms: O_16  and  C_3 
REMARK    2  A    between atoms: N_10  and  C_7 
REMARK    3  A    between atoms: C_8  and  O_17 
REMARK    4  A    between atoms: C_18  and  O_16 
REMARK    5  A    between atoms: O_17  and  C_19 
REMARK    6  A    between atoms: C_21  and  C_18 
REMARK    7  A    between atoms: C_19  and  C_20 
REMARK    8  A    between atoms: C_20  and  C_23 
REMARK    9  A    between atoms: C_22  and  C_21 
REMARK   10  A    between atoms: C_23  and  C_22 
ROOT
ATOM      1  C   UNL d   1      -7.346  -2.673   0.071  0.00  0.00     0.002 C 
ENDROOT
BRANCH   1   2
ATOM      2  C   UNL d   1      -8.659  -1.890   0.030  0.00  0.00     0.027 C 
BRANCH   2   3
ATOM      3  C   UNL d   1      -8.763  -1.024  -1.222  0.00  0.00     0.175 C 
BRANCH   3   4
ATOM      4  O   UNL d   1     -10.041  -0.394  -1.268  0.00  0.00    -0.351 OA
BRANCH   4   5
ATOM      5  C   UNL d   1     -10.233   0.429  -2.346  0.00  0.00     0.068 A 
ATOM      6  C   UNL d   1     -11.559   0.668  -2.689  0.00  0.00     0.038 A 
ATOM      7  C   UNL d   1     -11.873   1.496  -3.772  0.00  0.00     0.026 A 
ATOM      8  C   UNL d   1     -10.864   2.071  -4.546  0.00  0.00     0.005 A 
ATOM      9  C   UNL d   1      -9.540   1.894  -4.149  0.00  0.00     0.026 A 
ATOM     10  C   UNL d   1      -9.220   1.064  -3.072  0.00  0.00     0.038 A 
BRANCH   8  11
ATOM     11  N   UNL d   1     -11.178   2.996  -5.548  0.00  0.00    -0.303 NA
ATOM     12  H   UNL d   1     -10.443   3.115  -6.239  0.00  0.00     0.124 HD
ATOM     13  H   UNL d   1     -12.083   2.836  -5.979  0.00  0.00     0.124 HD
ENDBRANCH   8  11
ENDBRANCH   4   5
ENDBRANCH   3   4
ENDBRANCH   2   3
ENDBRANCH   1   2
BRANCH   1  14
ATOM     14  C   UNL d   1      -6.093  -1.783   0.071  0.00  0.00     0.002 C 
BRANCH  14  15
ATOM     15  C   UNL d   1      -4.781  -2.573   0.024  0.00  0.00     0.027 C 
BRANCH  15  16
ATOM     16  C   UNL d   1      -4.691  -3.413  -1.248  0.00  0.00     0.175 C 
BRANCH  16  17
ATOM     17  O   UNL d   1      -3.432  -4.058  -1.337  0.00  0.00    -0.349 OA
BRANCH  17  18
ATOM     18  C   UNL d   1      -3.222  -4.931  -2.376  0.00  0.00     0.090 A 
ATOM     19  C   UNL d   1      -4.026  -5.252  -3.487  0.00  0.00     0.069 A 
ATOM     20  C   UNL d   1      -3.570  -6.180  -4.436  0.00  0.00     0.050 A 
ATOM     21 CL   UNL d   1      -5.587  -4.594  -3.847  0.00  0.00    -0.081 Cl
ATOM     22  C   UNL d   1      -2.329  -6.790  -4.291  0.00  0.00     0.035 A 
ATOM     23 CL   UNL d   1      -1.789  -7.913  -5.475  0.00  0.00    -0.084 Cl
ATOM     24  C   UNL d   1      -1.529  -6.492  -3.199  0.00  0.00     0.026 A 
ATOM     25  C   UNL d   1      -1.975  -5.568  -2.251  0.00  0.00     0.040 A 
ENDBRANCH  17  18
ENDBRANCH  16  17
ENDBRANCH  15  16
ENDBRANCH  14  15
ENDBRANCH   1  14
TORSDOF 10
