REMARK  7 active torsions:
REMARK  status: ('A' for Active; 'I' for Inactive)
REMARK    1  A    between atoms: N_3  and  S_1 
REMARK    2  A    between atoms: C_11  and  S_1 
REMARK    3  A    between atoms: C_2  and  N_3 
REMARK    4  A    between atoms: C_14  and  C_8 
REMARK    5  A    between atoms: C_15  and  C_9 
REMARK    6  A    between atoms: N_22  and  C_20 
REMARK    7  A    between atoms: O_27  and  C_21 
ROOT
ATOM      1  C   UNL d   1       0.778   1.213   2.447  0.00  0.00     0.172 A 
ATOM      2  N   UNL d   1      -0.226   1.498   3.278  0.00  0.00    -0.331 N 
ATOM      3  HN  UNL d   1      -1.162   1.723   2.941  1.00  0.00     0.168 HD
ATOM      4  N   UNL d   1       2.042   0.927   2.761  0.00  0.00    -0.331 N 
ATOM      5  HN  UNL d   1       2.748   0.735   2.051  1.00  0.00     0.168 HD
ATOM      6  C   UNL d   1       0.076   1.468   4.593  0.00  0.00     0.046 A 
ATOM      7  C   UNL d   1       2.325   0.907   4.080  0.00  0.00     0.046 A 
ATOM      8  C   UNL d   1       1.354   1.166   5.032  0.00  0.00     0.060 A 
ENDROOT
BRANCH   1   9
ATOM      9  N   UNL d   1       0.467   1.284   1.085  0.00  0.00    -0.151 NA
ATOM     10  H   UNL d   1      -0.279   1.963   0.961  0.00  0.00     0.149 HD
BRANCH   9  11
ATOM     11  S   UNL d   1      -0.100  -0.173   0.471  0.00  0.00     0.248 S 
ATOM     12  O   UNL d   1      -1.378   0.146  -0.136  0.00  0.00    -0.205 OA
ATOM     13  O   UNL d   1       0.028  -1.249   1.426  0.00  0.00    -0.205 OA
BRANCH  11  14
ATOM     14  C   UNL d   1       1.034  -0.521  -0.856  0.00  0.00     0.075 A 
ATOM     15  C   UNL d   1       2.390  -0.712  -0.571  0.00  0.00     0.026 A 
ATOM     16  C   UNL d   1       3.271  -1.041  -1.608  0.00  0.00     0.025 A 
ATOM     17  C   UNL d   1       2.806  -1.232  -2.914  0.00  0.00     0.005 A 
ATOM     18  C   UNL d   1       1.459  -0.982  -3.191  0.00  0.00     0.025 A 
ATOM     19  C   UNL d   1       0.566  -0.648  -2.166  0.00  0.00     0.026 A 
BRANCH  17  20
ATOM     20  N   UNL d   1       3.711  -1.447  -3.961  0.00  0.00    -0.303 NA
ATOM     21  H   UNL d   1       3.293  -1.877  -4.780  0.00  0.00     0.124 HD
ATOM     22  H   UNL d   1       4.564  -1.916  -3.676  0.00  0.00     0.124 HD
ENDBRANCH  17  20
ENDBRANCH  11  14
ENDBRANCH   9  11
ENDBRANCH   1   9
BRANCH   6  23
ATOM     23  C   UNL d   1      -1.015   1.801   5.536  0.00  0.00    -0.009 A 
ATOM     24  C   UNL d   1      -2.352   1.474   5.252  0.00  0.00     0.016 A 
ATOM     25  C   UNL d   1      -3.391   1.791   6.141  0.00  0.00     0.037 A 
ATOM     26  C   UNL d   1      -3.113   2.447   7.338  0.00  0.00     0.068 A 
ATOM     27  C   UNL d   1      -1.794   2.759   7.651  0.00  0.00     0.037 A 
ATOM     28  C   UNL d   1      -0.762   2.453   6.758  0.00  0.00     0.016 A 
BRANCH  26  29
ATOM     29  O   UNL d   1      -4.033   2.790   8.289  0.00  0.00    -0.356 OA
ATOM     30  C   UNL d   1      -5.335   3.094   7.801  0.00  0.00     0.210 C 
ENDBRANCH  26  29
ENDBRANCH   6  23
BRANCH   7  31
ATOM     31  C   UNL d   1       3.731   0.644   4.454  0.00  0.00    -0.009 A 
ATOM     32  C   UNL d   1       4.789   1.055   3.623  0.00  0.00     0.013 A 
ATOM     33  C   UNL d   1       6.124   0.845   3.985  0.00  0.00     0.001 A 
ATOM     34  C   UNL d   1       6.430   0.215   5.188  0.00  0.00     0.000 A 
ATOM     35  C   UNL d   1       5.405  -0.207   6.027  0.00  0.00     0.001 A 
ATOM     36  C   UNL d   1       4.072   0.002   5.661  0.00  0.00     0.013 A 
ENDBRANCH   7  31
TORSDOF 7
