REMARK  2 active torsions:
REMARK  status: ('A' for Active; 'I' for Inactive)
REMARK    1  A    between atoms: S_2  and  C_3 
REMARK    2  A    between atoms: C_7  and  S_2 
ROOT
ATOM      1  S   UNL d   1      -1.446  -1.758   0.024  0.00  0.00     0.177 S 
ATOM      2  C   UNL d   1      -1.909   0.880   0.041  0.00  0.00     0.162 A 
ATOM      3  C   UNL d   1      -2.662  -0.454  -0.027  0.00  0.00     0.171 A 
ATOM      4  C   UNL d   1      -0.421   0.633   0.065  0.00  0.00    -0.017 A 
ATOM      5  C   UNL d   1      -0.053  -0.710   0.053  0.00  0.00     0.067 A 
ATOM      6  O   UNL d   1      -1.445  -2.458  -1.241  0.00  0.00    -0.223 OA
ATOM      7  O   UNL d   1      -1.513  -2.424   1.306  0.00  0.00    -0.223 OA
ATOM      8  C   UNL d   1       0.591   1.589   0.026  0.00  0.00     0.010 A 
ATOM      9  C   UNL d   1       1.260  -1.151   0.029  0.00  0.00     0.024 A 
ATOM     10  C   UNL d   1       1.929   1.176   0.015  0.00  0.00     0.001 A 
ATOM     11  C   UNL d   1       2.263  -0.185   0.017  0.00  0.00     0.002 A 
ENDROOT
BRANCH   2  12
ATOM     12  S   UNL d   1      -2.465   1.873   1.412  0.00  0.00     0.191 S 
ATOM     13  O   UNL d   1      -1.634   3.055   1.537  0.00  0.00    -0.221 OA
ATOM     14  O   UNL d   1      -3.905   1.997   1.289  0.00  0.00    -0.221 OA
BRANCH  12  15
ATOM     15  C   UNL d   1      -2.138   0.935   2.893  0.00  0.00     0.100 A 
ATOM     16  S   UNL d   1      -3.493   0.513   3.853  0.00  0.00    -0.090 SA
ATOM     17  C   UNL d   1      -2.518  -0.268   5.017  0.00  0.00     0.051 A 
ATOM     18  C   UNL d   1      -1.182  -0.211   4.691  0.00  0.00     0.009 A 
ATOM     19  C   UNL d   1      -0.961   0.498   3.473  0.00  0.00     0.031 A 
ENDBRANCH  12  15
ENDBRANCH   2  12
TORSDOF 2
