REMARK  3 active torsions:
REMARK  status: ('A' for Active; 'I' for Inactive)
REMARK    1  A    between atoms: C_2  and  C_1 
REMARK       I    between atoms: N_6  and  C_2 
REMARK    2  A    between atoms: C_8  and  N_6 
REMARK    3  A    between atoms: C_10  and  C_8 
ROOT
ATOM      1  C   UNL d   1       1.413   2.417  -0.487  0.00  0.00     0.254 C 
ATOM      2  N   UNL d   1       1.001   3.658  -0.061  0.00  0.00    -0.349 N 
ATOM      3  O   UNL d   1       0.680   1.431  -0.450  0.00  0.00    -0.268 OA
ATOM      4  H   UNL d   1       1.691   4.380   0.082  0.00  0.00     0.163 HD
ENDROOT
BRANCH   2   5
ATOM      5  C   UNL d   1      -0.376   3.935   0.316  0.00  0.00     0.114 C 
ATOM      6  C   UNL d   1      -0.772   5.329  -0.172  0.00  0.00     0.037 C 
BRANCH   5   7
ATOM      7  C   UNL d   1      -0.589   3.776   1.809  0.00  0.00    -0.036 A 
ATOM      8  C   UNL d   1       0.166   4.504   2.743  0.00  0.00     0.009 A 
ATOM      9  C   UNL d   1      -0.029   4.322   4.114  0.00  0.00     0.001 A 
ATOM     10  C   UNL d   1      -0.983   3.416   4.570  0.00  0.00     0.000 A 
ATOM     11  C   UNL d   1      -1.754   2.701   3.657  0.00  0.00     0.001 A 
ATOM     12  C   UNL d   1      -1.559   2.880   2.286  0.00  0.00     0.009 A 
ENDBRANCH   5   7
ENDBRANCH   2   5
BRANCH   1  13
ATOM     13  C   UNL d   1       2.749   2.379  -1.069  0.00  0.00     0.063 A 
ATOM     14  C   UNL d   1       3.418   1.241  -1.492  0.00  0.00     0.065 A 
ATOM     15  O   UNL d   1       4.560   1.575  -2.157  0.00  0.00    -0.319 OA
ATOM     16  C   UNL d   1       3.144  -0.212  -1.433  0.00  0.00     0.077 C 
ATOM     17  C   UNL d   1       4.639   2.929  -2.170  0.00  0.00     0.050 A 
ATOM     18  C   UNL d   1       3.609   3.468  -1.433  0.00  0.00     0.051 A 
ATOM     19  C   UNL d   1       5.717   3.512  -2.994  0.00  0.00     0.076 C 
ENDBRANCH   1  13
TORSDOF 3
