REMARK  8 active torsions:
REMARK  status: ('A' for Active; 'I' for Inactive)
REMARK    1  A    between atoms: S_4  and  C_1 
REMARK    2  A    between atoms: C_15  and  N_2 
REMARK    3  A    between atoms: C_18  and  C_3 
REMARK    4  A    between atoms: C_6  and  S_4 
REMARK    5  A    between atoms: C_14  and  C_5 
REMARK    6  A    between atoms: C_16  and  C_21 
REMARK    7  A    between atoms: O_31  and  C_18 
REMARK    8  A    between atoms: C_35  and  O_31 
ROOT
ATOM      1  C   UNL d   1       0.878  -6.058   0.108  0.00  0.00     0.072 A 
ATOM      2  C   UNL d   1       1.757  -5.507   1.035  0.00  0.00     0.134 A 
ATOM      3  C   UNL d   1       1.715  -3.430  -0.107  0.00  0.00     0.099 A 
ATOM      4  N   UNL d   1       2.149  -4.193   0.932  0.00  0.00    -0.345 N 
ATOM      5  HN  UNL d   1       2.767  -3.789   1.637  1.00  0.00     0.166 HD
ATOM      6  C   UNL d   1       0.910  -3.960  -1.110  0.00  0.00     0.079 A 
ATOM      7  C   UNL d   1       0.471  -5.277  -0.986  0.00  0.00     0.045 A 
ATOM      8  C   UNL d   1       0.546  -3.208  -2.269  0.00  0.00     0.102 C 
ATOM      9  N   UNL d   1       0.266  -2.603  -3.219  0.00  0.00    -0.191 NA
ENDROOT
BRANCH   3  10
ATOM     10  S   UNL d   1       2.360  -1.773  -0.117  0.00  0.00    -0.033 SA
BRANCH  10  11
ATOM     11  C   UNL d   1       0.930  -0.801   0.047  0.00  0.00     0.176 A 
ATOM     12  N   UNL d   1       0.999   0.558   0.156  0.00  0.00    -0.241 N 
ATOM     13  C   UNL d   1      -0.301   0.969   0.368  0.00  0.00     0.347 A 
ATOM     14  O   UNL d   1      -0.752   2.096   0.487  0.00  0.00    -0.245 OA
ATOM     15  N   UNL d   1      -1.063  -0.198   0.354  0.00  0.00    -0.249 N 
ATOM     16  N   UNL d   1      -0.275  -1.296   0.156  0.00  0.00    -0.275 N 
ATOM     17  H   UNL d   1      -2.073  -0.239   0.411  0.00  0.00     0.192 HD
ATOM     18  HN  UNL d   1      -0.560  -2.274   0.104  1.00  0.00     0.189 HD
BRANCH  12  19
ATOM     19  C   UNL d   1       2.077   1.441  -0.038  0.00  0.00     0.047 A 
ATOM     20  C   UNL d   1       2.914   1.321  -1.155  0.00  0.00     0.046 A 
ATOM     21  C   UNL d   1       3.953   2.240  -1.379  0.00  0.00     0.050 A 
ATOM     22  C   UNL d   1       4.176   3.256  -0.439  0.00  0.00     0.016 A 
ATOM     23  C   UNL d   1       3.348   3.381   0.675  0.00  0.00     0.003 A 
ATOM     24  C   UNL d   1       2.286   2.495   0.859  0.00  0.00     0.030 A 
BRANCH  21  25
ATOM     25  C   UNL d   1       4.798   2.170  -2.628  0.00  0.00     0.417 C 
ATOM     26  F   UNL d   1       4.434   1.167  -3.475  0.00  0.00    -0.166 F 
ATOM     27  F   UNL d   1       4.737   3.316  -3.360  0.00  0.00    -0.166 F 
ATOM     28  F   UNL d   1       6.117   1.969  -2.356  0.00  0.00    -0.166 F 
ENDBRANCH  21  25
ENDBRANCH  12  19
ENDBRANCH  10  11
ENDBRANCH   3  10
BRANCH   1  29
ATOM     29  C   UNL d   1       0.350  -7.424   0.236  0.00  0.00     0.295 C 
ATOM     30  O   UNL d   1      -0.046  -7.891   1.287  0.00  0.00    -0.259 OA
BRANCH  29  31
ATOM     31  O   UNL d   1       0.432  -8.027  -0.970  0.00  0.00    -0.318 OA
BRANCH  31  32
ATOM     32  C   UNL d   1       0.231  -9.449  -0.987  0.00  0.00     0.174 C 
ATOM     33  C   UNL d   1       1.600 -10.095  -1.079  0.00  0.00     0.034 C 
ENDBRANCH  31  32
ENDBRANCH  29  31
ENDBRANCH   1  29
BRANCH   2  34
ATOM     34  C   UNL d   1       2.396  -6.321   2.156  0.00  0.00     0.433 C 
ATOM     35  F   UNL d   1       2.328  -7.672   2.014  0.00  0.00    -0.165 F 
ATOM     36  F   UNL d   1       3.739  -6.069   2.251  0.00  0.00    -0.165 F 
ATOM     37  F   UNL d   1       1.883  -6.031   3.383  0.00  0.00    -0.165 F 
ENDBRANCH   2  34
TORSDOF 8
