REMARK  3 active torsions:
REMARK  status: ('A' for Active; 'I' for Inactive)
REMARK    1  A    between atoms: C_10  and  C_1 
REMARK    2  A    between atoms: N_2  and  C_8 
REMARK    3  A    between atoms: C_15  and  C_10 
ROOT
ATOM      1  C   UNL d   1       2.032   0.801  -0.387  0.00  0.00     0.004 C 
ATOM      2  C   UNL d   1       1.763   0.510   1.050  0.00  0.00     0.190 C 
ATOM      3  C   UNL d   1       0.442  -0.019   1.459  0.00  0.00     0.032 A 
ATOM      4  C   UNL d   1       1.248   0.345  -1.374  0.00  0.00     0.061 C 
ATOM      5  S   UNL d   1      -0.168  -0.611  -1.211  0.00  0.00    -0.101 SA
ATOM      6  C   UNL d   1      -0.479  -0.508   0.531  0.00  0.00     0.019 A 
ATOM      7  O   UNL d   1       2.621   0.733   1.900  0.00  0.00    -0.287 OA
ATOM      8  C   UNL d   1       0.121  -0.009   2.828  0.00  0.00     0.017 A 
ATOM      9  C   UNL d   1      -1.724  -0.971   0.989  0.00  0.00     0.020 A 
ATOM     10  C   UNL d   1      -1.124  -0.463   3.267  0.00  0.00     0.001 A 
ATOM     11  C   UNL d   1      -2.047  -0.940   2.347  0.00  0.00     0.001 A 
ENDROOT
BRANCH   1  12
ATOM     12  C   UNL d   1       3.310   1.545  -0.690  0.00  0.00     0.081 C 
BRANCH  12  13
ATOM     13  C   UNL d   1       3.163   3.052  -0.773  0.00  0.00    -0.054 A 
ATOM     14  C   UNL d   1       3.358   3.851   0.364  0.00  0.00     0.010 A 
ATOM     15  C   UNL d   1       3.335   5.246   0.268  0.00  0.00     0.036 A 
ATOM     16  C   UNL d   1       3.102   5.849  -0.974  0.00  0.00     0.102 A 
ATOM     17  C   UNL d   1       2.858   5.064  -2.111  0.00  0.00     0.036 A 
ATOM     18  C   UNL d   1       2.886   3.671  -2.003  0.00  0.00     0.010 A 
BRANCH  16  19
ATOM     19  N   UNL d   1       3.145   7.312  -1.099  0.00  0.00    -0.116 N 
ATOM     20  O   UNL d   1       3.390   7.971  -0.079  0.00  0.00    -0.532 OA
ATOM     21  O   UNL d   1       2.943   7.801  -2.220  0.00  0.00    -0.532 OA
ENDBRANCH  16  19
ENDBRANCH  12  13
ENDBRANCH   1  12
TORSDOF 3
