REMARK  5 active torsions:
REMARK  status: ('A' for Active; 'I' for Inactive)
REMARK    1  A    between atoms: N_8  and  C_1 
REMARK    2  A    between atoms: C_5  and  C_2 
REMARK       I    between atoms: C_7  and  N_9 
REMARK       I    between atoms: N_17  and  C_7 
REMARK    3  A    between atoms: C_23  and  N_17 
REMARK    4  A    between atoms: C_24  and  C_23 
REMARK    5  A    between atoms: C_25  and  C_24 
ROOT
ATOM      1  C   UNL d   1      -1.150  -1.538  -0.099  0.00  0.00     0.045 A 
ATOM      2  C   UNL d   1      -1.279   0.712   0.803  0.00  0.00     0.119 A 
ATOM      3  N   UNL d   1      -1.077   1.264  -0.419  0.00  0.00    -0.352 N 
ATOM      4  HN  UNL d   1      -1.044   2.277  -0.532  1.00  0.00     0.166 HD
ATOM      5  C   UNL d   1      -1.335  -0.666   0.984  0.00  0.00     0.064 A 
ATOM      6  C   UNL d   1      -0.957  -0.955  -1.387  0.00  0.00     0.017 A 
ATOM      7  C   UNL d   1      -0.923   0.454  -1.476  0.00  0.00     0.045 A 
ATOM      8  C   UNL d   1      -0.734  -1.696  -2.577  0.00  0.00     0.016 A 
ATOM      9  C   UNL d   1      -0.681   1.057  -2.703  0.00  0.00     0.030 A 
ATOM     10  C   UNL d   1      -0.523  -1.069  -3.805  0.00  0.00     0.001 A 
ATOM     11  C   UNL d   1      -0.488   0.313  -3.867  0.00  0.00     0.002 A 
ENDROOT
BRANCH   1  12
ATOM     12  N   UNL d   1      -1.022  -2.909   0.116  0.00  0.00    -0.377 N 
ATOM     13  C   UNL d   1      -0.436  -3.380   1.382  0.00  0.00     0.143 C 
ATOM     14  C   UNL d   1       0.328  -4.682   1.111  0.00  0.00     0.147 C 
ATOM     15  N   UNL d   1      -0.549  -5.697   0.510  0.00  0.00    -0.331 N 
ATOM     16  C   UNL d   1      -0.711  -6.997   0.941  0.00  0.00     0.318 C 
ATOM     17  C   UNL d   1      -1.282  -5.232  -0.685  0.00  0.00     0.147 C 
ATOM     18  O   UNL d   1      -1.472  -7.789   0.383  0.00  0.00    -0.247 OA
ATOM     19  N   UNL d   1      -0.007  -7.341   2.063  0.00  0.00    -0.343 N 
ATOM     20  H   UNL d   1       0.855  -6.856   2.235  0.00  0.00     0.164 HD
ATOM     21  C   UNL d   1      -1.993  -3.872  -0.454  0.00  0.00     0.143 C 
BRANCH  19  22
ATOM     22  C   UNL d   1      -0.094  -8.663   2.651  0.00  0.00     0.124 C 
BRANCH  22  23
ATOM     23  C   UNL d   1       0.990  -9.586   2.098  0.00  0.00     0.019 C 
BRANCH  23  24
ATOM     24  C   UNL d   1       0.927 -10.965   2.750  0.00  0.00    -0.003 C 
ATOM     25  C   UNL d   1       2.009 -11.887   2.211  0.00  0.00     0.005 C 
ENDBRANCH  23  24
ENDBRANCH  22  23
ENDBRANCH  19  22
ENDBRANCH   1  12
BRANCH   2  26
ATOM     26  C   UNL d   1      -1.399   1.615   2.022  0.00  0.00     0.432 C 
ATOM     27  F   UNL d   1      -1.253   2.944   1.762  0.00  0.00    -0.165 F 
ATOM     28  F   UNL d   1      -2.605   1.488   2.651  0.00  0.00    -0.165 F 
ATOM     29  F   UNL d   1      -0.464   1.322   2.976  0.00  0.00    -0.165 F 
ENDBRANCH   2  26
TORSDOF 5
