REMARK  7 active torsions:
REMARK  status: ('A' for Active; 'I' for Inactive)
REMARK       I    between atoms: N_7  and  C_1 
REMARK    1  A    between atoms: O_14  and  C_1 
REMARK    2  A    between atoms: N_4  and  N_7 
REMARK    3  A    between atoms: N_8  and  C_6 
REMARK    4  A    between atoms: C_18  and  N_8 
REMARK    5  A    between atoms: C_15  and  C_12 
REMARK    6  A    between atoms: C_13  and  C_18 
REMARK    7  A    between atoms: C_20  and  O_14 
ROOT
ATOM      1  N   UNL d   1       4.934  -2.704  10.899  0.00  0.00    -0.197 NA
ATOM      2  C   UNL d   1       4.214  -3.055  10.061  0.00  0.00     0.060 C 
ATOM      3  C   UNL d   1       3.313  -3.505   8.991  0.00  0.00     0.143 C 
ENDROOT
BRANCH   3   4
ATOM      4  C   UNL d   1       4.109  -4.238   7.908  0.00  0.00     0.136 C 
BRANCH   4   5
ATOM      5  N   UNL d   1       3.232  -4.870   6.909  0.00  0.00    -0.384 N 
ATOM      6  C   UNL d   1       3.195  -6.336   6.947  0.00  0.00     0.149 C 
BRANCH   5   7
ATOM      7  C   UNL d   1       2.524  -4.165   5.946  0.00  0.00     0.029 A 
ATOM      8  C   UNL d   1       2.860  -2.857   5.545  0.00  0.00     0.030 A 
ATOM      9  C   UNL d   1       2.152  -2.171   4.534  0.00  0.00     0.015 A 
ATOM     10  C   UNL d   1       1.075  -2.788   3.902  0.00  0.00    -0.019 A 
ATOM     11  C   UNL d   1       0.707  -4.069   4.292  0.00  0.00     0.015 A 
ATOM     12  C   UNL d   1       1.414  -4.732   5.300  0.00  0.00     0.030 A 
BRANCH  10  13
ATOM     13  C   UNL d   1       0.301  -2.119   2.831  0.00  0.00     0.118 C 
ATOM     14  N   UNL d   1      -0.663  -2.755   2.242  0.00  0.00    -0.307 N 
ATOM     15  HN  UNL d   1      -0.889  -3.718   2.491  1.00  0.00     0.186 HD
BRANCH  14  16
ATOM     16  N   UNL d   1      -1.361  -2.094   1.282  0.00  0.00    -0.246 N 
ATOM     17  C   UNL d   1      -2.421  -2.680   0.614  0.00  0.00     0.379 C 
ATOM     18  O   UNL d   1      -3.090  -2.054  -0.203  0.00  0.00    -0.237 OA
ATOM     19  H   UNL d   1      -1.168  -1.125   1.070  0.00  0.00     0.192 HD
BRANCH  17  20
ATOM     20  O   UNL d   1      -2.628  -3.981   0.955  0.00  0.00    -0.303 OA
BRANCH  20  21
ATOM     21  C   UNL d   1      -3.745  -4.634   0.333  0.00  0.00     0.176 C 
ATOM     22  C   UNL d   1      -3.367  -5.172  -1.035  0.00  0.00     0.034 C 
ENDBRANCH  20  21
ENDBRANCH  17  20
ENDBRANCH  14  16
ENDBRANCH  10  13
ENDBRANCH   5   7
ENDBRANCH   4   5
ENDBRANCH   3   4
TORSDOF 7
