REMARK  6 active torsions:
REMARK  status: ('A' for Active; 'I' for Inactive)
REMARK       I    between atoms: C_2  and  N_1 
REMARK    1  A    between atoms: C_3  and  N_1 
REMARK    2  A    between atoms: C_4  and  C_2 
REMARK    3  A    between atoms: C_8  and  C_3 
REMARK    4  A    between atoms: C_5  and  C_16 
REMARK    5  A    between atoms: O_15  and  C_11 
REMARK    6  A    between atoms: C_16  and  O_15 
ROOT
ATOM      1  N   UNL d   1       1.364   0.055   0.208  0.00  0.00    -0.308 N 
ATOM      2  C   UNL d   1       0.429  -0.511   1.068  0.00  0.00     0.258 C 
ATOM      3  O   UNL d   1      -0.781  -0.490   0.877  0.00  0.00    -0.267 OA
ATOM      4  H   UNL d   1       2.322   0.062   0.518  0.00  0.00     0.170 HD
ENDROOT
BRANCH   2   5
ATOM      5  C   UNL d   1       0.958  -1.138   2.301  0.00  0.00     0.048 A 
ATOM      6  C   UNL d   1       0.165  -1.145   3.438  0.00  0.00     0.107 A 
ATOM      7  N   UNL d   1       0.530  -1.724   4.609  0.00  0.00    -0.346 N 
ATOM      8  C   UNL d   1       1.721  -2.352   4.659  0.00  0.00     0.142 A 
ATOM      9  HN  UNL d   1      -0.078  -1.685   5.426  1.00  0.00     0.167 HD
ATOM     10  C   UNL d   1       2.571  -2.418   3.562  0.00  0.00     0.057 A 
ATOM     11  C   UNL d   1       2.189  -1.794   2.368  0.00  0.00     0.022 A 
BRANCH   8  12
ATOM     12  O   UNL d   1       1.952  -2.941   5.864  0.00  0.00    -0.327 OA
BRANCH  12  13
ATOM     13  C   UNL d   1       3.315  -3.133   6.244  0.00  0.00     0.294 C 
BRANCH  13  14
ATOM     14  C   UNL d   1       3.465  -3.175   7.763  0.00  0.00     0.408 C 
ATOM     15  F   UNL d   1       2.290  -3.098   8.421  0.00  0.00    -0.169 F 
ATOM     16  F   UNL d   1       4.075  -4.320   8.152  0.00  0.00    -0.169 F 
ATOM     17  F   UNL d   1       4.240  -2.148   8.191  0.00  0.00    -0.169 F 
ENDBRANCH  13  14
ENDBRANCH  12  13
ENDBRANCH   8  12
ENDBRANCH   2   5
BRANCH   1  18
ATOM     18  C   UNL d   1       1.111   0.518  -1.072  0.00  0.00     0.112 C 
ATOM     19  N   UNL d   1      -0.072   0.505  -1.581  0.00  0.00    -0.385 N 
ATOM     20  H   UNL d   1      -0.742   0.142  -0.879  0.00  0.00     0.157 HD
ATOM     21  HN  UNL d   1      -0.311   0.805  -2.526  1.00  0.00     0.157 HD
BRANCH  18  22
ATOM     22  C   UNL d   1       2.273   0.994  -1.877  0.00  0.00     0.008 A 
ATOM     23  C   UNL d   1       2.186   0.912  -3.275  0.00  0.00     0.017 A 
ATOM     24  C   UNL d   1       3.256   1.313  -4.081  0.00  0.00     0.025 A 
ATOM     25  C   UNL d   1       4.416   1.806  -3.489  0.00  0.00     0.034 A 
ATOM     26  C   UNL d   1       4.507   1.915  -2.102  0.00  0.00     0.025 A 
ATOM     27 CL   UNL d   1       5.741   2.290  -4.473  0.00  0.00    -0.084 Cl
ATOM     28  C   UNL d   1       3.436   1.515  -1.293  0.00  0.00     0.017 A 
ENDBRANCH  18  22
ENDBRANCH   1  18
TORSDOF 6
