REMARK  8 active torsions:
REMARK  status: ('A' for Active; 'I' for Inactive)
REMARK    1  A    between atoms: N_5  and  C_1 
REMARK    2  A    between atoms: N_7  and  C_1 
REMARK    3  A    between atoms: N_2  and  N_7 
REMARK    4  A    between atoms: O_21  and  C_4 
REMARK    5  A    between atoms: C_15  and  N_5 
REMARK    6  A    between atoms: O_22  and  C_8 
REMARK    7  A    between atoms: C_17  and  C_9 
REMARK    8  A    between atoms: C_16  and  C_14 
ROOT
ATOM      1  N   UNL d   1       2.591   0.188   0.102  0.00  0.00    -0.276 N 
ATOM      2  H   UNL d   1       3.067  -0.180   0.920  0.00  0.00     0.189 HD
ENDROOT
BRANCH   1   3
ATOM      3  N   UNL d   1       3.309   0.598  -0.984  0.00  0.00    -0.309 N 
ATOM      4  C   UNL d   1       4.598   0.489  -0.854  0.00  0.00     0.118 C 
ATOM      5  HN  UNL d   1       2.870   0.961  -1.830  1.00  0.00     0.186 HD
BRANCH   4   6
ATOM      6  C   UNL d   1       5.527   0.849  -1.949  0.00  0.00    -0.017 A 
ATOM      7  C   UNL d   1       6.914   0.741  -1.761  0.00  0.00     0.052 A 
ATOM      8  C   UNL d   1       7.804   1.084  -2.801  0.00  0.00     0.102 A 
ATOM      9  C   UNL d   1       7.284   1.512  -4.035  0.00  0.00     0.101 A 
ATOM     10  C   UNL d   1       5.895   1.600  -4.204  0.00  0.00     0.040 A 
ATOM     11  C   UNL d   1       5.019   1.277  -3.171  0.00  0.00     0.016 A 
BRANCH   8  12
ATOM     12  O   UNL d   1       9.160   0.955  -2.672  0.00  0.00    -0.353 OA
ATOM     13  C   UNL d   1       9.712   1.106  -1.369  0.00  0.00     0.210 C 
ENDBRANCH   8  12
BRANCH   9  14
ATOM     14  O   UNL d   1       7.954   1.878  -5.172  0.00  0.00    -0.353 OA
ATOM     15  C   UNL d   1       9.372   1.943  -5.155  0.00  0.00     0.210 C 
ENDBRANCH   9  14
ENDBRANCH   4   6
ENDBRANCH   1   3
BRANCH   1  16
ATOM     16  C   UNL d   1       1.219   0.029   0.068  0.00  0.00     0.191 C 
ATOM     17  S   UNL d   1       0.491  -0.657   1.410  0.00  0.00    -0.039 SA
BRANCH  16  18
ATOM     18  N   UNL d   1       0.617   0.510  -1.073  0.00  0.00    -0.332 N 
ATOM     19  H   UNL d   1       1.167   1.229  -1.528  0.00  0.00     0.168 HD
BRANCH  18  20
ATOM     20  C   UNL d   1      -0.652   0.207  -1.615  0.00  0.00     0.034 A 
ATOM     21  C   UNL d   1      -1.302   1.167  -2.394  0.00  0.00     0.030 A 
ATOM     22  C   UNL d   1      -2.529   0.876  -3.011  0.00  0.00     0.010 A 
ATOM     23  C   UNL d   1      -3.107  -0.397  -2.902  0.00  0.00    -0.055 A 
ATOM     24  C   UNL d   1      -2.444  -1.355  -2.124  0.00  0.00     0.010 A 
ATOM     25  C   UNL d   1      -1.236  -1.053  -1.486  0.00  0.00     0.030 A 
BRANCH  23  26
ATOM     26  C   UNL d   1      -4.390  -0.774  -3.624  0.00  0.00     0.010 C 
ATOM     27  C   UNL d   1      -5.584   0.070  -3.178  0.00  0.00     0.015 C 
ATOM     28  C   UNL d   1      -4.217  -0.708  -5.145  0.00  0.00     0.015 C 
ENDBRANCH  23  26
ENDBRANCH  18  20
ENDBRANCH  16  18
ENDBRANCH   1  16
TORSDOF 8
