REMARK  6 active torsions:
REMARK  status: ('A' for Active; 'I' for Inactive)
REMARK    1  A    between atoms: C_2  and  N_1 
REMARK    2  A    between atoms: C_5  and  C_2 
REMARK    3  A    between atoms: C_6  and  C_2 
REMARK    4  A    between atoms: C_7  and  C_2 
REMARK    5  A    between atoms: O_8  and  C_6 
REMARK    6  A    between atoms: O_9  and  C_7 
ROOT
ATOM      1  C   UNL d   1       0.307   1.377  -0.141  0.00  0.00     0.165 C 
ENDROOT
BRANCH   1   2
ATOM      2  N   UNL d   1       1.089   0.053  -0.048  0.00  0.00    -0.136 N 
ATOM      3  O   UNL d   1       1.432  -0.521  -1.093  0.00  0.00    -0.535 OA
ATOM      4  O   UNL d   1       1.371  -0.358   1.091  0.00  0.00    -0.535 OA
ENDBRANCH   1   2
BRANCH   1   5
ATOM      5  C   UNL d   1      -0.598   1.345  -1.391  0.00  0.00    -0.020 A 
ATOM      6  C   UNL d   1      -1.537   0.308  -1.584  0.00  0.00     0.010 A 
ATOM      7  C   UNL d   1      -2.389   0.298  -2.693  0.00  0.00     0.001 A 
ATOM      8  C   UNL d   1      -2.331   1.323  -3.630  0.00  0.00     0.000 A 
ATOM      9  C   UNL d   1      -1.418   2.358  -3.461  0.00  0.00     0.001 A 
ATOM     10  C   UNL d   1      -0.564   2.369  -2.354  0.00  0.00     0.010 A 
ENDBRANCH   1   5
BRANCH   1  11
ATOM     11  C   UNL d   1      -0.602   1.469   1.117  0.00  0.00     0.209 C 
BRANCH  11  12
ATOM     12  O   UNL d   1       0.108   1.691   2.341  0.00  0.00    -0.398 OA
ATOM     13  H   UNL d   1       0.599   0.865   2.541  0.00  0.00     0.209 HD
ENDBRANCH  11  12
ENDBRANCH   1  11
BRANCH   1  14
ATOM     14  C   UNL d   1       1.384   2.488  -0.075  0.00  0.00     0.209 C 
BRANCH  14  15
ATOM     15  O   UNL d   1       2.284   2.481  -1.185  0.00  0.00    -0.398 OA
ATOM     16  H   UNL d   1       3.195   2.484  -0.840  0.00  0.00     0.209 HD
ENDBRANCH  14  15
ENDBRANCH   1  14
TORSDOF 6
