REMARK  3 active torsions:
REMARK  status: ('A' for Active; 'I' for Inactive)
REMARK    1  A    between atoms: N_4  and  C_1 
REMARK       I    between atoms: C_2  and  N_3 
REMARK    2  A    between atoms: C_6  and  C_2 
REMARK    3  A    between atoms: N_3  and  N_4 
ROOT
ATOM      1  C   UNL d   1       0.344  -2.940   2.159  0.00  0.00     0.270 C 
ATOM      2  N   UNL d   1       0.981  -3.502   1.062  0.00  0.00    -0.264 N 
ATOM      3  O   UNL d   1       0.942  -2.396   3.084  0.00  0.00    -0.266 OA
ATOM      4  H   UNL d   1       0.540  -4.282   0.582  0.00  0.00     0.190 HD
ENDROOT
BRANCH   1   5
ATOM      5  C   UNL d   1      -1.134  -3.051   2.175  0.00  0.00     0.033 A 
ATOM      6  C   UNL d   1      -1.791  -3.199   3.403  0.00  0.00     0.019 A 
ATOM      7  C   UNL d   1      -3.187  -3.259   3.445  0.00  0.00     0.025 A 
ATOM      8  C   UNL d   1      -3.921  -3.154   2.264  0.00  0.00     0.034 A 
ATOM      9  C   UNL d   1      -3.273  -2.996   1.039  0.00  0.00     0.025 A 
ATOM     10 CL   UNL d   1      -5.639  -3.204   2.317  0.00  0.00    -0.084 Cl
ATOM     11  C   UNL d   1      -1.877  -2.944   0.991  0.00  0.00     0.019 A 
ENDBRANCH   1   5
BRANCH   2  12
ATOM     12  N   UNL d   1       2.378  -3.484   1.076  0.00  0.00    -0.274 N 
ATOM     13  H   UNL d   1       2.820  -3.042   1.885  0.00  0.00     0.189 HD
BRANCH  12  14
ATOM     14  C   UNL d   1       3.136  -3.903   0.030  0.00  0.00     0.184 C 
ATOM     15  S   UNL d   1       4.792  -3.813   0.051  0.00  0.00    -0.040 SA
ATOM     16  N   UNL d   1       2.484  -4.438  -1.032  0.00  0.00    -0.375 N 
ATOM     17  H   UNL d   1       1.562  -4.088  -1.247  0.00  0.00     0.158 HD
ATOM     18  H   UNL d   1       3.062  -4.655  -1.837  0.00  0.00     0.158 HD
ENDBRANCH  12  14
ENDBRANCH   2  12
TORSDOF 3
