REMARK  5 active torsions:
REMARK  status: ('A' for Active; 'I' for Inactive)
REMARK    1  A    between atoms: C_6  and  S_1 
REMARK    2  A    between atoms: C_18  and  S_1 
REMARK       I    between atoms: C_2  and  N_7 
REMARK       I    between atoms: N_3  and  C_2 
REMARK    3  A    between atoms: C_4  and  N_3 
REMARK    4  A    between atoms: N_7  and  C_16 
REMARK    5  A    between atoms: C_23  and  C_18 
ROOT
ATOM      1  C   UNL d   1      -1.725   1.792  -6.159  0.00  0.00     0.325 C 
ATOM      2  N   UNL d   1      -2.539   1.413  -7.186  0.00  0.00    -0.307 N 
ATOM      3  N   UNL d   1      -0.868   0.855  -5.653  0.00  0.00    -0.309 N 
ATOM      4  O   UNL d   1      -1.957   2.898  -5.671  0.00  0.00    -0.247 OA
ATOM      5  H   UNL d   1      -3.353   2.019  -7.192  0.00  0.00     0.170 HD
ATOM      6  H   UNL d   1      -0.766   0.011  -6.195  0.00  0.00     0.170 HD
ENDROOT
BRANCH   3   7
ATOM      7  C   UNL d   1      -0.210   0.894  -4.401  0.00  0.00     0.036 A 
ATOM      8  C   UNL d   1      -0.271   1.984  -3.525  0.00  0.00     0.031 A 
ATOM      9  C   UNL d   1       0.261   1.901  -2.233  0.00  0.00     0.025 A 
ATOM     10  C   UNL d   1       0.875   0.723  -1.815  0.00  0.00     0.059 A 
ATOM     11  C   UNL d   1       0.996  -0.357  -2.692  0.00  0.00     0.025 A 
ATOM     12  C   UNL d   1       0.466  -0.262  -3.986  0.00  0.00     0.031 A 
BRANCH  10  13
ATOM     13  S   UNL d   1       1.324   0.529  -0.103  0.00  0.00     0.175 S 
ATOM     14  O   UNL d   1       1.220  -0.886   0.201  0.00  0.00    -0.223 OA
ATOM     15  O   UNL d   1       0.564   1.505   0.655  0.00  0.00    -0.223 OA
BRANCH  13  16
ATOM     16  C   UNL d   1       3.045   0.990  -0.036  0.00  0.00     0.145 C 
BRANCH  16  17
ATOM     17  C   UNL d   1       3.586   0.838   1.383  0.00  0.00     0.011 C 
ATOM     18  C   UNL d   1       5.053   1.217   1.477  0.00  0.00     0.006 C 
ENDBRANCH  16  17
ENDBRANCH  13  16
ENDBRANCH  10  13
ENDBRANCH   3   7
BRANCH   2  19
ATOM     19  C   UNL d   1      -2.532   0.384  -8.145  0.00  0.00     0.058 A 
ATOM     20  C   UNL d   1      -1.405  -0.191  -8.756  0.00  0.00     0.062 A 
ATOM     21  C   UNL d   1      -1.564  -1.136  -9.781  0.00  0.00     0.050 A 
ATOM     22 CL   UNL d   1       0.215   0.307  -8.430  0.00  0.00    -0.082 Cl
ATOM     23  C   UNL d   1      -2.838  -1.514 -10.198  0.00  0.00     0.035 A 
ATOM     24  C   UNL d   1      -3.963  -0.957  -9.604  0.00  0.00     0.026 A 
ATOM     25 CL   UNL d   1      -3.023  -2.649 -11.477  0.00  0.00    -0.084 Cl
ATOM     26  C   UNL d   1      -3.807  -0.004  -8.595  0.00  0.00     0.033 A 
ENDBRANCH   2  19
TORSDOF 5
