REMARK  4 active torsions:
REMARK  status: ('A' for Active; 'I' for Inactive)
REMARK    1  A    between atoms: C_5  and  C_1 
REMARK    2  A    between atoms: C_8  and  C_2 
REMARK    3  A    between atoms: C_6  and  N_10 
REMARK       I    between atoms: N_11  and  C_8 
REMARK    4  A    between atoms: N_10  and  N_11 
ROOT
ATOM      1  C   UNL d   1      -1.382  -0.696   0.076  0.00  0.00     0.088 A 
ATOM      2  C   UNL d   1      -0.100  -1.333   0.008  0.00  0.00     0.094 A 
ATOM      3  N   UNL d   1      -1.238   0.634  -0.061  0.00  0.00    -0.259 N 
ATOM      4  HN  UNL d   1      -1.988   1.325  -0.087  1.00  0.00     0.195 HD
ATOM      5  O   UNL d   1       0.107   0.884  -0.159  0.00  0.00    -0.241 OA
ATOM      6  C   UNL d   1       0.790  -0.283  -0.120  0.00  0.00     0.090 A 
ATOM      7  C   UNL d   1       2.261  -0.161  -0.187  0.00  0.00     0.080 C 
ENDROOT
BRANCH   2   8
ATOM      8  C   UNL d   1       0.301  -2.721   0.046  0.00  0.00     0.275 C 
ATOM      9  N   UNL d   1      -0.353  -3.505   0.992  0.00  0.00    -0.265 N 
ATOM     10  H   UNL d   1      -0.858  -3.038   1.741  0.00  0.00     0.190 HD
ATOM     11  O   UNL d   1       1.206  -3.163  -0.660  0.00  0.00    -0.266 OA
BRANCH   9  12
ATOM     12  N   UNL d   1       0.308  -4.686   1.342  0.00  0.00    -0.295 N 
ATOM     13  H   UNL d   1       0.677  -5.188   0.522  0.00  0.00     0.187 HD
BRANCH  12  14
ATOM     14  C   UNL d   1      -0.249  -5.549   2.322  0.00  0.00     0.091 A 
ATOM     15  C   UNL d   1      -1.075  -5.151   3.396  0.00  0.00     0.063 A 
ATOM     16 CL   UNL d   1      -1.701  -3.543   3.581  0.00  0.00    -0.082 Cl
ATOM     17  C   UNL d   1      -1.427  -6.053   4.414  0.00  0.00     0.026 A 
ATOM     18  C   UNL d   1      -0.957  -7.364   4.402  0.00  0.00     0.003 A 
ATOM     19  C   UNL d   1      -0.141  -7.786   3.361  0.00  0.00     0.026 A 
ATOM     20  C   UNL d   1       0.208  -6.892   2.343  0.00  0.00     0.063 A 
ATOM     21 CL   UNL d   1       1.241  -7.495   1.084  0.00  0.00    -0.082 Cl
ENDBRANCH  12  14
ENDBRANCH   9  12
ENDBRANCH   2   8
BRANCH   1  22
ATOM     22  C   UNL d   1      -2.724  -1.272   0.196  0.00  0.00     0.054 A 
ATOM     23  C   UNL d   1      -3.064  -2.403  -0.558  0.00  0.00     0.130 A 
ATOM     24  F   UNL d   1      -2.166  -2.971  -1.377  0.00  0.00    -0.205 F 
ATOM     25  C   UNL d   1      -4.335  -2.976  -0.503  0.00  0.00     0.043 A 
ATOM     26  C   UNL d   1      -5.318  -2.405   0.296  0.00  0.00     0.005 A 
ATOM     27  C   UNL d   1      -5.015  -1.274   1.049  0.00  0.00     0.025 A 
ATOM     28  C   UNL d   1      -3.727  -0.716   1.014  0.00  0.00     0.049 A 
ATOM     29 CL   UNL d   1      -3.463   0.636   2.065  0.00  0.00    -0.083 Cl
ENDBRANCH   1  22
TORSDOF 4
