REMARK  5 active torsions:
REMARK  status: ('A' for Active; 'I' for Inactive)
REMARK    1  A    between atoms: N_2  and  S_1 
REMARK    2  A    between atoms: C_9  and  S_1 
REMARK    3  A    between atoms: C_3  and  N_2 
REMARK       I    between atoms: C_4  and  N_14 
REMARK       I    between atoms: N_10  and  C_4 
REMARK    4  A    between atoms: C_11  and  N_10 
REMARK    5  A    between atoms: N_14  and  C_25 
ROOT
ATOM      1  C   UNL d   1       0.238   1.416   0.844  0.00  0.00     0.075 A 
ATOM      2  C   UNL d   1      -0.699   1.149   1.848  0.00  0.00     0.027 A 
ATOM      3  C   UNL d   1       0.831   2.675   0.770  0.00  0.00     0.027 A 
ATOM      4  C   UNL d   1      -0.303   3.351   2.820  0.00  0.00     0.036 A 
ATOM      5  C   UNL d   1       0.539   3.638   1.740  0.00  0.00     0.031 A 
ATOM      6  C   UNL d   1      -0.974   2.120   2.827  0.00  0.00     0.031 A 
ENDROOT
BRANCH   1   7
ATOM      7  S   UNL d   1       0.905   0.086  -0.156  0.00  0.00     0.248 S 
ATOM      8  O   UNL d   1       2.272   0.436  -0.491  0.00  0.00    -0.205 OA
ATOM      9  O   UNL d   1       0.623  -1.139   0.572  0.00  0.00    -0.205 OA
BRANCH   7  10
ATOM     10  N   UNL d   1      -0.035   0.019  -1.540  0.00  0.00    -0.151 NA
ATOM     11  H   UNL d   1      -0.985  -0.245  -1.310  0.00  0.00     0.149 HD
BRANCH  10  12
ATOM     12  C   UNL d   1      -0.013   1.184  -2.297  0.00  0.00     0.171 A 
ATOM     13  N   UNL d   1       0.928   1.314  -3.230  0.00  0.00    -0.336 N 
ATOM     14  C   UNL d   1       0.938   2.486  -3.894  0.00  0.00     0.009 A 
ATOM     15  HN  UNL d   1       1.599   0.572  -3.429  1.00  0.00     0.168 HD
ATOM     16  C   UNL d   1       1.957   2.664  -4.981  0.00  0.00     0.068 C 
ATOM     17  C   UNL d   1       0.058   3.510  -3.594  0.00  0.00     0.049 A 
ATOM     18  C   UNL d   1      -0.861   3.265  -2.590  0.00  0.00     0.009 A 
ATOM     19  N   UNL d   1      -0.927   2.085  -1.944  0.00  0.00    -0.336 N 
ATOM     20  C   UNL d   1      -1.808   4.337  -2.147  0.00  0.00     0.068 C 
ATOM     21  HN  UNL d   1      -1.631   1.894  -1.231  1.00  0.00     0.168 HD
ENDBRANCH  10  12
ENDBRANCH   7  10
ENDBRANCH   1   7
BRANCH   4  22
ATOM     22  N   UNL d   1      -0.436   4.201   3.953  0.00  0.00    -0.309 N 
ATOM     23  C   UNL d   1       0.335   5.329   4.210  0.00  0.00     0.325 C 
ATOM     24  N   UNL d   1       0.144   5.833   5.486  0.00  0.00    -0.308 N 
ATOM     25  O   UNL d   1       1.127   5.817   3.407  0.00  0.00    -0.247 OA
ATOM     26  H   UNL d   1      -0.521   5.386   6.097  0.00  0.00     0.170 HD
ATOM     27  H   UNL d   1      -1.020   3.862   4.701  0.00  0.00     0.170 HD
BRANCH  24  28
ATOM     28  C   UNL d   1       0.872   6.900   6.022  0.00  0.00     0.043 A 
ATOM     29  C   UNL d   1       1.881   7.689   5.380  0.00  0.00     0.037 A 
ATOM     30  C   UNL d   1       2.426   8.650   6.203  0.00  0.00     0.052 A 
ATOM     31  S   UNL d   1       1.717   8.629   7.754  0.00  0.00    -0.111 SA
ATOM     32  C   UNL d   1       0.686   7.328   7.322  0.00  0.00     0.079 A 
ENDBRANCH  24  28
ENDBRANCH   4  22
TORSDOF 5
