REMARK  7 active torsions:
REMARK  status: ('A' for Active; 'I' for Inactive)
REMARK    1  A    between atoms: C_7  and  C_1 
REMARK    2  A    between atoms: C_10  and  C_2 
REMARK    3  A    between atoms: C_17  and  N_3 
REMARK    4  A    between atoms: S_4  and  N_9 
REMARK    5  A    between atoms: C_13  and  S_4 
REMARK    6  A    between atoms: N_9  and  N_12 
REMARK       I    between atoms: N_12  and  C_10 
REMARK    7  A    between atoms: C_11  and  C_16 
ROOT
ATOM      1  C   UNL d   1      -0.740  -2.709   0.038  0.00  0.00     0.274 C 
ATOM      2  N   UNL d   1       0.121  -3.785   0.118  0.00  0.00    -0.256 N 
ATOM      3  O   UNL d   1      -1.957  -2.881  -0.022  0.00  0.00    -0.266 OA
ATOM      4  H   UNL d   1       1.130  -3.697   0.226  0.00  0.00     0.191 HD
ENDROOT
BRANCH   1   5
ATOM      5  C   UNL d   1      -0.171  -1.355   0.036  0.00  0.00     0.084 C 
ATOM      6  C   UNL d   1       1.132  -0.850  -0.011  0.00  0.00     0.157 C 
ATOM      7  N   UNL d   1       1.029   0.538  -0.029  0.00  0.00    -0.251 N 
ATOM      8  N   UNL d   1      -0.245   0.931   0.206  0.00  0.00    -0.303 N 
ATOM      9  C   UNL d   1      -0.961  -0.188   0.156  0.00  0.00     0.127 C 
ATOM     10  HN  UNL d   1      -0.582   1.878   0.383  1.00  0.00     0.186 HD
BRANCH   6  11
ATOM     11  C   UNL d   1       2.452  -1.493   0.071  0.00  0.00     0.435 C 
ATOM     12  F   UNL d   1       2.350  -2.788   0.467  0.00  0.00    -0.165 F 
ATOM     13  F   UNL d   1       3.091  -1.527  -1.120  0.00  0.00    -0.165 F 
ATOM     14  F   UNL d   1       3.269  -0.898   0.971  0.00  0.00    -0.165 F 
ENDBRANCH   6  11
BRANCH   7  15
ATOM     15  C   UNL d   1       2.038   1.536  -0.188  0.00  0.00     0.057 A 
ATOM     16  C   UNL d   1       3.130   1.349  -1.044  0.00  0.00     0.031 A 
ATOM     17  C   UNL d   1       4.160   2.293  -1.092  0.00  0.00     0.002 A 
ATOM     18  C   UNL d   1       4.093   3.442  -0.307  0.00  0.00     0.000 A 
ATOM     19  C   UNL d   1       2.973   3.673   0.488  0.00  0.00     0.002 A 
ATOM     20  C   UNL d   1       1.936   2.734   0.535  0.00  0.00     0.031 A 
ENDBRANCH   7  15
ENDBRANCH   1   5
BRANCH   2  21
ATOM     21  N   UNL d   1      -0.410  -5.153   0.142  0.00  0.00    -0.220 N 
ATOM     22  H   UNL d   1      -1.420  -5.306   0.058  0.00  0.00     0.200 HD
BRANCH  21  23
ATOM     23  S   UNL d   1       0.692  -6.430   0.187  0.00  0.00     0.276 S 
ATOM     24  O   UNL d   1       1.380  -6.439  -1.088  0.00  0.00    -0.199 OA
ATOM     25  O   UNL d   1       1.435  -6.305   1.423  0.00  0.00    -0.199 OA
BRANCH  23  26
ATOM     26  C   UNL d   1      -0.299  -7.904   0.277  0.00  0.00     0.081 A 
ATOM     27  C   UNL d   1      -0.751  -8.503  -0.902  0.00  0.00     0.026 A 
ATOM     28  C   UNL d   1      -1.355  -9.768  -0.853  0.00  0.00     0.018 A 
ATOM     29  C   UNL d   1      -1.497 -10.447   0.372  0.00  0.00     0.048 A 
ATOM     30  C   UNL d   1      -1.053  -9.827   1.549  0.00  0.00     0.018 A 
ATOM     31  C   UNL d   1      -0.450  -8.561   1.502  0.00  0.00     0.026 A 
BRANCH  29  32
ATOM     32  C   UNL d   1      -2.079 -11.846   0.423  0.00  0.00     0.417 C 
ATOM     33  F   UNL d   1      -2.435 -12.335  -0.797  0.00  0.00    -0.166 F 
ATOM     34  F   UNL d   1      -1.199 -12.750   0.943  0.00  0.00    -0.166 F 
ATOM     35  F   UNL d   1      -3.192 -11.919   1.199  0.00  0.00    -0.166 F 
ENDBRANCH  29  32
ENDBRANCH  23  26
ENDBRANCH  21  23
ENDBRANCH   2  21
TORSDOF 7
