REMARK  0 active torsions:
REMARK  status: ('A' for Active; 'I' for Inactive)
ROOT
ATOM      1  C   UNL d   1       1.916   0.855   0.325  0.00  0.00     0.137 A 
ATOM      2  C   UNL d   1       1.386   1.957  -0.289  0.00  0.00     0.133 A 
ATOM      3  C   UNL d   1       0.742   2.421   0.946  0.00  0.00     0.254 A 
ATOM      4  C   UNL d   1       1.348   1.237   1.627  0.00  0.00     0.254 A 
ATOM      5  N   UNL d   1       2.666  -0.142  -0.106  0.00  0.00    -0.289 N 
ATOM      6  N   UNL d   1       1.472   2.395  -1.526  0.00  0.00    -0.306 N 
ATOM      7  N   UNL d   1       2.603  -0.534  -1.441  0.00  0.00    -0.290 N 
ATOM      8  HN  UNL d   1       2.691  -1.522  -1.680  1.00  0.00     0.188 HD
ATOM      9  N   UNL d   1       2.456   1.751  -2.310  0.00  0.00    -0.191 NA
ATOM     10  C   UNL d   1       2.432   0.347  -2.392  0.00  0.00     0.085 C 
ATOM     11  O   UNL d   1       0.072   3.345   1.335  0.00  0.00    -0.281 OA
ATOM     12  O   UNL d   1       1.326   0.844   2.768  0.00  0.00    -0.281 OA
ATOM     13  C   UNL d   1       3.068  -1.220   0.800  0.00  0.00     0.178 C 
ATOM     14  C   UNL d   1       1.083   3.744  -1.919  0.00  0.00     0.172 C 
ATOM     15  C   UNL d   1       2.221  -0.198  -3.788  0.00  0.00     0.085 C 
ATOM     16  H   UNL d   1       3.370   1.994  -1.921  0.00  0.00     0.154 HD
ENDROOT
TORSDOF 0
