REMARK  4 active torsions:
REMARK  status: ('A' for Active; 'I' for Inactive)
REMARK    1  A    between atoms: N_2  and  C_1 
REMARK    2  A    between atoms: C_3  and  S_11 
REMARK    3  A    between atoms: C_4  and  C_12 
REMARK    4  A    between atoms: S_11  and  C_5 
ROOT
ATOM      1  C   UNL d   1       1.040  -0.264  -0.883  0.00  0.00     0.120 A 
ATOM      2  C   UNL d   1       0.683  -1.326  -0.040  0.00  0.00     0.041 A 
ATOM      3  C   UNL d   1       0.643   1.062  -0.626  0.00  0.00     0.053 A 
ATOM      4  C   UNL d   1      -0.148   1.352   0.494  0.00  0.00     0.050 A 
ATOM      5  C   UNL d   1      -0.118  -1.019   1.072  0.00  0.00     0.022 A 
ATOM      6  C   UNL d   1      -0.528   0.296   1.335  0.00  0.00     0.017 A 
ENDROOT
BRANCH   2   7
ATOM      7  S   UNL d   1       1.119  -3.044  -0.271  0.00  0.00    -0.052 SA
BRANCH   7   8
ATOM      8  C   UNL d   1       2.853  -3.086   0.133  0.00  0.00     0.149 A 
ATOM      9  N   UNL d   1       3.515  -1.923   0.256  0.00  0.00    -0.341 N 
ATOM     10  C   UNL d   1       4.834  -1.999   0.524  0.00  0.00     0.009 A 
ATOM     11  HN  UNL d   1       3.042  -1.026   0.150  1.00  0.00     0.167 HD
ATOM     12  C   UNL d   1       5.586  -0.709   0.655  0.00  0.00     0.068 C 
ATOM     13  C   UNL d   1       5.490  -3.203   0.683  0.00  0.00     0.049 A 
ATOM     14  C   UNL d   1       4.725  -4.346   0.560  0.00  0.00     0.009 A 
ATOM     15  N   UNL d   1       3.406  -4.302   0.281  0.00  0.00    -0.341 N 
ATOM     16  C   UNL d   1       5.351  -5.696   0.746  0.00  0.00     0.068 C 
ATOM     17  HN  UNL d   1       2.854  -5.154   0.186  1.00  0.00     0.167 HD
ENDBRANCH   7   8
ENDBRANCH   2   7
BRANCH   1  18
ATOM     18  N   UNL d   1       1.805  -0.488  -2.098  0.00  0.00    -0.114 N 
ATOM     19  O   UNL d   1       1.301  -1.222  -2.959  0.00  0.00    -0.532 OA
ATOM     20  O   UNL d   1       2.860   0.148  -2.223  0.00  0.00    -0.532 OA
ENDBRANCH   1  18
BRANCH   4  21
ATOM     21  C   UNL d   1      -0.597   2.764   0.794  0.00  0.00     0.417 C 
ATOM     22  F   UNL d   1      -0.135   3.680  -0.101  0.00  0.00    -0.166 F 
ATOM     23  F   UNL d   1      -1.952   2.888   0.791  0.00  0.00    -0.166 F 
ATOM     24  F   UNL d   1      -0.182   3.191   2.018  0.00  0.00    -0.166 F 
ENDBRANCH   4  21
TORSDOF 4
