REMARK  3 active torsions:
REMARK  status: ('A' for Active; 'I' for Inactive)
REMARK    1  A    between atoms: C_8  and  C_3 
REMARK    2  A    between atoms: S_10  and  C_4 
REMARK    3  A    between atoms: C_14  and  S_10 
ROOT
ATOM      1  N   UNL d   1      -1.152  -5.150  -0.904  0.00  0.00    -0.328 N 
ATOM      2  HN  UNL d   1      -0.990  -4.951  -1.892  1.00  0.00     0.168 HD
ATOM      3  C   UNL d   1      -1.904  -6.212  -0.398  0.00  0.00     0.130 A 
ATOM      4  C   UNL d   1      -0.689  -4.451   0.107  0.00  0.00     0.135 A 
ATOM      5  N   UNL d   1      -2.011  -6.354   0.931  0.00  0.00    -0.309 N 
ATOM      6  HN  UNL d   1      -2.524  -7.083   1.425  1.00  0.00     0.176 HD
ATOM      7  S   UNL d   1      -1.143  -5.107   1.620  0.00  0.00     0.013 SA
ENDROOT
BRANCH   4   8
ATOM      8  S   UNL d   1       0.213  -2.972  -0.096  0.00  0.00    -0.064 SA
BRANCH   8   9
ATOM      9  C   UNL d   1       1.860  -3.654  -0.041  0.00  0.00     0.007 A 
ATOM     10  C   UNL d   1       2.327  -4.493  -1.057  0.00  0.00     0.019 A 
ATOM     11  C   UNL d   1       3.635  -4.983  -1.022  0.00  0.00     0.008 A 
ATOM     12  C   UNL d   1       4.497  -4.636   0.025  0.00  0.00    -0.062 A 
ATOM     13  C   UNL d   1       4.031  -3.789   1.037  0.00  0.00     0.008 A 
ATOM     14  C   UNL d   1       5.902  -5.161   0.041  0.00  0.00     0.048 C 
ATOM     15  C   UNL d   1       2.722  -3.299   1.001  0.00  0.00     0.019 A 
ENDBRANCH   8   9
ENDBRANCH   4   8
BRANCH   3  16
ATOM     16  C   UNL d   1      -2.600  -7.171  -1.327  0.00  0.00     0.049 A 
ATOM     17  S   UNL d   1      -2.468  -7.114  -3.030  0.00  0.00    -0.098 SA
ATOM     18  C   UNL d   1      -3.511  -8.459  -3.220  0.00  0.00     0.050 A 
ATOM     19  C   UNL d   1      -3.960  -8.938  -2.009  0.00  0.00     0.009 A 
ATOM     20  C   UNL d   1      -3.428  -8.196  -0.913  0.00  0.00     0.023 A 
ENDBRANCH   3  16
TORSDOF 3
