REMARK  4 active torsions:
REMARK  status: ('A' for Active; 'I' for Inactive)
REMARK    1  A    between atoms: C_6  and  C_2 
REMARK    2  A    between atoms: N_9  and  C_3 
REMARK    3  A    between atoms: O_11  and  C_6 
REMARK    4  A    between atoms: C_13  and  O_11 
ROOT
ATOM      1  C   UNL d   1      -0.243  -1.056   0.045  0.00  0.00     0.085 A 
ATOM      2  C   UNL d   1      -0.356   1.282   0.026  0.00  0.00     0.089 A 
ATOM      3  C   UNL d   1       1.098  -0.740   0.045  0.00  0.00     0.090 A 
ATOM      4  S   UNL d   1       1.329   0.943   0.076  0.00  0.00    -0.065 SA
ATOM      5  C   UNL d   1      -1.105   0.106   0.042  0.00  0.00    -0.015 A 
ATOM      6  C   UNL d   1      -0.712  -2.412   0.028  0.00  0.00     0.103 C 
ATOM      7  N   UNL d   1      -1.095  -3.509   0.013  0.00  0.00    -0.191 NA
ATOM      8  C   UNL d   1      -2.602  -0.001   0.021  0.00  0.00     0.051 C 
ENDROOT
BRANCH   3   9
ATOM      9  N   UNL d   1       2.169  -1.560   0.023  0.00  0.00    -0.392 N 
ATOM     10  H   UNL d   1       2.107  -2.574   0.028  0.00  0.00     0.156 HD
ATOM     11  H   UNL d   1       3.112  -1.182   0.040  0.00  0.00     0.156 HD
ENDBRANCH   3   9
BRANCH   2  12
ATOM     12  C   UNL d   1      -0.818   2.664  -0.076  0.00  0.00     0.300 C 
ATOM     13  O   UNL d   1      -1.986   3.016  -0.196  0.00  0.00    -0.259 OA
BRANCH  12  14
ATOM     14  O   UNL d   1       0.238   3.529  -0.114  0.00  0.00    -0.317 OA
BRANCH  14  15
ATOM     15  C   UNL d   1      -0.025   4.828  -0.658  0.00  0.00     0.174 C 
ATOM     16  C   UNL d   1       0.131   4.748  -2.167  0.00  0.00     0.034 C 
ENDBRANCH  14  15
ENDBRANCH  12  14
ENDBRANCH   2  12
TORSDOF 4
