REMARK  2 active torsions:
REMARK  status: ('A' for Active; 'I' for Inactive)
REMARK    1  A    between atoms: C_10  and  N_1 
REMARK    2  A    between atoms: N_6  and  C_2 
REMARK       I    between atoms: C_8  and  N_6 
REMARK       I    between atoms: N_9  and  C_8 
ROOT
ATOM      1  N   UNL d   1       0.989  -0.747  -0.027  0.00  0.00    -0.259 N 
ATOM      2  C   UNL d   1      -0.425   0.864  -0.009  0.00  0.00     0.126 C 
ATOM      3  N   UNL d   1       0.837   0.566   0.276  0.00  0.00    -0.278 N 
ATOM      4  HN  UNL d   1       1.547   1.197   0.647  1.00  0.00     0.189 HD
ATOM      5  C   UNL d   1      -1.139  -0.294  -0.383  0.00  0.00     0.076 C 
ATOM      6  C   UNL d   1      -0.246  -1.339  -0.264  0.00  0.00     0.034 C 
ATOM      7  C   UNL d   1      -0.522  -2.796  -0.271  0.00  0.00     0.070 C 
ENDROOT
BRANCH   2   8
ATOM      8  N   UNL d   1      -1.024   2.105   0.078  0.00  0.00    -0.293 N 
ATOM      9  C   UNL d   1      -0.447   3.251   0.571  0.00  0.00     0.323 C 
ATOM     10  N   UNL d   1      -1.312   4.356   0.644  0.00  0.00    -0.343 N 
ATOM     11  O   UNL d   1       0.720   3.344   0.946  0.00  0.00    -0.247 OA
ATOM     12  C   UNL d   1      -0.751   5.626   1.086  0.00  0.00     0.154 C 
ATOM     13  C   UNL d   1      -2.672   4.430   0.129  0.00  0.00     0.154 C 
ATOM     14  H   UNL d   1      -1.977   2.129  -0.220  0.00  0.00     0.172 HD
ENDBRANCH   2   8
BRANCH   1  15
ATOM     15  C   UNL d   1       2.294  -1.316  -0.076  0.00  0.00     0.056 A 
ATOM     16  C   UNL d   1       3.346  -0.681   0.599  0.00  0.00     0.031 A 
ATOM     17  C   UNL d   1       4.636  -1.214   0.553  0.00  0.00     0.002 A 
ATOM     18  C   UNL d   1       4.892  -2.365  -0.191  0.00  0.00     0.000 A 
ATOM     19  C   UNL d   1       3.859  -2.983  -0.891  0.00  0.00     0.002 A 
ATOM     20  C   UNL d   1       2.563  -2.464  -0.833  0.00  0.00     0.031 A 
ENDBRANCH   1  15
TORSDOF 2
