REMARK  6 active torsions:
REMARK  status: ('A' for Active; 'I' for Inactive)
REMARK    1  A    between atoms: O_2  and  S_1 
REMARK    2  A    between atoms: C_7  and  S_1 
REMARK    3  A    between atoms: C_3  and  O_2 
REMARK    4  A    between atoms: C_8  and  C_4 
REMARK    5  A    between atoms: C_5  and  C_9 
REMARK    6  A    between atoms: C_23  and  N_11 
ROOT
ATOM      1  C   UNL d   1      -5.293   4.884   1.510  0.00  0.00     0.123 A 
ATOM      2  C   UNL d   1      -3.980   4.448   1.773  0.00  0.00     0.017 A 
ATOM      3  C   UNL d   1      -5.738   6.029   2.192  0.00  0.00     0.071 A 
ATOM      4  C   UNL d   1      -4.913   6.663   3.136  0.00  0.00     0.050 A 
ATOM      5  C   UNL d   1      -3.148   5.084   2.699  0.00  0.00     0.039 A 
ATOM      6  C   UNL d   1      -3.629   6.189   3.386  0.00  0.00     0.036 A 
ATOM      7 CL   UNL d   1      -7.228   6.841   1.879  0.00  0.00    -0.081 Cl
ATOM      8 CL   UNL d   1      -2.617   7.013   4.505  0.00  0.00    -0.084 Cl
ENDROOT
BRANCH   2   9
ATOM      9  C   UNL d   1      -3.383   3.359   0.992  0.00  0.00     0.102 C 
ATOM     10  N   UNL d   1      -3.498   2.126   1.363  0.00  0.00    -0.365 N 
ATOM     11  HN  UNL d   1      -3.980   1.863   2.223  1.00  0.00     0.165 HD
BRANCH  10  12
ATOM     12  C   UNL d   1      -2.920   1.171   0.511  0.00  0.00     0.032 A 
ATOM     13  C   UNL d   1      -1.857   0.380   0.955  0.00  0.00     0.045 A 
ATOM     14  C   UNL d   1      -1.288  -0.595   0.116  0.00  0.00     0.050 A 
ATOM     15  C   UNL d   1      -1.811  -0.775  -1.175  0.00  0.00     0.016 A 
ATOM     16  C   UNL d   1      -2.878   0.000  -1.619  0.00  0.00     0.003 A 
ATOM     17  C   UNL d   1      -3.426   0.963  -0.775  0.00  0.00     0.029 A 
BRANCH  14  18
ATOM     18  C   UNL d   1      -0.134  -1.450   0.573  0.00  0.00     0.417 C 
ATOM     19  F   UNL d   1       0.282  -1.185   1.842  0.00  0.00    -0.166 F 
ATOM     20  F   UNL d   1      -0.427  -2.780   0.544  0.00  0.00    -0.166 F 
ATOM     21  F   UNL d   1       0.966  -1.296  -0.218  0.00  0.00    -0.166 F 
ENDBRANCH  14  18
ENDBRANCH  10  12
ENDBRANCH   2   9
BRANCH   1  22
ATOM     22  O   UNL d   1      -5.972   4.185   0.535  0.00  0.00    -0.226 OA
BRANCH  22  23
ATOM     23  S   UNL d   1      -7.583   3.911   0.591  0.00  0.00     0.303 S 
ATOM     24  O   UNL d   1      -8.243   4.881  -0.260  0.00  0.00    -0.193 OA
ATOM     25  O   UNL d   1      -7.981   3.695   1.971  0.00  0.00    -0.193 OA
BRANCH  23  26
ATOM     26  C   UNL d   1      -7.829   2.353  -0.247  0.00  0.00     0.087 A 
ATOM     27  C   UNL d   1      -8.850   1.501   0.189  0.00  0.00     0.029 A 
ATOM     28  C   UNL d   1      -9.085   0.303  -0.490  0.00  0.00     0.044 A 
ATOM     29  C   UNL d   1      -8.293  -0.029  -1.585  0.00  0.00     0.116 A 
ATOM     30  C   UNL d   1      -7.277   0.817  -2.022  0.00  0.00     0.044 A 
ATOM     31  F   UNL d   1      -8.519  -1.177  -2.236  0.00  0.00    -0.206 F 
ATOM     32  C   UNL d   1      -7.046   2.025  -1.356  0.00  0.00     0.029 A 
ENDBRANCH  23  26
ENDBRANCH  22  23
ENDBRANCH   1  22
TORSDOF 6
