REMARK  5 active torsions:
REMARK  status: ('A' for Active; 'I' for Inactive)
REMARK    1  A    between atoms: N_14  and  C_1 
REMARK    2  A    between atoms: C_9  and  C_2 
REMARK    3  A    between atoms: C_18  and  C_5 
REMARK    4  A    between atoms: N_8  and  C_16 
REMARK       I    between atoms: C_13  and  N_14 
REMARK       I    between atoms: N_17  and  C_13 
REMARK    5  A    between atoms: C_25  and  N_17 
ROOT
ATOM      1  C   UNL d   1       1.698  -2.834  -0.226  0.00  0.00     0.325 C 
ATOM      2  N   UNL d   1       0.463  -2.294   0.066  0.00  0.00    -0.304 N 
ATOM      3  N   UNL d   1       2.728  -1.957   0.108  0.00  0.00    -0.309 N 
ATOM      4  O   UNL d   1       1.848  -3.963  -0.683  0.00  0.00    -0.247 OA
ATOM      5  H   UNL d   1       0.442  -1.592   0.792  0.00  0.00     0.171 HD
ATOM      6  H   UNL d   1       2.456  -1.036   0.417  0.00  0.00     0.170 HD
ENDROOT
BRANCH   3   7
ATOM      7  C   UNL d   1       4.112  -2.146  -0.124  0.00  0.00     0.036 A 
ATOM      8  C   UNL d   1       4.643  -3.302  -0.694  0.00  0.00     0.032 A 
ATOM      9  C   UNL d   1       5.990  -3.367  -1.072  0.00  0.00     0.034 A 
ATOM     10  C   UNL d   1       6.835  -2.271  -0.878  0.00  0.00     0.056 A 
ATOM     11  C   UNL d   1       6.341  -1.153  -0.193  0.00  0.00     0.034 A 
ATOM     12  C   UNL d   1       4.986  -1.094   0.179  0.00  0.00     0.032 A 
BRANCH  10  13
ATOM     13  N   UNL d   1       8.145  -2.255  -1.440  0.00  0.00    -0.267 N 
ATOM     14  N   UNL d   1       8.939  -1.156  -1.356  0.00  0.00    -0.290 N 
ATOM     15  C   UNL d   1      10.008  -1.426  -2.131  0.00  0.00     0.134 A 
ATOM     16  HN  UNL d   1       8.764  -0.306  -0.820  1.00  0.00     0.187 HD
ATOM     17  C   UNL d   1       9.924  -2.730  -2.673  0.00  0.00     0.055 A 
ATOM     18  C   UNL d   1       8.743  -3.240  -2.197  0.00  0.00     0.119 A 
BRANCH  15  19
ATOM     19  C   UNL d   1      11.136  -0.457  -2.386  0.00  0.00     0.434 C 
ATOM     20  F   UNL d   1      10.953   0.763  -1.817  0.00  0.00    -0.165 F 
ATOM     21  F   UNL d   1      12.319  -0.936  -1.917  0.00  0.00    -0.165 F 
ATOM     22  F   UNL d   1      11.315  -0.242  -3.715  0.00  0.00    -0.165 F 
ENDBRANCH  15  19
ENDBRANCH  10  13
ENDBRANCH   3   7
BRANCH   2  23
ATOM     23  C   UNL d   1      -0.760  -2.924  -0.179  0.00  0.00     0.097 C 
ATOM     24  C   UNL d   1      -1.902  -2.870   0.690  0.00  0.00     0.094 C 
ATOM     25  N   UNL d   1      -2.971  -3.426   0.107  0.00  0.00    -0.258 N 
ATOM     26  O   UNL d   1      -2.508  -4.004  -1.050  0.00  0.00    -0.240 OA
ATOM     27  HN  UNL d   1      -3.931  -3.422   0.451  1.00  0.00     0.195 HD
ATOM     28  C   UNL d   1      -1.174  -3.763  -1.195  0.00  0.00     0.101 C 
ATOM     29  C   UNL d   1      -0.588  -4.442  -2.366  0.00  0.00     0.081 C 
BRANCH  24  30
ATOM     30  C   UNL d   1      -1.941  -2.513   2.105  0.00  0.00    -0.005 A 
ATOM     31  C   UNL d   1      -3.077  -1.929   2.676  0.00  0.00     0.014 A 
ATOM     32  C   UNL d   1      -3.176  -1.803   4.064  0.00  0.00     0.001 A 
ATOM     33  C   UNL d   1      -2.142  -2.253   4.887  0.00  0.00     0.000 A 
ATOM     34  C   UNL d   1      -0.997  -2.811   4.326  0.00  0.00     0.001 A 
ATOM     35  C   UNL d   1      -0.897  -2.940   2.942  0.00  0.00     0.014 A 
ENDBRANCH  24  30
ENDBRANCH   2  23
TORSDOF 5
