REMARK  3 active torsions:
REMARK  status: ('A' for Active; 'I' for Inactive)
REMARK    1  A    between atoms: N_7  and  C_2 
REMARK    2  A    between atoms: C_17  and  C_3 
REMARK       I    between atoms: C_4  and  N_9 
REMARK    3  A    between atoms: C_10  and  C_4 
ROOT
ATOM      1  C   UNL d   1       1.368   0.472   1.033  0.00  0.00     0.048 A 
ATOM      2  C   UNL d   1       1.600   1.425  -0.000  0.00  0.00     0.097 A 
ATOM      3  C   UNL d   1       1.547   0.427   2.486  0.00  0.00    -0.003 A 
ATOM      4  C   UNL d   1       0.828  -0.736   0.596  0.00  0.00     0.089 A 
ATOM      5  C   UNL d   1       1.247  -0.829   2.993  0.00  0.00     0.065 A 
ATOM      6  S   UNL d   1       0.655  -1.903   1.819  0.00  0.00    -0.082 SA
ATOM      7  N   UNL d   1       1.225   1.102  -1.267  0.00  0.00    -0.342 N 
ATOM      8  HN  UNL d   1       1.363   1.770  -2.025  1.00  0.00     0.167 HD
ATOM      9  N   UNL d   1       0.457  -1.066  -0.651  0.00  0.00    -0.346 N 
ATOM     10  HN  UNL d   1       0.051  -1.967  -0.903  1.00  0.00     0.167 HD
ATOM     11  C   UNL d   1       0.676  -0.089  -1.519  0.00  0.00     0.182 A 
ENDROOT
BRANCH   2  12
ATOM     12  N   UNL d   1       2.277   2.647   0.183  0.00  0.00    -0.265 NA
ATOM     13  C   UNL d   1       2.987   3.080  -1.052  0.00  0.00     0.117 C 
ATOM     14  C   UNL d   1       3.824   4.335  -0.758  0.00  0.00     0.141 C 
ATOM     15  N   UNL d   1       2.995   5.409  -0.194  0.00  0.00    -0.345 N 
ATOM     16  C   UNL d   1       3.001   6.664  -0.807  0.00  0.00     0.260 C 
ATOM     17  C   UNL d   1       2.163   4.994   0.949  0.00  0.00     0.141 C 
ATOM     18  O   UNL d   1       3.644   6.844  -1.846  0.00  0.00    -0.267 OA
ATOM     19  C   UNL d   1       1.361   3.703   0.659  0.00  0.00     0.117 C 
BRANCH  16  20
ATOM     20  C   UNL d   1       2.230   7.742  -0.202  0.00  0.00     0.072 A 
ATOM     21  S   UNL d   1       1.279   8.739  -1.226  0.00  0.00    -0.097 SA
ATOM     22  C   UNL d   1       0.695   9.655   0.091  0.00  0.00     0.050 A 
ATOM     23  C   UNL d   1       1.234   9.243   1.288  0.00  0.00     0.009 A 
ATOM     24  C   UNL d   1       2.151   8.164   1.115  0.00  0.00     0.025 A 
ENDBRANCH  16  20
ENDBRANCH   2  12
BRANCH   3  25
ATOM     25  C   UNL d   1       1.926   1.477   3.438  0.00  0.00    -0.024 A 
ATOM     26  C   UNL d   1       1.160   1.668   4.604  0.00  0.00     0.012 A 
ATOM     27  C   UNL d   1       1.479   2.672   5.523  0.00  0.00     0.001 A 
ATOM     28  C   UNL d   1       2.560   3.512   5.277  0.00  0.00     0.000 A 
ATOM     29  C   UNL d   1       3.339   3.323   4.138  0.00  0.00     0.001 A 
ATOM     30  C   UNL d   1       3.035   2.299   3.231  0.00  0.00     0.012 A 
ENDBRANCH   3  25
TORSDOF 3
