REMARK  4 active torsions:
REMARK  status: ('A' for Active; 'I' for Inactive)
REMARK    1  A    between atoms: C_2  and  S_1 
REMARK    2  A    between atoms: N_7  and  S_1 
REMARK    3  A    between atoms: C_8  and  N_7 
REMARK    4  A    between atoms: N_9  and  C_10 
ROOT
ATOM      1  C   UNL d   1       0.763   0.512  -2.714  0.00  0.00     0.049 A 
ATOM      2  C   UNL d   1       2.167   0.752  -2.705  0.00  0.00     0.052 A 
ATOM      3  C   UNL d   1      -0.060   1.053  -3.712  0.00  0.00     0.027 A 
ATOM      4  C   UNL d   1       2.674   1.531  -3.764  0.00  0.00     0.031 A 
ATOM      5  C   UNL d   1       0.485   1.819  -4.737  0.00  0.00     0.002 A 
ATOM      6  C   UNL d   1       1.851   2.055  -4.766  0.00  0.00     0.002 A 
ENDROOT
BRANCH   1   7
ATOM      7  N   UNL d   1       0.096  -0.232  -1.687  0.00  0.00    -0.179 NA
ATOM      8  H   UNL d   1       0.591  -1.070  -1.405  0.00  0.00     0.146 HD
BRANCH   7   9
ATOM      9  S   UNL d   1      -0.334   0.575  -0.264  0.00  0.00     0.248 S 
ATOM     10  O   UNL d   1      -0.524  -0.440   0.743  0.00  0.00    -0.205 OA
ATOM     11  O   UNL d   1       0.522   1.717  -0.031  0.00  0.00    -0.205 OA
BRANCH   9  12
ATOM     12  C   UNL d   1      -1.907   1.255  -0.473  0.00  0.00     0.105 A 
ATOM     13  C   UNL d   1      -3.068   0.543  -0.653  0.00  0.00     0.099 A 
ATOM     14  S   UNL d   1      -4.444   1.538  -0.799  0.00  0.00    -0.064 SA
ATOM     15 CL   UNL d   1      -3.302  -1.159  -0.750  0.00  0.00    -0.075 Cl
ATOM     16  C   UNL d   1      -3.498   2.930  -0.631  0.00  0.00     0.077 A 
ATOM     17  C   UNL d   1      -2.163   2.667  -0.461  0.00  0.00     0.058 A 
ATOM     18 CL   UNL d   1      -4.237   4.478  -0.684  0.00  0.00    -0.076 Cl
ENDBRANCH   9  12
ENDBRANCH   7   9
ENDBRANCH   1   7
BRANCH   2  19
ATOM     19  N   UNL d   1       2.998   0.318  -1.673  0.00  0.00    -0.375 N 
ATOM     20  C   UNL d   1       4.241   1.064  -1.368  0.00  0.00     0.149 C 
ATOM     21  C   UNL d   1       4.584   0.853   0.117  0.00  0.00     0.187 C 
ATOM     22  O   UNL d   1       4.722  -0.546   0.434  0.00  0.00    -0.388 OA
ATOM     23  C   UNL d   1       3.519  -1.262   0.098  0.00  0.00     0.187 C 
ATOM     24  C   UNL d   1       3.186  -1.117  -1.399  0.00  0.00     0.149 C 
ENDBRANCH   2  19
TORSDOF 4
