REMARK  6 active torsions:
REMARK  status: ('A' for Active; 'I' for Inactive)
REMARK    1  A    between atoms: N_2  and  S_1 
REMARK    2  A    between atoms: C_3  and  S_1 
REMARK    3  A    between atoms: N_5  and  C_6 
REMARK       I    between atoms: C_11  and  N_5 
REMARK    4  A    between atoms: C_8  and  C_14 
REMARK    5  A    between atoms: O_22  and  C_8 
REMARK    6  A    between atoms: C_24  and  O_22 
ROOT
ATOM      1  S   UNL d   1       1.003  -0.119  -0.007  0.00  0.00     0.243 S 
ATOM      2  O   UNL d   1       2.390   0.234   0.207  0.00  0.00    -0.206 OA
ATOM      3  O   UNL d   1       0.547  -1.488   0.096  0.00  0.00    -0.206 OA
ENDROOT
BRANCH   1   4
ATOM      4  N   UNL d   1       0.548   0.494  -1.556  0.00  0.00    -0.206 NA
ATOM      5  C   UNL d   1       0.947   1.916  -1.771  0.00  0.00     0.108 C 
ATOM      6  C   UNL d   1       0.457   2.412  -3.128  0.00  0.00     0.030 C 
ATOM      7  C   UNL d   1       0.961   1.528  -4.272  0.00  0.00     0.088 C 
ATOM      8  C   UNL d   1       0.508   0.089  -4.003  0.00  0.00     0.030 C 
ATOM      9  C   UNL d   1       1.008  -0.411  -2.650  0.00  0.00     0.108 C 
BRANCH   7  10
ATOM     10  C   UNL d   1       2.472   1.568  -4.478  0.00  0.00     0.263 C 
ATOM     11  O   UNL d   1       3.111   0.649  -4.975  0.00  0.00    -0.265 OA
BRANCH  10  12
ATOM     12  O   UNL d   1       3.009   2.751  -4.074  0.00  0.00    -0.322 OA
BRANCH  12  13
ATOM     13  C   UNL d   1       4.435   2.864  -4.209  0.00  0.00     0.174 C 
ATOM     14  C   UNL d   1       5.135   2.203  -3.035  0.00  0.00     0.034 C 
ENDBRANCH  12  13
ENDBRANCH  10  12
ENDBRANCH   7  10
ENDBRANCH   1   4
BRANCH   1  15
ATOM     15  C   UNL d   1      -0.003   0.842   1.092  0.00  0.00     0.076 A 
ATOM     16  C   UNL d   1      -1.387   0.670   1.076  0.00  0.00     0.050 A 
ATOM     17  C   UNL d   1      -2.177   1.442   1.931  0.00  0.00     0.062 A 
ATOM     18 CL   UNL d   1      -3.894   1.220   1.868  0.00  0.00    -0.082 Cl
ATOM     19  C   UNL d   1      -1.599   2.381   2.811  0.00  0.00     0.056 A 
ATOM     20  C   UNL d   1      -0.206   2.517   2.814  0.00  0.00     0.033 A 
ATOM     21  C   UNL d   1       0.594   1.751   1.963  0.00  0.00     0.027 A 
BRANCH  19  22
ATOM     22  N   UNL d   1      -2.446   3.151   3.651  0.00  0.00    -0.326 N 
ATOM     23  C   UNL d   1      -2.062   4.122   4.558  0.00  0.00     0.218 C 
ATOM     24  O   UNL d   1      -0.917   4.484   4.801  0.00  0.00    -0.274 OA
ATOM     25  C   UNL d   1      -3.216   4.755   5.293  0.00  0.00     0.117 C 
ATOM     26  H   UNL d   1      -3.435   2.952   3.557  0.00  0.00     0.169 HD
ENDBRANCH  19  22
ENDBRANCH   1  15
TORSDOF 6
