REMARK  4 active torsions:
REMARK  status: ('A' for Active; 'I' for Inactive)
REMARK    1  A    between atoms: C_2  and  N_1 
REMARK    2  A    between atoms: C_3  and  N_4 
REMARK    3  A    between atoms: N_6  and  C_8 
REMARK    4  A    between atoms: O_19  and  C_9 
ROOT
ATOM      1  N   UNL d   1      -0.652   1.458   1.292  0.00  0.00    -0.298 N 
ATOM      2  HN  UNL d   1       0.164   1.836   0.811  1.00  0.00     0.187 HD
ATOM      3  N   UNL d   1      -1.255   0.463   0.826  0.00  0.00    -0.298 N 
ATOM      4  HN  UNL d   1      -1.664   0.491  -0.108  1.00  0.00     0.187 HD
ENDROOT
BRANCH   1   5
ATOM      5  C   UNL d   1      -1.117   2.055   2.495  0.00  0.00     0.082 A 
ATOM      6  C   UNL d   1      -0.177   2.769   3.268  0.00  0.00     0.099 A 
ATOM      7  C   UNL d   1      -0.535   3.433   4.447  0.00  0.00    -0.026 A 
ATOM      8  C   UNL d   1       0.444   4.237   5.252  0.00  0.00     0.051 C 
ATOM      9  C   UNL d   1      -1.875   3.384   4.857  0.00  0.00     0.016 A 
ATOM     10  C   UNL d   1      -2.838   2.704   4.102  0.00  0.00    -0.059 A 
ATOM     11  C   UNL d   1      -2.453   2.047   2.921  0.00  0.00     0.040 A 
ATOM     12  C   UNL d   1      -4.277   2.701   4.529  0.00  0.00     0.048 C 
BRANCH   6  13
ATOM     13  O   UNL d   1       1.131   2.831   2.851  0.00  0.00    -0.358 OA
ATOM     14  H   UNL d   1       1.159   2.430   1.961  0.00  0.00     0.217 HD
ENDBRANCH   6  13
ENDBRANCH   1   5
BRANCH   3  15
ATOM     15  C   UNL d   1      -1.356  -0.703   1.625  0.00  0.00     0.081 A 
ATOM     16  C   UNL d   1      -2.413  -1.604   1.428  0.00  0.00     0.132 A 
ATOM     17  C   UNL d   1      -2.635  -2.716   2.252  0.00  0.00     0.062 A 
ATOM     18  C   UNL d   1      -1.727  -2.970   3.273  0.00  0.00     0.036 A 
ATOM     19  C   UNL d   1      -0.609  -2.155   3.441  0.00  0.00     0.026 A 
ATOM     20 CL   UNL d   1      -1.974  -4.311   4.320  0.00  0.00    -0.084 Cl
ATOM     21  C   UNL d   1      -0.423  -1.036   2.619  0.00  0.00     0.035 A 
BRANCH  16  22
ATOM     22  N   UNL d   1      -3.289  -1.430   0.288  0.00  0.00    -0.113 N 
ATOM     23  O   UNL d   1      -2.783  -1.540  -0.834  0.00  0.00    -0.532 OA
ATOM     24  O   UNL d   1      -4.490  -1.253   0.533  0.00  0.00    -0.532 OA
ENDBRANCH  16  22
ENDBRANCH   3  15
TORSDOF 4
