REMARK  3 active torsions:
REMARK  status: ('A' for Active; 'I' for Inactive)
REMARK    1  A    between atoms: C_4  and  C_1 
REMARK       I    between atoms: N_7  and  C_1 
REMARK    2  A    between atoms: C_14  and  N_7 
REMARK    3  A    between atoms: O_20  and  C_15 
ROOT
ATOM      1  C   UNL d   1       0.924   0.016  -0.033  0.00  0.00     0.256 C 
ATOM      2  N   UNL d   1       0.165  -0.045  -1.193  0.00  0.00    -0.323 N 
ATOM      3  O   UNL d   1       0.509   0.220   1.102  0.00  0.00    -0.267 OA
ATOM      4  H   UNL d   1       0.635  -0.317  -2.046  0.00  0.00     0.169 HD
ENDROOT
BRANCH   1   5
ATOM      5  C   UNL d   1       2.381  -0.250  -0.198  0.00  0.00     0.033 A 
ATOM      6  C   UNL d   1       3.073   0.114  -1.362  0.00  0.00     0.038 A 
ATOM      7  C   UNL d   1       4.445  -0.193  -1.438  0.00  0.00     0.033 A 
ATOM      8  S   UNL d   1       5.549   0.104  -2.730  0.00  0.00    -0.083 SA
ATOM      9  C   UNL d   1       5.128  -0.821  -0.394  0.00  0.00     0.049 A 
ATOM     10  C   UNL d   1       6.798  -0.628  -1.818  0.00  0.00     0.139 A 
ATOM     11  N   UNL d   1       6.471  -1.065  -0.624  0.00  0.00    -0.359 N 
ATOM     12  HN  UNL d   1       7.109  -1.515   0.033  1.00  0.00     0.166 HD
ATOM     13  C   UNL d   1       4.422  -1.147   0.779  0.00  0.00     0.032 A 
ATOM     14  C   UNL d   1       3.055  -0.858   0.866  0.00  0.00     0.019 A 
ENDBRANCH   1   5
BRANCH   2  15
ATOM     15  C   UNL d   1      -1.235   0.104  -1.294  0.00  0.00     0.035 A 
ATOM     16  C   UNL d   1      -2.063   0.403  -0.211  0.00  0.00     0.032 A 
ATOM     17  C   UNL d   1      -3.452   0.481  -0.368  0.00  0.00     0.039 A 
ATOM     18  C   UNL d   1      -4.034   0.266  -1.615  0.00  0.00     0.068 A 
ATOM     19  C   UNL d   1      -3.208   0.002  -2.708  0.00  0.00     0.039 A 
ATOM     20  C   UNL d   1      -1.820  -0.078  -2.552  0.00  0.00     0.032 A 
BRANCH  18  21
ATOM     21  O   UNL d   1      -5.374   0.284  -1.885  0.00  0.00    -0.356 OA
ATOM     22  C   UNL d   1      -6.242   0.449  -0.768  0.00  0.00     0.210 C 
ENDBRANCH  18  21
ENDBRANCH   2  15
TORSDOF 3
