REMARK  0 active torsions:
REMARK  status: ('A' for Active; 'I' for Inactive)
ROOT
ATOM      1  C   UNL d   1       0.531  -1.255  -1.375  0.00  0.00     0.114 A 
ATOM      2  C   UNL d   1      -0.758  -0.796  -1.394  0.00  0.00     0.114 A 
ATOM      3  C   UNL d   1       1.082   0.099  -1.602  0.00  0.00     0.252 A 
ATOM      4  C   UNL d   1      -0.322   0.599  -1.623  0.00  0.00     0.252 A 
ATOM      5  N   UNL d   1       1.093  -2.431  -1.214  0.00  0.00    -0.385 N 
ATOM      6  N   UNL d   1      -1.946  -1.342  -1.256  0.00  0.00    -0.385 N 
ATOM      7  O   UNL d   1       2.155   0.632  -1.754  0.00  0.00    -0.281 OA
ATOM      8  O   UNL d   1      -0.809   1.690  -1.788  0.00  0.00    -0.281 OA
ATOM      9  C   UNL d   1       0.296  -3.655  -1.294  0.00  0.00     0.121 C 
ATOM     10  C   UNL d   1      -2.141  -2.792  -1.224  0.00  0.00     0.121 C 
ATOM     11  C   UNL d   1      -1.025  -3.575  -0.509  0.00  0.00     0.039 C 
ATOM     12  H   UNL d   1       2.098  -2.562  -1.333  0.00  0.00     0.159 HD
ATOM     13  H   UNL d   1      -2.797  -0.803  -1.424  0.00  0.00     0.159 HD
ENDROOT
TORSDOF 0
