REMARK  4 active torsions:
REMARK  status: ('A' for Active; 'I' for Inactive)
REMARK    1  A    between atoms: C_5  and  C_1 
REMARK    2  A    between atoms: N_2  and  C_6 
REMARK    3  A    between atoms: S_7  and  C_3 
REMARK       I    between atoms: N_13  and  C_5 
REMARK    4  A    between atoms: C_14  and  S_7 
ROOT
ATOM      1  C   UNL d   1       1.413  -0.098   0.149  0.00  0.00     0.051 A 
ATOM      2  C   UNL d   1       0.673  -1.296   0.206  0.00  0.00     0.021 A 
ATOM      3  C   UNL d   1       0.750   1.146   0.207  0.00  0.00     0.054 A 
ATOM      4  C   UNL d   1      -0.644   1.204   0.279  0.00  0.00     0.103 A 
ATOM      5  C   UNL d   1      -0.732  -1.207   0.307  0.00  0.00     0.022 A 
ATOM      6  C   UNL d   1      -1.391   0.027   0.338  0.00  0.00     0.037 A 
ENDROOT
BRANCH   2   7
ATOM      7  S   UNL d   1       1.300  -2.948  -0.042  0.00  0.00    -0.090 SA
BRANCH   7   8
ATOM      8  C   UNL d   1       2.300  -3.413   1.357  0.00  0.00     0.005 A 
ATOM      9  C   UNL d   1       2.722  -2.570   2.388  0.00  0.00     0.019 A 
ATOM     10  C   UNL d   1       3.579  -3.047   3.392  0.00  0.00     0.001 A 
ATOM     11  C   UNL d   1       4.006  -4.372   3.388  0.00  0.00     0.000 A 
ATOM     12  C   UNL d   1       3.578  -5.231   2.382  0.00  0.00     0.001 A 
ATOM     13  C   UNL d   1       2.732  -4.753   1.378  0.00  0.00     0.019 A 
ENDBRANCH   7   8
ENDBRANCH   2   7
BRANCH   1  14
ATOM     14  C   UNL d   1       2.890   0.005  -0.010  0.00  0.00     0.252 C 
ATOM     15  O   UNL d   1       3.485   0.912   0.562  0.00  0.00    -0.268 OA
ATOM     16  N   UNL d   1       3.495  -0.890  -0.857  0.00  0.00    -0.361 N 
ATOM     17  C   UNL d   1       4.891  -0.799  -1.203  0.00  0.00     0.149 C 
ATOM     18  H   UNL d   1       2.953  -1.653  -1.244  0.00  0.00     0.162 HD
ENDBRANCH   1  14
BRANCH   4  19
ATOM     19  N   UNL d   1      -1.324   2.506   0.250  0.00  0.00    -0.116 N 
ATOM     20  O   UNL d   1      -0.625   3.523   0.167  0.00  0.00    -0.532 OA
ATOM     21  O   UNL d   1      -2.564   2.506   0.299  0.00  0.00    -0.532 OA
ENDBRANCH   4  19
TORSDOF 4
