REMARK  6 active torsions:
REMARK  status: ('A' for Active; 'I' for Inactive)
REMARK    1  A    between atoms: C_2  and  S_1 
REMARK    2  A    between atoms: N_8  and  S_1 
REMARK       I    between atoms: C_3  and  N_6 
REMARK       I    between atoms: N_7  and  C_3 
REMARK    3  A    between atoms: N_6  and  C_4 
REMARK    4  A    between atoms: C_11  and  N_7 
REMARK    5  A    between atoms: O_17  and  C_15 
REMARK    6  A    between atoms: C_23  and  O_17 
ROOT
ATOM      1  C   UNL d   1       1.406   4.357  -4.946  0.00  0.00     0.325 C 
ATOM      2  N   UNL d   1       0.712   3.675  -3.979  0.00  0.00    -0.308 N 
ATOM      3  N   UNL d   1       0.969   5.617  -5.258  0.00  0.00    -0.306 N 
ATOM      4  O   UNL d   1       2.398   3.948  -5.537  0.00  0.00    -0.247 OA
ATOM      5  H   UNL d   1       0.302   4.280  -3.277  0.00  0.00     0.170 HD
ATOM      6  H   UNL d   1       1.351   5.841  -6.170  0.00  0.00     0.171 HD
ENDROOT
BRANCH   2   7
ATOM      7  C   UNL d   1       0.871   2.306  -3.636  0.00  0.00     0.043 C 
ATOM      8  C   UNL d   1       0.745   1.992  -2.269  0.00  0.00     0.055 C 
ATOM      9  C   UNL d   1       0.839   0.664  -1.836  0.00  0.00     0.081 C 
ATOM     10  C   UNL d   1       0.908  -0.377  -2.755  0.00  0.00     0.026 C 
ATOM     11  C   UNL d   1       1.049  -0.080  -4.103  0.00  0.00     0.010 C 
ATOM     12  C   UNL d   1       1.071   1.255  -4.561  0.00  0.00    -0.035 C 
ATOM     13  C   UNL d   1       1.315   1.435  -6.035  0.00  0.00     0.050 C 
BRANCH   9  14
ATOM     14  S   UNL d   1       0.850   0.259  -0.101  0.00  0.00     0.260 S 
ATOM     15  O   UNL d   1       0.075  -0.954   0.051  0.00  0.00    -0.200 OA
ATOM     16  O   UNL d   1       0.507   1.462   0.630  0.00  0.00    -0.200 OA
BRANCH  14  17
ATOM     17  N   UNL d   1       2.484  -0.110   0.220  0.00  0.00    -0.315 N 
ATOM     18  C   UNL d   1       3.057  -1.306  -0.423  0.00  0.00     0.162 C 
ATOM     19  C   UNL d   1       3.430   1.016   0.293  0.00  0.00     0.162 C 
ENDBRANCH  14  17
ENDBRANCH   9  14
ENDBRANCH   2   7
BRANCH   3  20
ATOM     20  C   UNL d   1      -0.314   6.131  -5.011  0.00  0.00     0.069 A 
ATOM     21  C   UNL d   1      -0.579   6.997  -3.940  0.00  0.00     0.095 A 
ATOM     22  C   UNL d   1      -1.876   7.502  -3.779  0.00  0.00     0.039 A 
ATOM     23  C   UNL d   1      -2.883   7.192  -4.694  0.00  0.00     0.003 A 
ATOM     24  C   UNL d   1      -2.605   6.364  -5.779  0.00  0.00     0.002 A 
ATOM     25  C   UNL d   1      -1.323   5.840  -5.942  0.00  0.00     0.032 A 
BRANCH  21  26
ATOM     26  O   UNL d   1       0.310   7.402  -2.979  0.00  0.00    -0.349 OA
BRANCH  26  27
ATOM     27  C   UNL d   1       1.623   7.733  -3.441  0.00  0.00     0.171 C 
ATOM     28  C   UNL d   1       2.316   8.571  -2.381  0.00  0.00     0.034 C 
ENDBRANCH  26  27
ENDBRANCH  21  26
ENDBRANCH   3  20
TORSDOF 6
