REMARK  0 active torsions:
REMARK  status: ('A' for Active; 'I' for Inactive)
ROOT
ATOM      1  N   UNL d   1      -2.407   1.366  -0.004  0.00  0.00    -0.289 N 
ATOM      2  N   UNL d   1      -3.612  -0.662  -0.003  0.00  0.00    -0.270 N 
ATOM      3  C   UNL d   1      -3.635   0.726  -0.005  0.00  0.00     0.332 A 
ATOM      4  C   UNL d   1      -1.181   0.667  -0.001  0.00  0.00     0.127 A 
ATOM      5  C   UNL d   1      -1.190  -0.712   0.001  0.00  0.00     0.077 A 
ATOM      6  C   UNL d   1      -2.460  -1.430  -0.001  0.00  0.00     0.265 A 
ATOM      7  N   UNL d   1      -0.018   1.371  -0.000  0.00  0.00    -0.341 N 
ATOM      8  HN  UNL d   1      -0.032   2.391  -0.001  1.00  0.00     0.167 HD
ATOM      9  C   UNL d   1       0.018  -1.407   0.003  0.00  0.00     0.034 A 
ATOM     10  C   UNL d   1       1.158   0.704   0.001  0.00  0.00     0.044 A 
ATOM     11  C   UNL d   1       1.219  -0.698   0.003  0.00  0.00    -0.008 A 
ATOM     12  C   UNL d   1       2.368   1.391   0.001  0.00  0.00     0.037 A 
ATOM     13  C   UNL d   1       2.454  -1.364   0.002  0.00  0.00     0.021 A 
ATOM     14  O   UNL d   1      -4.695   1.355  -0.009  0.00  0.00    -0.246 OA
ATOM     15  C   UNL d   1       3.670  -0.660   0.001  0.00  0.00    -0.055 A 
ATOM     16  C   UNL d   1       3.628   0.742   0.001  0.00  0.00    -0.054 A 
ATOM     17  O   UNL d   1      -2.455  -2.660  -0.001  0.00  0.00    -0.267 OA
ATOM     18  C   UNL d   1      -2.352   2.820  -0.008  0.00  0.00     0.163 C 
ATOM     19  C   UNL d   1      -4.869  -1.389  -0.006  0.00  0.00     0.164 C 
ATOM     20  C   UNL d   1       4.926  -1.487  -0.000  0.00  0.00     0.049 C 
ATOM     21  C   UNL d   1       4.846   1.627   0.000  0.00  0.00     0.049 C 
ENDROOT
TORSDOF 0
