REMARK  4 active torsions:
REMARK  status: ('A' for Active; 'I' for Inactive)
REMARK    1  A    between atoms: N_6  and  C_3 
REMARK    2  A    between atoms: C_12  and  N_6 
REMARK    3  A    between atoms: O_11  and  C_14 
REMARK    4  A    between atoms: C_14  and  C_12 
ROOT
ATOM      1  N   UNL d   1      -1.558  -0.888  -0.587  0.00  0.00    -0.351 N 
ATOM      2  HN  UNL d   1      -2.070  -1.667  -1.002  1.00  0.00     0.166 HD
ATOM      3  C   UNL d   1      -2.221   0.131   0.004  0.00  0.00     0.102 A 
ATOM      4  N   UNL d   1       3.153   0.049  -0.147  0.00  0.00    -0.191 NA
ATOM      5  C   UNL d   1       1.994   0.088  -0.105  0.00  0.00     0.101 C 
ATOM      6  C   UNL d   1       0.569   0.135  -0.049  0.00  0.00     0.060 A 
ATOM      7  C   UNL d   1      -1.500   1.165   0.609  0.00  0.00     0.050 A 
ATOM      8  C   UNL d   1      -0.201  -0.861  -0.620  0.00  0.00     0.112 A 
ATOM      9  C   UNL d   1      -0.102   1.170   0.589  0.00  0.00     0.028 A 
ENDROOT
BRANCH   3  10
ATOM     10  N   UNL d   1      -3.601   0.111   0.029  0.00  0.00    -0.370 N 
ATOM     11  C   UNL d   1      -4.385   1.331  -0.101  0.00  0.00     0.151 C 
BRANCH  10  12
ATOM     12  C   UNL d   1      -4.316  -1.149  -0.223  0.00  0.00     0.149 C 
BRANCH  12  13
ATOM     13  C   UNL d   1      -4.729  -1.818   1.096  0.00  0.00     0.183 C 
BRANCH  13  14
ATOM     14  O   UNL d   1      -5.686  -1.026   1.804  0.00  0.00    -0.399 OA
ATOM     15  H   UNL d   1      -5.812  -1.450   2.670  0.00  0.00     0.209 HD
ENDBRANCH  13  14
ENDBRANCH  12  13
ENDBRANCH  10  12
ENDBRANCH   3  10
TORSDOF 4
