REMARK  5 active torsions:
REMARK  status: ('A' for Active; 'I' for Inactive)
REMARK    1  A    between atoms: C_11  and  C_1 
REMARK    2  A    between atoms: C_7  and  C_3 
REMARK    3  A    between atoms: N_10  and  C_6 
REMARK    4  A    between atoms: O_21  and  C_11 
REMARK    5  A    between atoms: C_26  and  O_21 
ROOT
ATOM      1  C   UNL d   1       2.549   0.677   0.091  0.00  0.00     0.072 A 
ATOM      2  C   UNL d   1       0.107   0.777   0.016  0.00  0.00     0.030 A 
ATOM      3  C   UNL d   1       2.469  -0.707   0.038  0.00  0.00     0.133 A 
ATOM      4  N   UNL d   1       1.250  -1.341  -0.056  0.00  0.00    -0.351 N 
ATOM      5  HN  UNL d   1       1.209  -2.358  -0.123  1.00  0.00     0.166 HD
ATOM      6  C   UNL d   1      -1.135   1.460   0.025  0.00  0.00     0.095 A 
ATOM      7  C   UNL d   1       1.361   1.413   0.107  0.00  0.00     0.037 A 
ATOM      8  C   UNL d   1       0.110  -0.620  -0.059  0.00  0.00     0.047 A 
ATOM      9  N   UNL d   1      -2.310   0.792  -0.015  0.00  0.00    -0.356 N 
ATOM     10  HN  UNL d   1      -3.200   1.290   0.005  1.00  0.00     0.166 HD
ATOM     11  C   UNL d   1      -1.097  -1.283  -0.114  0.00  0.00     0.047 A 
ATOM     12  C   UNL d   1      -2.267  -0.552  -0.084  0.00  0.00     0.091 A 
ENDROOT
BRANCH   6  13
ATOM     13  N   UNL d   1      -1.152   2.863   0.120  0.00  0.00    -0.265 NA
ATOM     14  C   UNL d   1      -2.374   3.412   0.743  0.00  0.00     0.123 C 
ATOM     15  C   UNL d   1      -2.167   4.923   0.954  0.00  0.00     0.182 C 
ATOM     16  O   UNL d   1      -1.882   5.597  -0.287  0.00  0.00    -0.389 OA
ATOM     17  C   UNL d   1      -0.717   5.032  -0.915  0.00  0.00     0.182 C 
ATOM     18  C   UNL d   1      -0.898   3.527  -1.177  0.00  0.00     0.123 C 
ENDBRANCH   6  13
BRANCH   1  19
ATOM     19  C   UNL d   1       3.799   1.448   0.157  0.00  0.00     0.295 C 
ATOM     20  O   UNL d   1       3.972   2.366   0.939  0.00  0.00    -0.259 OA
BRANCH  19  21
ATOM     21  O   UNL d   1       4.611   1.069  -0.856  0.00  0.00    -0.318 OA
BRANCH  21  22
ATOM     22  C   UNL d   1       5.854   1.788  -0.944  0.00  0.00     0.174 C 
ATOM     23  C   UNL d   1       5.726   2.904  -1.963  0.00  0.00     0.034 C 
ENDBRANCH  21  22
ENDBRANCH  19  21
ENDBRANCH   1  19
BRANCH   3  24
ATOM     24  C   UNL d   1       3.695  -1.600   0.121  0.00  0.00     0.433 C 
ATOM     25  F   UNL d   1       4.824  -0.996   0.591  0.00  0.00    -0.165 F 
ATOM     26  F   UNL d   1       3.506  -2.661   0.963  0.00  0.00    -0.165 F 
ATOM     27  F   UNL d   1       4.034  -2.143  -1.083  0.00  0.00    -0.165 F 
ENDBRANCH   3  24
TORSDOF 5
