REMARK  4 active torsions:
REMARK  status: ('A' for Active; 'I' for Inactive)
REMARK    1  A    between atoms: C_13  and  C_3 
REMARK    2  A    between atoms: C_12  and  C_4 
REMARK    3  A    between atoms: C_8  and  N_6 
REMARK    4  A    between atoms: N_9  and  C_12 
ROOT
ATOM      1  C   UNL d   1      -0.765  -2.292   0.001  0.00  0.00     0.330 C 
ENDROOT
BRANCH   1   2
ATOM      2  N   UNL d   1      -2.225  -2.487   0.024  0.00  0.00     0.096 N 
ATOM      3  C   UNL d   1      -2.865  -1.910   1.232  0.00  0.00     0.287 C 
ATOM      4  C   UNL d   1      -3.047  -0.372   1.251  0.00  0.00     0.127 C 
ATOM      5  N   UNL d   1      -3.749   0.052   0.027  0.00  0.00    -0.266 NA
ATOM      6  C   UNL d   1      -3.037  -0.346  -1.194  0.00  0.00     0.127 C 
ATOM      7  C   UNL d   1      -2.856  -1.892  -1.186  0.00  0.00     0.287 C 
BRANCH   5   8
ATOM      8  C   UNL d   1      -4.269   1.351   0.052  0.00  0.00     0.082 A 
ATOM      9  N   UNL d   1      -3.902   2.263  -0.876  0.00  0.00    -0.357 N 
ATOM     10  C   UNL d   1      -4.479   3.488  -0.830  0.00  0.00     0.089 A 
ATOM     11  HN  UNL d   1      -3.210   2.036  -1.590  1.00  0.00     0.166 HD
ATOM     12  C   UNL d   1      -5.438   3.866   0.093  0.00  0.00     0.017 A 
ATOM     13  C   UNL d   1      -5.830   2.928   1.031  0.00  0.00     0.005 A 
ATOM     14  C   UNL d   1      -5.242   1.665   1.008  0.00  0.00     0.042 A 
ENDBRANCH   5   8
ENDBRANCH   1   2
BRANCH   1  15
ATOM     15  C   UNL d   1      -0.065  -3.061   1.089  0.00  0.00     0.054 A 
ATOM     16  N   UNL d   1       0.803  -2.414   1.944  0.00  0.00    -0.343 N 
ATOM     17  C   UNL d   1       1.331  -3.330   2.737  0.00  0.00     0.115 A 
ATOM     18  HN  UNL d   1       1.000  -1.413   1.961  1.00  0.00     0.167 HD
ATOM     19  N   UNL d   1       0.784  -4.559   2.439  0.00  0.00    -0.350 N 
ATOM     20  C   UNL d   1      -0.085  -4.405   1.392  0.00  0.00     0.116 A 
ATOM     21  H   UNL d   1       1.006  -5.427   2.901  0.00  0.00     0.166 HD
BRANCH  17  22
ATOM     22  C   UNL d   1       2.347  -3.071   3.768  0.00  0.00     0.008 A 
ATOM     23  C   UNL d   1       2.760  -1.746   3.984  0.00  0.00     0.015 A 
ATOM     24  C   UNL d   1       3.728  -1.433   4.940  0.00  0.00     0.001 A 
ATOM     25  C   UNL d   1       4.304  -2.446   5.700  0.00  0.00     0.000 A 
ATOM     26  C   UNL d   1       3.911  -3.768   5.499  0.00  0.00     0.001 A 
ATOM     27  C   UNL d   1       2.939  -4.081   4.540  0.00  0.00     0.015 A 
ENDBRANCH  17  22
ENDBRANCH   1  15
TORSDOF 4
