REMARK  4 active torsions:
REMARK  status: ('A' for Active; 'I' for Inactive)
REMARK    1  A    between atoms: N_3  and  C_1 
REMARK       I    between atoms: C_2  and  N_4 
REMARK    2  A    between atoms: C_9  and  C_2 
REMARK    3  A    between atoms: C_24  and  C_15 
REMARK    4  A    between atoms: C_25  and  C_24 
ROOT
ATOM      1  C   UNL d   1       1.274   6.644   0.648  0.00  0.00     0.253 C 
ATOM      2  N   UNL d   1       0.107   2.747  -0.099  0.00  0.00    -0.251 NA
ATOM      3  N   UNL d   1       0.668   5.541   0.062  0.00  0.00    -0.346 N 
ATOM      4  C   UNL d   1      -0.588   5.029   0.625  0.00  0.00     0.141 C 
ATOM      5  C   UNL d   1       1.124   4.752  -1.091  0.00  0.00     0.141 C 
ATOM      6  C   UNL d   1      -0.475   3.537   1.007  0.00  0.00     0.118 C 
ATOM      7  C   UNL d   1       1.355   3.289  -0.663  0.00  0.00     0.118 C 
ATOM      8  O   UNL d   1       0.737   7.281   1.558  0.00  0.00    -0.267 OA
ENDROOT
BRANCH   2   9
ATOM      9  C   UNL d   1       0.134   1.376   0.153  0.00  0.00     0.159 A 
ATOM     10  N   UNL d   1      -0.869   0.833   0.863  0.00  0.00    -0.342 N 
ATOM     11  C   UNL d   1      -0.835  -0.495   1.089  0.00  0.00     0.099 A 
ATOM     12  HN  UNL d   1      -1.632   1.408   1.220  1.00  0.00     0.167 HD
ATOM     13  C   UNL d   1       0.172  -1.321   0.652  0.00  0.00    -0.027 A 
ATOM     14  C   UNL d   1       1.139  -0.684  -0.089  0.00  0.00     0.099 A 
ATOM     15  N   UNL d   1       1.139   0.638  -0.349  0.00  0.00    -0.342 N 
ATOM     16  HN  UNL d   1       1.877   1.065  -0.909  1.00  0.00     0.167 HD
BRANCH  13  17
ATOM     17  C   UNL d   1       0.220  -2.781   0.977  0.00  0.00     0.041 C 
BRANCH  17  18
ATOM     18  C   UNL d   1       1.454  -3.188   1.793  0.00  0.00     0.000 C 
ATOM     19  C   UNL d   1       1.522  -2.511   3.156  0.00  0.00     0.005 C 
ENDBRANCH  17  18
ENDBRANCH  13  17
ENDBRANCH   2   9
BRANCH   1  20
ATOM     20  C   UNL d   1       2.609   7.132   0.196  0.00  0.00     0.032 A 
ATOM     21  C   UNL d   1       2.824   8.520   0.158  0.00  0.00     0.020 A 
ATOM     22  C   UNL d   1       4.058   9.036  -0.248  0.00  0.00     0.043 A 
ATOM     23  C   UNL d   1       5.073   8.164  -0.623  0.00  0.00     0.116 A 
ATOM     24  C   UNL d   1       4.893   6.788  -0.553  0.00  0.00     0.043 A 
ATOM     25  F   UNL d   1       6.247   8.655  -1.041  0.00  0.00    -0.206 F 
ATOM     26  C   UNL d   1       3.673   6.272  -0.106  0.00  0.00     0.020 A 
ENDBRANCH   1  20
TORSDOF 4
