REMARK  5 active torsions:
REMARK  status: ('A' for Active; 'I' for Inactive)
REMARK    1  A    between atoms: C_8  and  C_1 
REMARK    2  A    between atoms: C_7  and  C_3 
REMARK    3  A    between atoms: N_16  and  C_4 
REMARK    4  A    between atoms: O_19  and  C_8 
REMARK    5  A    between atoms: C_23  and  O_19 
ROOT
ATOM      1  C   UNL d   1      -1.404  -1.452  -0.082  0.00  0.00     0.060 C 
ATOM      2  C   UNL d   1       0.830  -0.312   0.128  0.00  0.00     0.080 C 
ATOM      3  C   UNL d   1       0.076  -1.630   0.228  0.00  0.00     0.108 C 
ATOM      4  C   UNL d   1       0.178   0.862   0.031  0.00  0.00     0.138 C 
ATOM      5  C   UNL d   1      -1.970  -0.227  -0.077  0.00  0.00     0.064 C 
ATOM      6  O   UNL d   1      -1.205   0.917   0.086  0.00  0.00    -0.302 OA
ATOM      7  C   UNL d   1       2.258  -0.329   0.150  0.00  0.00     0.100 C 
ATOM      8  N   UNL d   1       3.415  -0.300   0.181  0.00  0.00    -0.191 NA
ATOM      9  C   UNL d   1      -3.425   0.110  -0.221  0.00  0.00     0.077 C 
ENDROOT
BRANCH   3  10
ATOM     10  C   UNL d   1       0.754  -2.746  -0.576  0.00  0.00    -0.043 A 
ATOM     11  C   UNL d   1       0.917  -2.661  -1.972  0.00  0.00     0.018 A 
ATOM     12  C   UNL d   1       1.527  -3.717  -2.630  0.00  0.00    -0.022 A 
ATOM     13  C   UNL d   1       1.867  -3.870  -4.062  0.00  0.00     0.068 C 
ATOM     14  C   UNL d   1       1.985  -4.828  -1.937  0.00  0.00     0.075 A 
ATOM     15  C   UNL d   1       2.181  -5.367  -4.071  0.00  0.00     0.180 C 
ATOM     16  O   UNL d   1       2.567  -5.776  -2.739  0.00  0.00    -0.350 OA
ATOM     17  C   UNL d   1       1.867  -4.936  -0.571  0.00  0.00     0.038 A 
ATOM     18  C   UNL d   1       1.240  -3.890   0.110  0.00  0.00     0.011 A 
ENDBRANCH   3  10
BRANCH   4  19
ATOM     19  N   UNL d   1       0.745   2.103  -0.118  0.00  0.00    -0.282 NA
ATOM     20  H   UNL d   1       0.145   2.857   0.206  0.00  0.00     0.126 HD
ATOM     21  H   UNL d   1       1.720   2.199   0.158  0.00  0.00     0.126 HD
ENDBRANCH   4  19
BRANCH   1  22
ATOM     22  C   UNL d   1      -2.182  -2.674  -0.395  0.00  0.00     0.292 C 
ATOM     23  O   UNL d   1      -2.037  -3.749   0.163  0.00  0.00    -0.259 OA
BRANCH  22  24
ATOM     24  O   UNL d   1      -2.946  -2.419  -1.485  0.00  0.00    -0.318 OA
BRANCH  24  25
ATOM     25  C   UNL d   1      -3.458  -3.531  -2.225  0.00  0.00     0.174 C 
ATOM     26  C   UNL d   1      -2.741  -3.508  -3.561  0.00  0.00     0.034 C 
ENDBRANCH  24  25
ENDBRANCH  22  24
ENDBRANCH   1  22
TORSDOF 5
