REMARK  3 active torsions:
REMARK  status: ('A' for Active; 'I' for Inactive)
REMARK    1  A    between atoms: C_8  and  C_1 
REMARK    2  A    between atoms: C_7  and  C_2 
REMARK    3  A    between atoms: O_16  and  C_8 
ROOT
ATOM      1  C   UNL d   1       1.077  -1.533   0.113  0.00  0.00     0.079 A 
ATOM      2  C   UNL d   1       2.289  -0.886  -0.094  0.00  0.00     0.083 A 
ATOM      3  N   UNL d   1       2.299   0.440  -0.335  0.00  0.00    -0.298 N 
ATOM      4  HN  UNL d   1       3.186   0.913  -0.504  1.00  0.00     0.187 HD
ATOM      5  N   UNL d   1       1.129   1.164  -0.354  0.00  0.00    -0.299 N 
ATOM      6  HN  UNL d   1       1.164   2.166  -0.539  1.00  0.00     0.187 HD
ATOM      7  C   UNL d   1      -0.142  -0.800   0.115  0.00  0.00     0.011 A 
ATOM      8  C   UNL d   1      -0.051   0.577  -0.135  0.00  0.00     0.059 A 
ATOM      9  C   UNL d   1      -1.429  -1.354   0.356  0.00  0.00     0.015 A 
ATOM     10  C   UNL d   1      -1.206   1.351  -0.162  0.00  0.00     0.032 A 
ATOM     11  C   UNL d   1      -2.578  -0.563   0.315  0.00  0.00     0.001 A 
ATOM     12  C   UNL d   1      -2.466   0.794   0.053  0.00  0.00     0.002 A 
ENDROOT
BRANCH   2  13
ATOM     13  C   UNL d   1       3.619  -1.515  -0.171  0.00  0.00     0.034 A 
ATOM     14  S   UNL d   1       4.986  -0.671   0.462  0.00  0.00    -0.100 SA
ATOM     15  C   UNL d   1       6.068  -1.899  -0.017  0.00  0.00     0.050 A 
ATOM     16  C   UNL d   1       5.421  -2.948  -0.623  0.00  0.00     0.008 A 
ATOM     17  C   UNL d   1       4.013  -2.729  -0.710  0.00  0.00     0.021 A 
ENDBRANCH   2  13
BRANCH   1  18
ATOM     18  C   UNL d   1       1.058  -2.978   0.365  0.00  0.00     0.179 C 
ATOM     19  O   UNL d   1       1.577  -3.499   1.334  0.00  0.00    -0.646 OA
BRANCH  18  20
ATOM     20  O   UNL d   1       0.424  -3.663  -0.611  0.00  0.00    -0.773 OA
ATOM     21  H   UNL d   1       0.052  -3.125  -1.338  0.00  0.00     0.167 HD
ENDBRANCH  18  20
ENDBRANCH   1  18
TORSDOF 3
