REMARK  3 active torsions:
REMARK  status: ('A' for Active; 'I' for Inactive)
REMARK    1  A    between atoms: C_5  and  C_1 
REMARK    2  A    between atoms: C_8  and  C_4 
REMARK    3  A    between atoms: O_15  and  C_8 
ROOT
ATOM      1  C   UNL d   1      -2.337   0.581  -0.054  0.00  0.00     0.045 A 
ATOM      2  N   UNL d   1      -1.165   1.252  -0.010  0.00  0.00    -0.355 N 
ATOM      3  HN  UNL d   1      -1.169   2.272   0.004  1.00  0.00     0.166 HD
ATOM      4  C   UNL d   1      -1.133  -1.498   0.011  0.00  0.00     0.052 A 
ATOM      5  C   UNL d   1      -2.349  -0.806  -0.050  0.00  0.00     0.049 A 
ATOM      6  C   UNL d   1       0.098  -0.809   0.056  0.00  0.00     0.007 A 
ATOM      7  C   UNL d   1       0.004   0.594   0.015  0.00  0.00     0.044 A 
ATOM      8  C   UNL d   1       1.387  -1.400   0.147  0.00  0.00     0.015 A 
ATOM      9  C   UNL d   1       1.169   1.349   0.009  0.00  0.00     0.030 A 
ATOM     10  C   UNL d   1       2.543  -0.619   0.125  0.00  0.00     0.001 A 
ATOM     11  C   UNL d   1       2.433   0.761   0.047  0.00  0.00     0.002 A 
ENDROOT
BRANCH   1  12
ATOM     12  C   UNL d   1      -3.574   1.403  -0.059  0.00  0.00     0.014 A 
ATOM     13  C   UNL d   1      -3.686   2.669  -0.683  0.00  0.00     0.046 A 
ATOM     14  C   UNL d   1      -4.882   3.404  -0.628  0.00  0.00     0.026 A 
ATOM     15 CL   UNL d   1      -2.415   3.399  -1.612  0.00  0.00    -0.083 Cl
ATOM     16  C   UNL d   1      -6.001   2.895   0.025  0.00  0.00     0.025 A 
ATOM     17  C   UNL d   1      -5.920   1.653   0.635  0.00  0.00     0.035 A 
ATOM     18  C   UNL d   1      -4.728   0.924   0.607  0.00  0.00     0.039 A 
ATOM     19 CL   UNL d   1      -7.301   1.000   1.427  0.00  0.00    -0.084 Cl
ENDBRANCH   1  12
BRANCH   4  20
ATOM     20  C   UNL d   1      -1.248  -2.972   0.061  0.00  0.00     0.177 C 
ATOM     21  O   UNL d   1      -2.049  -3.541   0.783  0.00  0.00    -0.646 OA
BRANCH  20  22
ATOM     22  O   UNL d   1      -0.463  -3.615  -0.830  0.00  0.00    -0.773 OA
ATOM     23  H   UNL d   1       0.032  -3.033  -1.438  0.00  0.00     0.167 HD
ENDBRANCH  20  22
ENDBRANCH   4  20
TORSDOF 3
