REMARK  6 active torsions:
REMARK  status: ('A' for Active; 'I' for Inactive)
REMARK    1  A    between atoms: O_14  and  C_1 
REMARK    2  A    between atoms: C_2  and  N_10 
REMARK    3  A    between atoms: O_15  and  C_3 
REMARK    4  A    between atoms: O_16  and  C_4 
REMARK    5  A    between atoms: N_10  and  N_5 
REMARK    6  A    between atoms: C_12  and  C_11 
ROOT
ATOM      1  C   UNL d   1       1.341  -0.359  -0.074  0.00  0.00     0.135 A 
ATOM      2  C   UNL d   1       0.392  -1.404   0.033  0.00  0.00     0.105 A 
ATOM      3  C   UNL d   1       0.898   0.974  -0.127  0.00  0.00     0.105 A 
ATOM      4  C   UNL d   1      -0.976  -1.117  -0.046  0.00  0.00     0.052 A 
ATOM      5  C   UNL d   1      -0.473   1.246  -0.142  0.00  0.00     0.052 A 
ATOM      6  C   UNL d   1      -1.402   0.207  -0.129  0.00  0.00    -0.014 A 
ENDROOT
BRANCH   6   7
ATOM      7  C   UNL d   1      -2.848   0.493  -0.175  0.00  0.00     0.118 C 
ATOM      8  N   UNL d   1      -3.280   1.707  -0.280  0.00  0.00    -0.309 N 
ATOM      9  HN  UNL d   1      -2.649   2.507  -0.329  1.00  0.00     0.186 HD
BRANCH   8  10
ATOM     10  N   UNL d   1      -4.636   1.848  -0.321  0.00  0.00    -0.277 N 
ATOM     11  H   UNL d   1      -5.250   1.040  -0.271  0.00  0.00     0.189 HD
BRANCH  10  12
ATOM     12  C   UNL d   1      -5.199   3.089  -0.452  0.00  0.00     0.184 C 
ATOM     13  S   UNL d   1      -6.838   3.324  -0.529  0.00  0.00    -0.040 SA
ATOM     14  N   UNL d   1      -4.316   4.113  -0.517  0.00  0.00    -0.375 N 
ATOM     15  H   UNL d   1      -3.330   3.881  -0.450  0.00  0.00     0.158 HD
ATOM     16  H   UNL d   1      -4.616   5.074  -0.608  0.00  0.00     0.158 HD
ENDBRANCH  10  12
ENDBRANCH   8  10
ENDBRANCH   6   7
BRANCH   3  17
ATOM     17  O   UNL d   1       1.662   2.110  -0.084  0.00  0.00    -0.353 OA
ATOM     18  C   UNL d   1       2.905   2.077  -0.770  0.00  0.00     0.210 C 
ENDBRANCH   3  17
BRANCH   2  19
ATOM     19  O   UNL d   1       0.874  -2.675   0.239  0.00  0.00    -0.353 OA
ATOM     20  C   UNL d   1      -0.030  -3.625   0.792  0.00  0.00     0.210 C 
ENDBRANCH   2  19
BRANCH   1  21
ATOM     21  O   UNL d   1       2.688  -0.602   0.037  0.00  0.00    -0.351 OA
ATOM     22  C   UNL d   1       3.212  -1.512  -0.931  0.00  0.00     0.210 C 
ENDBRANCH   1  21
TORSDOF 6
