REMARK  4 active torsions:
REMARK  status: ('A' for Active; 'I' for Inactive)
REMARK    1  A    between atoms: C_2  and  S_1 
REMARK    2  A    between atoms: O_3  and  S_1 
REMARK    3  A    between atoms: C_11  and  O_3 
REMARK    4  A    between atoms: C_4  and  C_11 
ROOT
ATOM      1  S   UNL d   1       0.834   0.128   0.073  0.00  0.00     0.298 S 
ATOM      2  O   UNL d   1       2.281   0.015   0.090  0.00  0.00    -0.193 OA
ATOM      3  O   UNL d   1       0.150   1.113   0.886  0.00  0.00    -0.193 OA
ENDROOT
BRANCH   1   4
ATOM      4  C   UNL d   1       0.181  -1.454   0.544  0.00  0.00     0.086 A 
ATOM      5  C   UNL d   1       0.854  -2.202   1.516  0.00  0.00     0.026 A 
ATOM      6  C   UNL d   1       0.344  -3.441   1.906  0.00  0.00     0.008 A 
ATOM      7  C   UNL d   1      -0.824  -3.946   1.318  0.00  0.00    -0.062 A 
ATOM      8  C   UNL d   1      -1.484  -3.186   0.341  0.00  0.00     0.008 A 
ATOM      9  C   UNL d   1      -1.355  -5.283   1.748  0.00  0.00     0.048 C 
ATOM     10  C   UNL d   1      -0.985  -1.940  -0.049  0.00  0.00     0.026 A 
ENDBRANCH   1   4
BRANCH   1  11
ATOM     11  O   UNL d   1       0.383   0.351  -1.482  0.00  0.00    -0.271 OA
BRANCH  11  12
ATOM     12  C   UNL d   1       0.764   1.596  -2.062  0.00  0.00     0.204 C 
BRANCH  12  13
ATOM     13  C   UNL d   1       0.287   1.749  -3.515  0.00  0.00    -0.000 C 
ATOM     14  C   UNL d   1      -1.233   1.718  -3.665  0.00  0.00    -0.019 C 
ATOM     15  C   UNL d   1      -1.683   1.911  -4.918  0.00  0.00    -0.025 C 
ATOM     16  C   UNL d   1      -0.598   2.131  -5.952  0.00  0.00     0.008 C 
ATOM     17  C   UNL d   1       0.219   3.357  -5.500  0.00  0.00     0.009 C 
ATOM     18  C   UNL d   1       0.336   0.901  -5.915  0.00  0.00     0.009 C 
ATOM     19  C   UNL d   1       0.767   3.124  -4.075  0.00  0.00     0.016 C 
ATOM     20  C   UNL d   1       0.838   0.652  -4.468  0.00  0.00     0.016 C 
ENDBRANCH  12  13
ENDBRANCH  11  12
ENDBRANCH   1  11
TORSDOF 4
