REMARK  7 active torsions:
REMARK  status: ('A' for Active; 'I' for Inactive)
REMARK    1  A    between atoms: N_2  and  S_1 
REMARK    2  A    between atoms: C_10  and  S_1 
REMARK    3  A    between atoms: C_3  and  N_2 
REMARK       I    between atoms: C_4  and  N_13 
REMARK       I    between atoms: N_9  and  C_4 
REMARK    4  A    between atoms: C_14  and  N_9 
REMARK    5  A    between atoms: N_13  and  C_22 
REMARK    6  A    between atoms: O_25  and  C_19 
REMARK    7  A    between atoms: C_30  and  O_25 
ROOT
ATOM      1  C   UNL d   1       1.091   1.159  -1.141  0.00  0.00     0.075 A 
ATOM      2  C   UNL d   1       0.704   0.736  -2.416  0.00  0.00     0.027 A 
ATOM      3  C   UNL d   1       1.198   2.522  -0.862  0.00  0.00     0.027 A 
ATOM      4  C   UNL d   1       0.517   3.054  -3.140  0.00  0.00     0.036 A 
ATOM      5  C   UNL d   1       0.921   3.463  -1.865  0.00  0.00     0.031 A 
ATOM      6  C   UNL d   1       0.422   1.682  -3.409  0.00  0.00     0.031 A 
ENDROOT
BRANCH   1   7
ATOM      7  S   UNL d   1       1.222  -0.034   0.177  0.00  0.00     0.248 S 
ATOM      8  O   UNL d   1       0.974   0.678   1.415  0.00  0.00    -0.205 OA
ATOM      9  O   UNL d   1       0.401  -1.177  -0.172  0.00  0.00    -0.205 OA
BRANCH   7  10
ATOM     10  N   UNL d   1       2.836  -0.469   0.225  0.00  0.00    -0.151 NA
ATOM     11  H   UNL d   1       3.079  -0.757   1.167  0.00  0.00     0.149 HD
BRANCH  10  12
ATOM     12  C   UNL d   1       3.183  -1.443  -0.705  0.00  0.00     0.171 A 
ATOM     13  N   UNL d   1       3.361  -1.049  -1.965  0.00  0.00    -0.336 N 
ATOM     14  C   UNL d   1       3.651  -2.023  -2.846  0.00  0.00     0.009 A 
ATOM     15  HN  UNL d   1       3.284  -0.071  -2.243  1.00  0.00     0.168 HD
ATOM     16  C   UNL d   1       3.894  -1.611  -4.266  0.00  0.00     0.068 C 
ATOM     17  C   UNL d   1       3.713  -3.356  -2.482  0.00  0.00     0.049 A 
ATOM     18  C   UNL d   1       3.494  -3.647  -1.147  0.00  0.00     0.009 A 
ATOM     19  N   UNL d   1       3.249  -2.690  -0.230  0.00  0.00    -0.336 N 
ATOM     20  C   UNL d   1       3.501  -5.073  -0.679  0.00  0.00     0.068 C 
ATOM     21  HN  UNL d   1       3.123  -2.904   0.760  1.00  0.00     0.168 HD
ENDBRANCH  10  12
ENDBRANCH   7  10
ENDBRANCH   1   7
BRANCH   4  22
ATOM     22  N   UNL d   1       0.133   3.948  -4.164  0.00  0.00    -0.309 N 
ATOM     23  C   UNL d   1       0.322   5.305  -4.193  0.00  0.00     0.325 C 
ATOM     24  N   UNL d   1      -0.322   5.993  -5.191  0.00  0.00    -0.306 N 
ATOM     25  O   UNL d   1       0.998   5.959  -3.401  0.00  0.00    -0.247 OA
ATOM     26  H   UNL d   1      -0.031   6.962  -5.238  0.00  0.00     0.171 HD
ATOM     27  H   UNL d   1      -0.286   3.542  -4.988  0.00  0.00     0.170 HD
BRANCH  24  28
ATOM     28  C   UNL d   1      -0.975   5.471  -6.314  0.00  0.00     0.069 A 
ATOM     29  C   UNL d   1      -2.375   5.420  -6.414  0.00  0.00     0.095 A 
ATOM     30  C   UNL d   1      -2.947   4.818  -7.542  0.00  0.00     0.039 A 
ATOM     31  C   UNL d   1      -2.148   4.330  -8.579  0.00  0.00     0.003 A 
ATOM     32  C   UNL d   1      -0.763   4.437  -8.498  0.00  0.00     0.002 A 
ATOM     33  C   UNL d   1      -0.177   5.005  -7.367  0.00  0.00     0.032 A 
BRANCH  29  34
ATOM     34  O   UNL d   1      -3.294   5.832  -5.485  0.00  0.00    -0.349 OA
BRANCH  34  35
ATOM     35  C   UNL d   1      -2.998   7.027  -4.762  0.00  0.00     0.171 C 
ATOM     36  C   UNL d   1      -4.252   7.465  -4.023  0.00  0.00     0.034 C 
ENDBRANCH  34  35
ENDBRANCH  29  34
ENDBRANCH  24  28
ENDBRANCH   4  22
TORSDOF 7
