REMARK  6 active torsions:
REMARK  status: ('A' for Active; 'I' for Inactive)
REMARK    1  A    between atoms: C_2  and  S_1 
REMARK    2  A    between atoms: N_3  and  S_1 
REMARK    3  A    between atoms: C_10  and  N_3 
REMARK    4  A    between atoms: C_14  and  N_3 
REMARK    5  A    between atoms: C_15  and  C_10 
REMARK    6  A    between atoms: C_13  and  C_14 
ROOT
ATOM      1  N   UNL d   1       2.983   0.879  -5.316  0.00  0.00    -0.197 NA
ATOM      2  C   UNL d   1       2.754   0.419  -4.277  0.00  0.00     0.060 C 
ATOM      3  C   UNL d   1       2.430  -0.130  -2.949  0.00  0.00     0.139 C 
ENDROOT
BRANCH   3   4
ATOM      4  C   UNL d   1       0.925  -0.025  -2.707  0.00  0.00     0.122 C 
BRANCH   4   5
ATOM      5  N   UNL d   1       0.453  -0.507  -1.361  0.00  0.00    -0.201 NA
BRANCH   5   6
ATOM      6  S   UNL d   1       1.102   0.292   0.014  0.00  0.00     0.250 S 
ATOM      7  O   UNL d   1       0.264   0.103   1.173  0.00  0.00    -0.205 OA
ATOM      8  O   UNL d   1       2.515  -0.033   0.056  0.00  0.00    -0.205 OA
BRANCH   6   9
ATOM      9  C   UNL d   1       1.099   2.053  -0.295  0.00  0.00     0.115 A 
ATOM     10  S   UNL d   1      -0.423   2.819  -0.429  0.00  0.00    -0.089 SA
ATOM     11  C   UNL d   1       0.296   4.329  -0.789  0.00  0.00     0.051 A 
ATOM     12  C   UNL d   1       1.671   4.264  -0.769  0.00  0.00     0.009 A 
ATOM     13  C   UNL d   1       2.136   2.951  -0.473  0.00  0.00     0.033 A 
ENDBRANCH   6   9
ENDBRANCH   5   6
BRANCH   5  14
ATOM     14  C   UNL d   1      -1.024  -0.727  -1.352  0.00  0.00     0.146 C 
BRANCH  14  15
ATOM     15  C   UNL d   1      -1.566  -1.687  -0.318  0.00  0.00    -0.044 A 
ATOM     16  C   UNL d   1      -2.844  -1.465   0.221  0.00  0.00     0.008 A 
ATOM     17  C   UNL d   1      -3.392  -2.351   1.151  0.00  0.00     0.001 A 
ATOM     18  C   UNL d   1      -2.672  -3.474   1.549  0.00  0.00     0.000 A 
ATOM     19  C   UNL d   1      -1.408  -3.713   1.014  0.00  0.00     0.001 A 
ATOM     20  C   UNL d   1      -0.860  -2.832   0.078  0.00  0.00     0.008 A 
ENDBRANCH  14  15
ENDBRANCH   5  14
ENDBRANCH   4   5
ENDBRANCH   3   4
TORSDOF 6
