REMARK  6 active torsions:
REMARK  status: ('A' for Active; 'I' for Inactive)
REMARK    1  A    between atoms: N_3  and  C_1 
REMARK    2  A    between atoms: N_4  and  C_1 
REMARK    3  A    between atoms: C_2  and  N_3 
REMARK    4  A    between atoms: C_8  and  N_4 
REMARK    5  A    between atoms: C_15  and  C_8 
REMARK    6  A    between atoms: O_14  and  C_15 
ROOT
ATOM      1  C   UNL d   1       1.059   0.121   0.013  0.00  0.00     0.172 C 
ATOM      2  S   UNL d   1       2.637   0.370   0.516  0.00  0.00    -0.041 SA
ENDROOT
BRANCH   1   3
ATOM      3  N   UNL d   1       0.561  -1.008  -0.566  0.00  0.00    -0.332 N 
ATOM      4  H   UNL d   1      -0.057  -0.840  -1.365  0.00  0.00     0.168 HD
BRANCH   3   5
ATOM      5  C   UNL d   1       0.962  -2.345  -0.339  0.00  0.00     0.057 A 
ATOM      6  C   UNL d   1       1.343  -2.760   0.945  0.00  0.00     0.055 A 
ATOM      7  C   UNL d   1       1.648  -4.097   1.191  0.00  0.00     0.036 A 
ATOM      8 CL   UNL d   1       2.056  -4.599   2.786  0.00  0.00    -0.084 Cl
ATOM      9  C   UNL d   1       1.596  -5.036   0.164  0.00  0.00     0.026 A 
ATOM     10  C   UNL d   1       1.209  -4.636  -1.118  0.00  0.00     0.028 A 
ATOM     11  C   UNL d   1       0.872  -3.301  -1.363  0.00  0.00     0.060 A 
ATOM     12 CL   UNL d   1       0.396  -2.863  -2.966  0.00  0.00    -0.082 Cl
ENDBRANCH   3   5
ENDBRANCH   1   3
BRANCH   1  13
ATOM     13  N   UNL d   1       0.191   1.157   0.183  0.00  0.00    -0.356 N 
ATOM     14  H   UNL d   1       0.646   1.966   0.592  0.00  0.00     0.162 HD
BRANCH  13  15
ATOM     15  C   UNL d   1      -1.285   1.217   0.057  0.00  0.00     0.046 C 
ATOM     16  C   UNL d   1      -1.960   0.066   0.826  0.00  0.00     0.040 C 
ATOM     17  C   UNL d   1      -1.734   2.541   0.713  0.00  0.00     0.040 C 
BRANCH  15  18
ATOM     18  C   UNL d   1      -1.737   1.244  -1.427  0.00  0.00     0.194 C 
BRANCH  18  19
ATOM     19  O   UNL d   1      -1.440   0.025  -2.108  0.00  0.00    -0.398 OA
ATOM     20  H   UNL d   1      -1.775   0.126  -3.018  0.00  0.00     0.209 HD
ENDBRANCH  18  19
ENDBRANCH  15  18
ENDBRANCH  13  15
ENDBRANCH   1  13
TORSDOF 6
