REMARK  5 active torsions:
REMARK  status: ('A' for Active; 'I' for Inactive)
REMARK       I    between atoms: N_2  and  C_1 
REMARK    1  A    between atoms: O_6  and  C_1 
REMARK       I    between atoms: C_4  and  N_3 
REMARK    2  A    between atoms: C_5  and  C_4 
REMARK    3  A    between atoms: C_15  and  O_6 
REMARK    4  A    between atoms: C_8  and  C_7 
REMARK    5  A    between atoms: O_17  and  C_8 
ROOT
ATOM      1  C   UNL d   1       0.906   0.163   0.225  0.00  0.00     0.363 C 
ATOM      2  N   UNL d   1       0.491  -0.723   1.200  0.00  0.00    -0.325 N 
ATOM      3  N   UNL d   1      -0.029  -2.932   2.935  0.00  0.00    -0.346 N 
ATOM      4  C   UNL d   1      -0.873  -3.490   3.879  0.00  0.00     0.243 C 
ATOM      5  O   UNL d   1       0.512   0.099  -0.934  0.00  0.00    -0.238 OA
ATOM      6  C   UNL d   1       0.745  -0.570   2.640  0.00  0.00     0.148 C 
ATOM      7  C   UNL d   1      -0.475  -1.761   0.830  0.00  0.00     0.148 C 
ATOM      8  C   UNL d   1       0.966  -1.928   3.349  0.00  0.00     0.146 C 
ATOM      9  C   UNL d   1      -0.094  -3.095   1.476  0.00  0.00     0.146 C 
ATOM     10  O   UNL d   1      -0.765  -3.263   5.084  0.00  0.00    -0.268 OA
ENDROOT
BRANCH   4  11
ATOM     11  C   UNL d   1      -1.957  -4.390   3.406  0.00  0.00     0.081 C 
ATOM     12  C   UNL d   1      -2.744  -5.032   4.284  0.00  0.00     0.086 C 
BRANCH  12  13
ATOM     13  C   UNL d   1      -3.812  -5.895   3.753  0.00  0.00     0.165 C 
ATOM     14  O   UNL d   1      -4.021  -6.076   2.562  0.00  0.00    -0.647 OA
BRANCH  13  15
ATOM     15  O   UNL d   1      -4.545  -6.467   4.724  0.00  0.00    -0.773 OA
ATOM     16  H   UNL d   1      -4.286  -6.242   5.635  0.00  0.00     0.167 HD
ENDBRANCH  13  15
ENDBRANCH  12  13
ENDBRANCH   4  11
BRANCH   1  17
ATOM     17  O   UNL d   1       1.809   1.081   0.670  0.00  0.00    -0.294 OA
BRANCH  17  18
ATOM     18  C   UNL d   1       2.417   2.008  -0.275  0.00  0.00     0.061 C 
ATOM     19  C   UNL d   1       1.388   3.000  -0.837  0.00  0.00     0.046 C 
ATOM     20  C   UNL d   1       3.456   2.799   0.537  0.00  0.00     0.046 C 
ATOM     21  C   UNL d   1       3.169   1.272  -1.397  0.00  0.00     0.046 C 
ENDBRANCH  17  18
ENDBRANCH   1  17
TORSDOF 5
