REMARK  3 active torsions:
REMARK  status: ('A' for Active; 'I' for Inactive)
REMARK    1  A    between atoms: C_5  and  N_1 
REMARK    2  A    between atoms: C_9  and  C_5 
REMARK    3  A    between atoms: C_15  and  C_11 
ROOT
ATOM      1  N   UNL d   1       1.546  -2.864  -1.510  0.00  0.00    -0.272 N 
ATOM      2  C   UNL d   1       1.387  -2.236  -2.719  0.00  0.00     0.374 A 
ATOM      3  C   UNL d   1       1.062  -4.141  -1.634  0.00  0.00     0.146 A 
ATOM      4  O   UNL d   1       0.808  -3.095  -3.667  0.00  0.00    -0.257 OA
ATOM      5  C   UNL d   1       0.623  -4.247  -2.932  0.00  0.00     0.125 A 
ATOM      6  N   UNL d   1       0.995  -5.104  -0.709  0.00  0.00    -0.350 N 
ATOM      7  HN  UNL d   1       1.333  -4.979   0.246  1.00  0.00     0.166 HD
ATOM      8  O   UNL d   1       1.699  -1.082  -2.984  0.00  0.00    -0.237 OA
ATOM      9  C   UNL d   1       0.052  -5.419  -3.372  0.00  0.00     0.043 A 
ATOM     10  C   UNL d   1       0.439  -6.259  -1.148  0.00  0.00     0.090 A 
ATOM     11  C   UNL d   1      -0.043  -6.459  -2.447  0.00  0.00     0.020 A 
ENDROOT
BRANCH   1  12
ATOM     12  C   UNL d   1       2.076  -2.309  -0.289  0.00  0.00     0.175 C 
BRANCH  12  13
ATOM     13  C   UNL d   1       3.587  -2.353  -0.121  0.00  0.00    -0.033 A 
ATOM     14  C   UNL d   1       4.235  -1.870   1.044  0.00  0.00    -0.051 A 
ATOM     15  C   UNL d   1       5.652  -1.850   1.063  0.00  0.00     0.007 A 
ATOM     16  C   UNL d   1       6.417  -2.309  -0.006  0.00  0.00     0.001 A 
ATOM     17  C   UNL d   1       5.785  -2.811  -1.127  0.00  0.00     0.001 A 
ATOM     18  C   UNL d   1       4.392  -2.835  -1.180  0.00  0.00     0.009 A 
BRANCH  14  19
ATOM     19  C   UNL d   1       3.585  -1.252   2.274  0.00  0.00     0.034 C 
ATOM     20  C   UNL d   1       2.230  -1.735   2.764  0.00  0.00     0.010 C 
ENDBRANCH  14  19
ENDBRANCH  12  13
ENDBRANCH   1  12
TORSDOF 3
