REMARK  2 active torsions:
REMARK  status: ('A' for Active; 'I' for Inactive)
REMARK    1  A    between atoms: C_3  and  C_4 
REMARK    2  A    between atoms: C_13  and  C_6 
ROOT
ATOM      1  C   UNL d   1      -3.273  -1.969  -0.011  0.00  0.00     0.011 A 
ATOM      2  C   UNL d   1      -4.126  -2.525   0.992  0.00  0.00     0.070 A 
ATOM      3  N   UNL d   1      -5.414  -2.389   0.626  0.00  0.00    -0.299 N 
ATOM      4  HN  UNL d   1      -6.242  -2.711   1.127  1.00  0.00     0.187 HD
ATOM      5  N   UNL d   1      -5.368  -1.736  -0.545  0.00  0.00    -0.311 N 
ATOM      6  C   UNL d   1      -4.107  -1.507  -1.000  0.00  0.00     0.120 A 
ATOM      7  H   UNL d   1      -6.246  -1.478  -0.982  0.00  0.00     0.186 HD
ENDROOT
BRANCH   1   8
ATOM      8  C   UNL d   1      -1.857  -1.835  -0.034  0.00  0.00     0.033 C 
ATOM      9  C   UNL d   1      -1.171  -0.794   0.460  0.00  0.00     0.045 A 
ATOM     10  C   UNL d   1      -1.762   0.442   1.095  0.00  0.00     0.257 A 
ATOM     11  C   UNL d   1       0.288  -0.638   0.492  0.00  0.00     0.006 A 
ATOM     12  N   UNL d   1      -0.668   1.214   1.451  0.00  0.00    -0.322 N 
ATOM     13  O   UNL d   1      -2.929   0.735   1.256  0.00  0.00    -0.267 OA
ATOM     14  C   UNL d   1       0.528   0.596   1.105  0.00  0.00     0.046 A 
ATOM     15  H   UNL d   1      -0.766   2.110   1.902  0.00  0.00     0.169 HD
ATOM     16  C   UNL d   1       1.798   1.090   1.315  0.00  0.00     0.030 A 
ATOM     17  C   UNL d   1       2.869   0.302   0.891  0.00  0.00     0.002 A 
ATOM     18  C   UNL d   1       2.645  -0.945   0.277  0.00  0.00     0.001 A 
ATOM     19  C   UNL d   1       1.345  -1.426   0.072  0.00  0.00     0.015 A 
ENDBRANCH   1   8
BRANCH   2  20
ATOM     20  C   UNL d   1      -3.780  -3.168   2.265  0.00  0.00    -0.007 A 
ATOM     21  C   UNL d   1      -4.636  -3.039   3.373  0.00  0.00     0.017 A 
ATOM     22  C   UNL d   1      -4.339  -3.671   4.584  0.00  0.00     0.043 A 
ATOM     23  C   UNL d   1      -3.184  -4.434   4.691  0.00  0.00     0.116 A 
ATOM     24  C   UNL d   1      -2.319  -4.574   3.612  0.00  0.00     0.043 A 
ATOM     25  F   UNL d   1      -2.902  -5.051   5.845  0.00  0.00    -0.206 F 
ATOM     26  C   UNL d   1      -2.618  -3.945   2.400  0.00  0.00     0.017 A 
ENDBRANCH   2  20
TORSDOF 2
