REMARK  5 active torsions:
REMARK  status: ('A' for Active; 'I' for Inactive)
REMARK    1  A    between atoms: C_2  and  CA_1 
REMARK    2  A    between atoms: CA_1  and  N_3 
REMARK    3  A    between atoms: CB_5  and  CA_1 
REMARK    4  A    between atoms: OXT_6  and  C_2 
REMARK       I    between atoms: C3_12  and  N_3 
REMARK    5  A    between atoms: CG_7  and  CB_5 
ROOT
ATOM      1  CA  LEU d   1       1.037   0.087  -0.025  0.00  0.00     0.182 C 
ENDROOT
BRANCH   1   2
ATOM      2  C   LEU d   1       0.540   1.321  -0.790  0.00  0.00     0.163 C 
ATOM      3  O   LEU d   1       1.108   1.811  -1.758  0.00  0.00    -0.648 OA
BRANCH   2   4
ATOM      4  OXT LEU d   1      -0.664   1.764  -0.356  0.00  0.00    -0.775 OA
ATOM      5  HXT LEU d   1      -1.087   1.146   0.283  0.00  0.00     0.167 HD
ENDBRANCH   2   4
ENDBRANCH   1   2
BRANCH   1   6
ATOM      6  N   LEU d   1       0.535  -1.100  -0.715  0.00  0.00    -0.347 N 
ATOM      7  C3  <1> d   1      -0.726  -1.572  -0.435  0.00  0.00     0.214 C 
ATOM      8  O2  <1> d   1      -1.455  -1.035   0.390  0.00  0.00    -0.274 OA
ATOM      9  C6  <1> d   1      -1.128  -2.785  -1.232  0.00  0.00     0.117 C 
ATOM     10  H   LEU d   1       0.927  -1.308  -1.626  0.00  0.00     0.163 HD
ENDBRANCH   1   6
BRANCH   1  11
ATOM     11  CB  LEU d   1       2.567   0.037   0.066  0.00  0.00     0.040 C 
BRANCH  11  12
ATOM     12  CG  LEU d   1       3.210   1.231   0.800  0.00  0.00    -0.020 C 
ATOM     13  CD1 LEU d   1       2.739   1.358   2.250  0.00  0.00     0.009 C 
ATOM     14  CD2 LEU d   1       4.734   1.097   0.763  0.00  0.00     0.009 C 
ENDBRANCH  11  12
ENDBRANCH   1  11
TORSDOF 5
