REMARK  6 active torsions:
REMARK  status: ('A' for Active; 'I' for Inactive)
REMARK       I    between atoms: C_5  and  N_1 
REMARK    1  A    between atoms: C_8  and  C_2 
REMARK    2  A    between atoms: C_3  and  N_10 
REMARK    3  A    between atoms: C_7  and  C_4 
REMARK    4  A    between atoms: C_16  and  C_5 
REMARK    5  A    between atoms: C_9  and  C_7 
REMARK    6  A    between atoms: O_21  and  C_8 
REMARK       I    between atoms: N_10  and  C_9 
ROOT
ATOM      1  N   UNL d   1      -1.781  -1.683  -0.036  0.00  0.00    -0.333 N 
ATOM      2  C   UNL d   1      -0.298  -1.687  -0.199  0.00  0.00     0.188 C 
ATOM      3  C   UNL d   1      -2.392  -2.311   1.054  0.00  0.00     0.254 C 
ATOM      4  C   UNL d   1       0.276  -0.303   0.267  0.00  0.00     0.241 C 
ATOM      5  N   UNL d   1      -0.438   0.814  -0.072  0.00  0.00    -0.358 N 
ATOM      6  O   UNL d   1      -1.772  -2.985   1.870  0.00  0.00    -0.267 OA
ATOM      7  O   UNL d   1       1.393  -0.158   0.764  0.00  0.00    -0.271 OA
ATOM      8  C   UNL d   1      -2.402  -0.532  -0.730  0.00  0.00     0.147 C 
ATOM      9  C   UNL d   1      -1.879   0.780  -0.145  0.00  0.00     0.142 C 
ATOM     10  H   UNL d   1       0.004   1.663   0.256  0.00  0.00     0.162 HD
ENDROOT
BRANCH   2  11
ATOM     11  C   UNL d   1       0.592  -2.775   0.415  0.00  0.00     0.138 C 
BRANCH  11  12
ATOM     12  C   UNL d   1       0.448  -4.181  -0.128  0.00  0.00     0.224 C 
ATOM     13  N   UNL d   1      -0.444  -4.944   0.598  0.00  0.00    -0.326 N 
ATOM     14  H   UNL d   1      -0.836  -4.487   1.424  0.00  0.00     0.169 HD
ATOM     15  O   UNL d   1       1.173  -4.582  -1.034  0.00  0.00    -0.273 OA
BRANCH  13  16
ATOM     16  C   UNL d   1      -0.467  -6.342   0.601  0.00  0.00     0.058 A 
ATOM     17  C   UNL d   1      -0.275  -7.225  -0.454  0.00  0.00     0.106 A 
ATOM     18  S   UNL d   1      -0.224  -8.856   0.113  0.00  0.00    -0.094 SA
ATOM     19  C   UNL d   1      -0.597  -8.400   1.707  0.00  0.00     0.053 A 
ATOM     20  C   UNL d   1      -0.723  -7.037   1.829  0.00  0.00     0.038 A 
BRANCH  17  21
ATOM     21  C   UNL d   1      -0.185  -7.038  -1.891  0.00  0.00     0.302 C 
ATOM     22  O   UNL d   1       0.329  -7.821  -2.685  0.00  0.00    -0.259 OA
BRANCH  21  23
ATOM     23  O   UNL d   1      -0.898  -5.936  -2.273  0.00  0.00    -0.322 OA
ATOM     24  C   UNL d   1      -0.922  -5.737  -3.685  0.00  0.00     0.213 C 
ENDBRANCH  21  23
ENDBRANCH  17  21
ENDBRANCH  13  16
ENDBRANCH  11  12
ENDBRANCH   2  11
BRANCH   3  25
ATOM     25  C   UNL d   1      -3.865  -2.197   1.290  0.00  0.00     0.032 A 
ATOM     26  C   UNL d   1      -4.806  -2.264   0.256  0.00  0.00     0.017 A 
ATOM     27  C   UNL d   1      -6.161  -2.052   0.526  0.00  0.00     0.001 A 
ATOM     28  C   UNL d   1      -6.590  -1.852   1.837  0.00  0.00     0.000 A 
ATOM     29  C   UNL d   1      -5.669  -1.877   2.883  0.00  0.00     0.001 A 
ATOM     30  C   UNL d   1      -4.309  -2.045   2.611  0.00  0.00     0.017 A 
ENDBRANCH   3  25
TORSDOF 6
