REMARK  6 active torsions:
REMARK  status: ('A' for Active; 'I' for Inactive)
REMARK    1  A    between atoms: C_6  and  C_2 
REMARK    2  A    between atoms: C_12  and  C_6 
REMARK    3  A    between atoms: C_15  and  C_7 
REMARK    4  A    between atoms: C_18  and  C_12 
REMARK    5  A    between atoms: N_13  and  C_18 
REMARK    6  A    between atoms: C_14  and  N_13 
ROOT
ATOM      1  N   UNL d   1      -7.108   0.586  -0.026  0.00  0.00    -0.293 NA
ATOM      2  H   UNL d   1      -6.601  -0.129  -0.549  0.00  0.00     0.127 HD
ENDROOT
BRANCH   1   3
ATOM      3  C   UNL d   1      -6.743   1.935  -0.475  0.00  0.00     0.100 C 
BRANCH   3   4
ATOM      4  C   UNL d   1      -7.172   2.966   0.563  0.00  0.00     0.099 C 
BRANCH   4   5
ATOM      5  C   UNL d   1      -6.845   4.384   0.137  0.00  0.00     0.167 C 
ATOM      6  O   UNL d   1      -6.282   4.604  -0.936  0.00  0.00    -0.292 OA
BRANCH   5   7
ATOM      7  C   UNL d   1      -7.246   5.432   1.075  0.00  0.00     0.052 A 
ATOM      8  S   UNL d   1      -6.906   7.077   0.706  0.00  0.00    -0.074 SA
ATOM      9  C   UNL d   1      -7.612   7.605   2.148  0.00  0.00     0.075 A 
ATOM     10  C   UNL d   1      -8.111   6.589   2.918  0.00  0.00     0.033 A 
ATOM     11 CL   UNL d   1      -7.650   9.281   2.519  0.00  0.00    -0.076 Cl
ATOM     12  C   UNL d   1      -7.899   5.322   2.293  0.00  0.00     0.025 A 
ENDBRANCH   5   7
ENDBRANCH   4   5
ENDBRANCH   3   4
ENDBRANCH   1   3
BRANCH   1  13
ATOM     13  C   UNL d   1      -8.460   0.223   0.036  0.00  0.00     0.008 A 
ATOM     14  C   UNL d   1      -9.467   0.818  -0.728  0.00  0.00     0.024 A 
ATOM     15  C   UNL d   1     -10.796   0.396  -0.626  0.00  0.00     0.009 A 
ATOM     16  C   UNL d   1     -11.155  -0.650   0.232  0.00  0.00    -0.055 A 
ATOM     17  C   UNL d   1     -10.144  -1.275   0.971  0.00  0.00     0.009 A 
ATOM     18  C   UNL d   1      -8.815  -0.851   0.861  0.00  0.00     0.024 A 
BRANCH  16  19
ATOM     19  C   UNL d   1     -12.594  -1.116   0.351  0.00  0.00     0.010 C 
ATOM     20  C   UNL d   1     -13.510   0.001   0.858  0.00  0.00     0.015 C 
ATOM     21  C   UNL d   1     -13.102  -1.676  -0.980  0.00  0.00     0.015 C 
ENDBRANCH  16  19
ENDBRANCH   1  13
TORSDOF 6
