REMARK  5 active torsions:
REMARK  status: ('A' for Active; 'I' for Inactive)
REMARK    1  A    between atoms: N_2  and  C_1 
REMARK    2  A    between atoms: N_6  and  C_1 
REMARK    3  A    between atoms: C_7  and  N_2 
REMARK    4  A    between atoms: C_15  and  N_6 
REMARK    5  A    between atoms: C_8  and  C_15 
ROOT
ATOM      1  N   UNL d   1       1.782   2.691  -3.119  0.00  0.00    -0.197 NA
ATOM      2  C   UNL d   1       2.539   2.265  -2.353  0.00  0.00     0.060 C 
ATOM      3  C   UNL d   1       3.418   1.713  -1.319  0.00  0.00     0.143 C 
ENDROOT
BRANCH   3   4
ATOM      4  C   UNL d   1       2.625   1.272  -0.087  0.00  0.00     0.139 C 
BRANCH   4   5
ATOM      5  N   UNL d   1       1.877   0.004  -0.258  0.00  0.00    -0.361 N 
ATOM      6  C   UNL d   1       2.674  -1.206  -0.031  0.00  0.00     0.152 C 
BRANCH   5   7
ATOM      7  C   UNL d   1       0.454  -0.023  -0.269  0.00  0.00     0.174 C 
ATOM      8  S   UNL d   1      -0.459  -1.369   0.150  0.00  0.00    -0.041 SA
BRANCH   7   9
ATOM      9  N   UNL d   1      -0.082   1.171  -0.728  0.00  0.00    -0.333 N 
ATOM     10  H   UNL d   1       0.427   1.569  -1.507  0.00  0.00     0.168 HD
BRANCH   9  11
ATOM     11  C   UNL d   1      -1.265   1.869  -0.411  0.00  0.00     0.034 A 
ATOM     12  C   UNL d   1      -2.121   1.550   0.647  0.00  0.00     0.032 A 
ATOM     13  C   UNL d   1      -3.208   2.377   0.950  0.00  0.00     0.044 A 
ATOM     14  C   UNL d   1      -3.425   3.534   0.210  0.00  0.00     0.116 A 
ATOM     15  C   UNL d   1      -2.589   3.867  -0.845  0.00  0.00     0.044 A 
ATOM     16  F   UNL d   1      -4.442   4.344   0.532  0.00  0.00    -0.206 F 
ATOM     17  C   UNL d   1      -1.517   3.031  -1.158  0.00  0.00     0.032 A 
ENDBRANCH   9  11
ENDBRANCH   7   9
ENDBRANCH   5   7
ENDBRANCH   4   5
ENDBRANCH   3   4
TORSDOF 5
