REMARK  5 active torsions:
REMARK  status: ('A' for Active; 'I' for Inactive)
REMARK    1  A    between atoms: C_8  and  C_2 
REMARK    2  A    between atoms: S_9  and  C_5 
REMARK    3  A    between atoms: C_24  and  S_9 
REMARK    4  A    between atoms: C_13  and  C_24 
REMARK       I    between atoms: N_15  and  C_13 
REMARK    5  A    between atoms: C_16  and  N_15 
ROOT
ATOM      1  N   UNL d   1       1.047   0.172   0.180  0.00  0.00    -0.315 N 
ATOM      2  C   UNL d   1       0.116   1.178   0.016  0.00  0.00     0.134 C 
ATOM      3  N   UNL d   1      -1.081   0.613  -0.026  0.00  0.00    -0.283 N 
ATOM      4  HN  UNL d   1      -1.956   1.090  -0.242  1.00  0.00     0.188 HD
ATOM      5  C   UNL d   1       0.324  -0.953   0.459  0.00  0.00     0.163 C 
ATOM      6  N   UNL d   1      -0.948  -0.719   0.268  0.00  0.00    -0.278 N 
ATOM      7  HN  UNL d   1      -1.703  -1.402   0.327  1.00  0.00     0.189 HD
ATOM      8  C   UNL d   1       2.480   0.241   0.044  0.00  0.00     0.160 C 
ENDROOT
BRANCH   5   9
ATOM      9  S   UNL d   1       0.985  -2.346   1.235  0.00  0.00    -0.083 SA
BRANCH   9  10
ATOM     10  C   UNL d   1      -0.423  -3.484   1.256  0.00  0.00     0.185 C 
BRANCH  10  11
ATOM     11  C   UNL d   1      -1.553  -3.211   2.244  0.00  0.00     0.231 C 
ATOM     12  N   UNL d   1      -1.646  -1.937   2.765  0.00  0.00    -0.326 N 
ATOM     13  H   UNL d   1      -1.032  -1.246   2.354  0.00  0.00     0.169 HD
ATOM     14  O   UNL d   1      -2.348  -4.125   2.476  0.00  0.00    -0.272 OA
BRANCH  12  15
ATOM     15  C   UNL d   1      -2.698  -1.403   3.539  0.00  0.00     0.037 A 
ATOM     16  C   UNL d   1      -3.693  -2.179   4.130  0.00  0.00     0.069 A 
ATOM     17  C   UNL d   1      -4.775  -1.567   4.760  0.00  0.00     0.104 A 
ATOM     18  O   UNL d   1      -5.755  -2.400   5.238  0.00  0.00    -0.346 OA
ATOM     19  C   UNL d   1      -4.844  -0.174   4.864  0.00  0.00     0.102 A 
ATOM     20  C   UNL d   1      -6.989  -1.689   5.371  0.00  0.00     0.202 C 
ATOM     21  C   UNL d   1      -6.767  -0.403   6.151  0.00  0.00     0.202 C 
ATOM     22  O   UNL d   1      -5.889   0.488   5.451  0.00  0.00    -0.346 OA
ATOM     23  C   UNL d   1      -3.827   0.608   4.324  0.00  0.00     0.042 A 
ATOM     24  C   UNL d   1      -2.756  -0.006   3.665  0.00  0.00     0.032 A 
ENDBRANCH  12  15
ENDBRANCH  10  11
ENDBRANCH   9  10
ENDBRANCH   5   9
BRANCH   2  25
ATOM     25  C   UNL d   1       0.361   2.617  -0.060  0.00  0.00     0.010 A 
ATOM     26  C   UNL d   1      -0.457   3.424  -0.866  0.00  0.00     0.027 A 
ATOM     27  C   UNL d   1      -0.284   4.820  -0.919  0.00  0.00    -0.025 A 
ATOM     28  C   UNL d   1      -1.111   5.636  -1.709  0.00  0.00     0.012 A 
ATOM     29  C   UNL d   1       0.736   5.418  -0.150  0.00  0.00    -0.026 A 
ATOM     30  C   UNL d   1      -0.926   7.019  -1.743  0.00  0.00     0.001 A 
ATOM     31  C   UNL d   1       0.090   7.605  -0.995  0.00  0.00     0.001 A 
ATOM     32  C   UNL d   1       0.917   6.811  -0.200  0.00  0.00     0.012 A 
ATOM     33  C   UNL d   1       1.538   4.616   0.671  0.00  0.00     0.013 A 
ATOM     34  C   UNL d   1       1.342   3.236   0.727  0.00  0.00     0.016 A 
ENDBRANCH   2  25
TORSDOF 5
