REMARK  2 active torsions:
REMARK  status: ('A' for Active; 'I' for Inactive)
REMARK       I    between atoms: C_3  and  N_4 
REMARK    1  A    between atoms: N_4  and  C_6 
REMARK    2  A    between atoms: C_7  and  C_12 
ROOT
ATOM      1  N   UNL d   1       4.823  -0.431  -2.499  0.00  0.00    -0.197 NA
ATOM      2  C   UNL d   1       4.386  -0.198  -1.447  0.00  0.00     0.063 C 
ATOM      3  C   UNL d   1       3.815   0.072  -0.120  0.00  0.00     0.162 C 
ENDROOT
BRANCH   3   4
ATOM      4  C   UNL d   1       4.311   1.368   0.475  0.00  0.00    -0.045 A 
ATOM      5  C   UNL d   1       3.637   2.574   0.248  0.00  0.00     0.010 A 
ATOM      6  C   UNL d   1       4.122   3.772   0.787  0.00  0.00     0.030 A 
ATOM      7  C   UNL d   1       5.289   3.790   1.563  0.00  0.00     0.034 A 
ATOM      8  C   UNL d   1       5.966   2.590   1.775  0.00  0.00     0.030 A 
ATOM      9  C   UNL d   1       5.485   1.391   1.238  0.00  0.00     0.010 A 
BRANCH   7  10
ATOM     10  N   UNL d   1       5.705   5.032   2.090  0.00  0.00    -0.328 N 
ATOM     11  C   UNL d   1       6.797   5.272   2.905  0.00  0.00     0.218 C 
ATOM     12  O   UNL d   1       7.617   4.448   3.298  0.00  0.00    -0.274 OA
ATOM     13  C   UNL d   1       6.925   6.716   3.323  0.00  0.00     0.117 C 
ATOM     14  H   UNL d   1       5.124   5.827   1.855  0.00  0.00     0.169 HD
ENDBRANCH   7  10
ENDBRANCH   3   4
TORSDOF 2
