REMARK  6 active torsions:
REMARK  status: ('A' for Active; 'I' for Inactive)
REMARK    1  A    between atoms: C_2  and  S_1 
REMARK    2  A    between atoms: N_8  and  S_1 
REMARK       I    between atoms: C_3  and  N_7 
REMARK       I    between atoms: N_11  and  C_3 
REMARK    3  A    between atoms: C_4  and  O_12 
REMARK    4  A    between atoms: N_7  and  C_5 
REMARK    5  A    between atoms: C_20  and  N_11 
REMARK    6  A    between atoms: O_12  and  C_21 
ROOT
ATOM      1  C   UNL d   1       2.457   5.306   1.742  0.00  0.00     0.325 C 
ATOM      2  N   UNL d   1       1.670   5.320   0.593  0.00  0.00    -0.308 N 
ATOM      3  N   UNL d   1       2.778   6.569   2.220  0.00  0.00    -0.309 N 
ATOM      4  O   UNL d   1       2.819   4.267   2.295  0.00  0.00    -0.247 OA
ATOM      5  H   UNL d   1       1.226   6.199   0.376  0.00  0.00     0.170 HD
ATOM      6  H   UNL d   1       2.166   7.335   1.985  0.00  0.00     0.170 HD
ENDROOT
BRANCH   2   7
ATOM      7  C   UNL d   1       1.123   4.165  -0.050  0.00  0.00     0.043 C 
ATOM      8  C   UNL d   1       1.461   2.847   0.317  0.00  0.00     0.055 C 
ATOM      9  C   UNL d   1       0.653   1.771  -0.075  0.00  0.00     0.081 C 
ATOM     10  C   UNL d   1      -0.489   1.998  -0.836  0.00  0.00     0.026 C 
ATOM     11  C   UNL d   1      -0.695   3.259  -1.385  0.00  0.00     0.010 C 
ATOM     12  C   UNL d   1       0.143   4.338  -1.050  0.00  0.00    -0.035 C 
ATOM     13  C   UNL d   1       0.072   5.571  -1.916  0.00  0.00     0.050 C 
BRANCH   9  14
ATOM     14  S   UNL d   1       1.162   0.079   0.176  0.00  0.00     0.260 S 
ATOM     15  O   UNL d   1       2.616   0.062   0.225  0.00  0.00    -0.200 OA
ATOM     16  O   UNL d   1       0.458  -0.723  -0.812  0.00  0.00    -0.200 OA
BRANCH  14  17
ATOM     17  N   UNL d   1       0.561  -0.347   1.695  0.00  0.00    -0.315 N 
ATOM     18  C   UNL d   1       1.215   0.219   2.883  0.00  0.00     0.162 C 
ATOM     19  C   UNL d   1      -0.894  -0.496   1.825  0.00  0.00     0.162 C 
ENDBRANCH  14  17
ENDBRANCH   9  14
ENDBRANCH   2   7
BRANCH   3  20
ATOM     20  C   UNL d   1       3.626   6.768   3.357  0.00  0.00     0.036 C 
ATOM     21  C   UNL d   1       4.588   5.826   3.735  0.00  0.00     0.032 C 
ATOM     22  C   UNL d   1       5.295   5.945   4.933  0.00  0.00     0.039 C 
ATOM     23  C   UNL d   1       5.026   6.989   5.806  0.00  0.00     0.078 C 
ATOM     24  C   UNL d   1       4.178   8.014   5.371  0.00  0.00     0.039 C 
ATOM     25  C   UNL d   1       3.489   7.914   4.147  0.00  0.00     0.032 C 
BRANCH  23  26
ATOM     26  O   UNL d   1       5.568   7.127   7.046  0.00  0.00    -0.255 OA
BRANCH  26  27
ATOM     27  C   UNL d   1       5.811   5.956   7.829  0.00  0.00     0.530 C 
ATOM     28  F   UNL d   1       5.574   4.785   7.200  0.00  0.00    -0.144 F 
ATOM     29  F   UNL d   1       7.100   5.962   8.234  0.00  0.00    -0.144 F 
ATOM     30  F   UNL d   1       5.027   5.991   8.931  0.00  0.00    -0.144 F 
ENDBRANCH  26  27
ENDBRANCH  23  26
ENDBRANCH   3  20
TORSDOF 6
