REMARK  3 active torsions:
REMARK  status: ('A' for Active; 'I' for Inactive)
REMARK    1  A    between atoms: C_2  and  S_1 
REMARK    2  A    between atoms: N_6  and  S_1 
REMARK    3  A    between atoms: C_8  and  N_6 
ROOT
ATOM      1  S   UNL d   1       0.895   0.289  -0.094  0.00  0.00     0.253 S 
ATOM      2  O   UNL d   1       0.071   1.476   0.018  0.00  0.00    -0.205 OA
ATOM      3  O   UNL d   1       0.830  -0.524  -1.289  0.00  0.00    -0.205 OA
ENDROOT
BRANCH   1   4
ATOM      4  C   UNL d   1       0.460  -0.808   1.253  0.00  0.00     0.122 A 
ATOM      5  S   UNL d   1      -0.263  -0.041   2.599  0.00  0.00    -0.076 SA
ATOM      6  C   UNL d   1      -0.359  -1.492   3.500  0.00  0.00     0.017 A 
ATOM      7  C   UNL d   1      -0.858  -1.637   4.810  0.00  0.00     0.021 A 
ATOM      8  C   UNL d   1       0.136  -2.577   2.775  0.00  0.00    -0.009 A 
ATOM      9  C   UNL d   1      -0.846  -2.900   5.406  0.00  0.00     0.025 A 
ATOM     10  C   UNL d   1      -0.358  -3.993   4.707  0.00  0.00     0.035 A 
ATOM     11  C   UNL d   1       0.125  -3.851   3.404  0.00  0.00     0.037 A 
ATOM     12 CL   UNL d   1      -0.340  -5.543   5.456  0.00  0.00    -0.084 Cl
ATOM     13  C   UNL d   1       0.600  -2.178   1.457  0.00  0.00    -0.021 A 
ATOM     14  C   UNL d   1       1.183  -3.155   0.483  0.00  0.00     0.051 C 
ENDBRANCH   1   4
BRANCH   1  15
ATOM     15  N   UNL d   1       2.521   0.758   0.059  0.00  0.00    -0.179 NA
ATOM     16  H   UNL d   1       2.812   1.146  -0.839  0.00  0.00     0.146 HD
BRANCH  15  17
ATOM     17  C   UNL d   1       2.862   1.603   1.173  0.00  0.00     0.044 A 
ATOM     18  C   UNL d   1       3.397   1.067   2.355  0.00  0.00     0.056 A 
ATOM     19 CL   UNL d   1       3.714  -0.622   2.527  0.00  0.00    -0.082 Cl
ATOM     20  C   UNL d   1       3.744   1.910   3.415  0.00  0.00     0.026 A 
ATOM     21  C   UNL d   1       3.566   3.288   3.301  0.00  0.00     0.002 A 
ATOM     22  C   UNL d   1       3.025   3.825   2.134  0.00  0.00     0.002 A 
ATOM     23  C   UNL d   1       2.666   2.985   1.074  0.00  0.00     0.026 A 
ENDBRANCH  15  17
ENDBRANCH   1  15
TORSDOF 3
