REMARK  5 active torsions:
REMARK  status: ('A' for Active; 'I' for Inactive)
REMARK    1  A    between atoms: C_9  and  C_1 
REMARK    2  A    between atoms: O_11  and  C_3 
REMARK    3  A    between atoms: C_19  and  N_5 
REMARK    4  A    between atoms: O_20  and  C_13 
REMARK    5  A    between atoms: C_14  and  C_19 
ROOT
ATOM      1  N   UNL d   1       0.705   4.235   0.050  0.00  0.00    -0.394 N 
ATOM      2  HN  UNL d   1       0.721   3.725  -0.833  1.00  0.00     0.159 HD
ATOM      3  C   UNL d   1       0.835   3.650   1.190  0.00  0.00     0.097 C 
ENDROOT
BRANCH   1   4
ATOM      4  C   UNL d   1       0.531   5.689   0.115  0.00  0.00     0.157 C 
BRANCH   4   5
ATOM      5  C   UNL d   1       1.844   6.428   0.039  0.00  0.00    -0.040 A 
ATOM      6  C   UNL d   1       2.435   6.705  -1.200  0.00  0.00     0.011 A 
ATOM      7  C   UNL d   1       3.659   7.377  -1.266  0.00  0.00     0.037 A 
ATOM      8  C   UNL d   1       4.306   7.785  -0.099  0.00  0.00     0.068 A 
ATOM      9  C   UNL d   1       3.738   7.486   1.140  0.00  0.00     0.037 A 
ATOM     10  C   UNL d   1       2.515   6.811   1.207  0.00  0.00     0.011 A 
BRANCH   8  11
ATOM     11  O   UNL d   1       5.500   8.427  -0.284  0.00  0.00    -0.356 OA
ATOM     12  C   UNL d   1       5.881   9.325   0.752  0.00  0.00     0.210 C 
ENDBRANCH   8  11
ENDBRANCH   4   5
ENDBRANCH   1   4
BRANCH   3  13
ATOM     13  C   UNL d   1       1.019   2.184   1.276  0.00  0.00     0.015 A 
ATOM     14  C   UNL d   1       1.164   1.554   2.514  0.00  0.00     0.099 A 
ATOM     15  C   UNL d   1       1.333   0.163   2.564  0.00  0.00     0.069 A 
ATOM     16 CL   UNL d   1       1.513  -0.638   4.082  0.00  0.00    -0.081 Cl
ATOM     17  C   UNL d   1       1.356  -0.593   1.393  0.00  0.00     0.050 A 
ATOM     18  C   UNL d   1       1.211   0.047   0.164  0.00  0.00     0.036 A 
ATOM     19  C   UNL d   1       1.045   1.428   0.098  0.00  0.00     0.039 A 
ATOM     20 CL   UNL d   1       1.234  -0.879  -1.286  0.00  0.00    -0.084 Cl
BRANCH  14  21
ATOM     21  O   UNL d   1       1.139   2.293   3.668  0.00  0.00    -0.358 OA
ATOM     22  H   UNL d   1       1.265   1.677   4.419  0.00  0.00     0.217 HD
ENDBRANCH  14  21
ENDBRANCH   3  13
TORSDOF 5
