REMARK  3 active torsions:
REMARK  status: ('A' for Active; 'I' for Inactive)
REMARK    1  A    between atoms: C_2  and  N_1 
REMARK       I    between atoms: C_3  and  N_1 
REMARK    2  A    between atoms: C_4  and  C_2 
REMARK    3  A    between atoms: C_8  and  C_3 
ROOT
ATOM      1  N   UNL d   1       1.087   0.020   0.041  0.00  0.00    -0.308 N 
ATOM      2  C   UNL d   1       2.457  -0.104   0.201  0.00  0.00     0.257 C 
ATOM      3  O   UNL d   1       3.181   0.811   0.578  0.00  0.00    -0.267 OA
ATOM      4  H   UNL d   1       0.565  -0.755  -0.339  0.00  0.00     0.170 HD
ENDROOT
BRANCH   1   5
ATOM      5  C   UNL d   1       0.345   1.153   0.309  0.00  0.00     0.119 C 
ATOM      6  N   UNL d   1       0.882   2.237   0.751  0.00  0.00    -0.384 N 
ATOM      7  H   UNL d   1       1.901   2.084   0.845  0.00  0.00     0.157 HD
ATOM      8  HN  UNL d   1       0.387   3.100   0.972  1.00  0.00     0.157 HD
BRANCH   5   9
ATOM      9  C   UNL d   1      -1.088   1.103   0.088  0.00  0.00     0.048 A 
ATOM     10  S   UNL d   1      -1.868  -0.300  -0.517  0.00  0.00    -0.098 SA
ATOM     11  C   UNL d   1      -3.413   0.429  -0.419  0.00  0.00     0.050 A 
ATOM     12  C   UNL d   1      -3.344   1.722   0.047  0.00  0.00     0.009 A 
ATOM     13  C   UNL d   1      -2.004   2.113   0.325  0.00  0.00     0.023 A 
ENDBRANCH   5   9
ENDBRANCH   1   5
BRANCH   2  14
ATOM     14  C   UNL d   1       3.066  -1.418  -0.149  0.00  0.00     0.032 A 
ATOM     15  C   UNL d   1       4.408  -1.423  -0.557  0.00  0.00     0.018 A 
ATOM     16  C   UNL d   1       5.045  -2.620  -0.891  0.00  0.00     0.025 A 
ATOM     17  C   UNL d   1       4.341  -3.820  -0.808  0.00  0.00     0.034 A 
ATOM     18  C   UNL d   1       3.011  -3.830  -0.387  0.00  0.00     0.025 A 
ATOM     19 CL   UNL d   1       5.122  -5.297  -1.217  0.00  0.00    -0.084 Cl
ATOM     20  C   UNL d   1       2.370  -2.631  -0.053  0.00  0.00     0.018 A 
ENDBRANCH   2  14
TORSDOF 3
