REMARK  2 active torsions:
REMARK  status: ('A' for Active; 'I' for Inactive)
REMARK    1  A    between atoms: N_5  and  C_1 
REMARK       I    between atoms: C_2  and  N_5 
REMARK       I    between atoms: N_8  and  C_2 
REMARK    2  A    between atoms: C_10  and  N_8 
ROOT
ATOM      1  C   UNL d   1       0.231  -3.786  -0.439  0.00  0.00     0.325 C 
ATOM      2  N   UNL d   1       0.966  -2.659  -0.277  0.00  0.00    -0.307 N 
ATOM      3  N   UNL d   1      -0.811  -4.013   0.416  0.00  0.00    -0.309 N 
ATOM      4  O   UNL d   1       0.658  -4.595  -1.266  0.00  0.00    -0.247 OA
ATOM      5  H   UNL d   1       1.869  -2.786  -0.723  0.00  0.00     0.170 HD
ATOM      6  H   UNL d   1      -0.787  -3.461   1.268  0.00  0.00     0.170 HD
ENDROOT
BRANCH   2   7
ATOM      7  C   UNL d   1       0.732  -1.381   0.209  0.00  0.00     0.054 A 
ATOM      8  C   UNL d   1      -0.497  -0.650   0.464  0.00  0.00     0.008 A 
ATOM      9  C   UNL d   1      -0.217   0.672   0.851  0.00  0.00     0.017 A 
ATOM     10  C   UNL d   1      -1.871  -0.982   0.317  0.00  0.00     0.015 A 
ATOM     11  C   UNL d   1      -1.229   1.621   1.106  0.00  0.00     0.020 A 
ATOM     12  S   UNL d   1       1.470   0.981   0.942  0.00  0.00    -0.099 SA
ATOM     13  C   UNL d   1      -2.561   1.246   0.969  0.00  0.00     0.001 A 
ATOM     14  C   UNL d   1      -2.881  -0.044   0.580  0.00  0.00     0.001 A 
ATOM     15  C   UNL d   1       1.842  -0.584   0.413  0.00  0.00     0.081 A 
ENDBRANCH   2   7
BRANCH   3  16
ATOM     16  C   UNL d   1      -1.556  -5.220   0.441  0.00  0.00     0.036 A 
ATOM     17  C   UNL d   1      -2.133  -5.633   1.646  0.00  0.00     0.029 A 
ATOM     18  C   UNL d   1      -2.780  -6.870   1.734  0.00  0.00     0.002 A 
ATOM     19  C   UNL d   1      -2.886  -7.692   0.611  0.00  0.00     0.000 A 
ATOM     20  C   UNL d   1      -2.364  -7.265  -0.604  0.00  0.00     0.002 A 
ATOM     21  C   UNL d   1      -1.709  -6.033  -0.689  0.00  0.00     0.029 A 
ENDBRANCH   3  16
TORSDOF 2
