REMARK  3 active torsions:
REMARK  status: ('A' for Active; 'I' for Inactive)
REMARK       I    between atoms: N_4  and  C_1 
REMARK       I    between atoms: N_8  and  C_1 
REMARK    1  A    between atoms: C_2  and  N_7 
REMARK    2  A    between atoms: C_9  and  N_4 
REMARK    3  A    between atoms: N_7  and  N_8 
ROOT
ATOM      1  C   UNL d   1      -0.207  -2.999   1.620  0.00  0.00     0.119 A 
ATOM      2  C   UNL d   1       0.090  -4.172   2.320  0.00  0.00     0.084 A 
ATOM      3  C   UNL d   1       1.302  -4.317   3.057  0.00  0.00     0.103 C 
ATOM      4  N   UNL d   1       2.269  -4.445   3.689  0.00  0.00    -0.191 NA
ATOM      5  N   UNL d   1      -1.366  -2.875   0.908  0.00  0.00    -0.354 N 
ATOM      6  HN  UNL d   1      -1.569  -2.022   0.386  1.00  0.00     0.166 HD
ATOM      7  C   UNL d   1      -0.836  -5.222   2.306  0.00  0.00     0.027 A 
ATOM      8  C   UNL d   1      -2.238  -3.907   0.910  0.00  0.00     0.089 A 
ATOM      9  C   UNL d   1      -2.020  -5.090   1.590  0.00  0.00     0.019 A 
ENDROOT
BRANCH   1  10
ATOM     10  N   UNL d   1       0.722  -1.926   1.561  0.00  0.00    -0.185 NA
ATOM     11  H   UNL d   1       1.085  -1.675   2.481  0.00  0.00     0.154 HD
BRANCH  10  12
ATOM     12  N   UNL d   1       0.138  -0.795   0.939  0.00  0.00    -0.267 N 
ATOM     13  C   UNL d   1       0.944   0.023   0.176  0.00  0.00     0.335 C 
ATOM     14  N   UNL d   1       0.277   0.874  -0.679  0.00  0.00    -0.305 N 
ATOM     15  O   UNL d   1       2.172  -0.024   0.160  0.00  0.00    -0.246 OA
ATOM     16  H   UNL d   1       0.853   1.154  -1.463  0.00  0.00     0.171 HD
ATOM     17  H   UNL d   1      -0.766  -1.030   0.526  0.00  0.00     0.186 HD
BRANCH  14  18
ATOM     18  C   UNL d   1      -1.112   1.098  -0.735  0.00  0.00     0.075 A 
ATOM     19  C   UNL d   1      -1.897   1.282   0.413  0.00  0.00     0.143 A 
ATOM     20  F   UNL d   1      -1.328   1.390   1.623  0.00  0.00    -0.204 F 
ATOM     21  C   UNL d   1      -3.281   1.385   0.327  0.00  0.00     0.044 A 
ATOM     22  C   UNL d   1      -3.898   1.308  -0.919  0.00  0.00     0.003 A 
ATOM     23  C   UNL d   1      -3.123   1.174  -2.074  0.00  0.00     0.002 A 
ATOM     24  C   UNL d   1      -1.729   1.098  -1.986  0.00  0.00     0.033 A 
ENDBRANCH  14  18
ENDBRANCH  10  12
ENDBRANCH   1  10
TORSDOF 3
