REMARK  9 active torsions:
REMARK  status: ('A' for Active; 'I' for Inactive)
REMARK    1  A    between atoms: N_4  and  S_1 
REMARK    2  A    between atoms: C_12  and  S_1 
REMARK    3  A    between atoms: N_3  and  C_2 
REMARK    4  A    between atoms: N_8  and  N_4 
REMARK    5  A    between atoms: O_22  and  C_6 
REMARK       I    between atoms: C_9  and  N_8 
REMARK    6  A    between atoms: C_19  and  C_9 
REMARK    7  A    between atoms: C_10  and  S_16 
REMARK    8  A    between atoms: O_23  and  C_11 
REMARK    9  A    between atoms: S_16  and  C_19 
ROOT
ATOM      1  N   UNL d   1       1.205  -3.790   0.075  0.00  0.00    -0.260 N 
ATOM      2  C   UNL d   1       0.363  -3.934  -1.019  0.00  0.00     0.246 C 
ATOM      3  O   UNL d   1      -0.734  -3.376  -1.076  0.00  0.00    -0.271 OA
ATOM      4  H   UNL d   1       2.157  -4.151   0.088  0.00  0.00     0.190 HD
ENDROOT
BRANCH   2   5
ATOM      5  C   UNL d   1       0.923  -4.796  -2.160  0.00  0.00     0.184 C 
BRANCH   5   6
ATOM      6  S   UNL d   1       0.342  -6.527  -1.974  0.00  0.00    -0.118 SA
BRANCH   6   7
ATOM      7  C   UNL d   1       1.206  -7.425  -3.289  0.00  0.00     0.037 A 
ATOM      8  C   UNL d   1       0.420  -8.213  -4.160  0.00  0.00     0.060 A 
ATOM      9  C   UNL d   1       0.978  -9.071  -5.132  0.00  0.00     0.102 A 
ATOM     10  C   UNL d   1       2.367  -9.112  -5.220  0.00  0.00     0.138 A 
ATOM     11  C   UNL d   1       3.178  -8.342  -4.360  0.00  0.00     0.077 A 
ATOM     12  C   UNL d   1       2.607  -7.501  -3.393  0.00  0.00     0.087 A 
BRANCH   9  13
ATOM     13  O   UNL d   1       0.029  -9.708  -5.878  0.00  0.00    -0.353 OA
ATOM     14  C   UNL d   1       0.280 -10.996  -6.431  0.00  0.00     0.210 C 
ENDBRANCH   9  13
BRANCH  10  15
ATOM     15  N   UNL d   1       3.077  -9.900  -6.210  0.00  0.00    -0.113 N 
ATOM     16  O   UNL d   1       3.902 -10.716  -5.788  0.00  0.00    -0.532 OA
ATOM     17  O   UNL d   1       2.848  -9.661  -7.402  0.00  0.00    -0.532 OA
ENDBRANCH  10  15
BRANCH  12  18
ATOM     18  O   UNL d   1       3.337  -6.751  -2.509  0.00  0.00    -0.355 OA
ATOM     19  C   UNL d   1       4.755  -6.809  -2.604  0.00  0.00     0.210 C 
ENDBRANCH  12  18
ENDBRANCH   6   7
ENDBRANCH   5   6
ENDBRANCH   2   5
BRANCH   1  20
ATOM     20  N   UNL d   1       0.811  -2.898   1.192  0.00  0.00    -0.220 N 
ATOM     21  H   UNL d   1      -0.096  -2.426   1.120  0.00  0.00     0.200 HD
BRANCH  20  22
ATOM     22  S   UNL d   1       2.067  -2.151   2.060  0.00  0.00     0.276 S 
ATOM     23  O   UNL d   1       2.734  -1.260   1.137  0.00  0.00    -0.199 OA
ATOM     24  O   UNL d   1       2.807  -3.204   2.723  0.00  0.00    -0.199 OA
BRANCH  22  25
ATOM     25  C   UNL d   1       1.267  -1.155   3.306  0.00  0.00     0.081 A 
ATOM     26  C   UNL d   1       1.054  -1.667   4.590  0.00  0.00     0.026 A 
ATOM     27  C   UNL d   1       0.585  -0.824   5.610  0.00  0.00     0.008 A 
ATOM     28  C   UNL d   1       0.347   0.535   5.361  0.00  0.00    -0.062 A 
ATOM     29  C   UNL d   1       0.573   1.037   4.073  0.00  0.00     0.008 A 
ATOM     30  C   UNL d   1      -0.120   1.442   6.465  0.00  0.00     0.048 C 
ATOM     31  C   UNL d   1       1.035   0.200   3.051  0.00  0.00     0.026 A 
ENDBRANCH  22  25
ENDBRANCH  20  22
ENDBRANCH   1  20
TORSDOF 9
