REMARK  6 active torsions:
REMARK  status: ('A' for Active; 'I' for Inactive)
REMARK    1  A    between atoms: C_6  and  C_1 
REMARK    2  A    between atoms: C_5  and  C_2 
REMARK       I    between atoms: N_9  and  C_5 
REMARK    3  A    between atoms: C_15  and  N_9 
REMARK    4  A    between atoms: N_14  and  C_13 
REMARK    5  A    between atoms: C_26  and  N_14 
REMARK    6  A    between atoms: C_27  and  N_14 
ROOT
ATOM      1  C   UNL d   1       2.957  -2.627   1.035  0.00  0.00     0.088 C 
ATOM      2  C   UNL d   1       2.242  -3.468   0.110  0.00  0.00     0.093 C 
ATOM      3  N   UNL d   1       3.973  -3.336   1.567  0.00  0.00    -0.259 N 
ATOM      4  HN  UNL d   1       4.561  -3.054   2.351  1.00  0.00     0.195 HD
ATOM      5  O   UNL d   1       4.068  -4.503   0.860  0.00  0.00    -0.241 OA
ATOM      6  C   UNL d   1       3.058  -4.575  -0.042  0.00  0.00     0.090 C 
ATOM      7  C   UNL d   1       3.100  -5.732  -0.949  0.00  0.00     0.080 C 
ENDROOT
BRANCH   2   8
ATOM      8  C   UNL d   1       0.992  -3.249  -0.618  0.00  0.00     0.261 C 
ATOM      9  N   UNL d   1      -0.091  -3.769   0.069  0.00  0.00    -0.323 N 
ATOM     10  H   UNL d   1       0.121  -4.250   0.935  0.00  0.00     0.169 HD
ATOM     11  O   UNL d   1       0.988  -2.697  -1.704  0.00  0.00    -0.267 OA
BRANCH   9  12
ATOM     12  C   UNL d   1      -1.462  -3.501  -0.142  0.00  0.00     0.035 A 
ATOM     13  C   UNL d   1      -2.360  -4.085   0.746  0.00  0.00     0.032 A 
ATOM     14  C   UNL d   1      -3.718  -3.713   0.761  0.00  0.00     0.031 A 
ATOM     15  C   UNL d   1      -4.262  -2.742  -0.097  0.00  0.00     0.030 A 
ATOM     16  C   UNL d   1      -3.356  -2.281  -1.070  0.00  0.00     0.031 A 
ATOM     17  C   UNL d   1      -1.981  -2.635  -1.093  0.00  0.00     0.032 A 
BRANCH  15  18
ATOM     18  N   UNL d   1      -5.559  -2.227   0.066  0.00  0.00    -0.382 N 
BRANCH  18  19
ATOM     19  C   UNL d   1      -6.539  -2.934   0.930  0.00  0.00     0.118 C 
ATOM     20  C   UNL d   1      -7.287  -1.989   1.868  0.00  0.00     0.026 C 
ENDBRANCH  18  19
BRANCH  18  21
ATOM     21  C   UNL d   1      -6.190  -1.358  -0.959  0.00  0.00     0.118 C 
ATOM     22  C   UNL d   1      -5.579   0.033  -1.099  0.00  0.00     0.026 C 
ENDBRANCH  18  21
ENDBRANCH  15  18
ENDBRANCH   9  12
ENDBRANCH   2   8
BRANCH   1  23
ATOM     23  C   UNL d   1       2.757  -1.223   1.435  0.00  0.00     0.054 A 
ATOM     24  C   UNL d   1       3.822  -0.346   1.733  0.00  0.00     0.049 A 
ATOM     25 CL   UNL d   1       5.499  -0.788   1.685  0.00  0.00    -0.083 Cl
ATOM     26  C   UNL d   1       3.584   1.002   2.073  0.00  0.00     0.025 A 
ATOM     27  C   UNL d   1       2.288   1.504   2.101  0.00  0.00     0.005 A 
ATOM     28  C   UNL d   1       1.230   0.658   1.824  0.00  0.00     0.043 A 
ATOM     29  C   UNL d   1       1.464  -0.687   1.519  0.00  0.00     0.130 A 
ATOM     30  F   UNL d   1       0.388  -1.460   1.353  0.00  0.00    -0.205 F 
ENDBRANCH   1  23
TORSDOF 6
