REMARK  6 active torsions:
REMARK  status: ('A' for Active; 'I' for Inactive)
REMARK    1  A    between atoms: S_12  and  C_2 
REMARK    2  A    between atoms: C_6  and  C_3 
REMARK    3  A    between atoms: C_11  and  N_15 
REMARK    4  A    between atoms: C_22  and  S_12 
REMARK    5  A    between atoms: C_23  and  C_13 
REMARK    6  A    between atoms: C_14  and  C_22 
REMARK       I    between atoms: N_15  and  C_14 
ROOT
ATOM      1  C   UNL d   1      -0.272  -4.915   0.855  0.00  0.00     0.088 A 
ATOM      2  C   UNL d   1      -1.529  -5.521   1.007  0.00  0.00     0.092 A 
ATOM      3  C   UNL d   1      -0.214  -3.575   0.405  0.00  0.00    -0.004 A 
ATOM      4  N   UNL d   1      -2.694  -4.882   0.734  0.00  0.00    -0.352 N 
ATOM      5  HN  UNL d   1      -3.596  -5.349   0.832  1.00  0.00     0.166 HD
ATOM      6  C   UNL d   1      -1.415  -2.913   0.191  0.00  0.00    -0.024 A 
ATOM      7  C   UNL d   1      -2.603  -3.610   0.330  0.00  0.00     0.017 A 
ATOM      8  C   UNL d   1       0.928  -5.612   1.205  0.00  0.00     0.103 C 
ATOM      9  N   UNL d   1       1.909  -6.159   1.497  0.00  0.00    -0.191 NA
ATOM     10  C   UNL d   1      -1.690  -1.487  -0.174  0.00  0.00     0.042 C 
ATOM     11  C   UNL d   1      -3.785  -2.734   0.019  0.00  0.00     0.058 C 
ATOM     12  C   UNL d   1      -3.160  -1.359   0.262  0.00  0.00     0.011 C 
ENDROOT
BRANCH   2  13
ATOM     13  S   UNL d   1      -1.748  -7.122   1.787  0.00  0.00    -0.101 SA
BRANCH  13  14
ATOM     14  C   UNL d   1      -3.359  -7.659   1.111  0.00  0.00     0.184 C 
BRANCH  14  15
ATOM     15  C   UNL d   1      -4.612  -7.114   1.803  0.00  0.00     0.231 C 
ATOM     16  N   UNL d   1      -4.450  -5.948   2.519  0.00  0.00    -0.326 N 
ATOM     17  H   UNL d   1      -3.528  -5.537   2.426  0.00  0.00     0.169 HD
ATOM     18  O   UNL d   1      -5.689  -7.686   1.629  0.00  0.00    -0.272 OA
BRANCH  16  19
ATOM     19  C   UNL d   1      -5.444  -5.099   3.040  0.00  0.00     0.037 A 
ATOM     20  C   UNL d   1      -6.792  -5.441   3.145  0.00  0.00     0.053 A 
ATOM     21  C   UNL d   1      -7.720  -4.489   3.571  0.00  0.00     0.037 A 
ATOM     22 CL   UNL d   1      -9.387  -4.909   3.674  0.00  0.00    -0.084 Cl
ATOM     23  C   UNL d   1      -7.322  -3.194   3.896  0.00  0.00     0.048 A 
ATOM     24  C   UNL d   1      -5.975  -2.864   3.820  0.00  0.00     0.037 A 
ATOM     25  C   UNL d   1      -5.036  -3.812   3.416  0.00  0.00     0.053 A 
ATOM     26 CL   UNL d   1      -5.460  -1.263   4.183  0.00  0.00    -0.084 Cl
ENDBRANCH  16  19
ENDBRANCH  14  15
ENDBRANCH  13  14
ENDBRANCH   2  13
BRANCH   3  27
ATOM     27  C   UNL d   1       1.052  -2.866   0.186  0.00  0.00     0.014 C 
ATOM     28  C   UNL d   1       1.781  -2.928  -0.942  0.00  0.00     0.012 C 
BRANCH  28  29
ATOM     29  C   UNL d   1       1.444  -3.703  -2.138  0.00  0.00    -0.036 A 
ATOM     30  C   UNL d   1       0.749  -3.101  -3.191  0.00  0.00     0.011 A 
ATOM     31  C   UNL d   1       0.441  -3.832  -4.342  0.00  0.00     0.001 A 
ATOM     32  C   UNL d   1       0.822  -5.170  -4.441  0.00  0.00     0.000 A 
ATOM     33  C   UNL d   1       1.515  -5.775  -3.394  0.00  0.00     0.001 A 
ATOM     34  C   UNL d   1       1.830  -5.043  -2.248  0.00  0.00     0.011 A 
ENDBRANCH  28  29
ENDBRANCH   3  27
TORSDOF 6
