REMARK  2 active torsions:
REMARK  status: ('A' for Active; 'I' for Inactive)
REMARK    1  A    between atoms: S_10  and  C_3 
REMARK    2  A    between atoms: C_7  and  C_4 
ROOT
ATOM      1  N   UNL d   1       0.927  -0.653   0.763  0.00  0.00    -0.336 N 
ATOM      2  HN  UNL d   1       1.645  -1.126   1.311  1.00  0.00     0.168 HD
ATOM      3  C   UNL d   1       0.855   0.687   0.712  0.00  0.00     0.141 A 
ATOM      4  C   UNL d   1       0.007  -1.348   0.057  0.00  0.00     0.047 A 
ATOM      5  N   UNL d   1      -0.059   1.387   0.027  0.00  0.00    -0.347 N 
ATOM      6  HN  UNL d   1      -0.070   2.407   0.026  1.00  0.00     0.167 HD
ATOM      7  C   UNL d   1      -0.972  -0.709  -0.682  0.00  0.00     0.047 A 
ATOM      8  C   UNL d   1      -0.960   0.667  -0.657  0.00  0.00     0.092 A 
ENDROOT
BRANCH   4   9
ATOM      9  C   UNL d   1       0.112  -2.814   0.145  0.00  0.00     0.006 A 
ATOM     10  C   UNL d   1       0.596  -3.438   1.298  0.00  0.00     0.101 A 
ATOM     11  N   UNL d   1       0.706  -4.779   1.475  0.00  0.00    -0.374 N 
ATOM     12  C   UNL d   1       0.328  -5.559   0.444  0.00  0.00     0.087 A 
ATOM     13  HN  UNL d   1       1.058  -5.177   2.346  1.00  0.00     0.164 HD
ATOM     14  C   UNL d   1      -0.152  -5.059  -0.753  0.00  0.00     0.018 A 
ATOM     15  C   UNL d   1      -0.259  -3.675  -0.900  0.00  0.00     0.016 A 
ENDBRANCH   4   9
BRANCH   3  16
ATOM     16  S   UNL d   1       2.076   1.585   1.617  0.00  0.00    -0.107 SA
ATOM     17  H   UNL d   1       2.751   0.483   1.966  0.00  0.00     0.110 HD
ENDBRANCH   3  16
TORSDOF 2
