REMARK  6 active torsions:
REMARK  status: ('A' for Active; 'I' for Inactive)
REMARK    1  A    between atoms: S_3  and  C_1 
REMARK    2  A    between atoms: C_12  and  N_2 
REMARK    3  A    between atoms: C_9  and  S_3 
REMARK    4  A    between atoms: N_7  and  C_4 
REMARK    5  A    between atoms: O_25  and  C_8 
REMARK    6  A    between atoms: C_13  and  C_17 
ROOT
ATOM      1  C   UNL d   1      -0.132  -1.258  -0.274  0.00  0.00     0.175 A 
ATOM      2  N   UNL d   1       1.119  -0.672  -0.093  0.00  0.00    -0.255 N 
ATOM      3  N   UNL d   1      -1.083  -0.352  -0.180  0.00  0.00    -0.276 N 
ATOM      4  HN  UNL d   1      -2.084  -0.525  -0.264  1.00  0.00     0.189 HD
ATOM      5  C   UNL d   1       0.802   0.676   0.071  0.00  0.00     0.245 A 
ATOM      6  N   UNL d   1      -0.495   0.860   0.048  0.00  0.00    -0.263 N 
ATOM      7  HN  UNL d   1      -0.979   1.748   0.177  1.00  0.00     0.190 HD
ENDROOT
BRANCH   1   8
ATOM      8  S   UNL d   1      -0.505  -2.951  -0.274  0.00  0.00    -0.032 SA
BRANCH   8   9
ATOM      9  C   UNL d   1      -0.599  -3.278  -2.032  0.00  0.00     0.110 A 
ATOM     10  C   UNL d   1      -1.306  -4.341  -2.584  0.00  0.00     0.138 A 
ATOM     11  C   UNL d   1      -1.144  -4.698  -3.929  0.00  0.00     0.059 A 
ATOM     12  C   UNL d   1      -0.257  -3.964  -4.702  0.00  0.00     0.028 A 
ATOM     13  C   UNL d   1       0.386  -2.886  -4.119  0.00  0.00     0.108 A 
ATOM     14 BR   UNL d   1       0.091  -4.440  -6.490  0.00  0.00    -0.050 Br
ATOM     15  N   UNL d   1       0.225  -2.529  -2.819  0.00  0.00    -0.357 N 
ATOM     16  HN  UNL d   1       0.710  -1.716  -2.439  1.00  0.00     0.166 HD
BRANCH  10  17
ATOM     17  N   UNL d   1      -2.221  -5.122  -1.795  0.00  0.00    -0.113 N 
ATOM     18  O   UNL d   1      -1.735  -5.854  -0.922  0.00  0.00    -0.532 OA
ATOM     19  O   UNL d   1      -3.415  -5.056  -2.103  0.00  0.00    -0.532 OA
ENDBRANCH  10  17
ENDBRANCH   8   9
ENDBRANCH   1   8
BRANCH   2  20
ATOM     20  C   UNL d   1       2.440  -1.233  -0.096  0.00  0.00     0.046 A 
ATOM     21  C   UNL d   1       2.749  -2.361  -0.861  0.00  0.00     0.046 A 
ATOM     22  C   UNL d   1       4.059  -2.857  -0.972  0.00  0.00     0.050 A 
ATOM     23  C   UNL d   1       5.079  -2.221  -0.258  0.00  0.00     0.016 A 
ATOM     24  C   UNL d   1       4.786  -1.118   0.544  0.00  0.00     0.003 A 
ATOM     25  C   UNL d   1       3.478  -0.625   0.625  0.00  0.00     0.030 A 
BRANCH  22  26
ATOM     26  C   UNL d   1       4.354  -4.037  -1.868  0.00  0.00     0.417 C 
ATOM     27  F   UNL d   1       3.260  -4.495  -2.542  0.00  0.00    -0.166 F 
ATOM     28  F   UNL d   1       5.278  -3.746  -2.824  0.00  0.00    -0.166 F 
ATOM     29  F   UNL d   1       4.842  -5.107  -1.182  0.00  0.00    -0.166 F 
ENDBRANCH  22  26
ENDBRANCH   2  20
BRANCH   5  30
ATOM     30  O   UNL d   1       1.650   1.695   0.139  0.00  0.00    -0.331 OA
ATOM     31  H   UNL d   1       2.443   1.462  -0.369  0.00  0.00     0.221 HD
ENDBRANCH   5  30
TORSDOF 6
