REMARK  7 active torsions:
REMARK  status: ('A' for Active; 'I' for Inactive)
REMARK    1  A    between atoms: N_8  and  C_1 
REMARK    2  A    between atoms: C_10  and  N_2 
REMARK    3  A    between atoms: S_9  and  C_3 
REMARK    4  A    between atoms: C_14  and  N_8 
REMARK    5  A    between atoms: C_13  and  S_9 
REMARK    6  A    between atoms: C_11  and  C_13 
REMARK    7  A    between atoms: O_15  and  C_11 
ROOT
ATOM      1  C   UNL d   1      -0.041  -1.249  -0.028  0.00  0.00     0.706 A 
ATOM      2  N   UNL d   1       1.266  -0.733  -0.003  0.00  0.00    -0.123 N 
ATOM      3  C   UNL d   1       1.062   0.641   0.044  0.00  0.00     0.183 A 
ATOM      4  N   UNL d   1      -0.899  -0.249   0.069  0.00  0.00    -0.129 N 
ATOM      5  HN  UNL d   1      -1.915  -0.343   0.092  1.00  0.00     0.205 HD
ATOM      6  N   UNL d   1      -0.216   0.924   0.133  0.00  0.00    -0.265 N 
ATOM      7  HN  UNL d   1      -0.623   1.854   0.232  1.00  0.00     0.189 HD
ENDROOT
BRANCH   1   8
ATOM      8  N   UNL d   1      -0.319  -2.583  -0.036  0.00  0.00    -0.190 N 
ATOM      9  H   UNL d   1       0.343  -3.227   0.383  0.00  0.00     0.184 HD
BRANCH   8  10
ATOM     10  C   UNL d   1      -1.528  -3.195  -0.430  0.00  0.00     0.049 A 
ATOM     11  C   UNL d   1      -2.563  -2.515  -1.087  0.00  0.00     0.030 A 
ATOM     12  C   UNL d   1      -3.733  -3.174  -1.481  0.00  0.00     0.002 A 
ATOM     13  C   UNL d   1      -3.889  -4.533  -1.228  0.00  0.00     0.000 A 
ATOM     14  C   UNL d   1      -2.872  -5.233  -0.587  0.00  0.00     0.002 A 
ATOM     15  C   UNL d   1      -1.702  -4.569  -0.194  0.00  0.00     0.030 A 
ENDBRANCH   8  10
ENDBRANCH   1   8
BRANCH   2  16
ATOM     16  C   UNL d   1       2.506  -1.445  -0.054  0.00  0.00     0.059 A 
ATOM     17  C   UNL d   1       2.615  -2.647  -0.767  0.00  0.00     0.030 A 
ATOM     18  C   UNL d   1       3.843  -3.314  -0.842  0.00  0.00     0.002 A 
ATOM     19  C   UNL d   1       4.972  -2.782  -0.223  0.00  0.00     0.000 A 
ATOM     20  C   UNL d   1       4.871  -1.596   0.496  0.00  0.00     0.002 A 
ATOM     21  C   UNL d   1       3.642  -0.941   0.597  0.00  0.00     0.030 A 
ENDBRANCH   2  16
BRANCH   3  22
ATOM     22  S   UNL d   1       2.266   1.881  -0.137  0.00  0.00    -0.081 SA
BRANCH  22  23
ATOM     23  C   UNL d   1       1.419   3.317   0.577  0.00  0.00     0.192 C 
BRANCH  23  24
ATOM     24  C   UNL d   1       1.239   3.170   2.071  0.00  0.00     0.149 C 
ATOM     25  O   UNL d   1       1.966   3.712   2.894  0.00  0.00    -0.649 OA
BRANCH  24  26
ATOM     26  O   UNL d   1       0.211   2.374   2.443  0.00  0.00    -0.776 OA
ATOM     27  H   UNL d   1      -0.281   1.957   1.697  0.00  0.00     0.167 HD
ENDBRANCH  24  26
ENDBRANCH  23  24
ENDBRANCH  22  23
ENDBRANCH   3  22
TORSDOF 7
