REMARK  3 active torsions:
REMARK  status: ('A' for Active; 'I' for Inactive)
REMARK    1  A    between atoms: C_9  and  C_3 
REMARK    2  A    between atoms: C_8  and  C_7 
REMARK    3  A    between atoms: C_15  and  C_9 
ROOT
ATOM      1  N   UNL d   1       1.299  -1.158  -0.065  0.00  0.00    -0.297 N 
ATOM      2  HN  UNL d   1       1.848  -2.018  -0.060  1.00  0.00     0.187 HD
ATOM      3  C   UNL d   1      -0.232   1.236  -0.061  0.00  0.00     0.019 A 
ATOM      4  N   UNL d   1      -0.063  -1.179  -0.153  0.00  0.00    -0.266 N 
ATOM      5  C   UNL d   1      -0.887  -0.083  -0.220  0.00  0.00     0.266 A 
ATOM      6  C   UNL d   1       1.100   1.278   0.070  0.00  0.00     0.045 A 
ATOM      7  C   UNL d   1       1.863   0.010   0.014  0.00  0.00     0.059 A 
ATOM      8  O   UNL d   1      -2.100  -0.186  -0.382  0.00  0.00    -0.266 OA
ATOM      9  H   UNL d   1      -0.494  -2.093  -0.244  0.00  0.00     0.190 HD
ENDROOT
BRANCH   3  10
ATOM     10  C   UNL d   1      -1.095   2.467  -0.013  0.00  0.00     0.101 C 
BRANCH  10  11
ATOM     11  C   UNL d   1      -0.757   3.465  -1.101  0.00  0.00     0.013 A 
ATOM     12  N   UNL d   1       0.214   4.375  -0.826  0.00  0.00    -0.369 N 
ATOM     13  C   UNL d   1       0.556   5.236  -1.811  0.00  0.00     0.088 A 
ATOM     14  HN  UNL d   1       0.666   4.408   0.088  1.00  0.00     0.165 HD
ATOM     15  C   UNL d   1      -0.012   5.228  -3.072  0.00  0.00     0.017 A 
ATOM     16  C   UNL d   1      -0.999   4.287  -3.340  0.00  0.00     0.003 A 
ATOM     17  C   UNL d   1      -1.380   3.390  -2.345  0.00  0.00     0.025 A 
ENDBRANCH  10  11
ENDBRANCH   3  10
BRANCH   7  18
ATOM     18  C   UNL d   1       3.349   0.118   0.084  0.00  0.00    -0.008 A 
ATOM     19  C   UNL d   1       4.080  -0.925   0.663  0.00  0.00     0.014 A 
ATOM     20  C   UNL d   1       5.472  -0.839   0.761  0.00  0.00     0.007 A 
ATOM     21  C   UNL d   1       6.151   0.286   0.278  0.00  0.00    -0.062 A 
ATOM     22  C   UNL d   1       5.421   1.316  -0.323  0.00  0.00     0.007 A 
ATOM     23  C   UNL d   1       7.644   0.372   0.394  0.00  0.00     0.048 C 
ATOM     24  C   UNL d   1       4.031   1.231  -0.428  0.00  0.00     0.014 A 
ENDBRANCH   7  18
TORSDOF 3
