REMARK  1 active torsions:
REMARK  status: ('A' for Active; 'I' for Inactive)
REMARK    1  A    between atoms: C_9  and  C_2 
ROOT
ATOM      1  N   UNL d   1      -0.585   2.159  -0.880  0.00  0.00    -0.285 N 
ATOM      2  C   UNL d   1      -1.112   3.366  -1.327  0.00  0.00     0.058 C 
ATOM      3  C   UNL d   1      -1.479   1.436   0.019  0.00  0.00     0.260 C 
ATOM      4  C   UNL d   1       0.704   1.689  -1.038  0.00  0.00     0.232 C 
ATOM      5  N   UNL d   1      -1.497   0.001  -0.218  0.00  0.00    -0.366 N 
ATOM      6  HN  UNL d   1      -2.358  -0.546  -0.205  1.00  0.00     0.162 HD
ATOM      7  S   UNL d   1      -3.115   2.251  -0.122  0.00  0.00    -0.092 SA
ATOM      8  C   UNL d   1      -2.418   3.535  -1.044  0.00  0.00     0.079 C 
ATOM      9  C   UNL d   1       0.920   0.276  -0.549  0.00  0.00     0.155 C 
ATOM     10  C   UNL d   1      -0.346  -0.527  -0.446  0.00  0.00    -0.011 C 
ATOM     11  O   UNL d   1       1.642   2.316  -1.530  0.00  0.00    -0.273 OA
ATOM     12  C   UNL d   1      -0.272  -2.029  -0.548  0.00  0.00     0.063 C 
ENDROOT
BRANCH   2  13
ATOM     13  C   UNL d   1      -0.421   4.407  -2.115  0.00  0.00     0.013 A 
ATOM     14  C   UNL d   1      -0.369   5.757  -1.704  0.00  0.00     0.046 A 
ATOM     15 CL   UNL d   1      -0.877   6.269  -0.125  0.00  0.00    -0.083 Cl
ATOM     16  C   UNL d   1       0.093   6.758  -2.568  0.00  0.00     0.025 A 
ATOM     17  C   UNL d   1       0.550   6.426  -3.840  0.00  0.00     0.002 A 
ATOM     18  C   UNL d   1       0.566   5.093  -4.241  0.00  0.00     0.001 A 
ATOM     19  C   UNL d   1       0.077   4.093  -3.391  0.00  0.00     0.015 A 
ENDBRANCH   2  13
TORSDOF 1
