REMARK  6 active torsions:
REMARK  status: ('A' for Active; 'I' for Inactive)
REMARK    1  A    between atoms: N_4  and  C_1 
REMARK       I    between atoms: C_2  and  N_3 
REMARK    2  A    between atoms: C_7  and  C_2 
REMARK    3  A    between atoms: C_8  and  C_7 
REMARK    4  A    between atoms: C_16  and  C_8 
REMARK    5  A    between atoms: C_9  and  C_16 
REMARK    6  A    between atoms: O_24  and  C_9 
ROOT
ATOM      1  C   UNL d   1       1.138  -5.937  -0.493  0.00  0.00     0.220 C 
ATOM      2  N   UNL d   1       1.541  -4.617  -0.652  0.00  0.00    -0.350 N 
ATOM      3  N   UNL d   1      -0.085  -2.137   0.090  0.00  0.00    -0.376 N 
ATOM      4  C   UNL d   1       1.761  -3.811   0.561  0.00  0.00     0.145 C 
ATOM      5  C   UNL d   1       0.520  -3.049   1.088  0.00  0.00     0.143 C 
ATOM      6  O   UNL d   1       0.907  -6.381   0.637  0.00  0.00    -0.273 OA
ATOM      7  C   UNL d   1       0.411  -2.962  -2.201  0.00  0.00     0.040 C 
ATOM      8  C   UNL d   1       1.607  -3.881  -1.915  0.00  0.00     0.127 C 
ATOM      9  C   UNL d   1      -0.624  -2.838  -1.093  0.00  0.00     0.125 C 
ENDROOT
BRANCH   1  10
ATOM     10  C   UNL d   1       1.051  -6.844  -1.719  0.00  0.00     0.112 C 
BRANCH  10  11
ATOM     11  C   UNL d   1       0.226  -8.163  -1.556  0.00  0.00    -0.030 C 
ATOM     12  C   UNL d   1       0.215  -8.918  -2.909  0.00  0.00     0.016 C 
ATOM     13  C   UNL d   1       0.875  -9.132  -0.537  0.00  0.00     0.016 C 
BRANCH  11  14
ATOM     14  C   UNL d   1      -1.226  -7.891  -1.081  0.00  0.00     0.119 C 
BRANCH  14  15
ATOM     15  C   UNL d   1      -2.050  -6.939  -1.927  0.00  0.00     0.140 C 
ATOM     16  O   UNL d   1      -1.724  -6.469  -3.004  0.00  0.00    -0.650 OA
BRANCH  15  17
ATOM     17  O   UNL d   1      -3.238  -6.650  -1.351  0.00  0.00    -0.776 OA
ATOM     18  H   UNL d   1      -3.372  -7.083  -0.486  0.00  0.00     0.167 HD
ENDBRANCH  15  17
ENDBRANCH  14  15
ENDBRANCH  11  14
ENDBRANCH  10  11
ENDBRANCH   1  10
BRANCH   3  19
ATOM     19  C   UNL d   1      -0.002  -0.735   0.146  0.00  0.00     0.077 A 
ATOM     20  C   UNL d   1       1.123  -0.013   0.632  0.00  0.00     0.077 A 
ATOM     21 CL   UNL d   1       2.566  -0.699   1.296  0.00  0.00    -0.080 Cl
ATOM     22  C   UNL d   1       1.158   1.389   0.568  0.00  0.00     0.113 A 
ATOM     23  N   UNL d   1       0.184   2.165   0.060  0.00  0.00    -0.372 N 
ATOM     24  C   UNL d   1      -0.910   1.501  -0.349  0.00  0.00     0.113 A 
ATOM     25  HN  UNL d   1       0.270   3.179  -0.010  1.00  0.00     0.164 HD
ATOM     26  C   UNL d   1      -1.066   0.109  -0.294  0.00  0.00     0.077 A 
ATOM     27 CL   UNL d   1      -2.686  -0.427  -0.618  0.00  0.00    -0.080 Cl
ENDBRANCH   3  19
TORSDOF 6
