REMARK  6 active torsions:
REMARK  status: ('A' for Active; 'I' for Inactive)
REMARK    1  A    between atoms: N_2  and  C_1 
REMARK    2  A    between atoms: C_3  and  C_1 
REMARK    3  A    between atoms: C_4  and  C_1 
REMARK    4  A    between atoms: N_5  and  C_1 
REMARK       I    between atoms: C_6  and  N_2 
REMARK    5  A    between atoms: C_7  and  N_5 
REMARK    6  A    between atoms: C_8  and  C_6 
ROOT
ATOM      1  C   UNL d   1       0.779   0.033   0.051  0.00  0.00     0.291 C 
ENDROOT
BRANCH   1   2
ATOM      2  N   UNL d   1       0.564  -0.908   1.163  0.00  0.00    -0.320 N 
ATOM      3  C   UNL d   1      -0.635  -1.534   1.393  0.00  0.00     0.253 C 
ATOM      4  O   UNL d   1      -1.579  -1.372   0.627  0.00  0.00    -0.268 OA
ATOM      5  H   UNL d   1       1.170  -0.707   1.950  0.00  0.00     0.165 HD
BRANCH   3   6
ATOM      6  C   UNL d   1      -0.717  -2.407   2.603  0.00  0.00     0.032 A 
ATOM      7  C   UNL d   1       0.409  -2.712   3.387  0.00  0.00     0.017 A 
ATOM      8  C   UNL d   1       0.295  -3.547   4.506  0.00  0.00     0.007 A 
ATOM      9  C   UNL d   1      -0.936  -4.100   4.865  0.00  0.00    -0.062 A 
ATOM     10  C   UNL d   1      -2.061  -3.817   4.076  0.00  0.00     0.007 A 
ATOM     11  C   UNL d   1      -1.025  -4.995   6.066  0.00  0.00     0.048 C 
ATOM     12  C   UNL d   1      -1.947  -2.979   2.955  0.00  0.00     0.017 A 
ENDBRANCH   3   6
ENDBRANCH   1   2
BRANCH   1  13
ATOM     13  C   UNL d   1      -0.045   1.380   0.145  0.00  0.00     0.435 C 
ATOM     14  F   UNL d   1      -0.651   1.521   1.354  0.00  0.00    -0.167 F 
ATOM     15  F   UNL d   1       0.762   2.469  -0.008  0.00  0.00    -0.167 F 
ATOM     16  F   UNL d   1      -1.017   1.542  -0.775  0.00  0.00    -0.167 F 
ENDBRANCH   1  13
BRANCH   1  17
ATOM     17  C   UNL d   1       0.501  -0.590  -1.374  0.00  0.00     0.435 C 
ATOM     18  F   UNL d   1       0.422  -1.946  -1.340  0.00  0.00    -0.167 F 
ATOM     19  F   UNL d   1      -0.579  -0.150  -2.042  0.00  0.00    -0.167 F 
ATOM     20  F   UNL d   1       1.570  -0.318  -2.192  0.00  0.00    -0.167 F 
ENDBRANCH   1  17
BRANCH   1  21
ATOM     21  N   UNL d   1       2.303   0.247   0.157  0.00  0.00    -0.237 NA
ATOM     22  H   UNL d   1       2.639   0.601  -0.742  0.00  0.00     0.132 HD
BRANCH  21  23
ATOM     23  C   UNL d   1       2.767   1.079   1.179  0.00  0.00     0.082 A 
ATOM     24  N   UNL d   1       2.015   1.240   2.279  0.00  0.00    -0.357 N 
ATOM     25  C   UNL d   1       2.468   2.073   3.241  0.00  0.00     0.089 A 
ATOM     26  HN  UNL d   1       1.127   0.748   2.386  1.00  0.00     0.166 HD
ATOM     27  C   UNL d   1       3.680   2.737   3.177  0.00  0.00     0.017 A 
ATOM     28  C   UNL d   1       4.487   2.506   2.076  0.00  0.00     0.005 A 
ATOM     29  C   UNL d   1       4.035   1.653   1.068  0.00  0.00     0.042 A 
ENDBRANCH  21  23
ENDBRANCH   1  21
TORSDOF 6
