REMARK  4 active torsions:
REMARK  status: ('A' for Active; 'I' for Inactive)
REMARK    1  A    between atoms: N_12  and  C_4 
REMARK    2  A    between atoms: C_20  and  N_12 
REMARK    3  A    between atoms: C_14  and  C_22 
REMARK    4  A    between atoms: C_22  and  C_20 
ROOT
ATOM      1  C   UNL d   1       0.299  -0.736   0.133  0.00  0.00     0.048 A 
ATOM      2  C   UNL d   1       0.142   0.648   0.138  0.00  0.00     0.089 A 
ATOM      3  S   UNL d   1       1.611   1.503   0.192  0.00  0.00    -0.083 SA
ATOM      4  C   UNL d   1      -0.915  -1.478   0.132  0.00  0.00     0.115 A 
ATOM      5  C   UNL d   1       1.720  -1.078   0.154  0.00  0.00    -0.039 A 
ATOM      6  C   UNL d   1       2.510   0.061   0.200  0.00  0.00     0.059 A 
ATOM      7  N   UNL d   1      -1.009   1.340   0.116  0.00  0.00    -0.346 N 
ATOM      8  HN  UNL d   1      -1.060   2.358   0.108  1.00  0.00     0.167 HD
ATOM      9  N   UNL d   1      -2.087  -0.794   0.117  0.00  0.00    -0.338 N 
ATOM     10  HN  UNL d   1      -2.974  -1.298   0.116  1.00  0.00     0.168 HD
ATOM     11  C   UNL d   1      -2.074   0.542   0.105  0.00  0.00     0.182 A 
ATOM     12  C   UNL d   1       2.349  -2.434   0.147  0.00  0.00     0.050 C 
ENDROOT
BRANCH   4  13
ATOM     13  N   UNL d   1      -0.959  -2.867   0.175  0.00  0.00    -0.375 N 
ATOM     14  H   UNL d   1      -0.209  -3.295  -0.351  0.00  0.00     0.161 HD
BRANCH  13  15
ATOM     15  C   UNL d   1      -2.261  -3.510   0.015  0.00  0.00     0.126 C 
BRANCH  15  16
ATOM     16  C   UNL d   1      -2.074  -5.032  -0.004  0.00  0.00     0.058 C 
BRANCH  16  17
ATOM     17  C   UNL d   1      -3.377  -5.787  -0.049  0.00  0.00    -0.057 A 
ATOM     18  C   UNL d   1      -3.959  -6.139  -1.276  0.00  0.00     0.009 A 
ATOM     19  C   UNL d   1      -5.166  -6.841  -1.308  0.00  0.00     0.024 A 
ATOM     20  C   UNL d   1      -5.797  -7.191  -0.117  0.00  0.00     0.034 A 
ATOM     21  C   UNL d   1      -5.234  -6.841   1.108  0.00  0.00     0.024 A 
ATOM     22 CL   UNL d   1      -7.281  -8.062  -0.158  0.00  0.00    -0.084 Cl
ATOM     23  C   UNL d   1      -4.029  -6.139   1.142  0.00  0.00     0.009 A 
ENDBRANCH  16  17
ENDBRANCH  15  16
ENDBRANCH  13  15
ENDBRANCH   4  13
TORSDOF 4
