REMARK  11 active torsions:
REMARK  status: ('A' for Active; 'I' for Inactive)
REMARK    1  A    between atoms: N_3  and  C_1 
REMARK    2  A    between atoms: N_4  and  C_1 
REMARK    3  A    between atoms: C_2  and  O_6 
REMARK    4  A    between atoms: C_11  and  N_3 
REMARK    5  A    between atoms: C_12  and  N_4 
REMARK    6  A    between atoms: O_6  and  C_13 
REMARK    7  A    between atoms: O_7  and  C_15 
REMARK    8  A    between atoms: C_14  and  O_7 
REMARK    9  A    between atoms: C_29  and  C_16 
REMARK   10  A    between atoms: C_30  and  C_29 
REMARK   11  A    between atoms: C_31  and  C_30 
ROOT
ATOM      1  C   UNL d   1       1.079   0.183  -2.466  0.00  0.00     0.034 A 
ATOM      2  C   UNL d   1       2.308   0.098  -4.975  0.00  0.00     0.076 A 
ATOM      3  C   UNL d   1       2.184  -0.644  -2.681  0.00  0.00     0.032 A 
ATOM      4  C   UNL d   1       0.527   0.887  -3.537  0.00  0.00     0.032 A 
ATOM      5  C   UNL d   1       1.152   0.858  -4.787  0.00  0.00     0.039 A 
ATOM      6  C   UNL d   1       2.780  -0.709  -3.940  0.00  0.00     0.039 A 
ENDROOT
BRANCH   1   7
ATOM      7  N   UNL d   1       0.448   0.249  -1.210  0.00  0.00    -0.333 N 
ATOM      8  H   UNL d   1      -0.494   0.622  -1.185  0.00  0.00     0.168 HD
BRANCH   7   9
ATOM      9  C   UNL d   1       1.024   0.099   0.023  0.00  0.00     0.176 C 
ATOM     10  S   UNL d   1       2.546   0.647   0.466  0.00  0.00    -0.041 SA
BRANCH   9  11
ATOM     11  N   UNL d   1       0.241  -0.429   1.011  0.00  0.00    -0.333 N 
ATOM     12  H   UNL d   1       0.630  -0.293   1.938  0.00  0.00     0.168 HD
BRANCH  11  13
ATOM     13  C   UNL d   1      -0.886  -1.274   0.939  0.00  0.00     0.034 A 
ATOM     14  C   UNL d   1      -1.345  -1.873  -0.235  0.00  0.00     0.030 A 
ATOM     15  C   UNL d   1      -2.467  -2.712  -0.215  0.00  0.00     0.009 A 
ATOM     16  C   UNL d   1      -3.133  -2.977   0.983  0.00  0.00    -0.058 A 
ATOM     17  C   UNL d   1      -2.640  -2.419   2.168  0.00  0.00     0.009 A 
ATOM     18  C   UNL d   1      -1.528  -1.574   2.143  0.00  0.00     0.030 A 
BRANCH  16  19
ATOM     19  C   UNL d   1      -4.372  -3.842   0.987  0.00  0.00     0.038 C 
BRANCH  19  20
ATOM     20  C   UNL d   1      -5.618  -3.128   1.522  0.00  0.00     0.004 C 
BRANCH  20  21
ATOM     21  C   UNL d   1      -6.000  -1.890   0.705  0.00  0.00    -0.004 C 
ATOM     22  C   UNL d   1      -7.229  -1.205   1.280  0.00  0.00     0.005 C 
ENDBRANCH  20  21
ENDBRANCH  19  20
ENDBRANCH  16  19
ENDBRANCH  11  13
ENDBRANCH   9  11
ENDBRANCH   7   9
ENDBRANCH   1   7
BRANCH   2  23
ATOM     23  O   UNL d   1       2.890   0.162  -6.220  0.00  0.00    -0.311 OA
BRANCH  23  24
ATOM     24  C   UNL d   1       4.264   0.110  -6.318  0.00  0.00     0.076 A 
ATOM     25  C   UNL d   1       4.771  -0.489  -7.468  0.00  0.00     0.040 A 
ATOM     26  C   UNL d   1       6.150  -0.628  -7.631  0.00  0.00     0.040 A 
ATOM     27  C   UNL d   1       7.033  -0.182  -6.642  0.00  0.00     0.078 A 
ATOM     28  C   UNL d   1       6.530   0.498  -5.535  0.00  0.00     0.040 A 
ATOM     29  C   UNL d   1       5.147   0.654  -5.379  0.00  0.00     0.040 A 
BRANCH  27  30
ATOM     30  O   UNL d   1       8.344  -0.461  -6.890  0.00  0.00    -0.255 OA
BRANCH  30  31
ATOM     31  C   UNL d   1       9.227  -0.553  -5.783  0.00  0.00     0.530 C 
ATOM     32  F   UNL d   1       8.625  -1.004  -4.662  0.00  0.00    -0.144 F 
ATOM     33  F   UNL d   1      10.214  -1.423  -6.098  0.00  0.00    -0.144 F 
ATOM     34  F   UNL d   1       9.787   0.650  -5.536  0.00  0.00    -0.144 F 
ENDBRANCH  30  31
ENDBRANCH  27  30
ENDBRANCH  23  24
ENDBRANCH   2  23
TORSDOF 11
