REMARK  0 active torsions:
REMARK  status: ('A' for Active; 'I' for Inactive)
ROOT
ATOM      1  C   UNL d   1       2.717  -0.731   0.004  0.00  0.00     0.134 A 
ATOM      2  C   UNL d   1       1.772   0.264   0.005  0.00  0.00     0.104 A 
ATOM      3  N   UNL d   1       4.080  -0.334   0.002  0.00  0.00    -0.288 N 
ATOM      4  N   UNL d   1       3.530   1.974   0.002  0.00  0.00    -0.270 N 
ATOM      5  N   UNL d   1       2.244  -2.084   0.005  0.00  0.00    -0.303 N 
ATOM      6  C   UNL d   1       4.496   1.013   0.001  0.00  0.00     0.332 A 
ATOM      7  C   UNL d   1       2.187   1.706   0.006  0.00  0.00     0.267 A 
ATOM      8  C   UNL d   1      -0.109  -1.346   0.006  0.00  0.00     0.061 A 
ATOM      9  C   UNL d   1       0.316  -0.045   0.005  0.00  0.00     0.068 A 
ATOM     10  C   UNL d   1       0.868  -2.411   0.007  0.00  0.00     0.261 A 
ATOM     11  N   UNL d   1      -0.598   0.961   0.002  0.00  0.00    -0.354 N 
ATOM     12  HN  UNL d   1      -0.280   1.930   0.001  1.00  0.00     0.166 HD
ATOM     13  C   UNL d   1      -1.473  -1.653   0.003  0.00  0.00     0.033 A 
ATOM     14  C   UNL d   1      -1.924   0.693   0.000  0.00  0.00     0.045 A 
ATOM     15  C   UNL d   1      -2.408  -0.628   0.000  0.00  0.00    -0.008 A 
ATOM     16  O   UNL d   1       5.693   1.323  -0.001  0.00  0.00    -0.246 OA
ATOM     17  O   UNL d   1       1.380   2.634   0.010  0.00  0.00    -0.267 OA
ATOM     18  C   UNL d   1      -2.860   1.718  -0.002  0.00  0.00     0.072 A 
ATOM     19  O   UNL d   1       0.432  -3.566   0.008  0.00  0.00    -0.267 OA
ATOM     20  C   UNL d   1       5.271  -1.158  -0.002  0.00  0.00     0.163 C 
ATOM     21  C   UNL d   1       3.937   3.373  -0.001  0.00  0.00     0.164 C 
ATOM     22  C   UNL d   1       2.969  -3.338   0.002  0.00  0.00     0.161 C 
ATOM     23  C   UNL d   1      -3.784  -0.908  -0.002  0.00  0.00     0.017 A 
ATOM     24  C   UNL d   1      -4.226   1.441  -0.003  0.00  0.00     0.118 A 
ATOM     25  C   UNL d   1      -4.698   0.136  -0.003  0.00  0.00     0.043 A 
ATOM     26  F   UNL d   1      -5.106   2.451  -0.003  0.00  0.00    -0.206 F 
ENDROOT
TORSDOF 0
