REMARK  5 active torsions:
REMARK  status: ('A' for Active; 'I' for Inactive)
REMARK    1  A    between atoms: C_8  and  C_3 
REMARK    2  A    between atoms: C_13  and  C_6 
REMARK    3  A    between atoms: C_9  and  C_14 
REMARK    4  A    between atoms: O_16  and  C_9 
REMARK    5  A    between atoms: C_14  and  C_13 
ROOT
ATOM      1  N   UNL d   1       1.300   0.189  -0.050  0.00  0.00    -0.323 N 
ATOM      2  HN  UNL d   1       2.306   0.344  -0.107  1.00  0.00     0.169 HD
ATOM      3  C   UNL d   1       0.283   1.121  -0.012  0.00  0.00     0.137 A 
ATOM      4  N   UNL d   1      -0.944   0.580   0.069  0.00  0.00    -0.242 N 
ATOM      5  HN  UNL d   1      -1.842   1.062   0.114  1.00  0.00     0.196 HD
ATOM      6  C   UNL d   1       0.646  -0.948   0.007  0.00  0.00     0.148 A 
ATOM      7  O   UNL d   1      -0.704  -0.792   0.078  0.00  0.00    -0.223 OA
ENDROOT
BRANCH   3   8
ATOM      8  C   UNL d   1       0.548   2.556  -0.053  0.00  0.00     0.010 A 
ATOM      9  C   UNL d   1       1.867   3.026  -0.150  0.00  0.00     0.017 A 
ATOM     10  C   UNL d   1       2.136   4.397  -0.192  0.00  0.00     0.025 A 
ATOM     11  C   UNL d   1       1.085   5.310  -0.137  0.00  0.00     0.034 A 
ATOM     12  C   UNL d   1      -0.230   4.863  -0.039  0.00  0.00     0.025 A 
ATOM     13 CL   UNL d   1       1.415   6.997  -0.192  0.00  0.00    -0.084 Cl
ATOM     14  C   UNL d   1      -0.498   3.490   0.003  0.00  0.00     0.017 A 
ENDBRANCH   3   8
BRANCH   6  15
ATOM     15  C   UNL d   1       1.168  -2.334   0.016  0.00  0.00     0.097 C 
BRANCH  15  16
ATOM     16  C   UNL d   1       2.560  -2.385   0.639  0.00  0.00     0.118 C 
BRANCH  16  17
ATOM     17  C   UNL d   1       3.089  -3.792   0.668  0.00  0.00     0.139 C 
ATOM     18  O   UNL d   1       2.492  -4.773   0.258  0.00  0.00    -0.650 OA
BRANCH  17  19
ATOM     19  O   UNL d   1       4.325  -3.867   1.211  0.00  0.00    -0.776 OA
ATOM     20  H   UNL d   1       4.691  -3.008   1.497  0.00  0.00     0.167 HD
ENDBRANCH  17  19
ENDBRANCH  16  17
ENDBRANCH  15  16
ENDBRANCH   6  15
TORSDOF 5
