REMARK  7 active torsions:
REMARK  status: ('A' for Active; 'I' for Inactive)
REMARK    1  A    between atoms: C_9  and  N_1 
REMARK    2  A    between atoms: S_10  and  C_5 
REMARK    3  A    between atoms: C_18  and  S_10 
REMARK    4  A    between atoms: O_17  and  C_19 
REMARK    5  A    between atoms: C_22  and  O_17 
REMARK    6  A    between atoms: C_21  and  C_18 
REMARK    7  A    between atoms: C_30  and  C_22 
ROOT
ATOM      1  N   UNL d   1      -0.327  -1.291  -0.023  0.00  0.00    -0.273 N 
ATOM      2  C   UNL d   1       0.919  -0.660   0.041  0.00  0.00     0.163 A 
ATOM      3  N   UNL d   1       0.762   0.648   0.099  0.00  0.00    -0.281 N 
ATOM      4  HN  UNL d   1       1.507   1.337   0.202  1.00  0.00     0.188 HD
ATOM      5  C   UNL d   1      -1.222  -0.224  -0.087  0.00  0.00     0.168 A 
ATOM      6  N   UNL d   1      -0.576   0.918  -0.002  0.00  0.00    -0.278 N 
ATOM      7  HN  UNL d   1      -0.999   1.846  -0.011  1.00  0.00     0.189 HD
ATOM      8  C   UNL d   1       2.212  -1.283  -0.032  0.00  0.00     0.120 A 
ATOM      9  O   UNL d   1       2.464  -2.418  -0.765  0.00  0.00    -0.319 OA
ATOM     10  C   UNL d   1       3.393  -0.900   0.589  0.00  0.00     0.043 A 
ATOM     11  C   UNL d   1       3.759  -2.768  -0.569  0.00  0.00     0.142 A 
ATOM     12  C   UNL d   1       4.375  -1.867   0.263  0.00  0.00     0.027 A 
ENDROOT
BRANCH   1  13
ATOM     13  C   UNL d   1      -0.578  -2.700   0.013  0.00  0.00     0.043 A 
ATOM     14  C   UNL d   1       0.251  -3.546   0.768  0.00  0.00     0.033 A 
ATOM     15  C   UNL d   1       0.077  -4.934   0.753  0.00  0.00     0.039 A 
ATOM     16  C   UNL d   1      -0.953  -5.502   0.012  0.00  0.00     0.069 A 
ATOM     17  C   UNL d   1      -1.816  -4.662  -0.696  0.00  0.00     0.039 A 
ATOM     18  C   UNL d   1      -1.627  -3.275  -0.711  0.00  0.00     0.033 A 
BRANCH  16  19
ATOM     19  O   UNL d   1      -1.239  -6.837  -0.061  0.00  0.00    -0.347 OA
BRANCH  19  20
ATOM     20  C   UNL d   1      -0.139  -7.732   0.127  0.00  0.00     0.214 C 
BRANCH  20  21
ATOM     21  C   UNL d   1      -0.611  -9.169   0.064  0.00  0.00    -0.034 A 
ATOM     22  C   UNL d   1       0.223 -10.163  -0.471  0.00  0.00     0.009 A 
ATOM     23  C   UNL d   1      -0.169 -11.504  -0.458  0.00  0.00     0.001 A 
ATOM     24  C   UNL d   1      -1.394 -11.868   0.097  0.00  0.00     0.000 A 
ATOM     25  C   UNL d   1      -2.229 -10.893   0.638  0.00  0.00     0.001 A 
ATOM     26  C   UNL d   1      -1.838  -9.553   0.627  0.00  0.00     0.009 A 
ENDBRANCH  20  21
ENDBRANCH  19  20
ENDBRANCH  16  19
ENDBRANCH   1  13
BRANCH   5  27
ATOM     27  S   UNL d   1      -2.960  -0.343  -0.059  0.00  0.00    -0.087 SA
BRANCH  27  28
ATOM     28  C   UNL d   1      -3.463   1.405  -0.169  0.00  0.00     0.121 C 
BRANCH  28  29
ATOM     29  C   UNL d   1      -4.973   1.552  -0.120  0.00  0.00    -0.048 A 
ATOM     30  C   UNL d   1      -5.631   1.727   1.108  0.00  0.00     0.009 A 
ATOM     31  C   UNL d   1      -7.023   1.843   1.163  0.00  0.00     0.024 A 
ATOM     32  C   UNL d   1      -7.770   1.784  -0.011  0.00  0.00     0.034 A 
ATOM     33  C   UNL d   1      -7.136   1.614  -1.241  0.00  0.00     0.024 A 
ATOM     34 CL   UNL d   1      -9.485   1.916   0.056  0.00  0.00    -0.084 Cl
ATOM     35  C   UNL d   1      -5.742   1.498  -1.295  0.00  0.00     0.009 A 
ENDBRANCH  28  29
ENDBRANCH  27  28
ENDBRANCH   5  27
TORSDOF 7
