REMARK  5 active torsions:
REMARK  status: ('A' for Active; 'I' for Inactive)
REMARK    1  A    between atoms: C_8  and  C_1 
REMARK    2  A    between atoms: C_3  and  N_2 
REMARK       I    between atoms: C_6  and  N_7 
REMARK       I    between atoms: N_18  and  C_6 
REMARK    3  A    between atoms: N_7  and  C_20 
REMARK    4  A    between atoms: C_22  and  N_18 
REMARK    5  A    between atoms: C_23  and  C_22 
ROOT
ATOM      1  C   UNL d   1      -1.513   3.458  -2.542  0.00  0.00     0.103 A 
ATOM      2  N   UNL d   1      -2.686   3.857  -1.999  0.00  0.00    -0.350 N 
ATOM      3  HN  UNL d   1      -3.011   3.464  -1.115  1.00  0.00     0.166 HD
ATOM      4  C   UNL d   1      -1.113   3.973  -3.771  0.00  0.00     0.051 A 
ATOM      5  C   UNL d   1      -3.422   4.792  -2.656  0.00  0.00     0.119 A 
ATOM      6  C   UNL d   1      -3.079   5.363  -3.876  0.00  0.00     0.051 A 
ATOM      7  C   UNL d   1      -1.890   4.922  -4.436  0.00  0.00     0.035 A 
ENDROOT
BRANCH   1   8
ATOM      8  N   UNL d   1      -0.729   2.555  -1.855  0.00  0.00    -0.367 N 
ATOM      9  C   UNL d   1       0.720   2.521  -1.990  0.00  0.00     0.125 C 
ATOM     10  C   UNL d   1       1.355   2.579  -0.597  0.00  0.00     0.033 C 
ATOM     11  C   UNL d   1       0.787   1.513   0.352  0.00  0.00     0.096 C 
ATOM     12  C   UNL d   1      -0.748   1.602   0.383  0.00  0.00     0.033 C 
ATOM     13  C   UNL d   1      -1.363   1.552  -1.013  0.00  0.00     0.125 C 
BRANCH  11  14
ATOM     14  C   UNL d   1       1.299   0.113   0.015  0.00  0.00     0.391 C 
ATOM     15  F   UNL d   1       0.308  -0.801  -0.052  0.00  0.00    -0.171 F 
ATOM     16  F   UNL d   1       2.159  -0.306   0.976  0.00  0.00    -0.171 F 
ATOM     17  F   UNL d   1       1.973   0.067  -1.154  0.00  0.00    -0.171 F 
ENDBRANCH  11  14
ENDBRANCH   1   8
BRANCH   6  18
ATOM     18  N   UNL d   1      -3.915   6.339  -4.467  0.00  0.00    -0.308 N 
ATOM     19  C   UNL d   1      -3.715   6.944  -5.686  0.00  0.00     0.320 C 
ATOM     20  O   UNL d   1      -2.810   6.704  -6.481  0.00  0.00    -0.247 OA
ATOM     21  N   UNL d   1      -4.661   7.905  -5.960  0.00  0.00    -0.343 N 
ATOM     22  H   UNL d   1      -5.437   8.051  -5.335  0.00  0.00     0.164 HD
ATOM     23  H   UNL d   1      -4.743   6.604  -3.956  0.00  0.00     0.170 HD
BRANCH  21  24
ATOM     24  C   UNL d   1      -4.622   8.642  -7.210  0.00  0.00     0.124 C 
BRANCH  24  25
ATOM     25  C   UNL d   1      -5.219   7.856  -8.378  0.00  0.00     0.015 C 
ATOM     26  C   UNL d   1      -6.721   7.661  -8.239  0.00  0.00     0.006 C 
ENDBRANCH  24  25
ENDBRANCH  21  24
ENDBRANCH   6  18
TORSDOF 5
