REMARK  5 active torsions:
REMARK  status: ('A' for Active; 'I' for Inactive)
REMARK    1  A    between atoms: C_7  and  S_1 
REMARK    2  A    between atoms: N_12  and  S_1 
REMARK    3  A    between atoms: C_2  and  C_3 
REMARK       I    between atoms: C_3  and  N_6 
REMARK    4  A    between atoms: N_6  and  N_13 
REMARK    5  A    between atoms: N_13  and  C_18 
ROOT
ATOM      1  C   UNL d   1       0.339   0.616  -1.538  0.00  0.00     0.074 A 
ATOM      2  C   UNL d   1      -0.301  -0.248  -2.426  0.00  0.00     0.026 A 
ATOM      3  C   UNL d   1       0.459   1.973  -1.836  0.00  0.00     0.026 A 
ATOM      4  C   UNL d   1      -0.694   1.609  -3.962  0.00  0.00     0.027 A 
ATOM      5  C   UNL d   1      -0.065   2.462  -3.041  0.00  0.00     0.026 A 
ATOM      6  C   UNL d   1      -0.822   0.253  -3.624  0.00  0.00     0.026 A 
ENDROOT
BRANCH   4   7
ATOM      7  N   UNL d   1      -1.326   2.170  -5.102  0.00  0.00    -0.203 NA
ATOM      8  H   UNL d   1      -0.938   3.095  -5.336  0.00  0.00     0.153 HD
BRANCH   7   9
ATOM      9  N   UNL d   1      -1.307   1.341  -6.243  0.00  0.00    -0.282 N 
ATOM     10  C   UNL d   1      -1.112   1.949  -7.478  0.00  0.00     0.274 C 
ATOM     11  O   UNL d   1      -0.838   3.151  -7.533  0.00  0.00    -0.266 OA
ATOM     12  H   UNL d   1      -1.794   0.454  -6.176  0.00  0.00     0.184 HD
BRANCH  10  13
ATOM     13  C   UNL d   1      -1.250   1.083  -8.643  0.00  0.00     0.095 A 
ATOM     14  C   UNL d   1      -1.365  -0.292  -8.764  0.00  0.00     0.057 A 
ATOM     15  C   UNL d   1      -1.419  -0.725 -10.123  0.00  0.00     0.032 A 
ATOM     16 CL   UNL d   1      -1.412  -1.447  -7.495  0.00  0.00    -0.083 Cl
ATOM     17  C   UNL d   1      -1.367   0.327 -11.007  0.00  0.00     0.052 A 
ATOM     18  S   UNL d   1      -1.253   1.826 -10.201  0.00  0.00    -0.095 SA
ENDBRANCH  10  13
ENDBRANCH   7   9
ENDBRANCH   4   7
BRANCH   1  19
ATOM     19  S   UNL d   1       0.932  -0.002   0.009  0.00  0.00     0.239 S 
ATOM     20  O   UNL d   1       0.748  -1.436   0.056  0.00  0.00    -0.206 OA
ATOM     21  O   UNL d   1       0.484   0.875   1.063  0.00  0.00    -0.206 OA
BRANCH  19  22
ATOM     22  N   UNL d   1       2.593   0.224  -0.119  0.00  0.00    -0.225 NA
ATOM     23  H   UNL d   1       3.059  -0.683  -0.160  0.00  0.00     0.136 HD
ATOM     24  H   UNL d   1       2.913   0.813   0.651  0.00  0.00     0.136 HD
ENDBRANCH  19  22
ENDBRANCH   1  19
TORSDOF 5
