REMARK  2 active torsions:
REMARK  status: ('A' for Active; 'I' for Inactive)
REMARK    1  A    between atoms: C_4  and  C_3 
REMARK    2  A    between atoms: N_5  and  C_12 
ROOT
ATOM      1  C   UNL d   1      -3.280  -1.969  -0.005  0.00  0.00    -0.007 A 
ATOM      2  C   UNL d   1      -4.035  -2.077  -1.207  0.00  0.00     0.004 A 
ATOM      3  N   UNL d   1      -5.427  -1.872   0.523  0.00  0.00    -0.364 N 
ATOM      4  C   UNL d   1      -4.159  -1.884   1.048  0.00  0.00     0.100 A 
ATOM      5  C   UNL d   1      -4.725  -2.207  -3.522  0.00  0.00     0.103 A 
ATOM      6  C   UNL d   1      -3.695  -2.195  -2.570  0.00  0.00     0.050 A 
ATOM      7  C   UNL d   1      -5.381  -1.987  -0.850  0.00  0.00     0.043 A 
ATOM      8  C   UNL d   1      -6.069  -2.099  -3.142  0.00  0.00     0.038 A 
ATOM      9  C   UNL d   1      -6.418  -1.988  -1.792  0.00  0.00     0.033 A 
ATOM     10  H   UNL d   1      -6.275  -1.752   1.061  0.00  0.00     0.165 HD
ENDROOT
BRANCH   1  11
ATOM     11  C   UNL d   1      -1.863  -1.872   0.092  0.00  0.00     0.031 C 
ATOM     12  C   UNL d   1      -1.180  -0.715   0.106  0.00  0.00     0.045 A 
ATOM     13  C   UNL d   1      -1.785   0.670   0.106  0.00  0.00     0.257 A 
ATOM     14  C   UNL d   1       0.278  -0.547   0.085  0.00  0.00     0.006 A 
ATOM     15  N   UNL d   1      -0.700   1.529   0.097  0.00  0.00    -0.322 N 
ATOM     16  O   UNL d   1      -2.954   1.003   0.118  0.00  0.00    -0.267 OA
ATOM     17  C   UNL d   1       0.503   0.834   0.079  0.00  0.00     0.046 A 
ATOM     18  H   UNL d   1      -0.804   2.532   0.088  0.00  0.00     0.169 HD
ATOM     19  C   UNL d   1       1.767   1.386   0.044  0.00  0.00     0.030 A 
ATOM     20  C   UNL d   1       2.847   0.505   0.002  0.00  0.00     0.002 A 
ATOM     21  C   UNL d   1       2.639  -0.888  -0.005  0.00  0.00     0.001 A 
ATOM     22  C   UNL d   1       1.345  -1.426   0.036  0.00  0.00     0.015 A 
ENDBRANCH   1  11
BRANCH   5  23
ATOM     23  N   UNL d   1      -4.378  -2.326  -4.944  0.00  0.00    -0.116 N 
ATOM     24  O   UNL d   1      -3.181  -2.436  -5.242  0.00  0.00    -0.532 OA
ATOM     25  O   UNL d   1      -5.306  -2.317  -5.766  0.00  0.00    -0.532 OA
ENDBRANCH   5  23
TORSDOF 2
