REMARK  7 active torsions:
REMARK  status: ('A' for Active; 'I' for Inactive)
REMARK    1  A    between atoms: C_13  and  N_9 
REMARK    2  A    between atoms: C_12  and  C_11 
REMARK       I    between atoms: N_22  and  C_12 
REMARK    3  A    between atoms: C_21  and  C_13 
REMARK    4  A    between atoms: C_16  and  O_17 
REMARK    5  A    between atoms: O_17  and  C_23 
REMARK    6  A    between atoms: C_23  and  C_21 
REMARK    7  A    between atoms: O_25  and  C_21 
ROOT
ATOM      1  C   UNL d   1       3.528   2.535  -0.104  0.00  0.00     0.160 C 
ENDROOT
BRANCH   1   2
ATOM      2  C   UNL d   1       2.016   2.407   0.144  0.00  0.00     0.164 C 
BRANCH   2   3
ATOM      3  N   UNL d   1       1.457   1.071   0.120  0.00  0.00    -0.333 N 
ATOM      4  C   UNL d   1       0.169   0.736  -0.209  0.00  0.00     0.149 A 
ATOM      5  C   UNL d   1       0.151  -0.626  -0.238  0.00  0.00     0.145 A 
ATOM      6  C   UNL d   1      -0.983   1.527  -0.479  0.00  0.00     0.282 A 
ATOM      7  N   UNL d   1      -0.972  -1.328  -0.602  0.00  0.00    -0.287 N 
ATOM      8  N   UNL d   1       1.347  -1.153   0.136  0.00  0.00    -0.336 N 
ATOM      9  C   UNL d   1      -2.162  -0.638  -0.851  0.00  0.00     0.332 A 
ATOM     10  C   UNL d   1      -0.972  -2.774  -0.698  0.00  0.00     0.163 C 
ATOM     11  N   UNL d   1      -2.127   0.763  -0.733  0.00  0.00    -0.269 N 
ATOM     12  O   UNL d   1      -3.195  -1.240  -1.161  0.00  0.00    -0.246 OA
ATOM     13  C   UNL d   1      -3.362   1.501  -0.910  0.00  0.00     0.164 C 
ATOM     14  C   UNL d   1       2.097  -0.106   0.416  0.00  0.00     0.185 C 
ATOM     15  HN  UNL d   1       1.607  -2.138   0.189  1.00  0.00     0.168 HD
ATOM     16  O   UNL d   1      -0.968   2.755  -0.476  0.00  0.00    -0.265 OA
ENDBRANCH   2   3
ENDBRANCH   1   2
BRANCH   1  17
ATOM     17  C   UNL d   1       3.969   1.986  -1.474  0.00  0.00     0.209 C 
BRANCH  17  18
ATOM     18  O   UNL d   1       5.397   2.109  -1.557  0.00  0.00    -0.348 OA
BRANCH  18  19
ATOM     19  C   UNL d   1       5.987   1.637  -2.704  0.00  0.00     0.084 A 
ATOM     20  C   UNL d   1       7.123   2.301  -3.212  0.00  0.00     0.065 A 
ATOM     21  C   UNL d   1       7.757   1.788  -4.359  0.00  0.00     0.020 A 
ATOM     22  C   UNL d   1       7.292   0.630  -4.983  0.00  0.00     0.001 A 
ATOM     23  C   UNL d   1       6.191  -0.036  -4.463  0.00  0.00     0.003 A 
ATOM     24  C   UNL d   1       5.545   0.461  -3.329  0.00  0.00     0.038 A 
BRANCH  20  25
ATOM     25  C   UNL d   1       7.732   3.538  -2.625  0.00  0.00     0.252 C 
ATOM     26  O   UNL d   1       8.714   4.071  -3.130  0.00  0.00    -0.268 OA
ATOM     27  N   UNL d   1       7.174   4.073  -1.502  0.00  0.00    -0.366 N 
ATOM     28  H   UNL d   1       6.419   3.612  -1.004  0.00  0.00     0.159 HD
ATOM     29  H   UNL d   1       7.636   4.860  -1.070  0.00  0.00     0.159 HD
ENDBRANCH  20  25
ENDBRANCH  18  19
ENDBRANCH  17  18
ENDBRANCH   1  17
BRANCH   1  30
ATOM     30  O   UNL d   1       3.903   3.918   0.012  0.00  0.00    -0.392 OA
ATOM     31  H   UNL d   1       3.660   4.383  -0.809  0.00  0.00     0.210 HD
ENDBRANCH   1  30
TORSDOF 7
