REMARK  3 active torsions:
REMARK  status: ('A' for Active; 'I' for Inactive)
REMARK       I    between atoms: N_4  and  C_1 
REMARK    1  A    between atoms: C_7  and  C_1 
REMARK    2  A    between atoms: C_3  and  C_8 
REMARK    3  A    between atoms: C_6  and  N_5 
ROOT
ATOM      1  C   UNL d   1       0.880  -0.250   0.031  0.00  0.00     0.253 C 
ATOM      2  N   UNL d   1       0.297  -0.464  -1.218  0.00  0.00    -0.345 N 
ATOM      3  N   UNL d   1      -0.431  -0.673  -3.976  0.00  0.00    -0.377 N 
ATOM      4  C   UNL d   1       0.697  -1.646  -2.004  0.00  0.00     0.146 C 
ATOM      5  C   UNL d   1      -0.849   0.276  -1.766  0.00  0.00     0.146 C 
ATOM      6  C   UNL d   1       0.790  -1.358  -3.519  0.00  0.00     0.143 C 
ATOM      7  C   UNL d   1      -0.730   0.565  -3.265  0.00  0.00     0.143 C 
ATOM      8  O   UNL d   1       1.862  -0.871   0.427  0.00  0.00    -0.267 OA
ENDROOT
BRANCH   1   9
ATOM      9  C   UNL d   1       0.326   0.806   0.927  0.00  0.00     0.033 A 
ATOM     10  C   UNL d   1       1.212   1.696   1.546  0.00  0.00     0.033 A 
ATOM     11  C   UNL d   1       0.722   2.750   2.337  0.00  0.00     0.048 A 
ATOM     12  C   UNL d   1      -0.667   2.911   2.470  0.00  0.00     0.016 A 
ATOM     13  C   UNL d   1      -1.547   1.994   1.898  0.00  0.00     0.002 A 
ATOM     14  C   UNL d   1      -1.048   0.916   1.169  0.00  0.00     0.017 A 
BRANCH  11  15
ATOM     15  C   UNL d   1       1.651   3.701   3.050  0.00  0.00     0.417 C 
ATOM     16  F   UNL d   1       2.970   3.417   2.878  0.00  0.00    -0.166 F 
ATOM     17  F   UNL d   1       1.488   4.990   2.639  0.00  0.00    -0.166 F 
ATOM     18  F   UNL d   1       1.442   3.712   4.396  0.00  0.00    -0.166 F 
ENDBRANCH  11  15
ENDBRANCH   1   9
BRANCH   3  19
ATOM     19  C   UNL d   1      -1.079  -0.992  -5.160  0.00  0.00     0.043 A 
ATOM     20  C   UNL d   1      -1.633  -0.039  -6.072  0.00  0.00     0.018 A 
ATOM     21  C   UNL d   1      -2.384  -0.478  -7.167  0.00  0.00     0.044 A 
ATOM     22  C   UNL d   1      -1.606   1.392  -6.173  0.00  0.00     0.033 A 
ATOM     23  N   UNL d   1      -2.829   0.634  -7.847  0.00  0.00    -0.365 N 
ATOM     24  C   UNL d   1      -2.609  -1.827  -7.448  0.00  0.00     0.030 A 
ATOM     25  C   UNL d   1      -2.368   1.774  -7.251  0.00  0.00     0.089 A 
ATOM     26  H   UNL d   1      -3.409   0.604  -8.673  0.00  0.00     0.165 HD
ATOM     27  C   UNL d   1      -2.046  -2.760  -6.586  0.00  0.00     0.005 A 
ATOM     28  C   UNL d   1      -1.304  -2.351  -5.478  0.00  0.00     0.030 A 
ENDBRANCH   3  19
TORSDOF 3
