REMARK  4 active torsions:
REMARK  status: ('A' for Active; 'I' for Inactive)
REMARK    1  A    between atoms: C_5  and  S_1 
REMARK    2  A    between atoms: N_13  and  S_1 
REMARK    3  A    between atoms: C_2  and  C_3 
REMARK       I    between atoms: C_3  and  N_6 
REMARK    4  A    between atoms: N_6  and  C_12 
ROOT
ATOM      1  C   UNL d   1       0.785   0.759  -1.679  0.00  0.00     0.076 A 
ATOM      2  C   UNL d   1       0.262  -0.260  -2.484  0.00  0.00     0.054 A 
ATOM      3  C   UNL d   1      -0.386   0.054  -3.678  0.00  0.00     0.036 A 
ATOM      4  C   UNL d   1       0.698   2.095  -2.064  0.00  0.00     0.025 A 
ATOM      5  C   UNL d   1       0.082   2.413  -3.272  0.00  0.00     0.004 A 
ATOM      6  C   UNL d   1      -0.462   1.398  -4.069  0.00  0.00     0.029 A 
ENDROOT
BRANCH   3   7
ATOM      7  N   UNL d   1      -1.045  -0.897  -4.487  0.00  0.00    -0.323 N 
ATOM      8  C   UNL d   1      -1.125  -2.263  -4.280  0.00  0.00     0.259 C 
ATOM      9  O   UNL d   1      -0.462  -2.902  -3.468  0.00  0.00    -0.267 OA
ATOM     10  H   UNL d   1      -1.571  -0.515  -5.265  0.00  0.00     0.169 HD
BRANCH   8  11
ATOM     11  C   UNL d   1      -2.125  -3.012  -5.102  0.00  0.00     0.071 A 
ATOM     12  C   UNL d   1      -2.862  -2.422  -6.135  0.00  0.00     0.135 A 
ATOM     13  C   UNL d   1      -3.830  -3.141  -6.834  0.00  0.00     0.085 A 
ATOM     14  F   UNL d   1      -2.660  -1.141  -6.480  0.00  0.00    -0.205 F 
ATOM     15  C   UNL d   1      -4.064  -4.464  -6.497  0.00  0.00     0.119 A 
ATOM     16  C   UNL d   1      -3.337  -5.083  -5.480  0.00  0.00     0.043 A 
ATOM     17  F   UNL d   1      -5.010  -5.157  -7.150  0.00  0.00    -0.206 F 
ATOM     18  C   UNL d   1      -2.368  -4.361  -4.789  0.00  0.00     0.023 A 
ENDBRANCH   8  11
ENDBRANCH   3   7
BRANCH   1  19
ATOM     19  S   UNL d   1       1.427   0.324  -0.090  0.00  0.00     0.239 S 
ATOM     20  O   UNL d   1       0.848  -0.927   0.339  0.00  0.00    -0.206 OA
ATOM     21  O   UNL d   1       1.427   1.493   0.756  0.00  0.00    -0.206 OA
BRANCH  19  22
ATOM     22  N   UNL d   1       3.036  -0.007  -0.430  0.00  0.00    -0.225 NA
ATOM     23  H   UNL d   1       3.165  -1.010  -0.574  0.00  0.00     0.136 HD
ATOM     24  H   UNL d   1       3.617   0.369   0.319  0.00  0.00     0.136 HD
ENDBRANCH  19  22
ENDBRANCH   1  19
TORSDOF 4
