REMARK  6 active torsions:
REMARK  status: ('A' for Active; 'I' for Inactive)
REMARK    1  A    between atoms: C_4  and  N_7 
REMARK       I    between atoms: C_8  and  N_7 
REMARK    2  A    between atoms: C_18  and  C_8 
REMARK    3  A    between atoms: S_12  and  C_18 
REMARK    4  A    between atoms: C_22  and  S_12 
REMARK    5  A    between atoms: O_21  and  C_13 
REMARK    6  A    between atoms: C_15  and  C_22 
ROOT
ATOM      1  N   UNL d   1      -2.309  -1.853  -2.695  0.00  0.00    -0.356 N 
ATOM      2  C   UNL d   1      -3.150  -2.528  -3.557  0.00  0.00     0.227 C 
ATOM      3  O   UNL d   1      -3.021  -2.557  -4.777  0.00  0.00    -0.273 OA
ATOM      4  H   UNL d   1      -2.763  -1.592  -1.824  0.00  0.00     0.162 HD
ENDROOT
BRANCH   2   5
ATOM      5  C   UNL d   1      -4.242  -3.320  -2.851  0.00  0.00     0.176 C 
BRANCH   5   6
ATOM      6  S   UNL d   1      -5.171  -2.196  -1.774  0.00  0.00    -0.155 SA
BRANCH   6   7
ATOM      7  C   UNL d   1      -6.369  -3.376  -1.069  0.00  0.00     0.112 C 
BRANCH   7   8
ATOM      8  C   UNL d   1      -7.296  -2.602  -0.170  0.00  0.00    -0.049 A 
ATOM      9  C   UNL d   1      -8.484  -2.063  -0.678  0.00  0.00     0.011 A 
ATOM     10  C   UNL d   1      -9.230  -1.167   0.086  0.00  0.00     0.037 A 
ATOM     11  C   UNL d   1      -8.813  -0.807   1.368  0.00  0.00     0.068 A 
ATOM     12  C   UNL d   1      -7.649  -1.367   1.895  0.00  0.00     0.037 A 
ATOM     13  C   UNL d   1      -6.898  -2.264   1.131  0.00  0.00     0.011 A 
BRANCH  11  14
ATOM     14  O   UNL d   1      -9.585   0.143   1.979  0.00  0.00    -0.356 OA
ATOM     15  C   UNL d   1      -9.499   0.202   3.396  0.00  0.00     0.210 C 
ENDBRANCH  11  14
ENDBRANCH   7   8
ENDBRANCH   6   7
ENDBRANCH   5   6
ENDBRANCH   2   5
BRANCH   1  16
ATOM     16  C   UNL d   1      -1.232  -0.969  -3.153  0.00  0.00     0.088 C 
ATOM     17  C   UNL d   1      -0.537  -0.299  -1.944  0.00  0.00     0.061 C 
ATOM     18  C   UNL d   1       0.620  -1.137  -1.359  0.00  0.00     0.225 C 
ATOM     19  N   UNL d   1       1.582  -1.361  -2.456  0.00  0.00     0.093 N 
ATOM     20  C   UNL d   1       0.170  -2.545  -0.950  0.00  0.00     0.038 C 
ATOM     21  C   UNL d   1       0.909  -2.404  -3.252  0.00  0.00     0.225 C 
ATOM     22  C   UNL d   1       2.904  -1.780  -1.988  0.00  0.00     0.310 C 
ATOM     23  C   UNL d   1      -0.199  -1.688  -4.042  0.00  0.00     0.061 C 
ATOM     24  C   UNL d   1       0.388  -3.392  -2.204  0.00  0.00     0.038 C 
ENDBRANCH   1  16
TORSDOF 6
