REMARK  5 active torsions:
REMARK  status: ('A' for Active; 'I' for Inactive)
REMARK    1  A    between atoms: C_2  and  C_1 
REMARK    2  A    between atoms: S_5  and  C_1 
REMARK    3  A    between atoms: C_3  and  C_10 
REMARK    4  A    between atoms: C_13  and  C_4 
REMARK    5  A    between atoms: C_11  and  S_5 
ROOT
ATOM      1  C   UNL d   1       0.362   0.843   0.890  0.00  0.00     0.038 A 
ATOM      2  N   UNL d   1      -1.268   1.215   2.641  0.00  0.00    -0.373 N 
ATOM      3  HN  UNL d   1      -2.004   0.862   3.253  1.00  0.00     0.164 HD
ATOM      4  C   UNL d   1       0.761   2.188   0.978  0.00  0.00     0.039 A 
ATOM      5  C   UNL d   1       0.129   3.043   1.881  0.00  0.00     0.034 A 
ATOM      6  C   UNL d   1      -0.626   0.405   1.760  0.00  0.00     0.103 A 
ATOM      7  C   UNL d   1      -0.885   2.516   2.669  0.00  0.00     0.108 A 
ENDROOT
BRANCH   1   8
ATOM      8  C   UNL d   1       1.057  -0.047  -0.071  0.00  0.00     0.225 C 
ATOM      9  O   UNL d   1       2.213   0.220  -0.379  0.00  0.00    -0.279 OA
BRANCH   8  10
ATOM     10  S   UNL d   1       0.173  -1.343  -0.860  0.00  0.00    -0.048 SA
BRANCH  10  11
ATOM     11  C   UNL d   1       1.042  -2.865  -0.478  0.00  0.00     0.008 A 
ATOM     12  C   UNL d   1       0.281  -4.050  -0.467  0.00  0.00     0.021 A 
ATOM     13  C   UNL d   1       0.880  -5.295  -0.241  0.00  0.00     0.025 A 
ATOM     14  C   UNL d   1       2.256  -5.371  -0.049  0.00  0.00     0.034 A 
ATOM     15  C   UNL d   1       3.025  -4.210  -0.037  0.00  0.00     0.025 A 
ATOM     16 CL   UNL d   1       3.008  -6.901   0.173  0.00  0.00    -0.084 Cl
ATOM     17  C   UNL d   1       2.416  -2.961  -0.232  0.00  0.00     0.021 A 
ENDBRANCH  10  11
ENDBRANCH   8  10
ENDBRANCH   1   8
BRANCH   5  18
ATOM     18  C   UNL d   1       0.513   4.410   2.018  0.00  0.00    -0.060 C 
ATOM     19  C   UNL d   1       0.806   5.567   2.205  0.00  0.00    -0.061 C 
BRANCH  19  20
ATOM     20  C   UNL d   1       1.109   6.931   2.493  0.00  0.00     0.018 A 
ATOM     21  C   UNL d   1       1.134   7.370   3.821  0.00  0.00     0.020 A 
ATOM     22  C   UNL d   1       1.396   8.710   4.111  0.00  0.00     0.001 A 
ATOM     23  C   UNL d   1       1.637   9.613   3.075  0.00  0.00     0.000 A 
ATOM     24  C   UNL d   1       1.622   9.175   1.750  0.00  0.00     0.001 A 
ATOM     25  C   UNL d   1       1.358   7.835   1.458  0.00  0.00     0.020 A 
ENDBRANCH  19  20
ENDBRANCH   5  18
TORSDOF 5
