REMARK  5 active torsions:
REMARK  status: ('A' for Active; 'I' for Inactive)
REMARK       I    between atoms: N_2  and  C_1 
REMARK    1  A    between atoms: C_3  and  C_1 
REMARK    2  A    between atoms: C_7  and  N_2 
REMARK    3  A    between atoms: C_14  and  N_2 
REMARK    4  A    between atoms: C_13  and  C_7 
REMARK    5  A    between atoms: C_12  and  C_14 
ROOT
ATOM      1  N   UNL d   1      -0.817   1.709  -4.266  0.00  0.00    -0.197 NA
ATOM      2  C   UNL d   1       0.094   1.855  -3.557  0.00  0.00     0.060 C 
ATOM      3  C   UNL d   1       1.234   2.046  -2.649  0.00  0.00     0.143 C 
ENDROOT
BRANCH   3   4
ATOM      4  C   UNL d   1       0.790   2.257  -1.198  0.00  0.00     0.140 C 
BRANCH   4   5
ATOM      5  N   UNL d   1       0.258   1.056  -0.530  0.00  0.00    -0.342 N 
ATOM      6  C   UNL d   1       1.185   0.121  -0.036  0.00  0.00     0.261 C 
ATOM      7  O   UNL d   1       2.384   0.306  -0.268  0.00  0.00    -0.267 OA
BRANCH   6   8
ATOM      8  C   UNL d   1       0.730  -1.038   0.729  0.00  0.00     0.072 A 
ATOM      9  S   UNL d   1       1.572  -2.525   0.512  0.00  0.00    -0.097 SA
ATOM     10  C   UNL d   1       0.600  -3.334   1.659  0.00  0.00     0.050 A 
ATOM     11  C   UNL d   1      -0.338  -2.499   2.219  0.00  0.00     0.009 A 
ATOM     12  C   UNL d   1      -0.248  -1.174   1.699  0.00  0.00     0.025 A 
ENDBRANCH   6   8
BRANCH   5  13
ATOM     13  C   UNL d   1      -1.196   0.864  -0.564  0.00  0.00     0.164 C 
BRANCH  13  14
ATOM     14  C   UNL d   1      -1.970   1.651   0.473  0.00  0.00    -0.040 A 
ATOM     15  C   UNL d   1      -1.359   2.363   1.517  0.00  0.00     0.009 A 
ATOM     16  C   UNL d   1      -2.127   3.080   2.437  0.00  0.00     0.001 A 
ATOM     17  C   UNL d   1      -3.515   3.095   2.329  0.00  0.00     0.000 A 
ATOM     18  C   UNL d   1      -4.139   2.381   1.308  0.00  0.00     0.001 A 
ATOM     19  C   UNL d   1      -3.373   1.662   0.390  0.00  0.00     0.009 A 
ENDBRANCH  13  14
ENDBRANCH   5  13
ENDBRANCH   4   5
ENDBRANCH   3   4
TORSDOF 5
