REMARK  5 active torsions:
REMARK  status: ('A' for Active; 'I' for Inactive)
REMARK    1  A    between atoms: N_3  and  C_1 
REMARK    2  A    between atoms: C_2  and  N_3 
REMARK    3  A    between atoms: N_6  and  C_2 
REMARK    4  A    between atoms: N_10  and  N_6 
REMARK    5  A    between atoms: C_14  and  N_10 
ROOT
ATOM      1  C   UNL d   1       1.224   2.364   0.073  0.00  0.00     0.187 C 
ATOM      2  S   UNL d   1       1.237   4.031  -0.125  0.00  0.00    -0.040 SA
ENDROOT
BRANCH   1   3
ATOM      3  N   UNL d   1       0.127   1.517   0.110  0.00  0.00    -0.330 N 
ATOM      4  H   UNL d   1       0.219   0.779  -0.583  0.00  0.00     0.168 HD
BRANCH   3   5
ATOM      5  C   UNL d   1      -1.216   1.974   0.302  0.00  0.00     0.069 C 
ATOM      6  C   UNL d   1      -2.212   1.590  -0.606  0.00  0.00     0.039 C 
ATOM      7  C   UNL d   1      -3.463   2.222  -0.605  0.00  0.00     0.028 C 
ATOM      8 BR   UNL d   1      -1.904   0.229  -1.898  0.00  0.00    -0.049 Br
ATOM      9  C   UNL d   1      -3.734   3.243   0.311  0.00  0.00    -0.059 C 
ATOM     10  C   UNL d   1      -2.814   3.494   1.334  0.00  0.00     0.028 C 
ATOM     11  C   UNL d   1      -5.008   4.030   0.240  0.00  0.00     0.048 C 
ATOM     12  C   UNL d   1      -1.579   2.831   1.353  0.00  0.00     0.039 C 
ATOM     13 BR   UNL d   1      -0.534   3.018   2.937  0.00  0.00    -0.049 Br
ENDBRANCH   3   5
ENDBRANCH   1   3
BRANCH   1  14
ATOM     14  N   UNL d   1       2.450   1.749   0.128  0.00  0.00    -0.293 N 
ATOM     15  H   UNL d   1       3.215   2.384   0.344  0.00  0.00     0.183 HD
BRANCH  14  16
ATOM     16  N   UNL d   1       2.605   0.449   0.619  0.00  0.00    -0.204 NA
ATOM     17  H   UNL d   1       1.765  -0.122   0.583  0.00  0.00     0.153 HD
BRANCH  16  18
ATOM     18  C   UNL d   1       3.772  -0.224   0.170  0.00  0.00     0.027 A 
ATOM     19  C   UNL d   1       4.939   0.446  -0.234  0.00  0.00     0.025 A 
ATOM     20  C   UNL d   1       6.107  -0.259  -0.553  0.00  0.00     0.002 A 
ATOM     21  C   UNL d   1       6.131  -1.644  -0.457  0.00  0.00     0.000 A 
ATOM     22  C   UNL d   1       4.996  -2.325  -0.037  0.00  0.00     0.002 A 
ATOM     23  C   UNL d   1       3.829  -1.620   0.286  0.00  0.00     0.025 A 
ENDBRANCH  16  18
ENDBRANCH  14  16
ENDBRANCH   1  14
TORSDOF 5
