REMARK  5 active torsions:
REMARK  status: ('A' for Active; 'I' for Inactive)
REMARK    1  A    between atoms: O_13  and  C_3 
REMARK    2  A    between atoms: C_12  and  C_10 
REMARK    3  A    between atoms: C_14  and  C_11 
REMARK    4  A    between atoms: C_18  and  O_13 
REMARK    5  A    between atoms: O_24  and  C_19 
ROOT
ATOM      1  N   UNL d   1       0.266   0.623  -0.028  0.00  0.00    -0.217 N 
ATOM      2  C   UNL d   1       0.130  -0.769  -0.003  0.00  0.00     0.132 A 
ATOM      3  C   UNL d   1      -0.882   1.439  -0.083  0.00  0.00     0.173 C 
ATOM      4  N   UNL d   1       1.576   0.990  -0.010  0.00  0.00    -0.294 N 
ATOM      5  HN  UNL d   1       1.951   1.938   0.008  1.00  0.00     0.187 HD
ATOM      6  N   UNL d   1      -1.076  -1.401   0.028  0.00  0.00    -0.337 N 
ATOM      7  HN  UNL d   1      -1.145  -2.416   0.104  1.00  0.00     0.167 HD
ATOM      8  C   UNL d   1       1.409  -1.276   0.009  0.00  0.00     0.077 A 
ATOM      9  C   UNL d   1      -2.090   0.847  -0.180  0.00  0.00     0.092 C 
ATOM     10  C   UNL d   1      -2.141  -0.648  -0.043  0.00  0.00     0.122 C 
ATOM     11  C   UNL d   1       2.270  -0.157  -0.023  0.00  0.00     0.037 A 
ENDROOT
BRANCH   3  12
ATOM     12  O   UNL d   1      -0.691   2.823  -0.101  0.00  0.00    -0.292 OA
BRANCH  12  13
ATOM     13  C   UNL d   1      -1.639   3.664   0.442  0.00  0.00     0.078 A 
ATOM     14  C   UNL d   1      -2.412   3.347   1.563  0.00  0.00     0.040 A 
ATOM     15  C   UNL d   1      -3.394   4.234   2.018  0.00  0.00     0.039 A 
ATOM     16  C   UNL d   1      -3.569   5.465   1.388  0.00  0.00     0.068 A 
ATOM     17  C   UNL d   1      -2.730   5.821   0.331  0.00  0.00     0.039 A 
ATOM     18  C   UNL d   1      -1.774   4.918  -0.151  0.00  0.00     0.040 A 
BRANCH  16  19
ATOM     19  O   UNL d   1      -4.486   6.410   1.762  0.00  0.00    -0.356 OA
ATOM     20  C   UNL d   1      -5.697   5.899   2.310  0.00  0.00     0.210 C 
ENDBRANCH  16  19
ENDBRANCH  12  13
ENDBRANCH   3  12
BRANCH  10  21
ATOM     21  C   UNL d   1      -3.530  -1.282   0.064  0.00  0.00     0.432 C 
ATOM     22  F   UNL d   1      -4.533  -0.359   0.025  0.00  0.00    -0.165 F 
ATOM     23  F   UNL d   1      -3.780  -2.160  -0.942  0.00  0.00    -0.165 F 
ATOM     24  F   UNL d   1      -3.692  -1.961   1.232  0.00  0.00    -0.165 F 
ENDBRANCH  10  21
BRANCH  11  25
ATOM     25  C   UNL d   1       3.794  -0.162  -0.021  0.00  0.00    -0.007 C 
ATOM     26  C   UNL d   1       4.308  -0.180   1.431  0.00  0.00     0.021 C 
ATOM     27  C   UNL d   1       4.343  -1.408  -0.750  0.00  0.00     0.021 C 
ATOM     28  C   UNL d   1       4.369   1.080  -0.734  0.00  0.00     0.021 C 
ENDBRANCH  11  25
TORSDOF 5
