REMARK  1 active torsions:
REMARK  status: ('A' for Active; 'I' for Inactive)
REMARK    1  A    between atoms: O_15  and  N_3 
ROOT
ATOM      1  C   UNL d   1      -0.155   0.188   0.003  0.00  0.00     0.032 A 
ATOM      2  C   UNL d   1      -0.034   1.571   0.018  0.00  0.00     0.076 A 
ATOM      3  N   UNL d   1       1.331   1.780   0.038  0.00  0.00    -0.228 N 
ATOM      4  C   UNL d   1       1.089  -0.447  -0.007  0.00  0.00    -0.018 A 
ATOM      5  C   UNL d   1      -1.462  -0.371   0.007  0.00  0.00     0.098 A 
ATOM      6  C   UNL d   1       2.006   0.589   0.022  0.00  0.00     0.048 A 
ATOM      7  C   UNL d   1      -1.146   2.447   0.017  0.00  0.00     0.035 A 
ATOM      8  C   UNL d   1      -2.559   0.516   0.009  0.00  0.00     0.086 A 
ATOM      9  N   UNL d   1      -1.796  -1.645   0.011  0.00  0.00    -0.239 N 
ATOM     10  HN  UNL d   1      -1.191  -2.466   0.009  1.00  0.00     0.197 HD
ATOM     11  O   UNL d   1      -3.198  -1.583   0.017  0.00  0.00    -0.156 OA
ATOM     12  N   UNL d   1      -3.657  -0.260   0.012  0.00  0.00    -0.240 N 
ATOM     13  HN  UNL d   1      -4.629   0.051   0.012  1.00  0.00     0.197 HD
ATOM     14  C   UNL d   1      -2.456   1.921   0.008  0.00  0.00     0.036 A 
ATOM     15  C   UNL d   1       1.487  -1.882  -0.017  0.00  0.00     0.042 C 
ATOM     16  C   UNL d   1       3.488   0.440   0.018  0.00  0.00     0.060 C 
ATOM     17  C   UNL d   1       2.974  -2.034  -0.394  0.00  0.00     0.005 C 
ATOM     18  C   UNL d   1       3.866  -1.018   0.345  0.00  0.00     0.006 C 
ENDROOT
BRANCH   3  19
ATOM     19  O   UNL d   1       1.964   3.016   0.094  0.00  0.00    -0.282 OA
ATOM     20  H   UNL d   1       1.251   3.596  -0.213  0.00  0.00     0.245 HD
ENDBRANCH   3  19
TORSDOF 1
