REMARK  5 active torsions:
REMARK  status: ('A' for Active; 'I' for Inactive)
REMARK    1  A    between atoms: C_5  and  N_1 
REMARK    2  A    between atoms: C_10  and  C_4 
REMARK       I    between atoms: N_16  and  C_10 
REMARK    3  A    between atoms: N_13  and  C_23 
REMARK    4  A    between atoms: C_22  and  N_16 
REMARK    5  A    between atoms: C_23  and  C_22 
ROOT
ATOM      1  N   UNL d   1      -0.617  -1.020   0.062  0.00  0.00    -0.257 N 
ATOM      2  N   UNL d   1      -1.288   0.159   0.212  0.00  0.00    -0.288 N 
ATOM      3  HN  UNL d   1      -2.291   0.282   0.349  1.00  0.00     0.188 HD
ATOM      4  C   UNL d   1      -0.354   1.125   0.144  0.00  0.00     0.118 A 
ATOM      5  C   UNL d   1       0.742  -0.795  -0.150  0.00  0.00     0.033 A 
ATOM      6  C   UNL d   1       0.927   0.566  -0.039  0.00  0.00     0.063 A 
ATOM      7  C   UNL d   1       1.775  -1.798  -0.526  0.00  0.00     0.070 C 
ENDROOT
BRANCH   4   8
ATOM      8  C   UNL d   1      -0.649   2.564   0.233  0.00  0.00     0.269 C 
ATOM      9  O   UNL d   1       0.235   3.410   0.215  0.00  0.00    -0.266 OA
ATOM     10  N   UNL d   1      -1.985   2.889   0.326  0.00  0.00    -0.354 N 
ATOM     11  H   UNL d   1      -2.635   2.132   0.130  0.00  0.00     0.162 HD
BRANCH  10  12
ATOM     12  C   UNL d   1      -2.456   4.261   0.301  0.00  0.00     0.153 C 
BRANCH  12  13
ATOM     13  C   UNL d   1      -2.846   4.739  -1.116  0.00  0.00     0.292 C 
BRANCH  13  14
ATOM     14  N   UNL d   1      -3.758   3.793  -1.765  0.00  0.00     0.094 N 
ATOM     15  C   UNL d   1      -5.119   3.788  -1.197  0.00  0.00     0.298 C 
ATOM     16  C   UNL d   1      -5.886   2.602  -1.798  0.00  0.00     0.198 C 
ATOM     17  O   UNL d   1      -5.986   2.724  -3.224  0.00  0.00    -0.388 OA
ATOM     18  C   UNL d   1      -4.678   2.820  -3.814  0.00  0.00     0.198 C 
ATOM     19  C   UNL d   1      -3.873   3.991  -3.220  0.00  0.00     0.298 C 
ENDBRANCH  13  14
ENDBRANCH  12  13
ENDBRANCH  10  12
ENDBRANCH   4   8
BRANCH   1  20
ATOM     20  C   UNL d   1      -1.338  -2.252   0.082  0.00  0.00     0.100 A 
ATOM     21  C   UNL d   1      -2.585  -2.365  -0.572  0.00  0.00     0.066 A 
ATOM     22  C   UNL d   1      -3.257  -3.597  -0.619  0.00  0.00     0.050 A 
ATOM     23 CL   UNL d   1      -3.362  -1.091  -1.457  0.00  0.00    -0.082 Cl
ATOM     24  C   UNL d   1      -2.694  -4.725  -0.038  0.00  0.00     0.037 A 
ATOM     25  C   UNL d   1      -1.491  -4.628   0.645  0.00  0.00     0.050 A 
ATOM     26 CL   UNL d   1      -3.503  -6.239  -0.141  0.00  0.00    -0.084 Cl
ATOM     27  C   UNL d   1      -0.835  -3.391   0.742  0.00  0.00     0.066 A 
ATOM     28 CL   UNL d   1       0.474  -3.356   1.878  0.00  0.00    -0.082 Cl
ENDBRANCH   1  20
TORSDOF 5
