REMARK  9 active torsions:
REMARK  status: ('A' for Active; 'I' for Inactive)
REMARK    1  A    between atoms: S_17  and  C_2 
REMARK    2  A    between atoms: C_21  and  C_3 
REMARK    3  A    between atoms: C_10  and  C_11 
REMARK    4  A    between atoms: C_12  and  C_18 
REMARK    5  A    between atoms: C_13  and  S_19 
REMARK    6  A    between atoms: C_32  and  S_17 
REMARK    7  A    between atoms: S_19  and  C_21 
REMARK    8  A    between atoms: C_20  and  C_32 
REMARK       I    between atoms: N_22  and  C_20 
REMARK    9  A    between atoms: C_24  and  N_22 
ROOT
ATOM      1  N   UNL d   1       0.896   0.004  -0.116  0.00  0.00    -0.319 N 
ATOM      2  C   UNL d   1       0.070   0.989  -0.578  0.00  0.00     0.162 C 
ATOM      3  C   UNL d   1       0.064  -1.019   0.292  0.00  0.00     0.109 C 
ATOM      4  N   UNL d   1      -1.173   0.685  -0.299  0.00  0.00    -0.278 N 
ATOM      5  HN  UNL d   1      -1.989   1.272  -0.473  1.00  0.00     0.189 HD
ATOM      6  N   UNL d   1      -1.180  -0.563   0.269  0.00  0.00    -0.286 N 
ATOM      7  HN  UNL d   1      -2.003  -1.057   0.614  1.00  0.00     0.188 HD
ATOM      8  C   UNL d   1       2.340  -0.010  -0.134  0.00  0.00     0.159 C 
ENDROOT
BRANCH   3   9
ATOM      9  C   UNL d   1       0.526  -2.428   0.514  0.00  0.00     0.157 C 
BRANCH   9  10
ATOM     10  S   UNL d   1      -0.761  -3.724   0.326  0.00  0.00    -0.121 SA
BRANCH  10  11
ATOM     11  C   UNL d   1      -1.273  -3.689  -1.413  0.00  0.00     0.015 A 
ATOM     12  C   UNL d   1      -0.867  -2.653  -2.253  0.00  0.00     0.053 A 
ATOM     13  C   UNL d   1      -1.364  -2.546  -3.542  0.00  0.00     0.118 A 
ATOM     14  N   UNL d   1      -2.230  -3.456  -4.046  0.00  0.00    -0.352 N 
ATOM     15  C   UNL d   1      -2.599  -4.490  -3.277  0.00  0.00     0.044 A 
ATOM     16  HN  UNL d   1      -2.595  -3.357  -4.993  1.00  0.00     0.166 HD
ATOM     17  C   UNL d   1      -2.145  -4.679  -1.947  0.00  0.00     0.007 A 
ATOM     18  C   UNL d   1      -3.472  -5.412  -3.839  0.00  0.00     0.030 A 
ATOM     19  C   UNL d   1      -2.580  -5.843  -1.260  0.00  0.00     0.015 A 
ATOM     20  C   UNL d   1      -3.435  -6.772  -1.859  0.00  0.00     0.001 A 
ATOM     21  C   UNL d   1      -3.891  -6.549  -3.148  0.00  0.00     0.002 A 
BRANCH  13  22
ATOM     22  C   UNL d   1      -0.865  -1.384  -4.391  0.00  0.00     0.432 C 
ATOM     23  F   UNL d   1      -1.608  -1.120  -5.497  0.00  0.00    -0.165 F 
ATOM     24  F   UNL d   1      -0.802  -0.218  -3.682  0.00  0.00    -0.165 F 
ATOM     25  F   UNL d   1       0.413  -1.588  -4.830  0.00  0.00    -0.165 F 
ENDBRANCH  13  22
ENDBRANCH  10  11
ENDBRANCH   9  10
ENDBRANCH   3   9
BRANCH   2  26
ATOM     26  S   UNL d   1       0.609   2.337  -1.513  0.00  0.00    -0.083 SA
BRANCH  26  27
ATOM     27  C   UNL d   1      -0.844   3.426  -1.492  0.00  0.00     0.185 C 
BRANCH  27  28
ATOM     28  C   UNL d   1      -1.778   3.181  -2.669  0.00  0.00     0.231 C 
ATOM     29  N   UNL d   1      -2.490   1.993  -2.592  0.00  0.00    -0.327 N 
ATOM     30  H   UNL d   1      -2.349   1.432  -1.750  0.00  0.00     0.169 HD
ATOM     31  O   UNL d   1      -1.885   4.024  -3.554  0.00  0.00    -0.272 OA
BRANCH  29  32
ATOM     32  C   UNL d   1      -3.298   1.415  -3.596  0.00  0.00     0.035 A 
ATOM     33  C   UNL d   1      -3.933   0.202  -3.291  0.00  0.00     0.045 A 
ATOM     34  C   UNL d   1      -4.671  -0.497  -4.265  0.00  0.00     0.050 A 
ATOM     35  C   UNL d   1      -4.780   0.046  -5.552  0.00  0.00     0.016 A 
ATOM     36  C   UNL d   1      -4.171   1.260  -5.856  0.00  0.00     0.003 A 
ATOM     37  C   UNL d   1      -3.439   1.942  -4.880  0.00  0.00     0.029 A 
BRANCH  34  38
ATOM     38  C   UNL d   1      -5.356  -1.802  -3.941  0.00  0.00     0.417 C 
ATOM     39  F   UNL d   1      -4.954  -2.351  -2.762  0.00  0.00    -0.166 F 
ATOM     40  F   UNL d   1      -6.707  -1.658  -3.839  0.00  0.00    -0.166 F 
ATOM     41  F   UNL d   1      -5.162  -2.758  -4.893  0.00  0.00    -0.166 F 
ENDBRANCH  34  38
ENDBRANCH  29  32
ENDBRANCH  27  28
ENDBRANCH  26  27
ENDBRANCH   2  26
TORSDOF 9
