REMARK  6 active torsions:
REMARK  status: ('A' for Active; 'I' for Inactive)
REMARK    1  A    between atoms: C_2  and  S_1 
REMARK    2  A    between atoms: C_14  and  S_1 
REMARK       I    between atoms: C_4  and  N_3 
REMARK    3  A    between atoms: O_18  and  C_4 
REMARK    4  A    between atoms: N_10  and  C_5 
REMARK    5  A    between atoms: C_17  and  N_10 
REMARK    6  A    between atoms: C_21  and  O_18 
ROOT
ATOM      1  C   UNL d   1       1.012  -0.040  -1.918  0.00  0.00     0.154 C 
ATOM      2  C   UNL d   1       0.142  -0.873  -2.514  0.00  0.00     0.118 C 
ATOM      3  C   UNL d   1       1.322  -0.104  -0.539  0.00  0.00     0.113 C 
ATOM      4  N   UNL d   1       1.556  -0.219   0.590  0.00  0.00    -0.191 NA
ENDROOT
BRANCH   1   5
ATOM      5  S   UNL d   1       1.887   1.111  -2.881  0.00  0.00     0.190 S 
ATOM      6  O   UNL d   1       2.225   2.253  -2.051  0.00  0.00    -0.222 OA
ATOM      7  O   UNL d   1       1.197   1.331  -4.142  0.00  0.00    -0.222 OA
BRANCH   5   8
ATOM      8  C   UNL d   1       3.423   0.235  -3.245  0.00  0.00     0.106 C 
ATOM      9  C   UNL d   1       3.192  -1.003  -4.110  0.00  0.00     0.026 C 
ATOM     10  C   UNL d   1       4.407   1.175  -3.939  0.00  0.00     0.026 C 
ENDBRANCH   5   8
ENDBRANCH   1   5
BRANCH   2  11
ATOM     11  N   UNL d   1      -0.566  -1.916  -1.946  0.00  0.00    -0.392 N 
ATOM     12  H   UNL d   1      -0.606  -1.910  -0.925  0.00  0.00     0.159 HD
BRANCH  11  13
ATOM     13  C   UNL d   1      -1.609  -2.710  -2.602  0.00  0.00     0.084 C 
ATOM     14  C   UNL d   1      -2.269  -3.643  -1.575  0.00  0.00     0.045 C 
ATOM     15  C   UNL d   1      -1.355  -4.798  -1.179  0.00  0.00     0.130 C 
ATOM     16  N   UNL d   1      -0.876  -5.495  -2.360  0.00  0.00    -0.328 N 
ATOM     17  C   UNL d   1      -0.170  -4.672  -3.335  0.00  0.00     0.130 C 
ATOM     18  C   UNL d   1      -0.896  -6.877  -2.395  0.00  0.00     0.362 C 
ATOM     19  C   UNL d   1      -1.049  -3.512  -3.787  0.00  0.00     0.045 C 
ATOM     20  O   UNL d   1      -1.355  -7.577  -1.501  0.00  0.00    -0.238 OA
BRANCH  18  21
ATOM     21  O   UNL d   1      -0.330  -7.371  -3.528  0.00  0.00    -0.304 OA
BRANCH  21  22
ATOM     22  C   UNL d   1      -0.099  -8.786  -3.547  0.00  0.00     0.176 C 
ATOM     23  C   UNL d   1       1.260  -9.057  -2.931  0.00  0.00     0.034 C 
ENDBRANCH  21  22
ENDBRANCH  18  21
ENDBRANCH  11  13
ENDBRANCH   2  11
TORSDOF 6
