REMARK  3 active torsions:
REMARK  status: ('A' for Active; 'I' for Inactive)
REMARK       I    between atoms: N_2  and  C_1 
REMARK    1  A    between atoms: C_3  and  C_1 
REMARK    2  A    between atoms: C_4  and  N_2 
REMARK    3  A    between atoms: C_7  and  C_3 
ROOT
ATOM      1  C   UNL d   1       1.038   0.326   0.009  0.00  0.00     0.229 C 
ATOM      2  N   UNL d   1       0.670  -0.364   1.142  0.00  0.00    -0.325 N 
ATOM      3  O   UNL d   1       2.056   1.008  -0.108  0.00  0.00    -0.273 OA
ATOM      4  H   UNL d   1      -0.168  -0.948   1.085  0.00  0.00     0.169 HD
ENDROOT
BRANCH   2   5
ATOM      5  C   UNL d   1       1.322  -0.371   2.400  0.00  0.00     0.056 A 
ATOM      6  C   UNL d   1       0.941  -1.328   3.361  0.00  0.00     0.060 A 
ATOM      7 CL   UNL d   1      -0.286  -2.500   3.020  0.00  0.00    -0.082 Cl
ATOM      8  C   UNL d   1       1.570  -1.382   4.609  0.00  0.00     0.026 A 
ATOM      9  C   UNL d   1       2.572  -0.468   4.925  0.00  0.00     0.002 A 
ATOM     10  C   UNL d   1       2.941   0.500   3.993  0.00  0.00     0.002 A 
ATOM     11  C   UNL d   1       2.323   0.544   2.740  0.00  0.00     0.031 A 
ENDBRANCH   2   5
BRANCH   1  12
ATOM     12  C   UNL d   1       0.174   0.108  -1.210  0.00  0.00     0.180 C 
BRANCH  12  13
ATOM     13  C   UNL d   1      -1.299  -0.130  -1.008  0.00  0.00     0.131 C 
ATOM     14  O   UNL d   1      -1.761  -0.556   0.052  0.00  0.00    -0.298 OA
ATOM     15  C   UNL d   1      -2.198   0.147  -2.186  0.00  0.00     0.091 C 
ENDBRANCH  12  13
ENDBRANCH   1  12
TORSDOF 3
