REMARK  4 active torsions:
REMARK  status: ('A' for Active; 'I' for Inactive)
REMARK    1  A    between atoms: N_2  and  C_1 
REMARK    2  A    between atoms: S_11  and  C_5 
REMARK    3  A    between atoms: C_7  and  C_10 
REMARK    4  A    between atoms: C_14  and  S_11 
ROOT
ATOM      1  C   UNL d   1       1.126   0.308  -0.094  0.00  0.00     0.120 C 
ATOM      2  C   UNL d   1       0.460  -0.916  -0.149  0.00  0.00     0.040 C 
ATOM      3  C   UNL d   1       0.431   1.519   0.089  0.00  0.00     0.051 C 
ATOM      4  C   UNL d   1      -0.954   1.542   0.343  0.00  0.00    -0.006 C 
ATOM      5  C   UNL d   1      -0.946  -0.868  -0.108  0.00  0.00     0.022 C 
ATOM      6  C   UNL d   1      -1.642   0.336   0.141  0.00  0.00     0.015 C 
ENDROOT
BRANCH   4   7
ATOM      7  C   UNL d   1      -1.563   2.708   1.042  0.00  0.00     0.058 A 
ATOM      8  N   UNL d   1      -2.917   2.848   1.096  0.00  0.00    -0.353 N 
ATOM      9  C   UNL d   1      -3.418   3.708   2.038  0.00  0.00     0.059 A 
ATOM     10  HN  UNL d   1      -3.532   2.334   0.464  1.00  0.00     0.166 HD
ATOM     11  C   UNL d   1      -4.783   3.941   2.204  0.00  0.00     0.032 A 
ATOM     12  C   UNL d   1      -2.547   4.387   2.930  0.00  0.00     0.059 A 
ATOM     13  C   UNL d   1      -5.282   4.722   3.263  0.00  0.00     0.002 A 
ATOM     14  C   UNL d   1      -4.407   5.280   4.181  0.00  0.00     0.002 A 
ATOM     15  C   UNL d   1      -3.042   5.123   3.995  0.00  0.00     0.032 A 
ATOM     16  N   UNL d   1      -1.223   4.329   2.813  0.00  0.00    -0.362 N 
ATOM     17  C   UNL d   1      -0.758   3.498   1.864  0.00  0.00     0.118 A 
ATOM     18  HN  UNL d   1      -0.601   4.879   3.405  1.00  0.00     0.165 HD
ENDBRANCH   4   7
BRANCH   1  19
ATOM     19  N   UNL d   1       2.576   0.407  -0.153  0.00  0.00    -0.114 N 
ATOM     20  O   UNL d   1       3.138  -0.077  -1.147  0.00  0.00    -0.532 OA
ATOM     21  O   UNL d   1       3.136   1.061   0.735  0.00  0.00    -0.532 OA
ENDBRANCH   1  19
BRANCH   2  22
ATOM     22  S   UNL d   1       1.229  -2.519  -0.313  0.00  0.00    -0.070 SA
BRANCH  22  23
ATOM     23  C   UNL d   1       1.943  -2.863   1.297  0.00  0.00     0.074 A 
ATOM     24  N   UNL d   1       2.066  -1.864   2.200  0.00  0.00    -0.360 N 
ATOM     25  C   UNL d   1       2.647  -2.177   3.389  0.00  0.00     0.089 A 
ATOM     26  HN  UNL d   1       1.738  -0.919   1.998  1.00  0.00     0.166 HD
ATOM     27  C   UNL d   1       3.099  -3.445   3.724  0.00  0.00     0.017 A 
ATOM     28  C   UNL d   1       2.957  -4.457   2.790  0.00  0.00     0.004 A 
ATOM     29  C   UNL d   1       2.375  -4.162   1.555  0.00  0.00     0.037 A 
ENDBRANCH  22  23
ENDBRANCH   2  22
TORSDOF 4
