REMARK  6 active torsions:
REMARK  status: ('A' for Active; 'I' for Inactive)
REMARK    1  A    between atoms: C_7  and  N_1 
REMARK    2  A    between atoms: C_10  and  N_3 
REMARK    3  A    between atoms: N_13  and  C_4 
REMARK    4  A    between atoms: C_9  and  C_8 
REMARK    5  A    between atoms: C_17  and  C_10 
REMARK    6  A    between atoms: O_25  and  C_20 
ROOT
ATOM      1  N   UNL d   1      -0.602   1.247  -0.012  0.00  0.00    -0.253 N 
ATOM      2  C   UNL d   1      -1.381   0.067  -0.004  0.00  0.00     0.338 A 
ATOM      3  N   UNL d   1      -0.685  -1.135  -0.046  0.00  0.00    -0.262 N 
ATOM      4  C   UNL d   1       0.789   1.222  -0.132  0.00  0.00     0.094 A 
ATOM      5  C   UNL d   1       0.683  -1.226  -0.110  0.00  0.00     0.254 A 
ATOM      6  C   UNL d   1       1.417   0.040  -0.180  0.00  0.00     0.117 A 
ATOM      7  O   UNL d   1      -2.615   0.096   0.049  0.00  0.00    -0.246 OA
ATOM      8  O   UNL d   1       1.327  -2.273  -0.097  0.00  0.00    -0.268 OA
ENDROOT
BRANCH   1   9
ATOM      9  C   UNL d   1      -1.328   2.490   0.036  0.00  0.00     0.060 A 
ATOM     10  C   UNL d   1      -2.166   2.845   1.113  0.00  0.00     0.075 A 
ATOM     11  C   UNL d   1      -2.863   4.073   1.051  0.00  0.00     0.018 A 
ATOM     12  C   UNL d   1      -2.724   4.934  -0.037  0.00  0.00     0.001 A 
ATOM     13  C   UNL d   1      -1.882   4.588  -1.085  0.00  0.00     0.002 A 
ATOM     14  C   UNL d   1      -1.189   3.378  -1.048  0.00  0.00     0.031 A 
BRANCH  10  15
ATOM     15  C   UNL d   1      -2.324   2.039   2.381  0.00  0.00     0.419 C 
ATOM     16  F   UNL d   1      -1.519   0.947   2.500  0.00  0.00    -0.166 F 
ATOM     17  F   UNL d   1      -2.033   2.796   3.483  0.00  0.00    -0.166 F 
ATOM     18  F   UNL d   1      -3.598   1.601   2.578  0.00  0.00    -0.166 F 
ENDBRANCH  10  15
ENDBRANCH   1   9
BRANCH   4  19
ATOM     19  N   UNL d   1       1.557   2.379  -0.151  0.00  0.00    -0.288 NA
ATOM     20  H   UNL d   1       1.117   3.155   0.338  0.00  0.00     0.125 HD
ATOM     21  H   UNL d   1       2.523   2.249   0.135  0.00  0.00     0.125 HD
ENDBRANCH   4  19
BRANCH   3  22
ATOM     22  C   UNL d   1      -1.449  -2.377  -0.001  0.00  0.00     0.175 C 
BRANCH  22  23
ATOM     23  C   UNL d   1      -1.817  -2.876  -1.383  0.00  0.00    -0.040 A 
ATOM     24  C   UNL d   1      -0.942  -3.700  -2.103  0.00  0.00     0.011 A 
ATOM     25  C   UNL d   1      -1.250  -4.111  -3.405  0.00  0.00     0.037 A 
ATOM     26  C   UNL d   1      -2.439  -3.702  -4.007  0.00  0.00     0.068 A 
ATOM     27  C   UNL d   1      -3.328  -2.905  -3.284  0.00  0.00     0.037 A 
ATOM     28  C   UNL d   1      -3.022  -2.490  -1.985  0.00  0.00     0.011 A 
BRANCH  26  29
ATOM     29  O   UNL d   1      -2.842  -4.005  -5.278  0.00  0.00    -0.356 OA
ATOM     30  C   UNL d   1      -1.906  -4.694  -6.098  0.00  0.00     0.210 C 
ENDBRANCH  26  29
ENDBRANCH  22  23
ENDBRANCH   3  22
TORSDOF 6
