REMARK  4 active torsions:
REMARK  status: ('A' for Active; 'I' for Inactive)
REMARK    1  A    between atoms: N_3  and  C_1 
REMARK    2  A    between atoms: N_5  and  C_1 
REMARK       I    between atoms: C_4  and  N_3 
REMARK    3  A    between atoms: C_12  and  C_4 
REMARK    4  A    between atoms: C_10  and  N_5 
ROOT
ATOM      1  C   UNL d   1      -0.077  -1.829   0.087  0.00  0.00     0.119 C 
ATOM      2  C   UNL d   1       0.113  -0.476   0.074  0.00  0.00     0.163 C 
ATOM      3  C   UNL d   1      -0.966   0.445   0.110  0.00  0.00     0.114 C 
ATOM      4  C   UNL d   1       1.423   0.094  -0.021  0.00  0.00     0.114 C 
ATOM      5  N   UNL d   1       2.465   0.594  -0.099  0.00  0.00    -0.190 NA
ATOM      6  N   UNL d   1      -1.871   1.168   0.129  0.00  0.00    -0.190 NA
ENDROOT
BRANCH   1   7
ATOM      7  N   UNL d   1      -1.378  -2.365   0.116  0.00  0.00    -0.311 N 
ATOM      8  C   UNL d   1      -1.656  -3.731   0.101  0.00  0.00     0.256 C 
ATOM      9  O   UNL d   1      -0.775  -4.589   0.044  0.00  0.00    -0.267 OA
ATOM     10  H   UNL d   1      -2.166  -1.734   0.204  0.00  0.00     0.170 HD
BRANCH   8  11
ATOM     11  C   UNL d   1      -3.077  -4.181   0.161  0.00  0.00     0.032 A 
ATOM     12  C   UNL d   1      -4.147  -3.430  -0.338  0.00  0.00     0.017 A 
ATOM     13  C   UNL d   1      -5.437  -3.976  -0.345  0.00  0.00     0.001 A 
ATOM     14  C   UNL d   1      -5.667  -5.264   0.146  0.00  0.00     0.000 A 
ATOM     15  C   UNL d   1      -4.610  -6.008   0.659  0.00  0.00     0.001 A 
ATOM     16  C   UNL d   1      -3.322  -5.470   0.666  0.00  0.00     0.017 A 
ENDBRANCH   8  11
ENDBRANCH   1   7
BRANCH   1  17
ATOM     17  N   UNL d   1       1.014  -2.705   0.009  0.00  0.00    -0.243 NA
ATOM     18  H   UNL d   1       0.675  -3.669  -0.135  0.00  0.00     0.135 HD
BRANCH  17  19
ATOM     19  C   UNL d   1       2.053  -2.756   0.978  0.00  0.00     0.015 A 
ATOM     20  C   UNL d   1       1.846  -2.475   2.335  0.00  0.00     0.047 A 
ATOM     21  C   UNL d   1       2.916  -2.533   3.230  0.00  0.00     0.035 A 
ATOM     22 CL   UNL d   1       2.662  -2.140   4.887  0.00  0.00    -0.084 Cl
ATOM     23  C   UNL d   1       4.188  -2.897   2.795  0.00  0.00     0.024 A 
ATOM     24  C   UNL d   1       4.387  -3.235   1.459  0.00  0.00     0.003 A 
ATOM     25  C   UNL d   1       3.319  -3.183   0.561  0.00  0.00     0.024 A 
ENDBRANCH  17  19
ENDBRANCH   1  17
TORSDOF 4
