REMARK  4 active torsions:
REMARK  status: ('A' for Active; 'I' for Inactive)
REMARK    1  A    between atoms: O_9  and  N_1 
REMARK    2  A    between atoms: C_10  and  O_9 
REMARK    3  A    between atoms: O_15  and  C_10 
REMARK    4  A    between atoms: C_17  and  O_15 
ROOT
ATOM      1  N   UNL d   1      -2.299  -0.174  -0.288  0.00  0.00    -0.142 N 
ATOM      2  C   UNL d   1      -0.281  -0.905   0.272  0.00  0.00     0.129 C 
ATOM      3  C   UNL d   1      -0.244   0.621   0.108  0.00  0.00     0.129 C 
ATOM      4  C   UNL d   1      -1.397  -1.163  -0.666  0.00  0.00     0.259 C 
ATOM      5  C   UNL d   1      -1.695   0.931   0.297  0.00  0.00     0.259 C 
ATOM      6  C   UNL d   1       1.068   0.952   0.791  0.00  0.00     0.159 C 
ATOM      7  C   UNL d   1       1.185  -1.217   0.352  0.00  0.00     0.159 C 
ATOM      8  O   UNL d   1       1.393  -0.288   1.497  0.00  0.00    -0.371 OA
ATOM      9  C   UNL d   1       2.103   0.784  -0.299  0.00  0.00     0.004 C 
ATOM     10  C   UNL d   1       2.107  -0.525  -0.614  0.00  0.00     0.004 C 
ATOM     11  O   UNL d   1      -2.172   2.004   0.617  0.00  0.00    -0.270 OA
ATOM     12  O   UNL d   1      -1.474  -2.016  -1.526  0.00  0.00    -0.270 OA
ENDROOT
BRANCH   1  13
ATOM     13  O   UNL d   1      -3.521  -0.028  -0.944  0.00  0.00    -0.162 OA
BRANCH  13  14
ATOM     14  C   UNL d   1      -4.278  -1.163  -0.875  0.00  0.00     0.434 C 
ATOM     15  O   UNL d   1      -4.218  -1.992   0.020  0.00  0.00    -0.227 OA
BRANCH  14  16
ATOM     16  O   UNL d   1      -5.016  -1.231  -2.047  0.00  0.00    -0.254 OA
BRANCH  16  17
ATOM     17  C   UNL d   1      -5.389  -2.439  -2.675  0.00  0.00     0.081 A 
ATOM     18  C   UNL d   1      -5.079  -3.712  -2.203  0.00  0.00     0.037 A 
ATOM     19  C   UNL d   1      -5.430  -4.830  -2.962  0.00  0.00     0.003 A 
ATOM     20  C   UNL d   1      -6.074  -4.674  -4.190  0.00  0.00     0.000 A 
ATOM     21  C   UNL d   1      -6.371  -3.397  -4.664  0.00  0.00     0.003 A 
ATOM     22  C   UNL d   1      -6.031  -2.278  -3.906  0.00  0.00     0.037 A 
ENDBRANCH  16  17
ENDBRANCH  14  16
ENDBRANCH  13  14
ENDBRANCH   1  13
TORSDOF 4
