REMARK  4 active torsions:
REMARK  status: ('A' for Active; 'I' for Inactive)
REMARK    1  A    between atoms: N_5  and  C_1 
REMARK       I    between atoms: C_2  and  N_5 
REMARK       I    between atoms: N_8  and  C_2 
REMARK    2  A    between atoms: C_11  and  N_8 
REMARK    3  A    between atoms: O_10  and  C_12 
REMARK    4  A    between atoms: C_13  and  O_10 
ROOT
ATOM      1  C   UNL d   1       0.344  -4.222   0.125  0.00  0.00     0.325 C 
ATOM      2  N   UNL d   1       0.557  -5.551   0.196  0.00  0.00    -0.307 N 
ATOM      3  N   UNL d   1      -0.862  -3.679   0.424  0.00  0.00    -0.309 N 
ATOM      4  O   UNL d   1       1.333  -3.563  -0.205  0.00  0.00    -0.247 OA
ATOM      5  H   UNL d   1       1.541  -5.681  -0.020  0.00  0.00     0.170 HD
ATOM      6  H   UNL d   1      -1.287  -4.066   1.250  0.00  0.00     0.170 HD
ENDROOT
BRANCH   3   7
ATOM      7  C   UNL d   1      -1.167  -2.323   0.115  0.00  0.00     0.036 A 
ATOM      8  C   UNL d   1      -0.618  -1.685  -1.006  0.00  0.00     0.032 A 
ATOM      9  C   UNL d   1      -0.859  -0.334  -1.258  0.00  0.00     0.039 A 
ATOM     10  C   UNL d   1      -1.660   0.397  -0.388  0.00  0.00     0.076 A 
ATOM     11  C   UNL d   1      -2.282  -0.241   0.689  0.00  0.00     0.039 A 
ATOM     12  C   UNL d   1      -2.036  -1.600   0.940  0.00  0.00     0.032 A 
BRANCH  10  13
ATOM     13  O   UNL d   1      -1.895   1.711  -0.709  0.00  0.00    -0.311 OA
BRANCH  13  14
ATOM     14  C   UNL d   1      -1.556   2.707   0.182  0.00  0.00     0.076 A 
ATOM     15  C   UNL d   1      -0.731   2.561   1.300  0.00  0.00     0.037 A 
ATOM     16  C   UNL d   1      -0.466   3.662   2.122  0.00  0.00     0.003 A 
ATOM     17  C   UNL d   1      -1.002   4.914   1.818  0.00  0.00     0.000 A 
ATOM     18  C   UNL d   1      -1.796   5.071   0.685  0.00  0.00     0.003 A 
ATOM     19  C   UNL d   1      -2.070   3.971  -0.129  0.00  0.00     0.037 A 
ENDBRANCH  13  14
ENDBRANCH  10  13
ENDBRANCH   3   7
BRANCH   2  20
ATOM     20  C   UNL d   1      -0.150  -6.744   0.283  0.00  0.00     0.054 A 
ATOM     21  C   UNL d   1      -1.542  -7.114   0.505  0.00  0.00     0.008 A 
ATOM     22  C   UNL d   1      -1.704  -8.512   0.418  0.00  0.00     0.017 A 
ATOM     23  C   UNL d   1      -2.730  -6.383   0.777  0.00  0.00     0.015 A 
ATOM     24  C   UNL d   1      -2.950  -9.156   0.575  0.00  0.00     0.020 A 
ATOM     25  S   UNL d   1      -0.231  -9.330   0.103  0.00  0.00    -0.099 SA
ATOM     26  C   UNL d   1      -4.078  -8.399   0.863  0.00  0.00     0.001 A 
ATOM     27  C   UNL d   1      -3.967  -7.024   0.972  0.00  0.00     0.001 A 
ATOM     28  C   UNL d   1       0.628  -7.876   0.095  0.00  0.00     0.081 A 
ENDBRANCH   2  20
TORSDOF 4
