REMARK  6 active torsions:
REMARK  status: ('A' for Active; 'I' for Inactive)
REMARK    1  A    between atoms: C_10  and  C_1 
REMARK    2  A    between atoms: N_8  and  C_2 
REMARK    3  A    between atoms: N_6  and  C_11 
REMARK       I    between atoms: C_7  and  N_8 
REMARK       I    between atoms: N_13  and  C_7 
REMARK    4  A    between atoms: O_21  and  C_10 
REMARK    5  A    between atoms: C_20  and  N_13 
REMARK    6  A    between atoms: C_28  and  O_21 
ROOT
ATOM      1  C   UNL d   1       2.190  -0.809  -0.062  0.00  0.00     0.138 C 
ATOM      2  C   UNL d   1       1.116  -1.709  -0.062  0.00  0.00     0.082 C 
ATOM      3  N   UNL d   1       1.602   0.438  -0.319  0.00  0.00    -0.344 N 
ATOM      4  C   UNL d   1      -0.110  -0.932  -0.070  0.00  0.00     0.022 A 
ATOM      5  C   UNL d   1       0.236   0.406  -0.132  0.00  0.00     0.047 A 
ATOM      6  C   UNL d   1      -1.491  -1.261  -0.030  0.00  0.00     0.052 A 
ATOM      7  C   UNL d   1      -2.444  -0.227   0.008  0.00  0.00     0.103 A 
ATOM      8  C   UNL d   1      -0.708   1.447  -0.070  0.00  0.00     0.033 A 
ATOM      9  C   UNL d   1      -2.060   1.112   0.008  0.00  0.00     0.038 A 
ATOM     10  C   UNL d   1       2.269   1.662  -0.729  0.00  0.00     0.157 C 
ENDROOT
BRANCH   2  11
ATOM     11  N   UNL d   1       0.995  -3.086   0.019  0.00  0.00    -0.305 N 
ATOM     12  C   UNL d   1       1.770  -4.181  -0.100  0.00  0.00     0.325 C 
ATOM     13  N   UNL d   1       2.973  -4.102  -0.727  0.00  0.00    -0.309 N 
ATOM     14  O   UNL d   1       1.263  -5.238   0.288  0.00  0.00    -0.247 OA
ATOM     15  H   UNL d   1       3.029  -3.417  -1.466  0.00  0.00     0.170 HD
ATOM     16  H   UNL d   1       0.066  -3.407   0.264  0.00  0.00     0.171 HD
BRANCH  13  17
ATOM     17  C   UNL d   1       3.870  -5.195  -0.747  0.00  0.00     0.036 A 
ATOM     18  C   UNL d   1       4.650  -5.425  -1.883  0.00  0.00     0.032 A 
ATOM     19  C   UNL d   1       5.501  -6.534  -1.929  0.00  0.00     0.044 A 
ATOM     20  C   UNL d   1       5.601  -7.379  -0.828  0.00  0.00     0.116 A 
ATOM     21  C   UNL d   1       4.869  -7.134   0.325  0.00  0.00     0.044 A 
ATOM     22  F   UNL d   1       6.415  -8.440  -0.876  0.00  0.00    -0.206 F 
ATOM     23  C   UNL d   1       3.998  -6.045   0.361  0.00  0.00     0.032 A 
ENDBRANCH  13  17
ENDBRANCH   2  11
BRANCH   1  24
ATOM     24  C   UNL d   1       3.634  -0.910   0.150  0.00  0.00     0.312 C 
ATOM     25  O   UNL d   1       4.430  -0.030  -0.160  0.00  0.00    -0.258 OA
BRANCH  24  26
ATOM     26  O   UNL d   1       4.021  -2.060   0.766  0.00  0.00    -0.317 OA
BRANCH  26  27
ATOM     27  C   UNL d   1       5.449  -2.288   0.794  0.00  0.00     0.175 C 
ATOM     28  C   UNL d   1       5.963  -2.461   2.210  0.00  0.00     0.034 C 
ENDBRANCH  26  27
ENDBRANCH  24  26
ENDBRANCH   1  24
BRANCH   7  29
ATOM     29  N   UNL d   1      -3.878  -0.559   0.042  0.00  0.00    -0.116 N 
ATOM     30  O   UNL d   1      -4.183  -1.761  -0.011  0.00  0.00    -0.532 OA
ATOM     31  O   UNL d   1      -4.687   0.369   0.115  0.00  0.00    -0.532 OA
ENDBRANCH   7  29
TORSDOF 6
