REMARK  1 active torsions:
REMARK  status: ('A' for Active; 'I' for Inactive)
REMARK    1  A    between atoms: C_6  and  C_3 
REMARK       I    between atoms: N_8  and  C_6 
ROOT
ATOM      1  C   UNL d   1      -0.500   0.711  -0.211  0.00  0.00     0.005 A 
ATOM      2  C   UNL d   1      -1.090  -0.574  -0.233  0.00  0.00     0.027 A 
ATOM      3  C   UNL d   1      -1.365   1.803  -0.178  0.00  0.00     0.044 A 
ATOM      4  C   UNL d   1      -0.011  -1.579  -0.180  0.00  0.00     0.194 A 
ATOM      5  C   UNL d   1       0.948   0.544  -0.183  0.00  0.00    -0.010 A 
ATOM      6  C   UNL d   1       1.254  -0.831  -0.153  0.00  0.00     0.026 A 
ATOM      7  O   UNL d   1      -0.142  -2.787  -0.170  0.00  0.00    -0.287 OA
ATOM      8  C   UNL d   1      -2.447  -0.827  -0.249  0.00  0.00     0.016 A 
ATOM      9  C   UNL d   1      -2.760   1.571  -0.195  0.00  0.00     0.018 A 
ATOM     10  C   UNL d   1       2.000   1.443  -0.220  0.00  0.00     0.013 A 
ATOM     11  C   UNL d   1       2.535  -1.345  -0.132  0.00  0.00     0.016 A 
ATOM     12  C   UNL d   1      -3.298   0.272  -0.242  0.00  0.00     0.002 A 
ATOM     13  C   UNL d   1       3.316   0.947  -0.229  0.00  0.00     0.001 A 
ATOM     14  C   UNL d   1       3.583  -0.432  -0.174  0.00  0.00     0.001 A 
ENDROOT
BRANCH   3  15
ATOM     15  C   UNL d   1      -0.962   3.191   0.115  0.00  0.00     0.254 C 
ATOM     16  N   UNL d   1      -0.287   3.966  -0.826  0.00  0.00    -0.357 N 
ATOM     17  C   UNL d   1      -0.137   5.385  -0.531  0.00  0.00     0.152 C 
ATOM     18  C   UNL d   1      -0.041   3.575  -2.206  0.00  0.00     0.152 C 
ATOM     19  O   UNL d   1      -1.329   3.635   1.204  0.00  0.00    -0.267 OA
ENDBRANCH   3  15
TORSDOF 1
