REMARK  4 active torsions:
REMARK  status: ('A' for Active; 'I' for Inactive)
REMARK    1  A    between atoms: C_5  and  C_1 
REMARK    2  A    between atoms: N_8  and  C_2 
REMARK       I    between atoms: C_9  and  N_8 
REMARK       I    between atoms: N_13  and  C_9 
REMARK    3  A    between atoms: C_10  and  N_11 
REMARK    4  A    between atoms: N_11  and  N_13 
ROOT
ATOM      1  N   UNL d   1       0.245  -2.462   0.200  0.00  0.00    -0.308 N 
ATOM      2  C   UNL d   1       1.327  -2.976   0.839  0.00  0.00     0.313 C 
ATOM      3  N   UNL d   1       1.577  -2.500   2.105  0.00  0.00    -0.172 NA
ATOM      4  O   UNL d   1       1.938  -3.929   0.358  0.00  0.00    -0.252 OA
ATOM      5  H   UNL d   1      -0.081  -3.068  -0.544  0.00  0.00     0.170 HD
ATOM      6  H   UNL d   1       0.755  -2.165   2.599  0.00  0.00     0.152 HD
ENDROOT
BRANCH   1   7
ATOM      7  C   UNL d   1      -0.313  -1.193   0.213  0.00  0.00     0.097 A 
ATOM      8  C   UNL d   1      -1.658  -0.868  -0.187  0.00  0.00     0.097 A 
ATOM      9  N   UNL d   1      -1.806   0.462  -0.248  0.00  0.00    -0.258 N 
ATOM     10  O   UNL d   1      -0.639   1.009   0.213  0.00  0.00    -0.240 OA
ATOM     11  HN  UNL d   1      -2.629   0.969  -0.575  1.00  0.00     0.195 HD
ATOM     12  C   UNL d   1       0.261   0.028   0.507  0.00  0.00     0.101 A 
ATOM     13  C   UNL d   1       1.576   0.550   0.925  0.00  0.00     0.081 C 
BRANCH   8  14
ATOM     14  C   UNL d   1      -2.813  -1.760  -0.398  0.00  0.00     0.038 A 
ATOM     15  C   UNL d   1      -4.022  -1.535   0.306  0.00  0.00     0.048 A 
ATOM     16 CL   UNL d   1      -4.251  -0.236   1.436  0.00  0.00    -0.083 Cl
ATOM     17  C   UNL d   1      -5.117  -2.399   0.165  0.00  0.00     0.025 A 
ATOM     18  C   UNL d   1      -5.027  -3.525  -0.642  0.00  0.00     0.003 A 
ATOM     19  C   UNL d   1      -3.850  -3.768  -1.341  0.00  0.00     0.025 A 
ATOM     20  C   UNL d   1      -2.765  -2.881  -1.246  0.00  0.00     0.048 A 
ATOM     21 CL   UNL d   1      -1.413  -3.249  -2.266  0.00  0.00    -0.083 Cl
ENDBRANCH   8  14
ENDBRANCH   1   7
BRANCH   3  22
ATOM     22  N   UNL d   1       2.380  -3.375   2.897  0.00  0.00    -0.217 NA
ATOM     23  H   UNL d   1       2.766  -4.125   2.297  0.00  0.00     0.147 HD
BRANCH  22  24
ATOM     24  C   UNL d   1       3.448  -2.700   3.548  0.00  0.00     0.046 A 
ATOM     25  C   UNL d   1       3.222  -1.500   4.237  0.00  0.00     0.050 A 
ATOM     26  C   UNL d   1       4.256  -0.880   4.936  0.00  0.00     0.035 A 
ATOM     27 CL   UNL d   1       3.956   0.599   5.761  0.00  0.00    -0.084 Cl
ATOM     28  C   UNL d   1       5.527  -1.451   4.980  0.00  0.00     0.026 A 
ATOM     29  C   UNL d   1       5.761  -2.664   4.333  0.00  0.00     0.027 A 
ATOM     30  C   UNL d   1       4.726  -3.291   3.635  0.00  0.00     0.056 A 
ATOM     31 CL   UNL d   1       5.057  -4.802   2.862  0.00  0.00    -0.082 Cl
ENDBRANCH  22  24
ENDBRANCH   3  22
TORSDOF 4
