REMARK  4 active torsions:
REMARK  status: ('A' for Active; 'I' for Inactive)
REMARK    1  A    between atoms: S_13  and  C_1 
REMARK    2  A    between atoms: C_14  and  C_4 
REMARK    3  A    between atoms: C_8  and  C_10 
REMARK    4  A    between atoms: C_22  and  S_13 
ROOT
ATOM      1  C   UNL d   1      -0.360   1.302   0.129  0.00  0.00     0.100 A 
ATOM      2  N   UNL d   1      -1.713   1.261   0.064  0.00  0.00    -0.333 N 
ATOM      3  HN  UNL d   1      -2.270   2.115   0.029  1.00  0.00     0.168 HD
ATOM      4  C   UNL d   1      -2.292   0.046   0.050  0.00  0.00     0.133 A 
ATOM      5  C   UNL d   1       0.434   0.162   0.185  0.00  0.00     0.090 A 
ATOM      6  N   UNL d   1      -1.597  -1.108   0.079  0.00  0.00    -0.343 N 
ATOM      7  HN  UNL d   1      -2.077  -2.008   0.057  1.00  0.00     0.167 HD
ATOM      8  C   UNL d   1      -0.247  -1.044   0.139  0.00  0.00     0.031 A 
ATOM      9 CL   UNL d   1       2.156   0.215   0.287  0.00  0.00    -0.079 Cl
ATOM     10  C   UNL d   1       0.457  -2.369   0.118  0.00  0.00     0.070 C 
ENDROOT
BRANCH   4  11
ATOM     11  C   UNL d   1      -3.776  -0.026   0.006  0.00  0.00     0.076 A 
ATOM     12  N   UNL d   1      -4.342  -1.266   0.052  0.00  0.00    -0.362 N 
ATOM     13  C   UNL d   1      -5.691  -1.365   0.028  0.00  0.00     0.104 A 
ATOM     14  HN  UNL d   1      -3.760  -2.102   0.103  1.00  0.00     0.165 HD
ATOM     15  C   UNL d   1      -6.545  -0.279  -0.037  0.00  0.00     0.063 A 
ATOM     16  C   UNL d   1      -5.963   0.989  -0.088  0.00  0.00     0.020 A 
ATOM     17  C   UNL d   1      -4.573   1.119  -0.068  0.00  0.00     0.034 A 
BRANCH  15  18
ATOM     18  C   UNL d   1      -8.030  -0.471  -0.050  0.00  0.00     0.418 C 
ATOM     19  F   UNL d   1      -8.415  -1.775   0.011  0.00  0.00    -0.166 F 
ATOM     20  F   UNL d   1      -8.641   0.147   0.999  0.00  0.00    -0.166 F 
ATOM     21  F   UNL d   1      -8.611   0.037  -1.171  0.00  0.00    -0.166 F 
ENDBRANCH  15  18
ENDBRANCH   4  11
BRANCH   1  22
ATOM     22  S   UNL d   1       0.326   2.946  -0.014  0.00  0.00    -0.071 SA
BRANCH  22  23
ATOM     23  C   UNL d   1       0.268   3.620   1.636  0.00  0.00     0.007 A 
ATOM     24  C   UNL d   1       1.196   4.626   1.950  0.00  0.00     0.020 A 
ATOM     25  C   UNL d   1       1.176   5.261   3.195  0.00  0.00     0.025 A 
ATOM     26  C   UNL d   1       0.224   4.894   4.139  0.00  0.00     0.034 A 
ATOM     27  C   UNL d   1      -0.702   3.896   3.848  0.00  0.00     0.025 A 
ATOM     28 CL   UNL d   1       0.178   5.688   5.664  0.00  0.00    -0.084 Cl
ATOM     29  C   UNL d   1      -0.683   3.263   2.598  0.00  0.00     0.020 A 
ENDBRANCH  22  23
ENDBRANCH   1  22
TORSDOF 4
