REMARK  4 active torsions:
REMARK  status: ('A' for Active; 'I' for Inactive)
REMARK    1  A    between atoms: C_7  and  C_1 
REMARK    2  A    between atoms: C_8  and  C_2 
REMARK    3  A    between atoms: O_15  and  C_7 
REMARK    4  A    between atoms: C_17  and  O_15 
ROOT
ATOM      1  C   UNL d   1       1.419   0.964  -0.038  0.00  0.00     0.067 C 
ATOM      2  C   UNL d   1       0.235   1.901  -0.088  0.00  0.00     0.168 C 
ATOM      3  C   UNL d   1       1.266  -0.374   0.048  0.00  0.00     0.024 C 
ATOM      4  C   UNL d   1      -1.158  -0.148   0.150  0.00  0.00     0.321 C 
ATOM      5  N   UNL d   1      -0.013  -0.878   0.134  0.00  0.00    -0.312 N 
ATOM      6  N   UNL d   1      -1.016   1.194   0.117  0.00  0.00    -0.329 N 
ATOM      7  O   UNL d   1      -2.261  -0.680   0.203  0.00  0.00    -0.247 OA
ATOM      8  C   UNL d   1       2.324  -1.444  -0.011  0.00  0.00     0.069 C 
ATOM      9  H   UNL d   1      -0.161  -1.881   0.164  0.00  0.00     0.170 HD
ATOM     10  H   UNL d   1      -1.880   1.718   0.097  0.00  0.00     0.165 HD
ENDROOT
BRANCH   1  11
ATOM     11  C   UNL d   1       2.708   1.648  -0.275  0.00  0.00     0.293 C 
ATOM     12  O   UNL d   1       2.811   2.621  -1.011  0.00  0.00    -0.259 OA
BRANCH  11  13
ATOM     13  O   UNL d   1       3.727   1.065   0.398  0.00  0.00    -0.318 OA
BRANCH  13  14
ATOM     14  C   UNL d   1       5.043   1.524   0.045  0.00  0.00     0.174 C 
ATOM     15  C   UNL d   1       5.465   0.940  -1.295  0.00  0.00     0.034 C 
ENDBRANCH  13  14
ENDBRANCH  11  13
ENDBRANCH   1  11
BRANCH   2  16
ATOM     16  C   UNL d   1       0.222   3.038   0.912  0.00  0.00     0.010 A 
ATOM     17  S   UNL d   1       0.083   4.660   0.360  0.00  0.00    -0.104 SA
ATOM     18  C   UNL d   1       0.093   5.276   1.952  0.00  0.00     0.050 A 
ATOM     19  C   UNL d   1       0.198   4.277   2.893  0.00  0.00     0.008 A 
ATOM     20  C   UNL d   1       0.274   2.986   2.295  0.00  0.00     0.017 A 
ENDBRANCH   2  16
TORSDOF 4
