REMARK  5 active torsions:
REMARK  status: ('A' for Active; 'I' for Inactive)
REMARK    1  A    between atoms: C_9  and  C_1 
REMARK    2  A    between atoms: C_4  and  N_2 
REMARK    3  A    between atoms: O_18  and  C_6 
REMARK    4  A    between atoms: O_20  and  C_11 
REMARK    5  A    between atoms: O_21  and  C_12 
ROOT
ATOM      1  N   UNL d   1       0.722   4.382  -0.079  0.00  0.00    -0.363 N 
ATOM      2  HN  UNL d   1      -0.038   3.703  -0.039  1.00  0.00     0.165 HD
ATOM      3  C   UNL d   1       1.957   4.002  -0.215  0.00  0.00     0.102 C 
ENDROOT
BRANCH   1   4
ATOM      4  C   UNL d   1       0.469   5.773   0.012  0.00  0.00     0.068 A 
ATOM      5  C   UNL d   1       1.101   6.671  -0.864  0.00  0.00     0.071 A 
ATOM      6  C   UNL d   1       0.881   8.057  -0.835  0.00  0.00     0.092 A 
ATOM      7  C   UNL d   1      -0.050   8.553   0.080  0.00  0.00     0.070 A 
ATOM      8  C   UNL d   1      -0.718   7.669   0.948  0.00  0.00     0.065 A 
ATOM      9 CL   UNL d   1      -0.504  10.213   0.242  0.00  0.00    -0.081 Cl
ATOM     10  C   UNL d   1      -0.468   6.289   0.926  0.00  0.00     0.096 A 
BRANCH   6  11
ATOM     11  O   UNL d   1       1.657   8.692  -1.762  0.00  0.00    -0.354 OA
ATOM     12  C   UNL d   1       1.674  10.104  -1.853  0.00  0.00     0.210 C 
ENDBRANCH   6  11
BRANCH  10  13
ATOM     13  O   UNL d   1      -1.093   5.387   1.753  0.00  0.00    -0.354 OA
ATOM     14  C   UNL d   1      -2.057   5.894   2.671  0.00  0.00     0.210 C 
ENDBRANCH  10  13
ENDBRANCH   1   4
BRANCH   3  15
ATOM     15  C   UNL d   1       2.342   2.587  -0.402  0.00  0.00     0.016 A 
ATOM     16  C   UNL d   1       3.663   2.268  -0.740  0.00  0.00     0.099 A 
ATOM     17  C   UNL d   1       4.030   0.928  -0.924  0.00  0.00     0.069 A 
ATOM     18 CL   UNL d   1       5.652   0.520  -1.344  0.00  0.00    -0.081 Cl
ATOM     19  C   UNL d   1       3.090  -0.089  -0.775  0.00  0.00     0.050 A 
ATOM     20  C   UNL d   1       1.776   0.240  -0.447  0.00  0.00     0.036 A 
ATOM     21  C   UNL d   1       1.392   1.571  -0.259  0.00  0.00     0.039 A 
ATOM     22 CL   UNL d   1       0.610  -1.013  -0.268  0.00  0.00    -0.084 Cl
BRANCH  16  23
ATOM     23  O   UNL d   1       4.587   3.267  -0.903  0.00  0.00    -0.358 OA
ATOM     24  H   UNL d   1       5.434   2.853  -1.156  0.00  0.00     0.217 HD
ENDBRANCH  16  23
ENDBRANCH   3  15
TORSDOF 5
