REMARK  3 active torsions:
REMARK  status: ('A' for Active; 'I' for Inactive)
REMARK    1  A    between atoms: N_2  and  C_1 
REMARK    2  A    between atoms: C_6  and  C_4 
REMARK    3  A    between atoms: N_11  and  C_6 
ROOT
ATOM      1  C   UNL d   1       0.121   1.205  -0.006  0.00  0.00     0.144 A 
ATOM      2  S   UNL d   1      -1.036  -0.035  -0.015  0.00  0.00    -0.063 SA
ATOM      3  C   UNL d   1       0.171  -1.272  -0.009  0.00  0.00     0.044 A 
ATOM      4  C   UNL d   1       1.411   0.729   0.003  0.00  0.00     0.045 A 
ATOM      5  C   UNL d   1       1.437  -0.699   0.001  0.00  0.00     0.025 A 
ENDROOT
BRANCH   3   6
ATOM      6  C   UNL d   1      -0.217  -2.675  -0.015  0.00  0.00     0.111 C 
ATOM      7  S   UNL d   1       0.905  -3.908  -0.011  0.00  0.00    -0.059 SA
BRANCH   6   8
ATOM      8  N   UNL d   1      -1.546  -2.995  -0.024  0.00  0.00    -0.389 N 
ATOM      9  H   UNL d   1      -2.272  -2.289  -0.027  0.00  0.00     0.157 HD
ATOM     10  H   UNL d   1      -1.822  -3.969  -0.029  0.00  0.00     0.157 HD
ENDBRANCH   6   8
ENDBRANCH   3   6
BRANCH   1  11
ATOM     11  N   UNL d   1      -0.282   2.588  -0.009  0.00  0.00    -0.108 N 
ATOM     12  O   UNL d   1       0.631   3.425  -0.004  0.00  0.00    -0.531 OA
ATOM     13  O   UNL d   1      -1.492   2.848  -0.015  0.00  0.00    -0.531 OA
ENDBRANCH   1  11
TORSDOF 3
