REMARK  3 active torsions:
REMARK  status: ('A' for Active; 'I' for Inactive)
REMARK    1  A    between atoms: C_8  and  N_4 
REMARK    2  A    between atoms: C_15  and  C_6 
REMARK    3  A    between atoms: O_16  and  C_15 
ROOT
ATOM      1  C   UNL d   1      -0.685  -1.009  -0.258  0.00  0.00     0.141 C 
ATOM      2  N   UNL d   1       0.634  -0.878   0.051  0.00  0.00    -0.359 N 
ATOM      3  S   UNL d   1      -1.501   0.528  -0.010  0.00  0.00    -0.092 SA
ATOM      4  N   UNL d   1      -1.379  -2.000  -0.692  0.00  0.00    -0.337 N 
ATOM      5  HN  UNL d   1      -2.380  -1.871  -0.840  1.00  0.00     0.168 HD
ATOM      6  C   UNL d   1       1.198   0.472   0.072  0.00  0.00     0.058 C 
ATOM      7  C   UNL d   1       0.048   1.456  -0.230  0.00  0.00     0.115 C 
ATOM      8  C   UNL d   1       2.272   0.565  -1.023  0.00  0.00     0.041 C 
ATOM      9  H   UNL d   1       1.256  -1.664  -0.066  0.00  0.00     0.162 HD
ENDROOT
BRANCH   4  10
ATOM     10  C   UNL d   1      -0.812  -3.250  -0.968  0.00  0.00     0.034 A 
ATOM     11  C   UNL d   1      -1.563  -4.396  -0.662  0.00  0.00     0.032 A 
ATOM     12  C   UNL d   1      -1.068  -5.672  -0.929  0.00  0.00     0.044 A 
ATOM     13  C   UNL d   1       0.190  -5.811  -1.498  0.00  0.00     0.116 A 
ATOM     14  C   UNL d   1       0.940  -4.694  -1.845  0.00  0.00     0.044 A 
ATOM     15  F   UNL d   1       0.683  -7.033  -1.734  0.00  0.00    -0.206 F 
ATOM     16  C   UNL d   1       0.419  -3.422  -1.619  0.00  0.00     0.032 A 
ENDBRANCH   4  10
BRANCH   6  17
ATOM     17  C   UNL d   1       1.810   0.732   1.464  0.00  0.00     0.195 C 
BRANCH  17  18
ATOM     18  O   UNL d   1       2.882  -0.175   1.731  0.00  0.00    -0.398 OA
ATOM     19  H   UNL d   1       2.486  -1.063   1.783  0.00  0.00     0.209 HD
ENDBRANCH  17  18
ENDBRANCH   6  17
TORSDOF 3
