REMARK  9 active torsions:
REMARK  status: ('A' for Active; 'I' for Inactive)
REMARK    1  A    between atoms: C_2  and  S_1 
REMARK    2  A    between atoms: N_4  and  S_1 
REMARK    3  A    between atoms: N_8  and  N_4 
REMARK    4  A    between atoms: C_12  and  C_5 
REMARK       I    between atoms: C_9  and  N_8 
REMARK    5  A    between atoms: C_15  and  C_9 
REMARK    6  A    between atoms: C_19  and  C_15 
REMARK    7  A    between atoms: S_17  and  C_19 
REMARK    8  A    between atoms: C_18  and  S_17 
REMARK    9  A    between atoms: O_25  and  C_20 
ROOT
ATOM      1  N   UNL d   1       1.817   2.473   1.040  0.00  0.00    -0.220 N 
ATOM      2  H   UNL d   1       2.195   3.268   1.568  0.00  0.00     0.200 HD
ENDROOT
BRANCH   1   3
ATOM      3  S   UNL d   1       2.780   1.089   0.962  0.00  0.00     0.282 S 
ATOM      4  O   UNL d   1       3.670   1.089   2.107  0.00  0.00    -0.198 OA
ATOM      5  O   UNL d   1       1.928  -0.033   0.640  0.00  0.00    -0.198 OA
BRANCH   3   6
ATOM      6  C   UNL d   1       3.826   1.281  -0.465  0.00  0.00     0.122 A 
ATOM      7  S   UNL d   1       4.823   2.663  -0.471  0.00  0.00    -0.074 SA
ATOM      8  C   UNL d   1       5.459   2.308  -2.028  0.00  0.00     0.033 A 
ATOM      9  C   UNL d   1       4.896   1.146  -2.528  0.00  0.00     0.023 A 
ATOM     10  C   UNL d   1       3.967   0.548  -1.626  0.00  0.00     0.034 A 
BRANCH   8  11
ATOM     11  C   UNL d   1       6.424   3.215  -2.666  0.00  0.00     0.049 A 
ATOM     12  N   UNL d   1       6.373   3.226  -4.022  0.00  0.00    -0.365 N 
ATOM     13  C   UNL d   1       7.202   4.080  -4.665  0.00  0.00     0.088 A 
ATOM     14  HN  UNL d   1       5.736   2.616  -4.535  1.00  0.00     0.165 HD
ATOM     15  C   UNL d   1       8.084   4.933  -4.023  0.00  0.00     0.017 A 
ATOM     16  C   UNL d   1       8.138   4.897  -2.638  0.00  0.00     0.004 A 
ATOM     17  C   UNL d   1       7.303   4.022  -1.946  0.00  0.00     0.031 A 
ENDBRANCH   8  11
ENDBRANCH   3   6
ENDBRANCH   1   3
BRANCH   1  18
ATOM     18  N   UNL d   1       0.886   2.753  -0.037  0.00  0.00    -0.260 N 
ATOM     19  C   UNL d   1       0.536   4.064  -0.275  0.00  0.00     0.237 C 
ATOM     20  O   UNL d   1       0.961   4.997   0.405  0.00  0.00    -0.272 OA
ATOM     21  H   UNL d   1       0.636   1.992  -0.671  0.00  0.00     0.190 HD
BRANCH  19  22
ATOM     22  C   UNL d   1      -0.432   4.272  -1.421  0.00  0.00     0.115 C 
BRANCH  22  23
ATOM     23  C   UNL d   1       0.137   3.983  -2.807  0.00  0.00     0.089 C 
BRANCH  23  24
ATOM     24  S   UNL d   1       0.465   2.208  -3.117  0.00  0.00    -0.130 SA
BRANCH  24  25
ATOM     25  C   UNL d   1       0.989   2.289  -4.823  0.00  0.00     0.000 A 
ATOM     26  C   UNL d   1       2.093   3.050  -5.219  0.00  0.00     0.021 A 
ATOM     27  C   UNL d   1       2.472   3.111  -6.567  0.00  0.00     0.038 A 
ATOM     28  C   UNL d   1       1.752   2.409  -7.532  0.00  0.00     0.068 A 
ATOM     29  C   UNL d   1       0.668   1.624  -7.132  0.00  0.00     0.038 A 
ATOM     30  C   UNL d   1       0.291   1.558  -5.787  0.00  0.00     0.021 A 
BRANCH  28  31
ATOM     31  O   UNL d   1       1.999   2.404  -8.877  0.00  0.00    -0.356 OA
ATOM     32  C   UNL d   1       3.081   3.204  -9.337  0.00  0.00     0.210 C 
ENDBRANCH  28  31
ENDBRANCH  24  25
ENDBRANCH  23  24
ENDBRANCH  22  23
ENDBRANCH  19  22
ENDBRANCH   1  18
TORSDOF 9
