REMARK  4 active torsions:
REMARK  status: ('A' for Active; 'I' for Inactive)
REMARK    1  A    between atoms: C_2  and  S_1 
REMARK    2  A    between atoms: O_5  and  S_1 
REMARK    3  A    between atoms: C_7  and  O_5 
REMARK    4  A    between atoms: N_10  and  C_11 
ROOT
ATOM      1  C   UNL d   1       0.859   0.230  -2.409  0.00  0.00     0.116 A 
ATOM      2  C   UNL d   1       2.225   0.518  -2.657  0.00  0.00     0.065 A 
ATOM      3  C   UNL d   1      -0.118   0.476  -3.389  0.00  0.00     0.040 A 
ATOM      4  C   UNL d   1       2.525   1.131  -3.891  0.00  0.00     0.032 A 
ATOM      5  C   UNL d   1       0.225   1.075  -4.599  0.00  0.00     0.003 A 
ATOM      6  C   UNL d   1       1.545   1.417  -4.844  0.00  0.00     0.002 A 
ENDROOT
BRANCH   1   7
ATOM      7  O   UNL d   1       0.536  -0.280  -1.169  0.00  0.00    -0.226 OA
BRANCH   7   8
ATOM      8  S   UNL d   1      -0.960  -0.177  -0.545  0.00  0.00     0.320 S 
ATOM      9  O   UNL d   1      -1.453   1.188  -0.583  0.00  0.00    -0.191 OA
ATOM     10  O   UNL d   1      -1.766  -1.304  -0.971  0.00  0.00    -0.191 OA
BRANCH   8  11
ATOM     11  C   UNL d   1      -0.669  -0.468   1.151  0.00  0.00     0.173 A 
ATOM     12  N   UNL d   1       0.558  -0.839   1.685  0.00  0.00    -0.340 N 
ATOM     13  C   UNL d   1       0.362  -0.895   2.984  0.00  0.00     0.183 A 
ATOM     14  HN  UNL d   1       1.423  -1.027   1.179  1.00  0.00     0.167 HD
ATOM     15  N   UNL d   1      -0.928  -0.588   3.312  0.00  0.00    -0.354 N 
ATOM     16  C   UNL d   1      -1.608  -0.333   2.158  0.00  0.00     0.135 A 
ATOM     17  C   UNL d   1      -1.454  -0.511   4.652  0.00  0.00     0.156 C 
ENDBRANCH   8  11
ENDBRANCH   7   8
ENDBRANCH   1   7
BRANCH   2  18
ATOM     18  N   UNL d   1       3.264   0.202  -1.790  0.00  0.00    -0.379 N 
ATOM     19  C   UNL d   1       3.220  -0.967  -0.907  0.00  0.00     0.123 C 
ATOM     20  C   UNL d   1       4.540  -1.737  -1.018  0.00  0.00     0.020 C 
ATOM     21  C   UNL d   1       5.751  -0.834  -0.801  0.00  0.00     0.003 C 
ATOM     22  C   UNL d   1       5.697   0.374  -1.735  0.00  0.00     0.020 C 
ATOM     23  C   UNL d   1       4.378   1.127  -1.568  0.00  0.00     0.123 C 
ENDBRANCH   2  18
TORSDOF 4
