REMARK  4 active torsions:
REMARK  status: ('A' for Active; 'I' for Inactive)
REMARK    1  A    between atoms: C_5  and  C_1 
REMARK    2  A    between atoms: C_7  and  C_2 
REMARK       I    between atoms: N_9  and  C_7 
REMARK    3  A    between atoms: N_11  and  N_9 
REMARK    4  A    between atoms: C_10  and  N_11 
ROOT
ATOM      1  C   UNL d   1      -1.357  -0.720   0.205  0.00  0.00     0.088 A 
ATOM      2  C   UNL d   1      -0.053  -1.324   0.110  0.00  0.00     0.094 A 
ATOM      3  N   UNL d   1      -1.233   0.610   0.349  0.00  0.00    -0.259 N 
ATOM      4  HN  UNL d   1      -1.989   1.276   0.507  1.00  0.00     0.195 HD
ATOM      5  O   UNL d   1       0.100   0.901   0.245  0.00  0.00    -0.241 OA
ATOM      6  C   UNL d   1       0.811  -0.241   0.087  0.00  0.00     0.090 A 
ATOM      7  C   UNL d   1       2.262  -0.029  -0.091  0.00  0.00     0.080 C 
ENDROOT
BRANCH   2   8
ATOM      8  C   UNL d   1       0.295  -2.729   0.008  0.00  0.00     0.271 C 
ATOM      9  N   UNL d   1       1.505  -3.073   0.592  0.00  0.00    -0.282 N 
ATOM     10  H   UNL d   1       2.096  -2.408   1.082  0.00  0.00     0.184 HD
ATOM     11  O   UNL d   1      -0.443  -3.565  -0.519  0.00  0.00    -0.266 OA
BRANCH   9  12
ATOM     12  N   UNL d   1       1.916  -4.417   0.583  0.00  0.00    -0.200 NA
ATOM     13  H   UNL d   1       1.125  -5.047   0.410  0.00  0.00     0.153 HD
BRANCH  12  14
ATOM     14  C   UNL d   1       2.709  -4.809   1.694  0.00  0.00     0.066 A 
ATOM     15  C   UNL d   1       3.589  -3.939   2.371  0.00  0.00     0.142 A 
ATOM     16  C   UNL d   1       4.427  -4.378   3.392  0.00  0.00     0.086 A 
ATOM     17  F   UNL d   1       3.635  -2.636   2.039  0.00  0.00    -0.204 F 
ATOM     18  C   UNL d   1       4.414  -5.719   3.738  0.00  0.00     0.119 A 
ATOM     19  C   UNL d   1       3.589  -6.620   3.075  0.00  0.00     0.044 A 
ATOM     20  F   UNL d   1       5.219  -6.157   4.715  0.00  0.00    -0.206 F 
ATOM     21  C   UNL d   1       2.752  -6.168   2.047  0.00  0.00     0.031 A 
ENDBRANCH  12  14
ENDBRANCH   9  12
ENDBRANCH   2   8
BRANCH   1  22
ATOM     22  C   UNL d   1      -2.692  -1.326   0.228  0.00  0.00     0.054 A 
ATOM     23  C   UNL d   1      -2.935  -2.454   1.023  0.00  0.00     0.130 A 
ATOM     24  F   UNL d   1      -1.960  -2.975   1.784  0.00  0.00    -0.205 F 
ATOM     25  C   UNL d   1      -4.193  -3.057   1.087  0.00  0.00     0.043 A 
ATOM     26  C   UNL d   1      -5.261  -2.517   0.380  0.00  0.00     0.005 A 
ATOM     27  C   UNL d   1      -5.058  -1.381  -0.399  0.00  0.00     0.025 A 
ATOM     28  C   UNL d   1      -3.784  -0.795  -0.488  0.00  0.00     0.049 A 
ATOM     29 CL   UNL d   1      -3.661   0.574  -1.546  0.00  0.00    -0.083 Cl
ENDBRANCH   1  22
TORSDOF 4
