REMARK  6 active torsions:
REMARK  status: ('A' for Active; 'I' for Inactive)
REMARK    1  A    between atoms: C_5  and  C_1 
REMARK    2  A    between atoms: C_11  and  C_3 
REMARK    3  A    between atoms: C_6  and  C_5 
REMARK    4  A    between atoms: N_12  and  C_8 
REMARK    5  A    between atoms: C_16  and  N_12 
REMARK    6  A    between atoms: O_27  and  C_18 
ROOT
ATOM      1  C   UNL d   1      -0.888  -3.665   0.016  0.00  0.00     0.110 C 
ATOM      2  C   UNL d   1      -0.573  -4.921  -0.376  0.00  0.00     0.115 C 
ATOM      3  C   UNL d   1       0.122  -2.775   0.505  0.00  0.00     0.105 C 
ATOM      4  N   UNL d   1       0.959  -2.052   0.876  0.00  0.00    -0.191 NA
ENDROOT
BRANCH   1   5
ATOM      5  C   UNL d   1      -2.343  -3.276  -0.041  0.00  0.00     0.206 C 
ATOM      6  O   UNL d   1      -3.232  -4.122  -0.078  0.00  0.00    -0.286 OA
BRANCH   5   7
ATOM      7  C   UNL d   1      -2.645  -1.846  -0.054  0.00  0.00     0.048 A 
ATOM      8  C   UNL d   1      -1.880  -0.755  -0.566  0.00  0.00     0.056 A 
ATOM      9  C   UNL d   1      -2.574   0.404  -0.298  0.00  0.00     0.086 A 
ATOM     10  O   UNL d   1      -3.762   0.094   0.287  0.00  0.00    -0.314 OA
ATOM     11  C   UNL d   1      -3.809  -1.263   0.432  0.00  0.00     0.064 A 
ATOM     12  C   UNL d   1      -5.035  -1.769   1.093  0.00  0.00     0.077 C 
BRANCH   9  13
ATOM     13  C   UNL d   1      -2.271   1.819  -0.472  0.00  0.00    -0.002 A 
ATOM     14  C   UNL d   1      -3.276   2.763  -0.724  0.00  0.00     0.016 A 
ATOM     15  C   UNL d   1      -2.958   4.118  -0.884  0.00  0.00     0.024 A 
ATOM     16  C   UNL d   1      -1.633   4.537  -0.782  0.00  0.00     0.034 A 
ATOM     17  C   UNL d   1      -0.622   3.613  -0.533  0.00  0.00     0.024 A 
ATOM     18 CL   UNL d   1      -1.240   6.202  -0.957  0.00  0.00    -0.084 Cl
ATOM     19  C   UNL d   1      -0.941   2.260  -0.383  0.00  0.00     0.016 A 
ENDBRANCH   9  13
ENDBRANCH   5   7
ENDBRANCH   1   5
BRANCH   2  20
ATOM     20  N   UNL d   1       0.670  -5.519  -0.393  0.00  0.00    -0.364 N 
ATOM     21  H   UNL d   1       1.447  -4.956  -0.058  0.00  0.00     0.165 HD
BRANCH  20  22
ATOM     22  C   UNL d   1       1.035  -6.819  -0.787  0.00  0.00     0.032 A 
ATOM     23  C   UNL d   1       0.148  -7.730  -1.367  0.00  0.00     0.032 A 
ATOM     24  C   UNL d   1       0.557  -9.025  -1.708  0.00  0.00     0.039 A 
ATOM     25  C   UNL d   1       1.865  -9.439  -1.467  0.00  0.00     0.068 A 
ATOM     26  C   UNL d   1       2.764  -8.539  -0.898  0.00  0.00     0.039 A 
ATOM     27  C   UNL d   1       2.354  -7.244  -0.562  0.00  0.00     0.032 A 
BRANCH  25  28
ATOM     28  O   UNL d   1       2.372 -10.680  -1.735  0.00  0.00    -0.356 OA
ATOM     29  C   UNL d   1       1.463 -11.626  -2.286  0.00  0.00     0.210 C 
ENDBRANCH  25  28
ENDBRANCH  20  22
ENDBRANCH   2  20
TORSDOF 6
