REMARK  9 active torsions:
REMARK  status: ('A' for Active; 'I' for Inactive)
REMARK    1  A    between atoms: C_3  and  C_1 
REMARK    2  A    between atoms: C_17  and  N_2 
REMARK    3  A    between atoms: C_6  and  C_13 
REMARK    4  A    between atoms: N_8  and  O_14 
REMARK    5  A    between atoms: C_15  and  C_10 
REMARK    6  A    between atoms: N_29  and  C_10 
REMARK    7  A    between atoms: C_12  and  C_18 
REMARK    8  A    between atoms: O_14  and  C_12 
REMARK    9  A    between atoms: C_22  and  C_17 
ROOT
ATOM      1  C   UNL d   1      -4.796   3.781  -0.539  0.00  0.00     0.315 C 
ATOM      2  O   UNL d   1      -4.976   3.083   0.451  0.00  0.00    -0.257 OA
ENDROOT
BRANCH   1   3
ATOM      3  C   UNL d   1      -3.667   3.553  -1.486  0.00  0.00     0.042 A 
ATOM      4  C   UNL d   1      -2.813   2.462  -1.239  0.00  0.00     0.026 A 
ATOM      5  C   UNL d   1      -1.793   2.120  -2.142  0.00  0.00    -0.039 A 
ATOM      6  C   UNL d   1      -1.618   2.910  -3.286  0.00  0.00     0.009 A 
ATOM      7  C   UNL d   1      -2.452   4.001  -3.533  0.00  0.00     0.002 A 
ATOM      8  C   UNL d   1      -3.478   4.322  -2.641  0.00  0.00     0.017 A 
BRANCH   5   9
ATOM      9  C   UNL d   1      -0.895   0.927  -1.895  0.00  0.00     0.170 C 
BRANCH   9  10
ATOM     10  N   UNL d   1       0.303   1.281  -1.136  0.00  0.00    -0.320 N 
ATOM     11  C   UNL d   1       0.274   1.224   0.250  0.00  0.00     0.110 A 
ATOM     12  C   UNL d   1       1.328   1.591   1.000  0.00  0.00     0.063 A 
ATOM     13  C   UNL d   1       2.525   2.063   0.329  0.00  0.00     0.023 A 
ATOM     14  C   UNL d   1       2.588   2.127  -1.008  0.00  0.00     0.075 A 
ATOM     15  C   UNL d   1       1.427   1.713  -1.840  0.00  0.00     0.247 A 
ATOM     16  O   UNL d   1       1.517   1.773  -3.062  0.00  0.00    -0.268 OA
BRANCH  12  17
ATOM     17  C   UNL d   1       1.279   1.556   2.501  0.00  0.00     0.418 C 
ATOM     18  F   UNL d   1       2.359   2.141   3.082  0.00  0.00    -0.166 F 
ATOM     19  F   UNL d   1       0.183   2.199   2.981  0.00  0.00    -0.166 F 
ATOM     20  F   UNL d   1       1.224   0.283   2.970  0.00  0.00    -0.166 F 
ENDBRANCH  12  17
ENDBRANCH   9  10
ENDBRANCH   5   9
ENDBRANCH   1   3
BRANCH   1  21
ATOM     21  O   UNL d   1      -5.583   4.818  -0.957  0.00  0.00    -0.193 OA
BRANCH  21  22
ATOM     22  N   UNL d   1      -6.930   4.489  -0.706  0.00  0.00    -0.246 N 
ATOM     23  C   UNL d   1      -7.712   5.524  -0.754  0.00  0.00     0.109 C 
ATOM     24  HN  UNL d   1      -7.254   3.542  -0.509  1.00  0.00     0.196 HD
BRANCH  23  25
ATOM     25  C   UNL d   1      -9.189   5.276  -0.673  0.00  0.00     0.004 A 
ATOM     26  C   UNL d   1      -9.677   4.175   0.042  0.00  0.00     0.030 A 
ATOM     27  C   UNL d   1     -11.059   3.932   0.117  0.00  0.00     0.048 A 
ATOM     28  C   UNL d   1     -11.939   4.795  -0.557  0.00  0.00     0.016 A 
ATOM     29  C   UNL d   1     -11.453   5.882  -1.285  0.00  0.00     0.002 A 
ATOM     30  C   UNL d   1     -10.081   6.127  -1.338  0.00  0.00     0.015 A 
BRANCH  27  31
ATOM     31  C   UNL d   1     -11.608   2.777   0.917  0.00  0.00     0.417 C 
ATOM     32  F   UNL d   1     -10.654   2.025   1.530  0.00  0.00    -0.166 F 
ATOM     33  F   UNL d   1     -12.445   3.195   1.909  0.00  0.00    -0.166 F 
ATOM     34  F   UNL d   1     -12.337   1.914   0.157  0.00  0.00    -0.166 F 
ENDBRANCH  27  31
ENDBRANCH  23  25
BRANCH  23  35
ATOM     35  N   UNL d   1      -7.275   6.826  -0.857  0.00  0.00    -0.286 NA
ATOM     36  H   UNL d   1      -6.307   6.920  -0.565  0.00  0.00     0.125 HD
ATOM     37  H   UNL d   1      -7.865   7.512  -0.402  0.00  0.00     0.125 HD
ENDBRANCH  23  35
ENDBRANCH  21  22
ENDBRANCH   1  21
TORSDOF 9
