REMARK  4 active torsions:
REMARK  status: ('A' for Active; 'I' for Inactive)
REMARK    1  A    between atoms: C_2  and  C_1 
REMARK       I    between atoms: N_3  and  C_1 
REMARK    2  A    between atoms: C_4  and  C_2 
REMARK    3  A    between atoms: C_7  and  N_3 
REMARK    4  A    between atoms: C_8  and  C_7 
ROOT
ATOM      1  C   UNL d   1       1.008  -0.718  -0.757  0.00  0.00     0.224 C 
ATOM      2  N   UNL d   1       0.150  -1.129   0.222  0.00  0.00    -0.356 N 
ATOM      3  O   UNL d   1       0.625  -0.352  -1.868  0.00  0.00    -0.273 OA
ATOM      4  H   UNL d   1       0.539  -1.442   1.113  0.00  0.00     0.162 HD
ENDROOT
BRANCH   2   5
ATOM      5  C   UNL d   1      -1.282  -1.197   0.071  0.00  0.00     0.161 C 
BRANCH   5   6
ATOM      6  C   UNL d   1      -1.774  -2.599   0.317  0.00  0.00    -0.041 A 
ATOM      7  C   UNL d   1      -2.050  -3.044   1.618  0.00  0.00     0.009 A 
ATOM      8  C   UNL d   1      -2.512  -4.343   1.837  0.00  0.00     0.001 A 
ATOM      9  C   UNL d   1      -2.691  -5.211   0.762  0.00  0.00     0.000 A 
ATOM     10  C   UNL d   1      -2.392  -4.788  -0.532  0.00  0.00     0.001 A 
ATOM     11  C   UNL d   1      -1.928  -3.490  -0.753  0.00  0.00     0.009 A 
ENDBRANCH   5   6
ENDBRANCH   2   5
BRANCH   1  12
ATOM     12  C   UNL d   1       2.484  -0.719  -0.423  0.00  0.00     0.180 C 
BRANCH  12  13
ATOM     13  C   UNL d   1       2.924  -1.170   0.951  0.00  0.00     0.131 C 
ATOM     14  O   UNL d   1       2.136  -1.514   1.837  0.00  0.00    -0.298 OA
ATOM     15  C   UNL d   1       4.403  -1.183   1.227  0.00  0.00     0.091 C 
ENDBRANCH  12  13
ENDBRANCH   1  12
TORSDOF 4
