REMARK  5 active torsions:
REMARK  status: ('A' for Active; 'I' for Inactive)
REMARK    1  A    between atoms: C_2  and  C_1 
REMARK    2  A    between atoms: S_13  and  C_4 
REMARK    3  A    between atoms: N_10  and  C_7 
REMARK    4  A    between atoms: C_15  and  S_13 
REMARK    5  A    between atoms: C_14  and  C_18 
ROOT
ATOM      1  C   UNL d   1       0.034   1.108   0.013  0.00  0.00     0.135 A 
ATOM      2  N   UNL d   1       0.878   0.032  -0.168  0.00  0.00    -0.315 N 
ATOM      3  C   UNL d   1       0.100  -1.081   0.020  0.00  0.00     0.167 A 
ATOM      4  N   UNL d   1      -1.142   0.648   0.401  0.00  0.00    -0.283 N 
ATOM      5  HN  UNL d   1      -1.940   1.218   0.682  1.00  0.00     0.188 HD
ATOM      6  N   UNL d   1      -1.113  -0.725   0.365  0.00  0.00    -0.278 N 
ATOM      7  HN  UNL d   1      -1.892  -1.352   0.569  1.00  0.00     0.189 HD
ATOM      8  C   UNL d   1       2.315   0.032  -0.257  0.00  0.00     0.160 C 
ENDROOT
BRANCH   3   9
ATOM      9  S   UNL d   1       0.641  -2.699  -0.263  0.00  0.00    -0.050 SA
BRANCH   9  10
ATOM     10  C   UNL d   1       0.984  -3.244   1.411  0.00  0.00     0.041 A 
ATOM     11  C   UNL d   1       2.194  -3.852   1.786  0.00  0.00     0.120 A 
ATOM     12  C   UNL d   1       2.378  -4.439   3.049  0.00  0.00     0.053 A 
ATOM     13  C   UNL d   1       1.334  -4.433   3.983  0.00  0.00     0.050 A 
ATOM     14  C   UNL d   1       0.133  -3.796   3.637  0.00  0.00     0.017 A 
ATOM     15  C   UNL d   1      -0.042  -3.220   2.367  0.00  0.00     0.022 A 
BRANCH  11  16
ATOM     16  N   UNL d   1       3.321  -3.898   0.870  0.00  0.00    -0.114 N 
ATOM     17  O   UNL d   1       3.766  -2.813   0.464  0.00  0.00    -0.532 OA
ATOM     18  O   UNL d   1       3.787  -5.011   0.610  0.00  0.00    -0.532 OA
ENDBRANCH  11  16
BRANCH  13  19
ATOM     19  C   UNL d   1       1.473  -5.118   5.325  0.00  0.00     0.417 C 
ATOM     20  F   UNL d   1       2.681  -5.721   5.497  0.00  0.00    -0.166 F 
ATOM     21  F   UNL d   1       1.331  -4.256   6.367  0.00  0.00    -0.166 F 
ATOM     22  F   UNL d   1       0.539  -6.090   5.505  0.00  0.00    -0.166 F 
ENDBRANCH  13  19
ENDBRANCH   9  10
ENDBRANCH   3   9
BRANCH   1  23
ATOM     23  C   UNL d   1       0.335   2.574  -0.129  0.00  0.00     0.028 A 
ATOM     24  C   UNL d   1      -0.353   3.633   0.577  0.00  0.00    -0.003 A 
ATOM     25  C   UNL d   1       0.241   4.875   0.321  0.00  0.00     0.016 A 
ATOM     26  C   UNL d   1      -1.440   3.607   1.492  0.00  0.00     0.037 A 
ATOM     27  C   UNL d   1      -0.182   6.055   0.967  0.00  0.00     0.021 A 
ATOM     28  S   UNL d   1       1.500   4.750  -0.844  0.00  0.00    -0.100 SA
ATOM     29  C   UNL d   1      -1.242   5.989   1.871  0.00  0.00     0.025 A 
ATOM     30  C   UNL d   1      -1.871   4.779   2.119  0.00  0.00     0.035 A 
ATOM     31 CL   UNL d   1      -3.188   4.718   3.226  0.00  0.00    -0.084 Cl
ATOM     32  C   UNL d   1       1.294   3.067  -0.987  0.00  0.00     0.066 A 
ENDBRANCH   1  23
TORSDOF 5
