REMARK  8 active torsions:
REMARK  status: ('A' for Active; 'I' for Inactive)
REMARK    1  A    between atoms: N_5  and  S_1 
REMARK    2  A    between atoms: C_20  and  S_1 
REMARK    3  A    between atoms: C_2  and  C_3 
REMARK       I    between atoms: C_3  and  N_8 
REMARK    4  A    between atoms: C_4  and  C_6 
REMARK    5  A    between atoms: N_8  and  N_5 
REMARK    6  A    between atoms: O_21  and  C_7 
REMARK    7  A    between atoms: C_12  and  C_23 
REMARK    8  A    between atoms: C_23  and  O_21 
ROOT
ATOM      1  C   UNL d   1      -0.274  -1.790  -4.138  0.00  0.00     0.107 A 
ATOM      2  C   UNL d   1      -1.517  -1.973  -3.561  0.00  0.00     0.092 A 
ATOM      3  S   UNL d   1       0.139  -3.133  -5.133  0.00  0.00    -0.094 SA
ATOM      4  C   UNL d   1      -2.115  -3.219  -3.920  0.00  0.00     0.045 A 
ATOM      5  C   UNL d   1      -1.326  -3.936  -4.790  0.00  0.00     0.053 A 
ENDROOT
BRANCH   1   6
ATOM      6  C   UNL d   1       0.672  -0.685  -4.043  0.00  0.00     0.280 C 
ATOM      7  N   UNL d   1       0.195   0.492  -3.481  0.00  0.00    -0.256 N 
ATOM      8  H   UNL d   1      -0.748   0.584  -3.093  0.00  0.00     0.191 HD
ATOM      9  O   UNL d   1       1.843  -0.739  -4.435  0.00  0.00    -0.265 OA
BRANCH   7  10
ATOM     10  N   UNL d   1       1.110   1.623  -3.402  0.00  0.00    -0.220 N 
ATOM     11  H   UNL d   1       2.073   1.473  -3.724  0.00  0.00     0.200 HD
BRANCH  10  12
ATOM     12  S   UNL d   1       0.736   2.965  -2.464  0.00  0.00     0.276 S 
ATOM     13  O   UNL d   1       0.618   2.531  -1.088  0.00  0.00    -0.199 OA
ATOM     14  O   UNL d   1      -0.341   3.688  -3.110  0.00  0.00    -0.199 OA
BRANCH  12  15
ATOM     15  C   UNL d   1       2.220   3.933  -2.605  0.00  0.00     0.081 A 
ATOM     16  C   UNL d   1       2.291   4.964  -3.548  0.00  0.00     0.025 A 
ATOM     17  C   UNL d   1       3.440   5.754  -3.619  0.00  0.00     0.002 A 
ATOM     18  C   UNL d   1       4.506   5.519  -2.749  0.00  0.00     0.000 A 
ATOM     19  C   UNL d   1       4.428   4.492  -1.805  0.00  0.00     0.002 A 
ATOM     20  C   UNL d   1       3.283   3.699  -1.726  0.00  0.00     0.025 A 
ENDBRANCH  12  15
ENDBRANCH  10  12
ENDBRANCH   7  10
ENDBRANCH   1   6
BRANCH   2  21
ATOM     21  O   UNL d   1      -2.013  -1.029  -2.726  0.00  0.00    -0.344 OA
BRANCH  21  22
ATOM     22  C   UNL d   1      -3.431  -1.076  -2.526  0.00  0.00     0.234 C 
BRANCH  22  23
ATOM     23  C   UNL d   1      -3.882   0.255  -1.964  0.00  0.00     0.055 A 
ATOM     24  N   UNL d   1      -3.096   1.333  -2.256  0.00  0.00    -0.365 N 
ATOM     25  C   UNL d   1      -3.487   2.547  -1.806  0.00  0.00     0.104 A 
ATOM     26  HN  UNL d   1      -2.238   1.225  -2.797  1.00  0.00     0.165 HD
ATOM     27  C   UNL d   1      -4.649   2.763  -1.081  0.00  0.00     0.064 A 
ATOM     28  C   UNL d   1      -5.455   1.652  -0.805  0.00  0.00     0.043 A 
ATOM     29  C   UNL d   1      -5.079   0.388  -1.253  0.00  0.00     0.059 A 
ATOM     30 CL   UNL d   1      -6.118  -0.946  -0.920  0.00  0.00    -0.082 Cl
BRANCH  27  31
ATOM     31  C   UNL d   1      -4.999   4.148  -0.639  0.00  0.00     0.418 C 
ATOM     32  F   UNL d   1      -6.181   4.215   0.032  0.00  0.00    -0.166 F 
ATOM     33  F   UNL d   1      -4.066   4.682   0.195  0.00  0.00    -0.166 F 
ATOM     34  F   UNL d   1      -5.114   5.014  -1.682  0.00  0.00    -0.166 F 
ENDBRANCH  27  31
ENDBRANCH  22  23
ENDBRANCH  21  22
ENDBRANCH   2  21
TORSDOF 8
