REMARK  3 active torsions:
REMARK  status: ('A' for Active; 'I' for Inactive)
REMARK    1  A    between atoms: N_2  and  C_1 
REMARK    2  A    between atoms: N_3  and  C_1 
REMARK    3  A    between atoms: C_5  and  N_3 
ROOT
ATOM      1  C   UNL d   1       0.737  -0.033  -0.118  0.00  0.00     0.170 C 
ATOM      2  S   UNL d   1       0.002  -1.481  -0.562  0.00  0.00    -0.041 SA
ENDROOT
BRANCH   1   3
ATOM      3  N   UNL d   1       2.002   0.387  -0.571  0.00  0.00    -0.358 N 
ATOM      4  C   UNL d   1       2.830  -0.430  -1.476  0.00  0.00     0.125 C 
ATOM      5  C   UNL d   1       4.283  -0.460  -1.006  0.00  0.00     0.020 C 
ATOM      6  C   UNL d   1       4.845   0.946  -0.821  0.00  0.00     0.003 C 
ATOM      7  C   UNL d   1       3.925   1.803   0.045  0.00  0.00     0.020 C 
ATOM      8  C   UNL d   1       2.488   1.774  -0.471  0.00  0.00     0.125 C 
ENDBRANCH   1   3
BRANCH   1   9
ATOM      9  N   UNL d   1       0.124   0.866   0.730  0.00  0.00    -0.363 N 
ATOM     10  H   UNL d   1       0.739   1.398   1.329  0.00  0.00     0.162 HD
BRANCH   9  11
ATOM     11  C   UNL d   1      -1.313   0.989   1.012  0.00  0.00     0.083 C 
ATOM     12  C   UNL d   1      -1.767   2.422   0.708  0.00  0.00     0.025 C 
ATOM     13  C   UNL d   1      -1.339   3.423   1.777  0.00  0.00     0.002 C 
ATOM     14  C   UNL d   1      -1.812   2.984   3.158  0.00  0.00     0.000 C 
ATOM     15  C   UNL d   1      -1.288   1.593   3.504  0.00  0.00     0.002 C 
ATOM     16  C   UNL d   1      -1.664   0.560   2.443  0.00  0.00     0.025 C 
ENDBRANCH   9  11
ENDBRANCH   1   9
TORSDOF 3
