REMARK  2 active torsions:
REMARK  status: ('A' for Active; 'I' for Inactive)
REMARK    1  A    between atoms: S_12  and  C_5 
REMARK    2  A    between atoms: C_9  and  N_8 
ROOT
ATOM      1  C   UNL d   1       3.591  -1.618  -0.584  0.00  0.00     0.166 A 
ATOM      2  S   UNL d   1       2.185  -2.629  -0.616  0.00  0.00    -0.027 SA
ATOM      3  N   UNL d   1       4.625  -2.174  -1.186  0.00  0.00    -0.278 N 
ATOM      4  HN  UNL d   1       5.542  -1.732  -1.244  1.00  0.00     0.189 HD
ATOM      5  C   UNL d   1       3.103  -3.765  -1.503  0.00  0.00     0.127 A 
ATOM      6  N   UNL d   1       4.345  -3.409  -1.729  0.00  0.00    -0.286 N 
ATOM      7  HN  UNL d   1       5.020  -3.976  -2.243  1.00  0.00     0.188 HD
ATOM      8  N   UNL d   1       3.544  -0.417   0.047  0.00  0.00    -0.335 N 
ATOM      9  H   UNL d   1       2.685  -0.165   0.515  0.00  0.00     0.168 HD
ENDROOT
BRANCH   8  10
ATOM     10  C   UNL d   1       4.508   0.613   0.001  0.00  0.00     0.040 A 
ATOM     11  C   UNL d   1       4.617   1.548   1.053  0.00  0.00    -0.035 A 
ATOM     12  C   UNL d   1       5.616   2.545   1.001  0.00  0.00     0.015 A 
ATOM     13  C   UNL d   1       3.718   1.554   2.261  0.00  0.00     0.050 C 
ATOM     14  C   UNL d   1       6.526   2.615  -0.057  0.00  0.00    -0.061 A 
ATOM     15  C   UNL d   1       6.434   1.678  -1.080  0.00  0.00     0.009 A 
ATOM     16  C   UNL d   1       7.591   3.671  -0.074  0.00  0.00     0.048 C 
ATOM     17  C   UNL d   1       5.444   0.692  -1.045  0.00  0.00     0.030 A 
ENDBRANCH   8  10
BRANCH   5  18
ATOM     18  S   UNL d   1       2.467  -5.284  -2.076  0.00  0.00    -0.117 SA
ATOM     19  H   UNL d   1       1.220  -5.131  -1.613  0.00  0.00     0.109 HD
ENDBRANCH   5  18
TORSDOF 2
