REMARK  3 active torsions:
REMARK  status: ('A' for Active; 'I' for Inactive)
REMARK       I    between atoms: N_4  and  C_1 
REMARK    1  A    between atoms: C_5  and  C_1 
REMARK    2  A    between atoms: N_2  and  N_4 
REMARK    3  A    between atoms: C_7  and  C_6 
ROOT
ATOM      1  N   UNL d   1       1.121   2.391  -0.768  0.00  0.00    -0.302 N 
ATOM      2  HN  UNL d   1       0.581   1.582  -0.463  1.00  0.00     0.186 HD
ATOM      3  C   UNL d   1       0.500   3.465  -1.164  0.00  0.00     0.033 C 
ATOM      4  C   UNL d   1       1.173   4.751  -1.606  0.00  0.00     0.070 C 
ENDROOT
BRANCH   1   5
ATOM      5  N   UNL d   1       2.481   2.332  -0.757  0.00  0.00    -0.266 N 
ATOM      6  C   UNL d   1       3.116   1.185  -0.295  0.00  0.00     0.271 C 
ATOM      7  O   UNL d   1       2.548   0.173   0.105  0.00  0.00    -0.266 OA
ATOM      8  H   UNL d   1       3.014   3.049  -1.227  0.00  0.00     0.190 HD
BRANCH   6   9
ATOM      9  C   UNL d   1       4.598   1.208  -0.334  0.00  0.00     0.049 A 
ATOM     10  C   UNL d   1       5.331   2.378  -0.190  0.00  0.00     0.104 A 
ATOM     11  N   UNL d   1       6.686   2.434  -0.232  0.00  0.00    -0.374 N 
ATOM     12  C   UNL d   1       7.339   1.262  -0.397  0.00  0.00     0.087 A 
ATOM     13  HN  UNL d   1       7.188   3.318  -0.144  1.00  0.00     0.164 HD
ATOM     14  C   UNL d   1       6.701   0.039  -0.520  0.00  0.00     0.018 A 
ATOM     15  C   UNL d   1       5.307   0.013  -0.486  0.00  0.00     0.020 A 
ENDBRANCH   6   9
ENDBRANCH   1   5
BRANCH   3  16
ATOM     16  C   UNL d   1      -1.002   3.449  -1.165  0.00  0.00     0.003 A 
ATOM     17  C   UNL d   1      -1.758   4.532  -1.602  0.00  0.00     0.101 A 
ATOM     18  N   UNL d   1      -3.114   4.573  -1.601  0.00  0.00    -0.374 N 
ATOM     19  C   UNL d   1      -3.752   3.476  -1.142  0.00  0.00     0.087 A 
ATOM     20  HN  UNL d   1      -3.625   5.392  -1.930  1.00  0.00     0.164 HD
ATOM     21  C   UNL d   1      -3.098   2.341  -0.695  0.00  0.00     0.018 A 
ATOM     22  C   UNL d   1      -1.703   2.328  -0.710  0.00  0.00     0.016 A 
ENDBRANCH   3  16
TORSDOF 3
