REMARK  5 active torsions:
REMARK  status: ('A' for Active; 'I' for Inactive)
REMARK    1  A    between atoms: C_8  and  C_1 
REMARK    2  A    between atoms: S_9  and  C_5 
REMARK    3  A    between atoms: C_16  and  S_9 
REMARK    4  A    between atoms: C_11  and  C_13 
REMARK    5  A    between atoms: C_13  and  C_16 
ROOT
ATOM      1  S   UNL d   1       3.566  -1.590  -0.135  0.00  0.00    -0.085 SA
ENDROOT
BRANCH   1   2
ATOM      2  C   UNL d   1       2.647  -0.138   0.021  0.00  0.00     0.163 A 
ATOM      3  N   UNL d   1       3.204   1.115   0.101  0.00  0.00    -0.312 N 
ATOM      4  C   UNL d   1       2.142   1.981   0.260  0.00  0.00     0.209 A 
ATOM      5  C   UNL d   1       4.615   1.397   0.012  0.00  0.00     0.160 C 
ATOM      6  N   UNL d   1       1.024   1.271   0.241  0.00  0.00    -0.279 N 
ATOM      7  N   UNL d   1       1.342  -0.053   0.092  0.00  0.00    -0.278 N 
ATOM      8  HN  UNL d   1       0.080   1.648   0.324  1.00  0.00     0.188 HD
ATOM      9  HN  UNL d   1       0.683  -0.830   0.045  1.00  0.00     0.189 HD
BRANCH   4  10
ATOM     10  C   UNL d   1       2.205   3.460   0.429  0.00  0.00     0.450 C 
ATOM     11  F   UNL d   1       3.466   3.961   0.463  0.00  0.00    -0.163 F 
ATOM     12  F   UNL d   1       1.571   4.112  -0.580  0.00  0.00    -0.163 F 
ATOM     13  F   UNL d   1       1.616   3.860   1.587  0.00  0.00    -0.163 F 
ENDBRANCH   4  10
ENDBRANCH   1   2
BRANCH   1  14
ATOM     14  C   UNL d   1       2.241  -2.839  -0.192  0.00  0.00     0.166 C 
BRANCH  14  15
ATOM     15  C   UNL d   1       2.808  -4.252  -0.178  0.00  0.00     0.169 C 
ATOM     16  O   UNL d   1       4.014  -4.504  -0.159  0.00  0.00    -0.291 OA
BRANCH  15  17
ATOM     17  C   UNL d   1       1.852  -5.404  -0.180  0.00  0.00     0.013 A 
ATOM     18  C   UNL d   1       0.463  -5.237  -0.242  0.00  0.00     0.054 A 
ATOM     19  C   UNL d   1      -0.375  -6.357  -0.213  0.00  0.00     0.103 A 
ATOM     20  O   UNL d   1      -1.725  -6.112  -0.242  0.00  0.00    -0.346 OA
ATOM     21  C   UNL d   1       0.163  -7.647  -0.157  0.00  0.00     0.102 A 
ATOM     22  C   UNL d   1      -2.469  -7.263   0.179  0.00  0.00     0.202 C 
ATOM     23  C   UNL d   1      -1.959  -8.515  -0.514  0.00  0.00     0.202 C 
ATOM     24  O   UNL d   1      -0.602  -8.784  -0.145  0.00  0.00    -0.346 OA
ATOM     25  C   UNL d   1       1.541  -7.821  -0.092  0.00  0.00     0.040 A 
ATOM     26  C   UNL d   1       2.382  -6.705  -0.105  0.00  0.00     0.018 A 
ENDBRANCH  15  17
ENDBRANCH  14  15
ENDBRANCH   1  14
TORSDOF 5
