REMARK  5 active torsions:
REMARK  status: ('A' for Active; 'I' for Inactive)
REMARK    1  A    between atoms: C_2  and  N_1 
REMARK    2  A    between atoms: C_3  and  N_1 
REMARK    3  A    between atoms: N_4  and  C_2 
REMARK    4  A    between atoms: C_8  and  C_3 
REMARK    5  A    between atoms: C_9  and  N_4 
ROOT
ATOM      1  C   UNL d   1       0.349   1.116  -1.113  0.00  0.00     0.177 C 
ATOM      2  S   UNL d   1      -1.263   0.876  -1.480  0.00  0.00    -0.040 SA
ENDROOT
BRANCH   1   3
ATOM      3  N   UNL d   1       0.930   0.267  -0.177  0.00  0.00    -0.323 N 
ATOM      4  H   UNL d   1       0.247  -0.338   0.264  0.00  0.00     0.169 HD
BRANCH   3   5
ATOM      5  C   UNL d   1       2.255   0.040   0.145  0.00  0.00     0.080 C 
ATOM      6  N   UNL d   1       3.227   0.489  -0.562  0.00  0.00    -0.389 N 
ATOM      7  H   UNL d   1       2.865   0.941  -1.410  0.00  0.00     0.157 HD
ATOM      8  HN  UNL d   1       4.214   0.409  -0.318  1.00  0.00     0.157 HD
BRANCH   5   9
ATOM      9  C   UNL d   1       2.535  -0.796   1.387  0.00  0.00     0.045 C 
ATOM     10  C   UNL d   1       1.907  -0.171   2.630  0.00  0.00     0.017 C 
ATOM     11  C   UNL d   1       2.072  -2.238   1.202  0.00  0.00     0.017 C 
ENDBRANCH   5   9
ENDBRANCH   3   5
ENDBRANCH   1   3
BRANCH   1  12
ATOM     12  N   UNL d   1       1.166   2.127  -1.559  0.00  0.00    -0.333 N 
ATOM     13  H   UNL d   1       1.774   2.513  -0.841  0.00  0.00     0.168 HD
BRANCH  12  14
ATOM     14  C   UNL d   1       1.147   2.827  -2.783  0.00  0.00     0.034 A 
ATOM     15  C   UNL d   1       1.768   4.080  -2.823  0.00  0.00     0.030 A 
ATOM     16  C   UNL d   1       1.927   4.756  -4.036  0.00  0.00     0.009 A 
ATOM     17  C   UNL d   1       1.504   4.170  -5.233  0.00  0.00    -0.062 A 
ATOM     18  C   UNL d   1       0.843   2.938  -5.186  0.00  0.00     0.009 A 
ATOM     19  C   UNL d   1       1.778   4.851  -6.541  0.00  0.00     0.048 C 
ATOM     20  C   UNL d   1       0.666   2.271  -3.968  0.00  0.00     0.030 A 
ENDBRANCH  12  14
ENDBRANCH   1  12
TORSDOF 5
