REMARK  8 active torsions:
REMARK  status: ('A' for Active; 'I' for Inactive)
REMARK    1  A    between atoms: C_10  and  C_1 
REMARK    2  A    between atoms: C_2  and  C_9 
REMARK    3  A    between atoms: C_12  and  C_3 
REMARK    4  A    between atoms: C_11  and  C_4 
REMARK       I    between atoms: C_9  and  N_13 
REMARK       I    between atoms: N_14  and  C_10 
REMARK    5  A    between atoms: C_37  and  C_49 
REMARK    6  A    between atoms: C_48  and  C_38 
REMARK    7  A    between atoms: C_41  and  C_48 
REMARK    8  A    between atoms: C_49  and  C_41 
ROOT
ATOM      1  C   UNL d   1      -2.985  -7.112   1.805  0.00  0.00     0.001 C 
ENDROOT
BRANCH   1   2
ATOM      2  C   UNL d   1      -3.130  -6.233   0.557  0.00  0.00     0.005 C 
BRANCH   2   3
ATOM      3  C   UNL d   1      -3.639  -4.802   0.840  0.00  0.00    -0.012 C 
ATOM      4  C   UNL d   1      -2.676  -3.953   1.681  0.00  0.00     0.024 C 
ATOM      5  C   UNL d   1      -1.391  -3.588   0.928  0.00  0.00     0.126 C 
ATOM      6  N   UNL d   1      -1.657  -3.000  -0.386  0.00  0.00    -0.348 N 
ATOM      7  C   UNL d   1      -0.713  -2.079  -0.894  0.00  0.00     0.258 C 
ATOM      8  C   UNL d   1      -2.676  -3.656  -1.204  0.00  0.00     0.126 C 
ATOM      9  O   UNL d   1       0.286  -1.747  -0.270  0.00  0.00    -0.267 OA
ATOM     10  C   UNL d   1      -3.936  -4.047  -0.452  0.00  0.00     0.024 C 
BRANCH   7  11
ATOM     11  C   UNL d   1      -1.028  -1.441  -2.169  0.00  0.00     0.092 C 
ATOM     12  C   UNL d   1      -1.190  -0.045  -2.455  0.00  0.00     0.086 C 
ATOM     13  N   UNL d   1      -1.655   0.094  -3.711  0.00  0.00    -0.259 N 
ATOM     14  O   UNL d   1      -1.579  -1.138  -4.304  0.00  0.00    -0.241 OA
ATOM     15  HN  UNL d   1      -1.999   0.954  -4.138  1.00  0.00     0.195 HD
ATOM     16  C   UNL d   1      -1.159  -2.052  -3.400  0.00  0.00     0.090 C 
ATOM     17  C   UNL d   1      -0.986  -3.416  -3.937  0.00  0.00     0.080 C 
BRANCH  12  18
ATOM     18  C   UNL d   1      -0.949   1.170  -1.659  0.00  0.00     0.037 A 
ATOM     19  C   UNL d   1      -0.225   2.248  -2.225  0.00  0.00     0.048 A 
ATOM     20 CL   UNL d   1       0.554   2.174  -3.780  0.00  0.00    -0.083 Cl
ATOM     21  C   UNL d   1      -0.060   3.463  -1.543  0.00  0.00     0.025 A 
ATOM     22  C   UNL d   1      -0.562   3.618  -0.260  0.00  0.00     0.003 A 
ATOM     23  C   UNL d   1      -1.243   2.561   0.336  0.00  0.00     0.025 A 
ATOM     24  C   UNL d   1      -1.462   1.358  -0.361  0.00  0.00     0.048 A 
ATOM     25 CL   UNL d   1      -2.471   0.210   0.452  0.00  0.00    -0.083 Cl
ENDBRANCH  12  18
ENDBRANCH   7  11
ENDBRANCH   2   3
ENDBRANCH   1   2
BRANCH   1  26
ATOM     26  C   UNL d   1      -4.315  -7.331   2.533  0.00  0.00     0.005 C 
BRANCH  26  27
ATOM     27  C   UNL d   1      -4.169  -8.124   3.843  0.00  0.00    -0.012 C 
ATOM     28  C   UNL d   1      -5.540  -8.532   4.390  0.00  0.00     0.024 C 
ATOM     29  C   UNL d   1      -6.332  -7.359   4.960  0.00  0.00     0.126 C 
ATOM     30  N   UNL d   1      -5.578  -6.505   5.880  0.00  0.00    -0.348 N 
ATOM     31  C   UNL d   1      -6.156  -5.755   6.927  0.00  0.00     0.258 C 
ATOM     32  C   UNL d   1      -4.220  -6.149   5.468  0.00  0.00     0.126 C 
ATOM     33  O   UNL d   1      -5.557  -4.841   7.487  0.00  0.00    -0.267 OA
ATOM     34  C   UNL d   1      -3.431  -7.355   4.949  0.00  0.00     0.024 C 
BRANCH  31  35
ATOM     35  C   UNL d   1      -7.455  -6.179   7.435  0.00  0.00     0.092 C 
ATOM     36  C   UNL d   1      -7.796  -6.557   8.778  0.00  0.00     0.086 C 
ATOM     37  N   UNL d   1      -9.065  -6.999   8.816  0.00  0.00    -0.259 N 
ATOM     38  O   UNL d   1      -9.611  -6.734   7.585  0.00  0.00    -0.241 OA
ATOM     39  HN  UNL d   1      -9.532  -7.444   9.606  1.00  0.00     0.195 HD
ATOM     40  C   UNL d   1      -8.668  -6.195   6.772  0.00  0.00     0.090 C 
ATOM     41  C   UNL d   1      -9.161  -5.778   5.444  0.00  0.00     0.080 C 
BRANCH  36  42
ATOM     42  C   UNL d   1      -7.007  -6.517  10.020  0.00  0.00     0.037 A 
ATOM     43  C   UNL d   1      -7.527  -5.878  11.174  0.00  0.00     0.048 A 
ATOM     44 CL   UNL d   1      -9.055  -5.055  11.206  0.00  0.00    -0.083 Cl
ATOM     45  C   UNL d   1      -6.809  -5.853  12.380  0.00  0.00     0.025 A 
ATOM     46  C   UNL d   1      -5.545  -6.422  12.459  0.00  0.00     0.003 A 
ATOM     47  C   UNL d   1      -5.009  -7.045  11.335  0.00  0.00     0.025 A 
ATOM     48  C   UNL d   1      -5.740  -7.120  10.137  0.00  0.00     0.048 A 
ATOM     49 CL   UNL d   1      -5.016  -8.065   8.879  0.00  0.00    -0.083 Cl
ENDBRANCH  36  42
ENDBRANCH  31  35
ENDBRANCH  26  27
ENDBRANCH   1  26
TORSDOF 8
