REMARK  5 active torsions:
REMARK  status: ('A' for Active; 'I' for Inactive)
REMARK    1  A    between atoms: C_2  and  C_1 
REMARK       I    between atoms: N_11  and  C_2 
REMARK    2  A    between atoms: N_10  and  C_5 
REMARK    3  A    between atoms: C_6  and  C_15 
REMARK    4  A    between atoms: N_7  and  N_11 
REMARK    5  A    between atoms: N_17  and  C_9 
ROOT
ATOM      1  N   UNL d   1      -1.087   3.797   0.100  0.00  0.00    -0.308 N 
ATOM      2  HN  UNL d   1      -1.600   2.935   0.284  1.00  0.00     0.186 HD
ATOM      3  C   UNL d   1      -1.710   4.919  -0.080  0.00  0.00     0.120 C 
ENDROOT
BRANCH   1   4
ATOM      4  N   UNL d   1       0.277   3.804   0.036  0.00  0.00    -0.266 N 
ATOM      5  C   UNL d   1       0.946   2.592   0.188  0.00  0.00     0.271 C 
ATOM      6  O   UNL d   1       0.379   1.517   0.403  0.00  0.00    -0.266 OA
ATOM      7  H   UNL d   1       0.763   4.646  -0.250  0.00  0.00     0.190 HD
BRANCH   5   8
ATOM      8  C   UNL d   1       2.437   2.599   0.074  0.00  0.00     0.054 A 
ATOM      9  C   UNL d   1       3.106   1.439  -0.383  0.00  0.00     0.021 A 
ATOM     10  C   UNL d   1       4.506   1.446  -0.456  0.00  0.00     0.024 A 
ATOM     11  C   UNL d   1       5.240   2.543  -0.007  0.00  0.00     0.002 A 
ATOM     12  C   UNL d   1       4.582   3.667   0.483  0.00  0.00     0.001 A 
ATOM     13  C   UNL d   1       3.184   3.700   0.525  0.00  0.00     0.019 A 
BRANCH   9  14
ATOM     14  N   UNL d   1       2.418   0.362  -0.985  0.00  0.00    -0.302 NA
ATOM     15  H   UNL d   1       1.455   0.305  -0.626  0.00  0.00     0.124 HD
ATOM     16  H   UNL d   1       2.895  -0.528  -0.897  0.00  0.00     0.124 HD
ENDBRANCH   9  14
ENDBRANCH   5   8
ENDBRANCH   1   4
BRANCH   3  17
ATOM     17  C   UNL d   1      -3.196   4.972  -0.056  0.00  0.00     0.003 A 
ATOM     18  C   UNL d   1      -3.910   6.160  -0.213  0.00  0.00     0.047 A 
ATOM     19  C   UNL d   1      -5.319   6.147  -0.207  0.00  0.00     0.054 A 
ATOM     20 CL   UNL d   1      -3.135   7.691  -0.429  0.00  0.00    -0.083 Cl
ATOM     21  C   UNL d   1      -6.063   4.965  -0.048  0.00  0.00     0.031 A 
ATOM     22  C   UNL d   1      -5.318   3.789   0.118  0.00  0.00     0.030 A 
ATOM     23  C   UNL d   1      -3.914   3.785   0.116  0.00  0.00     0.017 A 
BRANCH  21  24
ATOM     24  N   UNL d   1      -7.447   4.962  -0.075  0.00  0.00    -0.390 N 
ATOM     25  C   UNL d   1      -8.238   6.092   0.405  0.00  0.00     0.149 C 
ATOM     26  C   UNL d   1      -8.219   3.785  -0.466  0.00  0.00     0.149 C 
ENDBRANCH  21  24
ENDBRANCH   3  17
TORSDOF 5
