REMARK  7 active torsions:
REMARK  status: ('A' for Active; 'I' for Inactive)
REMARK    1  A    between atoms: N_6  and  S_1 
REMARK    2  A    between atoms: C_2  and  C_7 
REMARK    3  A    between atoms: C_3  and  N_5 
REMARK    4  A    between atoms: N_9  and  C_3 
REMARK    5  A    between atoms: N_5  and  C_4 
REMARK    6  A    between atoms: C_13  and  N_6 
REMARK    7  A    between atoms: C_16  and  N_9 
ROOT
ATOM      1  N   UNL d   1      -0.516   6.021   2.036  0.00  0.00    -0.333 N 
ATOM      2  H   UNL d   1      -0.554   6.623   2.849  0.00  0.00     0.168 HD
ENDROOT
BRANCH   1   3
ATOM      3  C   UNL d   1      -0.521   6.718   0.850  0.00  0.00     0.176 C 
ATOM      4  S   UNL d   1       0.606   6.582  -0.396  0.00  0.00    -0.041 SA
BRANCH   3   5
ATOM      5  N   UNL d   1      -1.458   7.688   0.669  0.00  0.00    -0.333 N 
ATOM      6  H   UNL d   1      -1.270   8.214  -0.180  0.00  0.00     0.168 HD
BRANCH   5   7
ATOM      7  C   UNL d   1      -2.659   8.009   1.320  0.00  0.00     0.035 A 
ATOM      8  C   UNL d   1      -3.331   9.144   0.842  0.00  0.00     0.045 A 
ATOM      9  C   UNL d   1      -4.546   9.564   1.404  0.00  0.00     0.050 A 
ATOM     10  C   UNL d   1      -5.093   8.820   2.456  0.00  0.00     0.016 A 
ATOM     11  C   UNL d   1      -4.443   7.678   2.922  0.00  0.00     0.003 A 
ATOM     12  C   UNL d   1      -3.234   7.269   2.351  0.00  0.00     0.029 A 
BRANCH   9  13
ATOM     13  C   UNL d   1      -5.256  10.793   0.892  0.00  0.00     0.417 C 
ATOM     14  F   UNL d   1      -4.603  11.412  -0.131  0.00  0.00    -0.166 F 
ATOM     15  F   UNL d   1      -6.505  10.519   0.426  0.00  0.00    -0.166 F 
ATOM     16  F   UNL d   1      -5.414  11.740   1.858  0.00  0.00    -0.166 F 
ENDBRANCH   9  13
ENDBRANCH   5   7
ENDBRANCH   3   5
ENDBRANCH   1   3
BRANCH   1  17
ATOM     17  C   UNL d   1       0.089   4.748   2.206  0.00  0.00     0.042 C 
ATOM     18  C   UNL d   1      -0.061   3.798   1.188  0.00  0.00     0.054 C 
ATOM     19  C   UNL d   1       0.713   2.647   1.176  0.00  0.00     0.024 C 
ATOM     20  C   UNL d   1       1.563   2.372   2.238  0.00  0.00     0.025 C 
ATOM     21  C   UNL d   1       1.617   3.252   3.324  0.00  0.00     0.011 C 
ATOM     22  C   UNL d   1       0.863   4.441   3.337  0.00  0.00    -0.035 C 
ATOM     23  C   UNL d   1       0.954   5.346   4.535  0.00  0.00     0.050 C 
BRANCH  19  24
ATOM     24  N   UNL d   1       0.679   1.788   0.037  0.00  0.00    -0.186 NA
ATOM     25  H   UNL d   1       0.707   2.297  -0.852  0.00  0.00     0.145 HD
BRANCH  24  26
ATOM     26  S   UNL d   1      -0.549   0.633  -0.052  0.00  0.00     0.210 S 
ATOM     27  O   UNL d   1      -0.901   0.547  -1.447  0.00  0.00    -0.211 OA
ATOM     28  O   UNL d   1      -1.544   0.863   0.971  0.00  0.00    -0.211 OA
ATOM     29  C   UNL d   1       0.370  -0.837   0.360  0.00  0.00     0.180 C 
ENDBRANCH  24  26
ENDBRANCH  19  24
ENDBRANCH   1  17
TORSDOF 7
