REMARK  7 active torsions:
REMARK  status: ('A' for Active; 'I' for Inactive)
REMARK    1  A    between atoms: C_17  and  N_1 
REMARK    2  A    between atoms: C_8  and  C_3 
REMARK    3  A    between atoms: C_10  and  N_4 
REMARK    4  A    between atoms: N_21  and  C_8 
REMARK    5  A    between atoms: C_9  and  C_11 
REMARK    6  A    between atoms: O_22  and  N_14 
REMARK    7  A    between atoms: C_26  and  C_17 
ROOT
ATOM      1  N   UNL d   1       5.707  -2.564  -0.032  0.00  0.00    -0.263 N 
ATOM      2  C   UNL d   1       4.971  -3.743  -0.035  0.00  0.00     0.351 A 
ATOM      3  C   UNL d   1       3.620  -1.295   0.060  0.00  0.00     0.157 A 
ATOM      4  N   UNL d   1       3.581  -3.594   0.080  0.00  0.00    -0.205 N 
ATOM      5  N   UNL d   1       2.924  -2.391   0.158  0.00  0.00    -0.282 N 
ATOM      6  HN  UNL d   1       1.913  -2.356   0.290  1.00  0.00     0.188 HD
ATOM      7  C   UNL d   1       5.122  -1.312  -0.051  0.00  0.00     0.283 A 
ATOM      8  O   UNL d   1       5.530  -4.840  -0.102  0.00  0.00    -0.244 OA
ATOM      9  O   UNL d   1       5.735  -0.262  -0.174  0.00  0.00    -0.265 OA
ENDROOT
BRANCH   4  10
ATOM     10  C   UNL d   1       2.696  -4.711   0.021  0.00  0.00     0.062 A 
ATOM     11  C   UNL d   1       2.901  -5.751  -0.898  0.00  0.00     0.048 A 
ATOM     12  C   UNL d   1       1.998  -6.823  -0.993  0.00  0.00     0.050 A 
ATOM     13  C   UNL d   1       0.912  -6.875  -0.107  0.00  0.00     0.016 A 
ATOM     14  C   UNL d   1       0.706  -5.855   0.820  0.00  0.00     0.003 A 
ATOM     15  C   UNL d   1       1.577  -4.764   0.862  0.00  0.00     0.032 A 
BRANCH  12  16
ATOM     16  C   UNL d   1       2.166  -7.892  -2.044  0.00  0.00     0.417 C 
ATOM     17  F   UNL d   1       3.217  -7.679  -2.883  0.00  0.00    -0.166 F 
ATOM     18  F   UNL d   1       2.354  -9.129  -1.510  0.00  0.00    -0.166 F 
ATOM     19  F   UNL d   1       1.069  -7.997  -2.849  0.00  0.00    -0.166 F 
ENDBRANCH  12  16
ENDBRANCH   4  10
BRANCH   1  20
ATOM     20  C   UNL d   1       7.165  -2.642  -0.075  0.00  0.00     0.137 C 
BRANCH  20  21
ATOM     21  C   UNL d   1       7.817  -2.494   1.305  0.00  0.00     0.016 C 
ATOM     22  C   UNL d   1       7.534  -3.660   2.242  0.00  0.00     0.006 C 
ENDBRANCH  20  21
ENDBRANCH   1  20
BRANCH   3  23
ATOM     23  C   UNL d   1       2.795  -0.016  -0.002  0.00  0.00     0.132 C 
ATOM     24  N   UNL d   1       3.236   1.014   0.655  0.00  0.00    -0.256 N 
ATOM     25  HN  UNL d   1       4.092   1.026   1.209  1.00  0.00     0.195 HD
BRANCH  24  26
ATOM     26  O   UNL d   1       2.369   2.108   0.496  0.00  0.00    -0.288 OA
ATOM     27  H   UNL d   1       2.901   2.843   0.857  0.00  0.00     0.244 HD
ENDBRANCH  24  26
BRANCH  23  28
ATOM     28  N   UNL d   1       1.620  -0.033  -0.725  0.00  0.00    -0.285 NA
ATOM     29  H   UNL d   1       1.137  -0.927  -0.714  0.00  0.00     0.125 HD
ATOM     30  H   UNL d   1       1.029   0.754  -0.471  0.00  0.00     0.125 HD
ENDBRANCH  23  28
ENDBRANCH   3  23
TORSDOF 7
