REMARK  2 active torsions:
REMARK  status: ('A' for Active; 'I' for Inactive)
REMARK    1  A    between atoms: C_10  and  C_3 
REMARK    2  A    between atoms: C_12  and  C_13 
ROOT
ATOM      1  N   UNL d   1       1.969   0.086   1.018  0.00  0.00    -0.335 N 
ATOM      2  HN  UNL d   1       2.676   0.419   1.672  1.00  0.00     0.168 HD
ATOM      3  C   UNL d   1       2.261  -0.749   0.076  0.00  0.00     0.162 A 
ATOM      4  O   UNL d   1       1.414  -1.228  -0.861  0.00  0.00    -0.257 OA
ATOM      5  C   UNL d   1       0.122  -0.839  -0.867  0.00  0.00     0.302 A 
ATOM      6  C   UNL d   1      -0.315   0.063   0.202  0.00  0.00     0.066 A 
ATOM      7  C   UNL d   1       0.644   0.511   1.100  0.00  0.00     0.052 A 
ATOM      8  C   UNL d   1       0.262   1.378   2.124  0.00  0.00     0.054 A 
ATOM      9  C   UNL d   1      -1.655   0.448   0.318  0.00  0.00     0.022 A 
ATOM     10  O   UNL d   1      -0.667  -1.227  -1.723  0.00  0.00    -0.259 OA
ATOM     11  C   UNL d   1      -1.073   1.763   2.252  0.00  0.00     0.036 A 
ATOM     12  C   UNL d   1      -2.035   1.297   1.356  0.00  0.00     0.025 A 
ATOM     13 CL   UNL d   1      -1.541   2.809   3.534  0.00  0.00    -0.084 Cl
ENDROOT
BRANCH   3  14
ATOM     14  C   UNL d   1       3.618  -1.325  -0.116  0.00  0.00     0.015 A 
ATOM     15  C   UNL d   1       4.640  -1.004   0.780  0.00  0.00     0.016 A 
ATOM     16  C   UNL d   1       5.931  -1.517   0.592  0.00  0.00     0.009 A 
ATOM     17  C   UNL d   1       6.239  -2.354  -0.498  0.00  0.00    -0.051 A 
ATOM     18  C   UNL d   1       5.188  -2.694  -1.364  0.00  0.00     0.009 A 
ATOM     19  C   UNL d   1       3.898  -2.187  -1.180  0.00  0.00     0.016 A 
BRANCH  17  20
ATOM     20  C   UNL d   1       7.683  -2.830  -0.740  0.00  0.00    -0.024 C 
ATOM     21  C   UNL d   1       7.841  -3.689  -2.016  0.00  0.00     0.019 C 
ATOM     22  C   UNL d   1       8.602  -1.600  -0.904  0.00  0.00     0.019 C 
ATOM     23  C   UNL d   1       8.177  -3.678   0.450  0.00  0.00     0.019 C 
ENDBRANCH  17  20
ENDBRANCH   3  14
TORSDOF 2
