REMARK  3 active torsions:
REMARK  status: ('A' for Active; 'I' for Inactive)
REMARK    1  A    between atoms: C_4  and  C_1 
REMARK       I    between atoms: N_7  and  C_4 
REMARK    2  A    between atoms: C_9  and  N_7 
REMARK    3  A    between atoms: N_8  and  C_10 
ROOT
ATOM      1  C   UNL d   1       4.846  -0.498  -1.462  0.00  0.00     0.264 C 
ATOM      2  N   UNL d   1       4.546  -1.194  -0.304  0.00  0.00    -0.320 N 
ATOM      3  O   UNL d   1       4.675  -0.951  -2.594  0.00  0.00    -0.267 OA
ATOM      4  H   UNL d   1       4.941  -0.869   0.567  0.00  0.00     0.169 HD
ENDROOT
BRANCH   2   5
ATOM      5  C   UNL d   1       4.034  -2.509  -0.265  0.00  0.00     0.061 A 
ATOM      6  C   UNL d   1       4.441  -3.380   0.779  0.00  0.00     0.057 A 
ATOM      7  C   UNL d   1       3.802  -4.633   0.835  0.00  0.00     0.031 A 
ATOM      8  C   UNL d   1       2.816  -5.010  -0.084  0.00  0.00     0.002 A 
ATOM      9  C   UNL d   1       2.441  -4.143  -1.099  0.00  0.00     0.002 A 
ATOM     10  C   UNL d   1       3.053  -2.898  -1.196  0.00  0.00     0.032 A 
BRANCH   6  11
ATOM     11  N   UNL d   1       5.440  -3.040   1.690  0.00  0.00    -0.375 N 
ATOM     12  C   UNL d   1       6.716  -2.437   1.246  0.00  0.00     0.149 C 
ATOM     13  C   UNL d   1       7.934  -3.281   1.650  0.00  0.00     0.187 C 
ATOM     14  O   UNL d   1       7.909  -3.646   3.036  0.00  0.00    -0.388 OA
ATOM     15  C   UNL d   1       6.724  -4.409   3.313  0.00  0.00     0.187 C 
ATOM     16  C   UNL d   1       5.463  -3.572   3.065  0.00  0.00     0.149 C 
ENDBRANCH   6  11
ENDBRANCH   2   5
BRANCH   1  17
ATOM     17  C   UNL d   1       5.481   0.786  -1.240  0.00  0.00     0.096 A 
ATOM     18  S   UNL d   1       6.881   1.157  -2.147  0.00  0.00    -0.082 SA
ATOM     19  C   UNL d   1       6.973   2.751  -1.513  0.00  0.00     0.017 A 
ATOM     20  C   UNL d   1       7.917   3.739  -1.857  0.00  0.00     0.020 A 
ATOM     21  C   UNL d   1       5.955   2.993  -0.587  0.00  0.00     0.004 A 
ATOM     22  C   UNL d   1       7.811   5.006  -1.282  0.00  0.00     0.001 A 
ATOM     23  C   UNL d   1       6.801   5.283  -0.373  0.00  0.00     0.001 A 
ATOM     24  C   UNL d   1       5.884   4.290  -0.013  0.00  0.00     0.014 A 
ATOM     25  C   UNL d   1       5.127   1.825  -0.409  0.00  0.00     0.068 A 
ATOM     26 CL   UNL d   1       3.791   1.812   0.674  0.00  0.00    -0.082 Cl
ENDBRANCH   1  17
TORSDOF 3
