REMARK  9 active torsions:
REMARK  status: ('A' for Active; 'I' for Inactive)
REMARK    1  A    between atoms: C_10  and  N_1 
REMARK    2  A    between atoms: C_7  and  C_2 
REMARK    3  A    between atoms: C_11  and  N_5 
REMARK       I    between atoms: N_8  and  C_7 
REMARK       I    between atoms: C_9  and  N_8 
REMARK    4  A    between atoms: O_23  and  C_9 
REMARK    5  A    between atoms: C_14  and  C_10 
REMARK    6  A    between atoms: C_12  and  C_11 
REMARK    7  A    between atoms: O_24  and  C_14 
REMARK    8  A    between atoms: C_25  and  O_23 
REMARK    9  A    between atoms: C_26  and  O_24 
ROOT
ATOM      1  N   UNL d   1      -0.835   1.136   0.256  0.00  0.00    -0.256 N 
ATOM      2  C   UNL d   1       1.340   0.055   0.086  0.00  0.00     0.116 C 
ATOM      3  C   UNL d   1      -1.498  -0.085   0.260  0.00  0.00     0.332 C 
ATOM      4  C   UNL d   1       0.535   1.255   0.394  0.00  0.00     0.269 C 
ATOM      5  N   UNL d   1      -0.688  -1.202   0.070  0.00  0.00    -0.302 N 
ATOM      6  C   UNL d   1       0.682  -1.101  -0.076  0.00  0.00     0.118 C 
ATOM      7  O   UNL d   1      -2.709  -0.175   0.464  0.00  0.00    -0.246 OA
ATOM      8  O   UNL d   1       1.094   2.293   0.751  0.00  0.00    -0.267 OA
ENDROOT
BRANCH   2   9
ATOM      9  C   UNL d   1       2.832   0.051  -0.007  0.00  0.00     0.266 C 
ATOM     10  N   UNL d   1       3.440   1.180   0.486  0.00  0.00    -0.269 N 
ATOM     11  C   UNL d   1       4.791   1.386   0.580  0.00  0.00     0.367 C 
ATOM     12  H   UNL d   1       2.877   1.921   0.892  0.00  0.00     0.174 HD
ATOM     13  O   UNL d   1       5.674   0.706   0.086  0.00  0.00    -0.238 OA
ATOM     14  O   UNL d   1       3.416  -0.921  -0.474  0.00  0.00    -0.267 OA
BRANCH  11  15
ATOM     15  O   UNL d   1       5.009   2.520   1.296  0.00  0.00    -0.304 OA
BRANCH  15  16
ATOM     16  C   UNL d   1       6.384   2.915   1.434  0.00  0.00     0.176 C 
ATOM     17  C   UNL d   1       7.047   2.172   2.585  0.00  0.00     0.034 C 
ENDBRANCH  15  16
ENDBRANCH  11  15
ENDBRANCH   2   9
BRANCH   1  18
ATOM     18  C   UNL d   1      -1.620   2.366   0.316  0.00  0.00     0.248 C 
BRANCH  18  19
ATOM     19  C   UNL d   1      -1.537   3.193  -0.966  0.00  0.00     0.277 C 
ATOM     20  O   UNL d   1      -2.139   4.251  -1.115  0.00  0.00    -0.263 OA
BRANCH  19  21
ATOM     21  O   UNL d   1      -0.758   2.606  -1.919  0.00  0.00    -0.321 OA
BRANCH  21  22
ATOM     22  C   UNL d   1      -0.796   3.201  -3.226  0.00  0.00     0.174 C 
ATOM     23  C   UNL d   1      -1.879   2.506  -4.029  0.00  0.00     0.034 C 
ENDBRANCH  21  22
ENDBRANCH  19  21
ENDBRANCH  18  19
ENDBRANCH   1  18
BRANCH   5  24
ATOM     24  C   UNL d   1      -1.307  -2.531   0.131  0.00  0.00     0.198 C 
BRANCH  24  25
ATOM     25  C   UNL d   1      -2.038  -2.864  -1.119  0.00  0.00     0.070 A 
ATOM     26  O   UNL d   1      -1.337  -3.516  -2.093  0.00  0.00    -0.325 OA
ATOM     27  C   UNL d   1      -2.216  -3.798  -3.091  0.00  0.00     0.142 A 
ATOM     28  C   UNL d   1      -3.471  -3.334  -2.776  0.00  0.00     0.027 A 
ATOM     29  C   UNL d   1      -3.356  -2.722  -1.506  0.00  0.00     0.036 A 
ENDBRANCH  24  25
ENDBRANCH   5  24
TORSDOF 9
