REMARK  6 active torsions:
REMARK  status: ('A' for Active; 'I' for Inactive)
REMARK    1  A    between atoms: N_3  and  C_1 
REMARK    2  A    between atoms: N_5  and  C_1 
REMARK    3  A    between atoms: C_2  and  N_3 
REMARK       I    between atoms: C_4  and  N_6 
REMARK    4  A    between atoms: O_11  and  C_4 
REMARK    5  A    between atoms: N_6  and  N_5 
REMARK    6  A    between atoms: C_17  and  O_11 
ROOT
ATOM      1  C   UNL d   1       0.964  -0.311   0.083  0.00  0.00     0.191 C 
ATOM      2  S   UNL d   1       0.099  -0.280  -1.347  0.00  0.00    -0.039 SA
ENDROOT
BRANCH   1   3
ATOM      3  N   UNL d   1       0.468   0.345   1.180  0.00  0.00    -0.331 N 
ATOM      4  H   UNL d   1      -0.528   0.528   1.140  0.00  0.00     0.168 HD
BRANCH   3   5
ATOM      5  C   UNL d   1       1.154   0.811   2.329  0.00  0.00     0.046 A 
ATOM      6  C   UNL d   1       2.446   1.393   2.266  0.00  0.00    -0.035 A 
ATOM      7  C   UNL d   1       3.062   1.833   3.453  0.00  0.00     0.009 A 
ATOM      8  C   UNL d   1       3.218   1.661   0.999  0.00  0.00     0.050 C 
ATOM      9  C   UNL d   1       2.401   1.770   4.672  0.00  0.00     0.001 A 
ATOM     10  C   UNL d   1       1.113   1.253   4.727  0.00  0.00     0.009 A 
ATOM     11  C   UNL d   1       0.478   0.764   3.570  0.00  0.00    -0.035 A 
ATOM     12  C   UNL d   1      -0.900   0.183   3.758  0.00  0.00     0.050 C 
ENDBRANCH   3   5
ENDBRANCH   1   3
BRANCH   1  13
ATOM     13  N   UNL d   1       2.144  -0.979   0.281  0.00  0.00    -0.272 N 
ATOM     14  H   UNL d   1       2.414  -1.238   1.231  0.00  0.00     0.189 HD
BRANCH  13  15
ATOM     15  N   UNL d   1       2.885  -1.571  -0.749  0.00  0.00    -0.243 N 
ATOM     16  C   UNL d   1       3.891  -2.418  -0.363  0.00  0.00     0.379 C 
ATOM     17  O   UNL d   1       3.933  -2.977   0.728  0.00  0.00    -0.237 OA
ATOM     18  H   UNL d   1       3.044  -1.007  -1.580  0.00  0.00     0.192 HD
BRANCH  16  19
ATOM     19  O   UNL d   1       4.862  -2.468  -1.309  0.00  0.00    -0.303 OA
BRANCH  19  20
ATOM     20  C   UNL d   1       6.021  -3.231  -0.938  0.00  0.00     0.176 C 
ATOM     21  C   UNL d   1       6.929  -2.430  -0.019  0.00  0.00     0.034 C 
ENDBRANCH  19  20
ENDBRANCH  16  19
ENDBRANCH  13  15
ENDBRANCH   1  13
TORSDOF 6
