REMARK  2 active torsions:
REMARK  status: ('A' for Active; 'I' for Inactive)
REMARK    1  A    between atoms: C_2  and  S_1 
REMARK    2  A    between atoms: N_7  and  S_1 
ROOT
ATOM      1  C   UNL d   1       0.554  -1.462  -1.022  0.00  0.00     0.097 A 
ATOM      2  C   UNL d   1       0.687  -2.751  -0.472  0.00  0.00     0.050 A 
ATOM      3  C   UNL d   1       0.131  -1.311  -2.349  0.00  0.00     0.029 A 
ATOM      4  C   UNL d   1      -0.131  -2.458  -3.118  0.00  0.00     0.021 A 
ATOM      5  C   UNL d   1       0.427  -3.875  -1.250  0.00  0.00     0.035 A 
ATOM      6  I   UNL d   1      -0.157   0.513  -3.352  0.00  0.00    -0.043 I 
ATOM      7  C   UNL d   1       0.023  -3.735  -2.572  0.00  0.00     0.025 A 
ATOM      8 CL   UNL d   1       0.616  -5.445  -0.576  0.00  0.00    -0.084 Cl
ENDROOT
BRANCH   1   9
ATOM      9  S   UNL d   1       0.941  -0.100   0.047  0.00  0.00     0.259 S 
ATOM     10  O   UNL d   1       1.450  -0.624   1.296  0.00  0.00    -0.201 OA
ATOM     11  O   UNL d   1      -0.176   0.817   0.029  0.00  0.00    -0.201 OA
BRANCH   9  12
ATOM     12  N   UNL d   1       2.224   0.655  -0.730  0.00  0.00    -0.320 N 
ATOM     13  C   UNL d   1       3.571   0.140  -0.525  0.00  0.00     0.159 C 
ATOM     14  H   UNL d   1       2.093   1.663  -0.800  0.00  0.00     0.171 HD
ENDBRANCH   9  12
ENDBRANCH   1   9
TORSDOF 2
