REMARK  2 active torsions:
REMARK  status: ('A' for Active; 'I' for Inactive)
REMARK    1  A    between atoms: C_2  and  C_1 
REMARK       I    between atoms: N_8  and  C_1 
REMARK    2  A    between atoms: N_11  and  N_8 
ROOT
ATOM      1  C   UNL d   1       0.244  -1.007   0.662  0.00  0.00     0.036 A 
ATOM      2  C   UNL d   1      -0.267  -2.407   2.553  0.00  0.00     0.155 A 
ATOM      3  C   UNL d   1       0.484  -1.381   1.990  0.00  0.00     0.062 A 
ATOM      4  C   UNL d   1      -1.248  -3.060   1.815  0.00  0.00     0.154 A 
ATOM      5  C   UNL d   1      -0.738  -1.675  -0.088  0.00  0.00     0.020 A 
ATOM      6  C   UNL d   1      -1.490  -2.701   0.493  0.00  0.00     0.046 A 
ATOM      7  F   UNL d   1      -0.028  -2.768   3.822  0.00  0.00    -0.203 F 
ATOM      8  F   UNL d   1      -1.964  -4.049   2.369  0.00  0.00    -0.203 F 
ENDROOT
BRANCH   1   9
ATOM      9  C   UNL d   1       1.041   0.060   0.004  0.00  0.00     0.265 C 
ATOM     10  O   UNL d   1       1.277   0.007  -1.200  0.00  0.00    -0.266 OA
ATOM     11  N   UNL d   1       1.463   1.101   0.822  0.00  0.00    -0.290 N 
ATOM     12  H   UNL d   1       1.046   1.235   1.741  0.00  0.00     0.183 HD
BRANCH  11  13
ATOM     13  N   UNL d   1       2.152   2.188   0.242  0.00  0.00    -0.247 NA
ATOM     14  H   UNL d   1       2.086   2.070  -0.780  0.00  0.00     0.143 HD
ATOM     15  H   UNL d   1       3.149   2.067   0.436  0.00  0.00     0.143 HD
ENDBRANCH  11  13
ENDBRANCH   1   9
TORSDOF 2
