REMARK  7 active torsions:
REMARK  status: ('A' for Active; 'I' for Inactive)
REMARK    1  A    between atoms: C_3  and  C_1 
REMARK    2  A    between atoms: S_14  and  C_6 
REMARK    3  A    between atoms: C_27  and  C_11 
REMARK    4  A    between atoms: C_30  and  S_14 
REMARK    5  A    between atoms: C_15  and  N_17 
REMARK    6  A    between atoms: C_16  and  C_30 
REMARK       I    between atoms: N_17  and  C_16 
REMARK    7  A    between atoms: C_19  and  C_27 
ROOT
ATOM      1  C   UNL d   1       0.142   1.173   0.181  0.00  0.00     0.151 A 
ATOM      2  N   UNL d   1       1.038   0.130   0.166  0.00  0.00    -0.314 N 
ATOM      3  N   UNL d   1      -1.056   0.705   0.466  0.00  0.00    -0.281 N 
ATOM      4  HN  UNL d   1      -1.909   1.258   0.556  1.00  0.00     0.188 HD
ATOM      5  C   UNL d   1       0.308  -0.968   0.533  0.00  0.00     0.163 A 
ATOM      6  N   UNL d   1      -0.960  -0.651   0.620  0.00  0.00    -0.278 N 
ATOM      7  HN  UNL d   1      -1.734  -1.297   0.774  1.00  0.00     0.189 HD
ATOM      8  C   UNL d   1       2.467   0.190   0.017  0.00  0.00     0.160 C 
ENDROOT
BRANCH   5   9
ATOM      9  S   UNL d   1       0.994  -2.422   1.169  0.00  0.00    -0.083 SA
BRANCH   9  10
ATOM     10  C   UNL d   1      -0.444  -3.499   1.389  0.00  0.00     0.185 C 
BRANCH  10  11
ATOM     11  C   UNL d   1      -1.460  -3.163   2.477  0.00  0.00     0.231 C 
ATOM     12  N   UNL d   1      -1.462  -1.881   2.986  0.00  0.00    -0.326 N 
ATOM     13  H   UNL d   1      -0.882  -1.217   2.487  0.00  0.00     0.169 HD
ATOM     14  O   UNL d   1      -2.272  -4.033   2.800  0.00  0.00    -0.272 OA
BRANCH  12  15
ATOM     15  C   UNL d   1      -2.426  -1.293   3.833  0.00  0.00     0.037 A 
ATOM     16  C   UNL d   1      -3.363  -2.021   4.565  0.00  0.00     0.053 A 
ATOM     17  C   UNL d   1      -4.338  -1.355   5.309  0.00  0.00     0.037 A 
ATOM     18 CL   UNL d   1      -5.510  -2.264   6.184  0.00  0.00    -0.084 Cl
ATOM     19  C   UNL d   1      -4.385   0.036   5.344  0.00  0.00     0.048 A 
ATOM     20  C   UNL d   1      -3.430   0.760   4.640  0.00  0.00     0.037 A 
ATOM     21  C   UNL d   1      -2.449   0.107   3.894  0.00  0.00     0.053 A 
ATOM     22 CL   UNL d   1      -3.472   2.482   4.669  0.00  0.00    -0.084 Cl
ENDBRANCH  12  15
ENDBRANCH  10  11
ENDBRANCH   9  10
ENDBRANCH   5   9
BRANCH   1  23
ATOM     23  C   UNL d   1       0.432   2.617  -0.022  0.00  0.00     0.085 A 
ATOM     24  N   UNL d   1       1.541   3.058  -0.712  0.00  0.00    -0.350 N 
ATOM     25  C   UNL d   1       1.541   4.375  -0.764  0.00  0.00     0.055 A 
ATOM     26  HN  UNL d   1       2.255   2.455  -1.121  1.00  0.00     0.166 HD
ATOM     27  S   UNL d   1       0.264   5.146   0.095  0.00  0.00    -0.086 SA
ATOM     28  C   UNL d   1      -0.390   3.609   0.476  0.00  0.00     0.085 A 
BRANCH  25  29
ATOM     29  C   UNL d   1       2.538   5.188  -1.537  0.00  0.00     0.103 C 
BRANCH  29  30
ATOM     30  C   UNL d   1       3.833   5.370  -0.798  0.00  0.00    -0.045 A 
ATOM     31  C   UNL d   1       4.914   4.509  -0.879  0.00  0.00     0.057 A 
ATOM     32  S   UNL d   1       6.242   5.022   0.067  0.00  0.00    -0.113 SA
ATOM     33  C   UNL d   1       5.395   6.404   0.604  0.00  0.00     0.050 A 
ATOM     34  C   UNL d   1       4.125   6.470   0.075  0.00  0.00     0.015 A 
ENDBRANCH  29  30
ENDBRANCH  25  29
ENDBRANCH   1  23
TORSDOF 7
