REMARK  7 active torsions:
REMARK  status: ('A' for Active; 'I' for Inactive)
REMARK    1  A    between atoms: C_14  and  N_1 
REMARK    2  A    between atoms: S_13  and  C_2 
REMARK    3  A    between atoms: C_10  and  C_3 
REMARK       I    between atoms: C_8  and  N_9 
REMARK    4  A    between atoms: O_11  and  C_8 
REMARK    5  A    between atoms: N_9  and  C_10 
REMARK    6  A    between atoms: C_15  and  O_11 
REMARK    7  A    between atoms: C_16  and  C_14 
ROOT
ATOM      1  N   UNL d   1      -2.539   0.809   2.254  0.00  0.00    -0.310 N 
ATOM      2  C   UNL d   1      -1.538   1.213   3.099  0.00  0.00     0.160 A 
ATOM      3  C   UNL d   1      -1.898   0.201   1.190  0.00  0.00     0.118 A 
ATOM      4  N   UNL d   1      -0.374   0.871   2.601  0.00  0.00    -0.278 N 
ATOM      5  HN  UNL d   1       0.536   1.043   3.028  1.00  0.00     0.189 HD
ATOM      6  N   UNL d   1      -0.596   0.240   1.403  0.00  0.00    -0.285 N 
ATOM      7  HN  UNL d   1       0.122  -0.135   0.784  1.00  0.00     0.188 HD
ENDROOT
BRANCH   3   8
ATOM      8  C   UNL d   1      -2.547  -0.346  -0.031  0.00  0.00     0.203 C 
BRANCH   8   9
ATOM      9  N   UNL d   1      -3.293  -1.542   0.266  0.00  0.00    -0.330 N 
ATOM     10  C   UNL d   1      -4.641  -1.618   0.091  0.00  0.00     0.361 C 
ATOM     11  O   UNL d   1      -5.347  -0.661  -0.205  0.00  0.00    -0.238 OA
ATOM     12  H   UNL d   1      -2.808  -2.400   0.490  0.00  0.00     0.165 HD
BRANCH  10  13
ATOM     13  O   UNL d   1      -5.065  -2.886   0.287  0.00  0.00    -0.294 OA
BRANCH  13  14
ATOM     14  C   UNL d   1      -6.474  -3.209   0.120  0.00  0.00     0.061 C 
ATOM     15  C   UNL d   1      -6.987  -2.809  -1.271  0.00  0.00     0.046 C 
ATOM     16  C   UNL d   1      -6.559  -4.738   0.255  0.00  0.00     0.046 C 
ATOM     17  C   UNL d   1      -7.306  -2.569   1.238  0.00  0.00     0.046 C 
ENDBRANCH  13  14
ENDBRANCH  10  13
ENDBRANCH   8   9
ENDBRANCH   3   8
BRANCH   1  18
ATOM     18  C   UNL d   1      -3.971   0.983   2.411  0.00  0.00     0.159 C 
BRANCH  18  19
ATOM     19  C   UNL d   1      -4.682  -0.129   3.136  0.00  0.00    -0.017 C 
ATOM     20  C   UNL d   1      -4.153  -1.229   3.693  0.00  0.00     0.008 C 
ENDBRANCH  18  19
ENDBRANCH   1  18
BRANCH   2  21
ATOM     21  S   UNL d   1      -1.746   2.006   4.622  0.00  0.00    -0.105 SA
ATOM     22  H   UNL d   1      -2.908   2.635   4.417  0.00  0.00     0.110 HD
ENDBRANCH   2  21
TORSDOF 7
