REMARK  7 active torsions:
REMARK  status: ('A' for Active; 'I' for Inactive)
REMARK    1  A    between atoms: C_1  and  S_7 
REMARK    2  A    between atoms: C_2  and  O_8 
REMARK    3  A    between atoms: C_3  and  O_9 
REMARK    4  A    between atoms: C_5  and  O_10 
REMARK    5  A    between atoms: C_6  and  C_11 
REMARK    6  A    between atoms: C_12  and  S_7 
REMARK    7  A    between atoms: O_13  and  C_11 
ROOT
ATOM      1  C   UNL d   1       1.132   1.364  -0.220  0.00  0.00     0.215 C 
ATOM      2  C   UNL d   1       1.124  -0.154   0.103  0.00  0.00     0.188 C 
ATOM      3  C   UNL d   1      -0.195  -0.780  -0.372  0.00  0.00     0.181 C 
ATOM      4  O   UNL d   1      -0.020   1.986   0.336  0.00  0.00    -0.363 OA
ATOM      5  C   UNL d   1      -1.410   0.008   0.121  0.00  0.00     0.180 C 
ATOM      6  C   UNL d   1      -1.248   1.494  -0.207  0.00  0.00     0.178 C 
ENDROOT
BRANCH   1   7
ATOM      7  S   UNL d   1       2.650   2.115   0.480  0.00  0.00    -0.131 SA
BRANCH   7   8
ATOM      8  C   UNL d   1       2.549   3.832  -0.163  0.00  0.00     0.041 C 
ATOM      9  C   UNL d   1       1.374   4.614   0.417  0.00  0.00     0.021 C 
ATOM     10  C   UNL d   1       3.865   4.523   0.199  0.00  0.00     0.021 C 
ENDBRANCH   7   8
ENDBRANCH   1   7
BRANCH   2  11
ATOM     11  O   UNL d   1       2.209  -0.879  -0.487  0.00  0.00    -0.389 OA
ATOM     12  H   UNL d   1       2.256  -0.664  -1.435  0.00  0.00     0.210 HD
ENDBRANCH   2  11
BRANCH   3  13
ATOM     13  O   UNL d   1      -0.352  -2.138   0.074  0.00  0.00    -0.390 OA
ATOM     14  H   UNL d   1       0.280  -2.292   0.802  0.00  0.00     0.210 HD
ENDBRANCH   3  13
BRANCH   6  15
ATOM     15  C   UNL d   1      -2.409   2.316   0.380  0.00  0.00     0.198 C 
BRANCH  15  16
ATOM     16  O   UNL d   1      -3.663   1.972  -0.193  0.00  0.00    -0.398 OA
ATOM     17  H   UNL d   1      -3.693   0.993  -0.264  0.00  0.00     0.209 HD
ENDBRANCH  15  16
ENDBRANCH   6  15
BRANCH   5  18
ATOM     18  O   UNL d   1      -2.597  -0.524  -0.483  0.00  0.00    -0.390 OA
ATOM     19  H   UNL d   1      -2.464  -1.496  -0.512  0.00  0.00     0.210 HD
ENDBRANCH   5  18
TORSDOF 7
