REMARK  9 active torsions:
REMARK  status: ('A' for Active; 'I' for Inactive)
REMARK    1  A    between atoms: C_2  and  S_1 
REMARK    2  A    between atoms: N_9  and  S_1 
REMARK       I    between atoms: C_5  and  N_7 
REMARK    3  A    between atoms: C_13  and  C_5 
REMARK    4  A    between atoms: C_6  and  C_14 
REMARK    5  A    between atoms: O_18  and  C_6 
REMARK    6  A    between atoms: N_7  and  N_10 
REMARK    7  A    between atoms: C_8  and  C_13 
REMARK    8  A    between atoms: C_14  and  C_8 
REMARK    9  A    between atoms: N_10  and  C_17 
ROOT
ATOM      1  N   UNL d   1      -1.035   5.508   0.135  0.00  0.00    -0.203 NA
ATOM      2  H   UNL d   1      -0.541   6.313  -0.269  0.00  0.00     0.153 HD
ENDROOT
BRANCH   1   3
ATOM      3  N   UNL d   1      -2.412   5.793   0.221  0.00  0.00    -0.287 N 
ATOM      4  C   UNL d   1      -2.756   7.132   0.182  0.00  0.00     0.232 C 
ATOM      5  O   UNL d   1      -1.955   8.020  -0.107  0.00  0.00    -0.272 OA
ATOM      6  H   UNL d   1      -3.009   5.117   0.697  0.00  0.00     0.184 HD
BRANCH   4   7
ATOM      7  C   UNL d   1      -4.223   7.415   0.444  0.00  0.00     0.113 C 
BRANCH   7   8
ATOM      8  C   UNL d   1      -5.093   7.463  -0.840  0.00  0.00    -0.030 C 
ATOM      9  C   UNL d   1      -6.549   7.773  -0.430  0.00  0.00     0.016 C 
ATOM     10  C   UNL d   1      -4.613   8.616  -1.748  0.00  0.00     0.016 C 
BRANCH   8  11
ATOM     11  C   UNL d   1      -5.049   6.155  -1.669  0.00  0.00     0.119 C 
BRANCH  11  12
ATOM     12  C   UNL d   1      -5.534   4.928  -0.927  0.00  0.00     0.140 C 
ATOM     13  O   UNL d   1      -4.994   4.483   0.076  0.00  0.00    -0.650 OA
BRANCH  12  14
ATOM     14  O   UNL d   1      -6.627   4.354  -1.472  0.00  0.00    -0.776 OA
ATOM     15  H   UNL d   1      -6.963   4.787  -2.280  0.00  0.00     0.167 HD
ENDBRANCH  12  14
ENDBRANCH  11  12
ENDBRANCH   8  11
ENDBRANCH   7   8
ENDBRANCH   4   7
ENDBRANCH   1   3
BRANCH   1  16
ATOM     16  C   UNL d   1      -0.723   4.302  -0.539  0.00  0.00     0.027 A 
ATOM     17  C   UNL d   1       0.447   4.236  -1.316  0.00  0.00     0.026 A 
ATOM     18  C   UNL d   1       0.874   3.031  -1.887  0.00  0.00     0.026 A 
ATOM     19  C   UNL d   1       0.137   1.868  -1.664  0.00  0.00     0.074 A 
ATOM     20  C   UNL d   1      -1.014   1.904  -0.875  0.00  0.00     0.026 A 
ATOM     21  C   UNL d   1      -1.438   3.115  -0.317  0.00  0.00     0.026 A 
BRANCH  19  22
ATOM     22  S   UNL d   1       0.717   0.318  -2.280  0.00  0.00     0.239 S 
ATOM     23  O   UNL d   1       0.185  -0.753  -1.464  0.00  0.00    -0.206 OA
ATOM     24  O   UNL d   1       2.124   0.422  -2.595  0.00  0.00    -0.206 OA
BRANCH  22  25
ATOM     25  N   UNL d   1      -0.076   0.202  -3.756  0.00  0.00    -0.225 NA
ATOM     26  H   UNL d   1      -0.740  -0.574  -3.728  0.00  0.00     0.136 HD
ATOM     27  H   UNL d   1       0.612   0.126  -4.506  0.00  0.00     0.136 HD
ENDBRANCH  22  25
ENDBRANCH  19  22
ENDBRANCH   1  16
TORSDOF 9
