REMARK  2 active torsions:
REMARK  status: ('A' for Active; 'I' for Inactive)
REMARK    1  A    between atoms: N_11  and  C_4 
REMARK    2  A    between atoms: C_21  and  N_15 
ROOT
ATOM      1  N   UNL d   1      -0.181  -0.614  -0.005  0.00  0.00    -0.236 N 
ATOM      2  C   UNL d   1       1.008  -1.361  -0.009  0.00  0.00     0.105 A 
ATOM      3  C   UNL d   1      -0.146   0.787  -0.013  0.00  0.00     0.129 A 
ATOM      4  C   UNL d   1       2.199  -0.727  -0.043  0.00  0.00     0.093 A 
ATOM      5  N   UNL d   1      -1.467  -1.067  -0.001  0.00  0.00    -0.296 N 
ATOM      6  HN  UNL d   1      -1.781  -2.038   0.001  1.00  0.00     0.187 HD
ATOM      7  C   UNL d   1      -1.455   1.206  -0.009  0.00  0.00     0.076 A 
ATOM      8  N   UNL d   1       1.024   1.489  -0.018  0.00  0.00    -0.348 N 
ATOM      9  HN  UNL d   1       1.046   2.509  -0.014  1.00  0.00     0.167 HD
ATOM     10  C   UNL d   1       0.970  -2.789   0.008  0.00  0.00     0.036 A 
ATOM     11  C   UNL d   1      -2.228   0.030   0.001  0.00  0.00     0.026 A 
ATOM     12  C   UNL d   1       2.108   0.771  -0.028  0.00  0.00     0.123 A 
ATOM     13  S   UNL d   1       0.980  -3.643   1.502  0.00  0.00    -0.100 SA
ATOM     14  C   UNL d   1       0.930  -3.667  -1.062  0.00  0.00     0.022 A 
ATOM     15  C   UNL d   1       0.936  -5.160   0.716  0.00  0.00     0.050 A 
ATOM     16  C   UNL d   1       0.912  -5.033  -0.654  0.00  0.00     0.008 A 
ATOM     17  C   UNL d   1      -3.706  -0.081   0.009  0.00  0.00     0.070 C 
ENDROOT
BRANCH   4  18
ATOM     18  N   UNL d   1       3.409  -1.372  -0.014  0.00  0.00    -0.297 N 
ATOM     19  N   UNL d   1       4.397  -0.790  -0.504  0.00  0.00    -0.300 N 
ATOM     20  HN  UNL d   1       4.363   0.120  -0.962  1.00  0.00     0.187 HD
ATOM     21  HN  UNL d   1       3.498  -2.302   0.396  1.00  0.00     0.187 HD
BRANCH  19  22
ATOM     22  C   UNL d   1       5.571  -1.560  -0.339  0.00  0.00     0.048 A 
ATOM     23  C   UNL d   1       6.559  -1.506  -1.330  0.00  0.00     0.032 A 
ATOM     24  C   UNL d   1       7.748  -2.235  -1.200  0.00  0.00     0.026 A 
ATOM     25  C   UNL d   1       7.958  -3.022  -0.069  0.00  0.00     0.034 A 
ATOM     26  C   UNL d   1       6.994  -3.083   0.933  0.00  0.00     0.026 A 
ATOM     27 CL   UNL d   1       9.415  -3.921   0.094  0.00  0.00    -0.084 Cl
ATOM     28  C   UNL d   1       5.812  -2.350   0.799  0.00  0.00     0.032 A 
ENDBRANCH  19  22
ENDBRANCH   4  18
TORSDOF 2
