REMARK  6 active torsions:
REMARK  status: ('A' for Active; 'I' for Inactive)
REMARK       I    between atoms: N_4  and  C_1 
REMARK       I    between atoms: N_7  and  C_1 
REMARK       I    between atoms: C_2  and  N_6 
REMARK       I    between atoms: N_8  and  C_2 
REMARK    1  A    between atoms: C_3  and  N_4 
REMARK    2  A    between atoms: N_6  and  C_9 
REMARK    3  A    between atoms: C_13  and  N_7 
REMARK    4  A    between atoms: C_14  and  N_8 
REMARK    5  A    between atoms: C_17  and  C_13 
REMARK    6  A    between atoms: C_18  and  C_14 
ROOT
ATOM      1  C   UNL d   1       1.657  -1.512  -1.927  0.00  0.00     0.044 A 
ATOM      2  C   UNL d   1       1.165  -1.169  -3.195  0.00  0.00     0.059 A 
ATOM      3  C   UNL d   1       1.702  -1.675  -4.374  0.00  0.00     0.038 A 
ATOM      4  C   UNL d   1       2.697  -2.442  -1.804  0.00  0.00    -0.035 A 
ATOM      5  C   UNL d   1       3.275  -2.937  -2.981  0.00  0.00     0.011 A 
ATOM      6  C   UNL d   1       2.787  -2.557  -4.242  0.00  0.00     0.030 A 
ATOM      7  C   UNL d   1       3.179  -2.973  -0.482  0.00  0.00     0.050 C 
ENDROOT
BRANCH   1   8
ATOM      8  N   UNL d   1       1.018  -0.895  -0.833  0.00  0.00    -0.308 N 
ATOM      9  C   UNL d   1       1.566  -0.120   0.154  0.00  0.00     0.321 C 
ATOM     10  N   UNL d   1       2.901   0.131   0.054  0.00  0.00    -0.334 N 
ATOM     11  O   UNL d   1       0.832   0.366   1.009  0.00  0.00    -0.247 OA
ATOM     12  H   UNL d   1       3.300  -0.072  -0.850  0.00  0.00     0.165 HD
ATOM     13  H   UNL d   1       0.030  -0.695  -0.919  0.00  0.00     0.170 HD
BRANCH  10  14
ATOM     14  C   UNL d   1       3.673   1.034   0.919  0.00  0.00     0.027 C 
ATOM     15  C   UNL d   1       5.122   1.028   0.394  0.00  0.00     0.038 C 
ATOM     16  C   UNL d   1       3.149   2.481   0.819  0.00  0.00     0.038 C 
BRANCH  14  17
ATOM     17  C   UNL d   1       3.633   0.599   2.407  0.00  0.00     0.026 C 
ATOM     18  C   UNL d   1       4.061  -0.838   2.675  0.00  0.00     0.007 C 
ENDBRANCH  14  17
ENDBRANCH  10  14
ENDBRANCH   1   8
BRANCH   3  19
ATOM     19  N   UNL d   1       1.298  -1.356  -5.697  0.00  0.00    -0.309 N 
ATOM     20  C   UNL d   1       0.310  -0.623  -6.292  0.00  0.00     0.321 C 
ATOM     21  N   UNL d   1      -0.679  -0.106  -5.529  0.00  0.00    -0.334 N 
ATOM     22  O   UNL d   1       0.346  -0.490  -7.517  0.00  0.00    -0.247 OA
ATOM     23  H   UNL d   1      -0.482  -0.097  -4.562  0.00  0.00     0.165 HD
ATOM     24  H   UNL d   1       1.881  -1.752  -6.426  0.00  0.00     0.170 HD
BRANCH  21  25
ATOM     25  C   UNL d   1      -1.696   0.892  -5.914  0.00  0.00     0.027 C 
ATOM     26  C   UNL d   1      -1.011   2.236  -6.217  0.00  0.00     0.038 C 
ATOM     27  C   UNL d   1      -2.502   0.453  -7.153  0.00  0.00     0.038 C 
BRANCH  25  28
ATOM     28  C   UNL d   1      -2.723   1.020  -4.745  0.00  0.00     0.026 C 
ATOM     29  C   UNL d   1      -2.192   1.476  -3.388  0.00  0.00     0.007 C 
ENDBRANCH  25  28
ENDBRANCH  21  25
ENDBRANCH   3  19
TORSDOF 6
