REMARK  2 active torsions:
REMARK  status: ('A' for Active; 'I' for Inactive)
REMARK    1  A    between atoms: C_9  and  C_6 
REMARK    2  A    between atoms: C_19  and  C_12 
ROOT
ATOM      1  N   UNL d   1       1.518   1.455  -0.552  0.00  0.00    -0.326 N 
ATOM      2  HN  UNL d   1       1.724   2.319  -1.053  1.00  0.00     0.180 HD
ATOM      3  C   UNL d   1       0.355   0.968  -0.275  0.00  0.00     0.038 C 
ATOM      4  C   UNL d   1       0.459  -0.676   0.556  0.00  0.00     0.293 C 
ATOM      5  N   UNL d   1       2.428   0.550  -0.023  0.00  0.00    -0.229 NA
ATOM      6  C   UNL d   1       1.949  -0.854   0.194  0.00  0.00     0.148 C 
ATOM      7  N   UNL d   1      -0.733  -1.625  -0.031  0.00  0.00     0.100 N 
ATOM      8  C   UNL d   1      -1.291   1.451  -0.693  0.00  0.00     0.038 C 
ATOM      9  C   UNL d   1      -2.331  -1.303   0.011  0.00  0.00     0.274 C 
ATOM     10  C   UNL d   1      -0.797  -0.664  -1.008  0.00  0.00     0.274 C 
ATOM     11  C   UNL d   1      -1.294   0.604   0.419  0.00  0.00     0.041 C 
ATOM     12  C   UNL d   1      -2.742   0.366  -0.820  0.00  0.00     0.041 C 
ATOM     13  H   UNL d   1       3.321   0.567  -0.512  0.00  0.00     0.147 HD
ENDROOT
BRANCH   6  14
ATOM     14  C   UNL d   1       2.563  -1.570   1.382  0.00  0.00    -0.036 A 
ATOM     15  C   UNL d   1       2.929  -0.873   2.542  0.00  0.00     0.010 A 
ATOM     16  C   UNL d   1       3.044  -1.544   3.763  0.00  0.00     0.013 A 
ATOM     17  C   UNL d   1       2.802  -2.924   3.867  0.00  0.00    -0.026 A 
ATOM     18  C   UNL d   1       2.553  -3.628   2.676  0.00  0.00     0.013 A 
ATOM     19  C   UNL d   1       2.441  -2.964   1.448  0.00  0.00     0.010 A 
BRANCH  17  20
ATOM     20  C   UNL d   1       2.731  -3.598   5.183  0.00  0.00    -0.026 A 
ATOM     21  C   UNL d   1       3.206  -4.908   5.367  0.00  0.00     0.012 A 
ATOM     22  C   UNL d   1       3.104  -5.552   6.604  0.00  0.00     0.001 A 
ATOM     23  C   UNL d   1       2.530  -4.897   7.689  0.00  0.00     0.000 A 
ATOM     24  C   UNL d   1       2.047  -3.602   7.535  0.00  0.00     0.001 A 
ATOM     25  C   UNL d   1       2.142  -2.964   6.294  0.00  0.00     0.012 A 
ENDBRANCH  17  20
ENDBRANCH   6  14
TORSDOF 2
