REMARK  4 active torsions:
REMARK  status: ('A' for Active; 'I' for Inactive)
REMARK    1  A    between atoms: C_6  and  C_1 
REMARK    2  A    between atoms: C_8  and  C_2 
REMARK    3  A    between atoms: C_7  and  N_3 
REMARK    4  A    between atoms: O_15  and  C_6 
ROOT
ATOM      1  C   UNL d   1      -0.187  -1.148  -0.084  0.00  0.00     0.075 A 
ATOM      2  C   UNL d   1       1.144  -0.570  -0.131  0.00  0.00     0.051 A 
ATOM      3  N   UNL d   1      -0.356   1.106  -0.024  0.00  0.00    -0.348 N 
ATOM      4  C   UNL d   1      -1.080  -0.069  -0.038  0.00  0.00     0.026 A 
ATOM      5  C   UNL d   1       1.000   0.823  -0.050  0.00  0.00     0.023 A 
ATOM      6  C   UNL d   1      -2.581  -0.146  -0.045  0.00  0.00     0.069 C 
ATOM      7  C   UNL d   1       2.039   1.883   0.081  0.00  0.00     0.069 C 
ENDROOT
BRANCH   1   8
ATOM      8  C   UNL d   1      -0.663  -2.556  -0.117  0.00  0.00     0.179 C 
ATOM      9  O   UNL d   1      -1.852  -2.857  -0.141  0.00  0.00    -0.646 OA
BRANCH   8  10
ATOM     10  O   UNL d   1       0.257  -3.546  -0.135  0.00  0.00    -0.773 OA
ATOM     11  H   UNL d   1       1.181  -3.254   0.020  0.00  0.00     0.167 HD
ENDBRANCH   8  10
ENDBRANCH   1   8
BRANCH   2  12
ATOM     12  C   UNL d   1       2.411  -1.320  -0.204  0.00  0.00     0.158 C 
ATOM     13  O   UNL d   1       2.442  -2.495   0.176  0.00  0.00    -0.293 OA
ATOM     14  C   UNL d   1       3.675  -0.712  -0.743  0.00  0.00     0.097 C 
ENDBRANCH   2  12
BRANCH   3  15
ATOM     15  C   UNL d   1      -1.004   2.421  -0.014  0.00  0.00     0.090 A 
ATOM     16  C   UNL d   1      -0.755   3.407  -1.144  0.00  0.00     0.028 A 
ATOM     17  C   UNL d   1      -0.421   3.789   0.258  0.00  0.00     0.028 A 
ENDBRANCH   3  15
TORSDOF 4
