REMARK  3 active torsions:
REMARK  status: ('A' for Active; 'I' for Inactive)
REMARK    1  A    between atoms: C_2  and  S_1 
REMARK    2  A    between atoms: O_5  and  S_1 
REMARK    3  A    between atoms: C_7  and  O_5 
ROOT
ATOM      1  C   UNL d   1       0.181   4.872  -0.562  0.00  0.00     0.093 A 
ATOM      2  C   UNL d   1       1.503   5.257  -0.327  0.00  0.00     0.006 A 
ATOM      3  C   UNL d   1       0.794   2.572  -0.948  0.00  0.00     0.114 A 
ATOM      4  C   UNL d   1       1.757   6.656   0.056  0.00  0.00    -0.043 A 
ATOM      5  O   UNL d   1      -0.887   5.787  -0.496  0.00  0.00    -0.275 OA
ATOM      6  C   UNL d   1      -0.673   7.114  -0.173  0.00  0.00     0.288 A 
ATOM      7  C   UNL d   1      -0.182   3.561  -0.877  0.00  0.00     0.078 A 
ATOM      8  C   UNL d   1       0.713   7.497   0.120  0.00  0.00     0.090 A 
ATOM      9  C   UNL d   1       2.485   4.267  -0.466  0.00  0.00     0.041 A 
ATOM     10  C   UNL d   1       2.134   2.938  -0.775  0.00  0.00     0.069 A 
ATOM     11  O   UNL d   1      -1.581   7.934  -0.119  0.00  0.00    -0.260 OA
ATOM     12 CL   UNL d   1       3.399   1.769  -0.918  0.00  0.00    -0.081 Cl
ATOM     13  C   UNL d   1       3.122   7.170   0.412  0.00  0.00     0.049 C 
ENDROOT
BRANCH   3  14
ATOM     14  O   UNL d   1       0.488   1.256  -1.215  0.00  0.00    -0.227 OA
BRANCH  14  15
ATOM     15  S   UNL d   1      -0.849   0.582  -0.561  0.00  0.00     0.304 S 
ATOM     16  O   UNL d   1      -0.726   0.665   0.884  0.00  0.00    -0.193 OA
ATOM     17  O   UNL d   1      -2.034   1.087  -1.227  0.00  0.00    -0.193 OA
BRANCH  15  18
ATOM     18  C   UNL d   1      -0.783  -1.141  -0.977  0.00  0.00     0.110 A 
ATOM     19  C   UNL d   1      -1.004  -2.078   0.045  0.00  0.00     0.053 A 
ATOM     20  C   UNL d   1      -1.069  -3.441  -0.255  0.00  0.00     0.057 A 
ATOM     21 CL   UNL d   1      -1.366  -4.537   1.045  0.00  0.00    -0.083 Cl
ATOM     22  C   UNL d   1      -0.911  -3.868  -1.576  0.00  0.00     0.057 A 
ATOM     23  C   UNL d   1      -0.684  -2.930  -2.590  0.00  0.00     0.051 A 
ATOM     24 CL   UNL d   1      -0.997  -5.533  -2.027  0.00  0.00    -0.082 Cl
ATOM     25  C   UNL d   1      -0.620  -1.563  -2.296  0.00  0.00     0.059 A 
ATOM     26 CL   UNL d   1      -0.365  -0.491  -3.623  0.00  0.00    -0.083 Cl
ENDBRANCH  15  18
ENDBRANCH  14  15
ENDBRANCH   3  14
TORSDOF 3
