REMARK  7 active torsions:
REMARK  status: ('A' for Active; 'I' for Inactive)
REMARK    1  A    between atoms: C_3  and  S_1 
REMARK    2  A    between atoms: N_8  and  S_1 
REMARK       I    between atoms: C_2  and  N_4 
REMARK    3  A    between atoms: C_7  and  C_2 
REMARK    4  A    between atoms: N_4  and  N_9 
REMARK    5  A    between atoms: N_9  and  C_15 
REMARK    6  A    between atoms: C_21  and  C_20 
REMARK    7  A    between atoms: C_22  and  C_21 
ROOT
ATOM      1  N   UNL d   1      -3.153   4.665  -1.478  0.00  0.00    -0.203 NA
ATOM      2  H   UNL d   1      -4.103   4.949  -1.205  0.00  0.00     0.153 HD
ENDROOT
BRANCH   1   3
ATOM      3  N   UNL d   1      -2.283   5.772  -1.408  0.00  0.00    -0.283 N 
ATOM      4  C   UNL d   1      -2.873   7.028  -1.407  0.00  0.00     0.266 C 
ATOM      5  O   UNL d   1      -4.085   7.213  -1.363  0.00  0.00    -0.266 OA
ATOM      6  H   UNL d   1      -1.385   5.658  -1.867  0.00  0.00     0.184 HD
BRANCH   4   7
ATOM      7  C   UNL d   1      -1.924   8.169  -1.484  0.00  0.00     0.033 A 
ATOM      8  C   UNL d   1      -2.286   9.321  -2.188  0.00  0.00     0.017 A 
ATOM      9  C   UNL d   1      -1.399  10.402  -2.260  0.00  0.00     0.008 A 
ATOM     10  C   UNL d   1      -0.152  10.347  -1.619  0.00  0.00    -0.058 A 
ATOM     11  C   UNL d   1       0.184   9.201  -0.887  0.00  0.00     0.008 A 
ATOM     12  C   UNL d   1      -0.691   8.114  -0.825  0.00  0.00     0.017 A 
BRANCH  10  13
ATOM     13  C   UNL d   1       0.805  11.514  -1.702  0.00  0.00     0.038 C 
BRANCH  13  14
ATOM     14  C   UNL d   1       2.175  11.163  -2.297  0.00  0.00     0.000 C 
ATOM     15  C   UNL d   1       2.096  10.685  -3.740  0.00  0.00     0.005 C 
ENDBRANCH  13  14
ENDBRANCH  10  13
ENDBRANCH   4   7
ENDBRANCH   1   3
BRANCH   1  16
ATOM     16  C   UNL d   1      -2.704   3.530  -0.756  0.00  0.00     0.027 A 
ATOM     17  C   UNL d   1      -3.650   2.655  -0.194  0.00  0.00     0.026 A 
ATOM     18  C   UNL d   1      -3.257   1.457   0.418  0.00  0.00     0.026 A 
ATOM     19  C   UNL d   1      -1.905   1.113   0.451  0.00  0.00     0.074 A 
ATOM     20  C   UNL d   1      -0.951   1.952  -0.121  0.00  0.00     0.026 A 
ATOM     21  C   UNL d   1      -1.354   3.145  -0.729  0.00  0.00     0.026 A 
BRANCH  19  22
ATOM     22  S   UNL d   1      -1.404  -0.431   1.155  0.00  0.00     0.239 S 
ATOM     23  O   UNL d   1       0.041  -0.502   1.171  0.00  0.00    -0.206 OA
ATOM     24  O   UNL d   1      -2.227  -1.480   0.606  0.00  0.00    -0.206 OA
BRANCH  22  25
ATOM     25  N   UNL d   1      -1.854  -0.271   2.764  0.00  0.00    -0.225 NA
ATOM     26  H   UNL d   1      -1.018  -0.247   3.351  0.00  0.00     0.136 HD
ATOM     27  H   UNL d   1      -2.499  -1.024   3.010  0.00  0.00     0.136 HD
ENDBRANCH  22  25
ENDBRANCH  19  22
ENDBRANCH   1  16
TORSDOF 7
