REMARK  4 active torsions:
REMARK  status: ('A' for Active; 'I' for Inactive)
REMARK    1  A    between atoms: N_8  and  C_1 
REMARK    2  A    between atoms: C_6  and  C_2 
REMARK    3  A    between atoms: C_5  and  C_11 
REMARK    4  A    between atoms: C_12  and  N_10 
ROOT
ATOM      1  N   UNL d   1      -0.988  -2.895   0.078  0.00  0.00    -0.377 N 
ATOM      2  N   UNL d   1      -0.611  -5.700   0.345  0.00  0.00    -0.364 N 
ATOM      3  C   UNL d   1      -0.446  -3.430   1.348  0.00  0.00     0.143 C 
ATOM      4  C   UNL d   1      -1.987  -3.808  -0.519  0.00  0.00     0.143 C 
ATOM      5  C   UNL d   1       0.266  -4.768   1.069  0.00  0.00     0.144 C 
ATOM      6  C   UNL d   1      -1.313  -5.172  -0.833  0.00  0.00     0.144 C 
ENDROOT
BRANCH   1   7
ATOM      7  C   UNL d   1      -1.106  -1.517  -0.104  0.00  0.00     0.045 A 
ATOM      8  C   UNL d   1      -1.297  -0.669   0.994  0.00  0.00     0.064 A 
ATOM      9  C   UNL d   1      -1.275   0.713   0.829  0.00  0.00     0.119 A 
ATOM     10  N   UNL d   1      -1.103   1.287  -0.388  0.00  0.00    -0.352 N 
ATOM     11  C   UNL d   1      -0.933   0.499  -1.457  0.00  0.00     0.045 A 
ATOM     12  HN  UNL d   1      -1.102   2.302  -0.487  1.00  0.00     0.166 HD
ATOM     13  C   UNL d   1      -0.927  -0.914  -1.384  0.00  0.00     0.017 A 
ATOM     14  C   UNL d   1      -0.721   1.119  -2.681  0.00  0.00     0.030 A 
ATOM     15  C   UNL d   1      -0.685  -1.633  -2.583  0.00  0.00     0.016 A 
ATOM     16  C   UNL d   1      -0.500  -0.989  -3.806  0.00  0.00     0.001 A 
ATOM     17  C   UNL d   1      -0.512   0.394  -3.854  0.00  0.00     0.002 A 
BRANCH   9  18
ATOM     18  C   UNL d   1      -1.411   1.596   2.061  0.00  0.00     0.432 C 
ATOM     19  F   UNL d   1      -1.280   2.931   1.819  0.00  0.00    -0.165 F 
ATOM     20  F   UNL d   1      -2.618   1.447   2.681  0.00  0.00    -0.165 F 
ATOM     21  F   UNL d   1      -0.477   1.302   3.016  0.00  0.00    -0.165 F 
ENDBRANCH   9  18
ENDBRANCH   1   7
BRANCH   2  22
ATOM     22  C   UNL d   1      -0.758  -6.981   0.806  0.00  0.00     0.103 A 
ATOM     23  N   UNL d   1      -0.655  -7.194   2.138  0.00  0.00    -0.352 N 
ATOM     24  C   UNL d   1      -0.832  -8.444   2.619  0.00  0.00     0.106 A 
ATOM     25  HN  UNL d   1      -0.448  -6.421   2.770  1.00  0.00     0.166 HD
ATOM     26  C   UNL d   1      -1.098  -9.550   1.831  0.00  0.00     0.063 A 
ATOM     27  C   UNL d   1      -1.171  -9.338   0.456  0.00  0.00     0.021 A 
ATOM     28  C   UNL d   1      -1.009  -8.050  -0.052  0.00  0.00     0.049 A 
BRANCH  26  29
ATOM     29  C   UNL d   1      -1.292 -10.902   2.434  0.00  0.00     0.418 C 
ATOM     30  F   UNL d   1      -1.232 -10.911   3.795  0.00  0.00    -0.166 F 
ATOM     31  F   UNL d   1      -2.501 -11.443   2.114  0.00  0.00    -0.166 F 
ATOM     32  F   UNL d   1      -0.360 -11.801   2.014  0.00  0.00    -0.166 F 
ENDBRANCH  26  29
ENDBRANCH   2  22
TORSDOF 4
