REMARK  5 active torsions:
REMARK  status: ('A' for Active; 'I' for Inactive)
REMARK    1  A    between atoms: C_2  and  S_1 
REMARK    2  A    between atoms: N_4  and  S_1 
REMARK    3  A    between atoms: C_6  and  N_4 
REMARK    4  A    between atoms: C_13  and  C_5 
REMARK    5  A    between atoms: N_8  and  C_10 
ROOT
ATOM      1  S   UNL d   1      -0.478   0.439  -0.127  0.00  0.00     0.252 S 
ATOM      2  O   UNL d   1      -0.612  -0.674   0.787  0.00  0.00    -0.205 OA
ATOM      3  O   UNL d   1       0.336   1.590   0.200  0.00  0.00    -0.205 OA
ENDROOT
BRANCH   1   4
ATOM      4  C   UNL d   1      -2.126   1.091  -0.313  0.00  0.00     0.116 A 
ATOM      5  S   UNL d   1      -3.339  -0.020  -0.778  0.00  0.00    -0.075 SA
ATOM      6  C   UNL d   1      -4.554   1.196  -0.831  0.00  0.00     0.033 A 
ATOM      7  C   UNL d   1      -4.027   2.423  -0.460  0.00  0.00     0.023 A 
ATOM      8  C   UNL d   1      -2.637   2.362  -0.159  0.00  0.00     0.034 A 
BRANCH   6   9
ATOM      9  C   UNL d   1      -5.916   0.899  -1.295  0.00  0.00     0.049 A 
ATOM     10  N   UNL d   1      -6.513   1.943  -1.928  0.00  0.00    -0.365 N 
ATOM     11  C   UNL d   1      -7.737   1.732  -2.458  0.00  0.00     0.088 A 
ATOM     12  HN  UNL d   1      -6.055   2.851  -2.001  1.00  0.00     0.165 HD
ATOM     13  C   UNL d   1      -8.411   0.526  -2.388  0.00  0.00     0.017 A 
ATOM     14  C   UNL d   1      -7.802  -0.524  -1.709  0.00  0.00     0.004 A 
ATOM     15  C   UNL d   1      -6.539  -0.337  -1.151  0.00  0.00     0.031 A 
ENDBRANCH   6   9
ENDBRANCH   1   4
BRANCH   1  16
ATOM     16  N   UNL d   1      -0.031  -0.233  -1.609  0.00  0.00    -0.179 NA
ATOM     17  H   UNL d   1       0.415  -1.125  -1.436  0.00  0.00     0.146 HD
BRANCH  16  18
ATOM     18  C   UNL d   1       0.636   0.595  -2.568  0.00  0.00     0.049 A 
ATOM     19  C   UNL d   1       2.029   0.877  -2.516  0.00  0.00     0.052 A 
ATOM     20  C   UNL d   1       2.529   1.715  -3.535  0.00  0.00     0.031 A 
ATOM     21  C   UNL d   1       1.709   2.258  -4.531  0.00  0.00     0.002 A 
ATOM     22  C   UNL d   1       0.348   1.984  -4.537  0.00  0.00     0.002 A 
ATOM     23  C   UNL d   1      -0.187   1.156  -3.555  0.00  0.00     0.027 A 
BRANCH  19  24
ATOM     24  N   UNL d   1       2.857   0.438  -1.483  0.00  0.00    -0.375 N 
ATOM     25  C   UNL d   1       4.082   1.205  -1.156  0.00  0.00     0.149 C 
ATOM     26  C   UNL d   1       4.461   0.949   0.313  0.00  0.00     0.187 C 
ATOM     27  O   UNL d   1       4.625  -0.455   0.585  0.00  0.00    -0.388 OA
ATOM     28  C   UNL d   1       3.417  -1.169   0.261  0.00  0.00     0.187 C 
ATOM     29  C   UNL d   1       3.061  -0.998  -1.228  0.00  0.00     0.149 C 
ENDBRANCH  19  24
ENDBRANCH  16  18
ENDBRANCH   1  16
TORSDOF 5
