REMARK  2 active torsions:
REMARK  status: ('A' for Active; 'I' for Inactive)
REMARK       I    between atoms: N_2  and  C_1 
REMARK       I    between atoms: N_6  and  C_1 
REMARK    1  A    between atoms: C_3  and  N_2 
REMARK    2  A    between atoms: C_10  and  N_6 
ROOT
ATOM      1  C   UNL d   1       1.069  -0.074   0.122  0.00  0.00     0.325 C 
ATOM      2  N   UNL d   1       2.403  -0.105  -0.261  0.00  0.00    -0.307 N 
ATOM      3  N   UNL d   1       0.298  -0.812  -0.754  0.00  0.00    -0.309 N 
ATOM      4  O   UNL d   1       0.648   0.556   1.086  0.00  0.00    -0.247 OA
ATOM      5  H   UNL d   1       2.547  -0.186  -1.260  0.00  0.00     0.170 HD
ATOM      6  H   UNL d   1       0.785  -1.532  -1.265  0.00  0.00     0.170 HD
ENDROOT
BRANCH   2   7
ATOM      7  C   UNL d   1       3.422   0.591   0.434  0.00  0.00     0.058 A 
ATOM      8  C   UNL d   1       4.455   1.207  -0.293  0.00  0.00     0.062 A 
ATOM      9  C   UNL d   1       5.436   1.956   0.357  0.00  0.00     0.050 A 
ATOM     10 CL   UNL d   1       4.503   1.111  -2.020  0.00  0.00    -0.082 Cl
ATOM     11  C   UNL d   1       5.408   2.062   1.746  0.00  0.00     0.035 A 
ATOM     12  C   UNL d   1       4.418   1.421   2.485  0.00  0.00     0.026 A 
ATOM     13 CL   UNL d   1       6.605   2.997   2.554  0.00  0.00    -0.084 Cl
ATOM     14  C   UNL d   1       3.425   0.687   1.830  0.00  0.00     0.033 A 
ENDBRANCH   2   7
BRANCH   3  15
ATOM     15  C   UNL d   1      -1.112  -0.818  -0.836  0.00  0.00     0.039 A 
ATOM     16  C   UNL d   1      -1.925   0.117  -0.189  0.00  0.00     0.069 A 
ATOM     17  C   UNL d   1      -3.312   0.051  -0.313  0.00  0.00     0.104 A 
ATOM     18  O   UNL d   1      -4.037   0.987   0.381  0.00  0.00    -0.346 OA
ATOM     19  C   UNL d   1      -3.903  -0.927  -1.117  0.00  0.00     0.102 A 
ATOM     20  C   UNL d   1      -5.405   0.592   0.506  0.00  0.00     0.202 C 
ATOM     21  C   UNL d   1      -5.951   0.127  -0.834  0.00  0.00     0.202 C 
ATOM     22  O   UNL d   1      -5.257  -1.039  -1.297  0.00  0.00    -0.346 OA
ATOM     23  C   UNL d   1      -3.103  -1.856  -1.774  0.00  0.00     0.042 A 
ATOM     24  C   UNL d   1      -1.711  -1.800  -1.636  0.00  0.00     0.032 A 
ENDBRANCH   3  15
TORSDOF 2
