REMARK  7 active torsions:
REMARK  status: ('A' for Active; 'I' for Inactive)
REMARK       I    between atoms: N_2  and  C_1 
REMARK       I    between atoms: N_4  and  C_1 
REMARK       I    between atoms: C_3  and  N_5 
REMARK    1  A    between atoms: O_6  and  C_3 
REMARK    2  A    between atoms: C_14  and  N_4 
REMARK    3  A    between atoms: N_5  and  C_15 
REMARK    4  A    between atoms: C_11  and  O_6 
REMARK    5  A    between atoms: O_16  and  C_17 
REMARK    6  A    between atoms: C_18  and  O_16 
REMARK    7  A    between atoms: C_23  and  C_18 
ROOT
ATOM      1  C   UNL d   1       1.169  -0.150   0.442  0.00  0.00     0.322 C 
ATOM      2  N   UNL d   1       0.940  -0.651  -0.843  0.00  0.00    -0.334 N 
ATOM      3  N   UNL d   1       1.837  -0.994   1.309  0.00  0.00    -0.309 N 
ATOM      4  O   UNL d   1       0.801   0.983   0.744  0.00  0.00    -0.247 OA
ATOM      5  C   UNL d   1       0.179   0.158  -1.791  0.00  0.00     0.129 C 
ATOM      6  C   UNL d   1       1.259  -1.964  -1.386  0.00  0.00     0.129 C 
ATOM      7  C   UNL d   1      -1.173  -0.482  -2.095  0.00  0.00     0.045 C 
ATOM      8  C   UNL d   1      -0.013  -2.776  -1.563  0.00  0.00     0.045 C 
ATOM      9  C   UNL d   1      -1.163  -2.011  -2.244  0.00  0.00     0.089 C 
ATOM     10  H   UNL d   1       2.129  -1.885   0.953  0.00  0.00     0.170 HD
ENDROOT
BRANCH   3  11
ATOM     11  C   UNL d   1       2.305  -0.692   2.615  0.00  0.00     0.036 A 
ATOM     12  C   UNL d   1       1.951   0.450   3.335  0.00  0.00     0.032 A 
ATOM     13  C   UNL d   1       2.527   0.723   4.587  0.00  0.00     0.039 A 
ATOM     14  C   UNL d   1       3.477  -0.139   5.133  0.00  0.00     0.069 A 
ATOM     15  C   UNL d   1       3.786  -1.314   4.451  0.00  0.00     0.039 A 
ATOM     16  C   UNL d   1       3.203  -1.591   3.204  0.00  0.00     0.032 A 
BRANCH  14  17
ATOM     17  O   UNL d   1       4.128   0.053   6.325  0.00  0.00    -0.347 OA
BRANCH  17  18
ATOM     18  C   UNL d   1       4.323   1.424   6.699  0.00  0.00     0.214 C 
BRANCH  18  19
ATOM     19  C   UNL d   1       5.156   1.557   7.958  0.00  0.00    -0.034 A 
ATOM     20  C   UNL d   1       5.940   2.708   8.153  0.00  0.00     0.009 A 
ATOM     21  C   UNL d   1       6.641   2.904   9.344  0.00  0.00     0.001 A 
ATOM     22  C   UNL d   1       6.562   1.952  10.361  0.00  0.00     0.000 A 
ATOM     23  C   UNL d   1       5.787   0.812  10.183  0.00  0.00     0.001 A 
ATOM     24  C   UNL d   1       5.086   0.614   8.994  0.00  0.00     0.009 A 
ENDBRANCH  18  19
ENDBRANCH  17  18
ENDBRANCH  14  17
ENDBRANCH   3  11
BRANCH   9  25
ATOM     25  N   UNL d   1      -1.492  -2.516  -3.579  0.00  0.00    -0.332 N 
ATOM     26  C   UNL d   1      -0.877  -2.471  -4.791  0.00  0.00     0.361 C 
ATOM     27  O   UNL d   1      -1.386  -3.060  -5.736  0.00  0.00    -0.238 OA
ATOM     28  H   UNL d   1      -2.342  -3.063  -3.651  0.00  0.00     0.165 HD
BRANCH  26  29
ATOM     29  O   UNL d   1       0.265  -1.743  -4.840  0.00  0.00    -0.294 OA
BRANCH  29  30
ATOM     30  C   UNL d   1       0.931  -1.590  -6.133  0.00  0.00     0.061 C 
ATOM     31  C   UNL d   1      -0.007  -1.008  -7.210  0.00  0.00     0.046 C 
ATOM     32  C   UNL d   1       2.071  -0.590  -5.890  0.00  0.00     0.046 C 
ATOM     33  C   UNL d   1       1.542  -2.918  -6.607  0.00  0.00     0.046 C 
ENDBRANCH  29  30
ENDBRANCH  26  29
ENDBRANCH   9  25
TORSDOF 7
