REMARK  5 active torsions:
REMARK  status: ('A' for Active; 'I' for Inactive)
REMARK    1  A    between atoms: C_20  and  N_1 
REMARK    2  A    between atoms: N_18  and  C_6 
REMARK    3  A    between atoms: N_12  and  N_18 
REMARK    4  A    between atoms: C_14  and  C_16 
REMARK    5  A    between atoms: C_23  and  C_20 
ROOT
ATOM      1  N   UNL d   1       1.601   1.036  -0.004  0.00  0.00    -0.314 N 
ATOM      2  C   UNL d   1       2.614   0.083  -0.026  0.00  0.00     0.147 A 
ATOM      3  C   UNL d   1       0.275  -0.873  -0.071  0.00  0.00     0.092 A 
ATOM      4  C   UNL d   1       0.288   0.504  -0.016  0.00  0.00     0.131 A 
ATOM      5  S   UNL d   1       1.901  -1.546  -0.082  0.00  0.00    -0.053 SA
ATOM      6  C   UNL d   1      -0.953  -1.502  -0.082  0.00  0.00     0.120 A 
ATOM      7  N   UNL d   1      -0.813   1.260   0.017  0.00  0.00    -0.337 N 
ATOM      8  HN  UNL d   1      -0.783   2.279   0.047  1.00  0.00     0.168 HD
ATOM      9  N   UNL d   1      -2.088  -0.771  -0.044  0.00  0.00    -0.341 N 
ATOM     10  HN  UNL d   1      -3.005  -1.216  -0.053  1.00  0.00     0.167 HD
ATOM     11  S   UNL d   1       4.264   0.320  -0.018  0.00  0.00    -0.052 SA
ATOM     12  C   UNL d   1      -1.962   0.567   0.008  0.00  0.00     0.183 A 
ENDROOT
BRANCH   6  13
ATOM     13  N   UNL d   1      -0.997  -2.919  -0.224  0.00  0.00    -0.189 NA
ATOM     14  H   UNL d   1      -0.096  -3.322   0.041  0.00  0.00     0.154 HD
BRANCH  13  15
ATOM     15  N   UNL d   1      -2.105  -3.540   0.285  0.00  0.00    -0.324 N 
ATOM     16  C   UNL d   1      -2.093  -4.832   0.181  0.00  0.00     0.139 C 
ATOM     17  HN  UNL d   1      -2.877  -3.028   0.712  1.00  0.00     0.180 HD
BRANCH  16  18
ATOM     18  C   UNL d   1      -3.148  -5.623   0.745  0.00  0.00     0.091 A 
ATOM     19  O   UNL d   1      -3.086  -6.981   0.602  0.00  0.00    -0.321 OA
ATOM     20  C   UNL d   1      -4.173  -7.498   1.232  0.00  0.00     0.142 A 
ATOM     21  C   UNL d   1      -4.933  -6.494   1.784  0.00  0.00     0.027 A 
ATOM     22  C   UNL d   1      -4.274  -5.283   1.469  0.00  0.00     0.040 A 
ENDBRANCH  16  18
ENDBRANCH  13  15
ENDBRANCH   6  13
BRANCH   1  23
ATOM     23  C   UNL d   1       1.794   2.479  -0.060  0.00  0.00     0.158 C 
BRANCH  23  24
ATOM     24  C   UNL d   1       2.014   3.117   1.285  0.00  0.00    -0.017 C 
ATOM     25  C   UNL d   1       1.932   2.567   2.505  0.00  0.00     0.008 C 
ENDBRANCH  23  24
ENDBRANCH   1  23
TORSDOF 5
