REMARK  5 active torsions:
REMARK  status: ('A' for Active; 'I' for Inactive)
REMARK    1  A    between atoms: N_2  and  C_1 
REMARK    2  A    between atoms: N_5  and  C_1 
REMARK    3  A    between atoms: C_3  and  N_2 
REMARK    4  A    between atoms: C_14  and  N_5 
REMARK    5  A    between atoms: C_16  and  C_9 
ROOT
ATOM      1  C   UNL d   1       0.958  -0.045  -0.530  0.00  0.00     0.172 C 
ATOM      2  S   UNL d   1       0.614   1.395   0.248  0.00  0.00    -0.041 SA
ENDROOT
BRANCH   1   3
ATOM      3  N   UNL d   1       2.209  -0.416  -0.985  0.00  0.00    -0.362 N 
ATOM      4  H   UNL d   1       2.194  -1.082  -1.746  0.00  0.00     0.162 HD
BRANCH   3   5
ATOM      5  C   UNL d   1       3.475   0.247  -0.698  0.00  0.00     0.088 C 
ATOM      6  C   UNL d   1       3.942   0.029   0.768  0.00  0.00     0.009 C 
ATOM      7  C   UNL d   1       5.458   0.188   0.648  0.00  0.00     0.011 C 
ATOM      8  C   UNL d   1       3.839  -1.460   1.149  0.00  0.00     0.007 C 
ATOM      9  C   UNL d   1       5.579  -0.899  -0.419  0.00  0.00    -0.012 C 
ATOM     10  C   UNL d   1       4.642  -0.355  -1.510  0.00  0.00     0.030 C 
ATOM     11  C   UNL d   1       4.910  -2.108   0.263  0.00  0.00     0.005 C 
ENDBRANCH   3   5
ENDBRANCH   1   3
BRANCH   1  12
ATOM     12  N   UNL d   1       0.074  -1.100  -0.727  0.00  0.00    -0.333 N 
ATOM     13  H   UNL d   1       0.454  -1.997  -0.454  0.00  0.00     0.168 HD
BRANCH  12  14
ATOM     14  C   UNL d   1      -1.325  -1.021  -0.841  0.00  0.00     0.034 A 
ATOM     15  C   UNL d   1      -1.928   0.026  -1.533  0.00  0.00     0.030 A 
ATOM     16  C   UNL d   1      -3.313   0.052  -1.703  0.00  0.00     0.010 A 
ATOM     17  C   UNL d   1      -4.114  -0.970  -1.183  0.00  0.00    -0.055 A 
ATOM     18  C   UNL d   1      -3.501  -2.025  -0.491  0.00  0.00     0.010 A 
ATOM     19  C   UNL d   1      -2.109  -2.061  -0.339  0.00  0.00     0.030 A 
BRANCH  17  20
ATOM     20  C   UNL d   1      -5.616  -0.958  -1.399  0.00  0.00     0.010 C 
ATOM     21  C   UNL d   1      -6.262   0.307  -0.830  0.00  0.00     0.015 C 
ATOM     22  C   UNL d   1      -5.941  -1.116  -2.889  0.00  0.00     0.015 C 
ENDBRANCH  17  20
ENDBRANCH  12  14
ENDBRANCH   1  12
TORSDOF 5
