REMARK  10 active torsions:
REMARK  status: ('A' for Active; 'I' for Inactive)
REMARK    1  A    between atoms: N_7  and  C_3 
REMARK    2  A    between atoms: N_8  and  C_4 
REMARK    3  A    between atoms: S_21  and  C_19 
REMARK    4  A    between atoms: S_22  and  C_20 
REMARK    5  A    between atoms: C_23  and  S_21 
REMARK    6  A    between atoms: C_24  and  S_22 
REMARK    7  A    between atoms: C_25  and  C_23 
REMARK    8  A    between atoms: C_26  and  C_24 
REMARK    9  A    between atoms: C_27  and  C_25 
REMARK   10  A    between atoms: C_28  and  C_26 
ROOT
ATOM      1  C   UNL d   1      -0.743   0.831   0.010  0.00  0.00     0.025 A 
ATOM      2  C   UNL d   1       0.727   0.814   0.020  0.00  0.00     0.025 A 
ATOM      3  C   UNL d   1      -1.744   1.794  -0.079  0.00  0.00     0.116 A 
ATOM      4  C   UNL d   1       1.735   1.756   0.160  0.00  0.00     0.116 A 
ATOM      5  C   UNL d   1       1.169  -0.521  -0.089  0.00  0.00     0.030 A 
ATOM      6  C   UNL d   1      -1.196  -0.508   0.015  0.00  0.00     0.030 A 
ATOM      7  C   UNL d   1      -0.018  -1.401  -0.051  0.00  0.00     0.194 A 
ATOM      8  C   UNL d   1       3.094   1.400   0.021  0.00  0.00     0.055 A 
ATOM      9  C   UNL d   1      -3.107   1.433  -0.073  0.00  0.00     0.055 A 
ATOM     10  C   UNL d   1      -2.533  -0.908   0.009  0.00  0.00     0.035 A 
ATOM     11  C   UNL d   1       2.503  -0.928  -0.167  0.00  0.00     0.035 A 
ATOM     12  O   UNL d   1      -0.023  -2.605  -0.070  0.00  0.00    -0.287 OA
ATOM     13  C   UNL d   1      -3.506   0.089  -0.009  0.00  0.00     0.004 A 
ATOM     14  C   UNL d   1       3.484   0.063  -0.169  0.00  0.00     0.004 A 
ENDROOT
BRANCH  13  15
ATOM     15  S   UNL d   1      -5.253  -0.233  -0.143  0.00  0.00    -0.130 SA
BRANCH  15  16
ATOM     16  C   UNL d   1      -5.612  -1.131   1.406  0.00  0.00     0.079 C 
BRANCH  16  17
ATOM     17  C   UNL d   1      -7.118  -1.409   1.452  0.00  0.00     0.010 C 
BRANCH  17  18
ATOM     18  C   UNL d   1      -7.508  -2.194   2.704  0.00  0.00    -0.004 C 
ATOM     19  C   UNL d   1      -9.005  -2.467   2.735  0.00  0.00     0.005 C 
ENDBRANCH  17  18
ENDBRANCH  16  17
ENDBRANCH  15  16
ENDBRANCH  13  15
BRANCH   3  20
ATOM     20  N   UNL d   1      -1.483   3.188  -0.358  0.00  0.00    -0.115 N 
ATOM     21  O   UNL d   1      -0.915   3.441  -1.424  0.00  0.00    -0.532 OA
ATOM     22  O   UNL d   1      -1.911   4.015   0.461  0.00  0.00    -0.532 OA
ENDBRANCH   3  20
BRANCH   4  23
ATOM     23  N   UNL d   1       1.469   3.075   0.682  0.00  0.00    -0.115 N 
ATOM     24  O   UNL d   1       1.036   3.133   1.833  0.00  0.00    -0.532 OA
ATOM     25  O   UNL d   1       1.721   4.037  -0.059  0.00  0.00    -0.532 OA
ENDBRANCH   4  23
BRANCH  14  26
ATOM     26  S   UNL d   1       5.244  -0.228  -0.253  0.00  0.00    -0.130 SA
BRANCH  26  27
ATOM     27  C   UNL d   1       5.405  -1.741  -1.261  0.00  0.00     0.079 C 
BRANCH  27  28
ATOM     28  C   UNL d   1       6.896  -2.049  -1.431  0.00  0.00     0.010 C 
BRANCH  28  29
ATOM     29  C   UNL d   1       7.114  -3.320  -2.253  0.00  0.00    -0.004 C 
ATOM     30  C   UNL d   1       8.595  -3.626  -2.416  0.00  0.00     0.005 C 
ENDBRANCH  28  29
ENDBRANCH  27  28
ENDBRANCH  26  27
ENDBRANCH  14  26
TORSDOF 10
