REMARK  4 active torsions:
REMARK  status: ('A' for Active; 'I' for Inactive)
REMARK    1  A    between atoms: O_5  and  C_1 
REMARK    2  A    between atoms: S_2  and  O_5 
REMARK    3  A    between atoms: C_9  and  S_2 
REMARK    4  A    between atoms: C_12  and  C_3 
ROOT
ATOM      1  C   UNL d   1      -2.309  -0.205   0.033  0.00  0.00     0.175 C 
ATOM      2  C   UNL d   1      -1.843  -1.469  -0.036  0.00  0.00     0.125 C 
ATOM      3  C   UNL d   1      -1.293   0.869   0.234  0.00  0.00     0.222 C 
ATOM      4  O   UNL d   1      -0.513  -1.844   0.034  0.00  0.00    -0.306 OA
ATOM      5  C   UNL d   1       0.119   0.486   0.085  0.00  0.00     0.051 A 
ATOM      6  C   UNL d   1       0.439  -0.863   0.027  0.00  0.00     0.090 A 
ATOM      7  O   UNL d   1      -1.575   2.015   0.553  0.00  0.00    -0.284 OA
ATOM      8  C   UNL d   1       1.127   1.455   0.051  0.00  0.00     0.018 A 
ATOM      9  C   UNL d   1       1.774  -1.262  -0.027  0.00  0.00     0.038 A 
ATOM     10  C   UNL d   1       2.463   1.058  -0.016  0.00  0.00     0.001 A 
ATOM     11  C   UNL d   1       2.787  -0.299  -0.043  0.00  0.00     0.003 A 
ENDROOT
BRANCH   1  12
ATOM     12  O   UNL d   1      -3.672   0.054  -0.057  0.00  0.00    -0.222 OA
BRANCH  12  13
ATOM     13  S   UNL d   1      -4.350   1.538   0.002  0.00  0.00     0.303 S 
ATOM     14  O   UNL d   1      -4.530   1.915   1.390  0.00  0.00    -0.193 OA
ATOM     15  O   UNL d   1      -3.743   2.409  -0.988  0.00  0.00    -0.193 OA
BRANCH  13  16
ATOM     16  C   UNL d   1      -5.985   1.238  -0.661  0.00  0.00     0.086 A 
ATOM     17  C   UNL d   1      -7.132   1.502   0.094  0.00  0.00     0.027 A 
ATOM     18  C   UNL d   1      -8.387   1.346  -0.500  0.00  0.00     0.020 A 
ATOM     19  C   UNL d   1      -8.483   0.935  -1.833  0.00  0.00     0.011 A 
ATOM     20  C   UNL d   1      -7.336   0.672  -2.582  0.00  0.00     0.020 A 
ATOM     21 BR   UNL d   1     -10.182   0.752  -2.642  0.00  0.00    -0.051 Br
ATOM     22  C   UNL d   1      -6.081   0.824  -1.996  0.00  0.00     0.027 A 
ENDBRANCH  13  16
ENDBRANCH  12  13
ENDBRANCH   1  12
BRANCH   2  23
ATOM     23  C   UNL d   1      -2.733  -2.631  -0.167  0.00  0.00     0.001 A 
ATOM     24  C   UNL d   1      -3.095  -3.113  -1.432  0.00  0.00     0.014 A 
ATOM     25  C   UNL d   1      -3.883  -4.260  -1.548  0.00  0.00     0.001 A 
ATOM     26  C   UNL d   1      -4.314  -4.931  -0.403  0.00  0.00     0.000 A 
ATOM     27  C   UNL d   1      -3.962  -4.455   0.859  0.00  0.00     0.001 A 
ATOM     28  C   UNL d   1      -3.174  -3.308   0.978  0.00  0.00     0.014 A 
ENDBRANCH   2  23
TORSDOF 4
