REMARK  4 active torsions:
REMARK  status: ('A' for Active; 'I' for Inactive)
REMARK    1  A    between atoms: C_3  and  C_1 
REMARK    2  A    between atoms: C_9  and  C_2 
REMARK    3  A    between atoms: O_15  and  C_9 
REMARK    4  A    between atoms: C_17  and  O_15 
ROOT
ATOM      1  C   UNL d   1      -1.303  -0.857   0.015  0.00  0.00     0.150 A 
ATOM      2  C   UNL d   1       0.006  -1.310   0.022  0.00  0.00     0.102 A 
ATOM      3  O   UNL d   1      -1.277   0.510  -0.043  0.00  0.00    -0.234 OA
ATOM      4  N   UNL d   1       0.021   0.968  -0.021  0.00  0.00    -0.264 N 
ATOM      5  HN  UNL d   1       0.331   1.940  -0.039  1.00  0.00     0.194 HD
ATOM      6  C   UNL d   1       0.792  -0.123   0.030  0.00  0.00     0.048 A 
ATOM      7  C   UNL d   1       2.267   0.037   0.025  0.00  0.00     0.071 C 
ENDROOT
BRANCH   1   8
ATOM      8  C   UNL d   1      -2.541  -1.576   0.074  0.00  0.00     0.113 A 
ATOM      9  O   UNL d   1      -2.678  -2.778   0.718  0.00  0.00    -0.300 OA
ATOM     10  C   UNL d   1      -3.973  -3.166   0.602  0.00  0.00     0.122 A 
ATOM     11 BR   UNL d   1      -4.667  -4.740   1.323  0.00  0.00    -0.023 Br
ATOM     12  C   UNL d   1      -4.692  -2.235  -0.113  0.00  0.00     0.048 A 
ATOM     13  C   UNL d   1      -3.772  -1.210  -0.445  0.00  0.00     0.043 A 
ENDBRANCH   1   8
BRANCH   2  14
ATOM     14  C   UNL d   1       0.477  -2.674  -0.037  0.00  0.00     0.298 C 
ATOM     15  O   UNL d   1       1.586  -3.017   0.353  0.00  0.00    -0.259 OA
BRANCH  14  16
ATOM     16  O   UNL d   1      -0.376  -3.482  -0.728  0.00  0.00    -0.318 OA
BRANCH  16  17
ATOM     17  C   UNL d   1       0.182  -4.700  -1.233  0.00  0.00     0.174 C 
ATOM     18  C   UNL d   1       0.801  -4.405  -2.588  0.00  0.00     0.034 C 
ENDBRANCH  16  17
ENDBRANCH  14  16
ENDBRANCH   2  14
TORSDOF 4
