REMARK  6 active torsions:
REMARK  status: ('A' for Active; 'I' for Inactive)
REMARK    1  A    between atoms: S_8  and  C_3 
REMARK    2  A    between atoms: C_10  and  C_5 
REMARK    3  A    between atoms: C_15  and  S_8 
REMARK    4  A    between atoms: C_9  and  C_15 
REMARK    5  A    between atoms: O_16  and  C_9 
REMARK    6  A    between atoms: C_18  and  O_16 
ROOT
ATOM      1  N   UNL d   1      -1.525  -1.148   0.010  0.00  0.00    -0.347 N 
ATOM      2  HN  UNL d   1      -2.043  -2.026   0.033  1.00  0.00     0.167 HD
ATOM      3  C   UNL d   1      -0.164  -1.131   0.014  0.00  0.00     0.091 A 
ATOM      4  C   UNL d   1       0.576   0.053   0.010  0.00  0.00     0.078 A 
ATOM      5  C   UNL d   1      -2.168   0.046  -0.028  0.00  0.00     0.079 A 
ATOM      6  C   UNL d   1       2.009   0.073   0.034  0.00  0.00     0.102 C 
ATOM      7  N   UNL d   1       3.165   0.136   0.064  0.00  0.00    -0.191 NA
ATOM      8  C   UNL d   1      -0.116   1.268  -0.015  0.00  0.00     0.028 A 
ATOM      9  C   UNL d   1      -1.507   1.268  -0.037  0.00  0.00     0.035 A 
ENDROOT
BRANCH   3  10
ATOM     10  S   UNL d   1       0.643  -2.733   0.079  0.00  0.00    -0.101 SA
BRANCH  10  11
ATOM     11  C   UNL d   1      -0.596  -3.781  -0.742  0.00  0.00     0.191 C 
BRANCH  11  12
ATOM     12  C   UNL d   1      -0.923  -3.329  -2.151  0.00  0.00     0.268 C 
ATOM     13  O   UNL d   1      -0.445  -2.374  -2.747  0.00  0.00    -0.264 OA
BRANCH  12  14
ATOM     14  O   UNL d   1      -1.902  -4.146  -2.647  0.00  0.00    -0.321 OA
BRANCH  14  15
ATOM     15  C   UNL d   1      -2.553  -3.684  -3.839  0.00  0.00     0.174 C 
ATOM     16  C   UNL d   1      -3.730  -2.820  -3.426  0.00  0.00     0.034 C 
ENDBRANCH  14  15
ENDBRANCH  12  14
ENDBRANCH  11  12
ENDBRANCH  10  11
ENDBRANCH   3  10
BRANCH   5  17
ATOM     17  C   UNL d   1      -3.661   0.032  -0.058  0.00  0.00     0.172 C 
ATOM     18  O   UNL d   1      -4.285   1.094  -0.085  0.00  0.00    -0.291 OA
ATOM     19  C   UNL d   1      -4.386  -1.288  -0.055  0.00  0.00     0.098 C 
ENDBRANCH   5  17
TORSDOF 6
