REMARK  7 active torsions:
REMARK  status: ('A' for Active; 'I' for Inactive)
REMARK    1  A    between atoms: S_7  and  C_1 
REMARK    2  A    between atoms: C_14  and  S_7 
REMARK    3  A    between atoms: C_8  and  C_10 
REMARK    4  A    between atoms: O_19  and  C_8 
REMARK    5  A    between atoms: C_9  and  C_14 
REMARK       I    between atoms: N_11  and  C_9 
REMARK    6  A    between atoms: C_17  and  N_11 
REMARK    7  A    between atoms: C_22  and  O_19 
ROOT
ATOM      1  C   UNL d   1      -2.092  -6.579  -0.717  0.00  0.00     0.231 C 
ATOM      2  N   UNL d   1      -1.496  -5.571   0.023  0.00  0.00    -0.327 N 
ATOM      3  O   UNL d   1      -1.487  -7.458  -1.330  0.00  0.00    -0.272 OA
ATOM      4  H   UNL d   1      -2.109  -4.996   0.588  0.00  0.00     0.169 HD
ENDROOT
BRANCH   2   5
ATOM      5  C   UNL d   1      -0.112  -5.279   0.075  0.00  0.00     0.034 A 
ATOM      6  C   UNL d   1       0.829  -5.896  -0.751  0.00  0.00     0.030 A 
ATOM      7  C   UNL d   1       2.184  -5.564  -0.673  0.00  0.00     0.020 A 
ATOM      8  C   UNL d   1       2.628  -4.607   0.239  0.00  0.00     0.039 A 
ATOM      9  C   UNL d   1       1.694  -3.977   1.071  0.00  0.00     0.020 A 
ATOM     10  C   UNL d   1       0.332  -4.309   0.985  0.00  0.00     0.030 A 
BRANCH   8  11
ATOM     11  C   UNL d   1       4.090  -4.357   0.306  0.00  0.00     0.293 C 
ATOM     12  O   UNL d   1       4.906  -4.946  -0.388  0.00  0.00    -0.259 OA
BRANCH  11  13
ATOM     13  O   UNL d   1       4.379  -3.466   1.287  0.00  0.00    -0.318 OA
BRANCH  13  14
ATOM     14  C   UNL d   1       5.763  -3.409   1.663  0.00  0.00     0.174 C 
ATOM     15  C   UNL d   1       6.003  -4.446   2.746  0.00  0.00     0.034 C 
ENDBRANCH  13  14
ENDBRANCH  11  13
ENDBRANCH   8  11
ENDBRANCH   2   5
BRANCH   1  16
ATOM     16  C   UNL d   1      -3.606  -6.651  -0.658  0.00  0.00     0.185 C 
BRANCH  16  17
ATOM     17  S   UNL d   1      -4.433  -5.032  -0.679  0.00  0.00    -0.082 SA
BRANCH  17  18
ATOM     18  C   UNL d   1      -6.072  -5.579  -0.790  0.00  0.00     0.172 A 
ATOM     19  N   UNL d   1      -7.157  -4.784  -1.014  0.00  0.00    -0.260 N 
ATOM     20  N   UNL d   1      -8.271  -5.539  -1.022  0.00  0.00    -0.005 NA
ATOM     21  C   UNL d   1      -7.260  -3.365  -1.203  0.00  0.00     0.177 C 
ATOM     22  N   UNL d   1      -7.849  -6.782  -0.820  0.00  0.00    -0.007 NA
ATOM     23  N   UNL d   1      -6.485  -6.821  -0.673  0.00  0.00    -0.265 N 
ATOM     24  HN  UNL d   1      -5.909  -7.646  -0.506  1.00  0.00     0.186 HD
ENDBRANCH  17  18
ENDBRANCH  16  17
ENDBRANCH   1  16
TORSDOF 7
