REMARK  4 active torsions:
REMARK  status: ('A' for Active; 'I' for Inactive)
REMARK    1  A    between atoms: C_2  and  C_1 
REMARK       I    between atoms: N_4  and  C_2 
REMARK    2  A    between atoms: C_10  and  N_4 
REMARK    3  A    between atoms: C_11  and  N_4 
REMARK    4  A    between atoms: C_12  and  C_10 
ROOT
ATOM      1  C   UNL d   1      -0.088  -2.306   0.329  0.00  0.00     0.264 C 
ATOM      2  N   UNL d   1       0.837  -3.341   0.018  0.00  0.00    -0.339 N 
ATOM      3  O   UNL d   1      -1.257  -2.593   0.601  0.00  0.00    -0.267 OA
ENDROOT
BRANCH   2   4
ATOM      4  C   UNL d   1       0.260  -4.697   0.062  0.00  0.00     0.165 C 
BRANCH   4   5
ATOM      5  C   UNL d   1       0.700  -5.694  -0.983  0.00  0.00    -0.040 A 
ATOM      6  C   UNL d   1       0.918  -7.030  -0.602  0.00  0.00     0.009 A 
ATOM      7  C   UNL d   1       1.189  -8.012  -1.555  0.00  0.00     0.001 A 
ATOM      8  C   UNL d   1       1.244  -7.673  -2.903  0.00  0.00     0.000 A 
ATOM      9  C   UNL d   1       1.020  -6.354  -3.297  0.00  0.00     0.001 A 
ATOM     10  C   UNL d   1       0.735  -5.373  -2.344  0.00  0.00     0.009 A 
ENDBRANCH   4   5
ENDBRANCH   2   4
BRANCH   2  11
ATOM     11  C   UNL d   1       2.312  -3.166   0.145  0.00  0.00     0.079 C 
ATOM     12  C   UNL d   1       2.991  -4.181   1.071  0.00  0.00     0.032 C 
ATOM     13  C   UNL d   1       3.023  -3.143  -1.211  0.00  0.00     0.032 C 
ENDBRANCH   2  11
BRANCH   1  14
ATOM     14  C   UNL d   1       0.315  -0.918   0.377  0.00  0.00     0.110 C 
ATOM     15  C   UNL d   1      -0.073   0.080   1.270  0.00  0.00     0.043 C 
ATOM     16  N   UNL d   1       0.451   1.339   0.993  0.00  0.00    -0.296 N 
ATOM     17  C   UNL d   1      -0.958  -0.039   2.458  0.00  0.00     0.071 C 
ATOM     18  N   UNL d   1       1.155   1.347  -0.124  0.00  0.00    -0.061 NA
ATOM     19  HN  UNL d   1       0.308   2.159   1.583  1.00  0.00     0.183 HD
ATOM     20  S   UNL d   1       1.175  -0.138  -0.880  0.00  0.00     0.007 SA
ENDBRANCH   1  14
TORSDOF 4
