REMARK  5 active torsions:
REMARK  status: ('A' for Active; 'I' for Inactive)
REMARK    1  A    between atoms: N_2  and  C_1 
REMARK    2  A    between atoms: N_4  and  C_1 
REMARK       I    between atoms: C_3  and  N_2 
REMARK    3  A    between atoms: O_8  and  C_3 
REMARK    4  A    between atoms: C_7  and  N_4 
REMARK    5  A    between atoms: C_15  and  O_8 
ROOT
ATOM      1  C   UNL d   1       1.115   0.071  -0.095  0.00  0.00     0.180 C 
ATOM      2  S   UNL d   1       2.761  -0.232  -0.134  0.00  0.00    -0.040 SA
ENDROOT
BRANCH   1   3
ATOM      3  N   UNL d   1       0.550   0.596  -1.236  0.00  0.00    -0.279 N 
ATOM      4  C   UNL d   1      -0.789   0.663  -1.520  0.00  0.00     0.366 C 
ATOM      5  O   UNL d   1      -1.684   0.748  -0.691  0.00  0.00    -0.238 OA
ATOM      6  H   UNL d   1       1.153   0.603  -2.045  0.00  0.00     0.173 HD
BRANCH   4   7
ATOM      7  O   UNL d   1      -0.961   0.615  -2.864  0.00  0.00    -0.304 OA
BRANCH   7   8
ATOM      8  C   UNL d   1      -2.307   0.360  -3.296  0.00  0.00     0.176 C 
ATOM      9  C   UNL d   1      -2.545  -1.140  -3.303  0.00  0.00     0.034 C 
ENDBRANCH   7   8
ENDBRANCH   4   7
ENDBRANCH   1   3
BRANCH   1  10
ATOM     10  N   UNL d   1       0.250  -0.127   0.953  0.00  0.00    -0.333 N 
ATOM     11  H   UNL d   1      -0.571   0.477   0.945  0.00  0.00     0.168 HD
BRANCH  10  12
ATOM     12  C   UNL d   1       0.321  -1.025   2.035  0.00  0.00     0.034 A 
ATOM     13  C   UNL d   1      -0.431  -0.720   3.177  0.00  0.00     0.032 A 
ATOM     14  C   UNL d   1      -0.445  -1.592   4.268  0.00  0.00     0.044 A 
ATOM     15  C   UNL d   1       0.259  -2.787   4.197  0.00  0.00     0.116 A 
ATOM     16  C   UNL d   1       0.980  -3.122   3.059  0.00  0.00     0.044 A 
ATOM     17  F   UNL d   1       0.230  -3.634   5.234  0.00  0.00    -0.206 F 
ATOM     18  C   UNL d   1       1.014  -2.238   1.977  0.00  0.00     0.032 A 
ENDBRANCH  10  12
ENDBRANCH   1  10
TORSDOF 5
