REMARK  11 active torsions:
REMARK  status: ('A' for Active; 'I' for Inactive)
REMARK    1  A    between atoms: S_9  and  C_2 
REMARK    2  A    between atoms: C_24  and  C_7 
REMARK    3  A    between atoms: C_8  and  O_14 
REMARK    4  A    between atoms: C_17  and  S_9 
REMARK    5  A    between atoms: C_10  and  C_17 
REMARK       I    between atoms: N_12  and  C_10 
REMARK    6  A    between atoms: C_11  and  C_31 
REMARK       I    between atoms: N_13  and  C_11 
REMARK    7  A    between atoms: C_23  and  N_12 
REMARK    8  A    between atoms: C_26  and  N_13 
REMARK    9  A    between atoms: O_14  and  C_25 
REMARK   10  A    between atoms: S_21  and  C_24 
REMARK   11  A    between atoms: C_31  and  S_21 
ROOT
ATOM      1  N   UNL d   1       0.594  -0.125  -0.559  0.00  0.00    -0.319 N 
ATOM      2  C   UNL d   1      -0.236   0.954  -0.677  0.00  0.00     0.162 C 
ATOM      3  N   UNL d   1      -1.427   0.645  -0.221  0.00  0.00    -0.278 N 
ATOM      4  HN  UNL d   1      -2.220   1.279  -0.129  1.00  0.00     0.189 HD
ATOM      5  N   UNL d   1      -1.411  -0.686   0.110  0.00  0.00    -0.286 N 
ATOM      6  HN  UNL d   1      -2.196  -1.216   0.488  1.00  0.00     0.188 HD
ATOM      7  C   UNL d   1      -0.207  -1.165  -0.145  0.00  0.00     0.109 C 
ATOM      8  C   UNL d   1       2.003  -0.172  -0.839  0.00  0.00     0.159 C 
ENDROOT
BRANCH   2   9
ATOM      9  S   UNL d   1       0.202   2.411  -1.498  0.00  0.00    -0.083 SA
BRANCH   9  10
ATOM     10  C   UNL d   1      -0.981   3.625  -0.863  0.00  0.00     0.185 C 
BRANCH  10  11
ATOM     11  C   UNL d   1      -2.323   3.652  -1.580  0.00  0.00     0.231 C 
ATOM     12  N   UNL d   1      -2.977   2.439  -1.674  0.00  0.00    -0.327 N 
ATOM     13  H   UNL d   1      -2.531   1.645  -1.217  0.00  0.00     0.169 HD
ATOM     14  O   UNL d   1      -2.792   4.738  -1.923  0.00  0.00    -0.272 OA
BRANCH  12  15
ATOM     15  C   UNL d   1      -4.302   2.224  -2.099  0.00  0.00     0.034 A 
ATOM     16  C   UNL d   1      -5.075   3.185  -2.748  0.00  0.00     0.032 A 
ATOM     17  C   UNL d   1      -6.432   2.955  -3.015  0.00  0.00     0.039 A 
ATOM     18  C   UNL d   1      -7.015   1.737  -2.682  0.00  0.00     0.078 A 
ATOM     19  C   UNL d   1      -6.229   0.757  -2.070  0.00  0.00     0.039 A 
ATOM     20  C   UNL d   1      -4.879   0.990  -1.793  0.00  0.00     0.032 A 
BRANCH  18  21
ATOM     21  O   UNL d   1      -8.309   1.365  -2.884  0.00  0.00    -0.255 OA
BRANCH  21  22
ATOM     22  C   UNL d   1      -9.146   2.154  -3.711  0.00  0.00     0.530 C 
ATOM     23  F   UNL d   1      -8.486   2.724  -4.745  0.00  0.00    -0.144 F 
ATOM     24  F   UNL d   1     -10.092   1.339  -4.244  0.00  0.00    -0.144 F 
ATOM     25  F   UNL d   1      -9.766   3.105  -2.992  0.00  0.00    -0.144 F 
ENDBRANCH  21  22
ENDBRANCH  18  21
ENDBRANCH  12  15
ENDBRANCH  10  11
ENDBRANCH   9  10
ENDBRANCH   2   9
BRANCH   7  26
ATOM     26  C   UNL d   1       0.202  -2.596  -0.097  0.00  0.00     0.152 C 
BRANCH  26  27
ATOM     27  S   UNL d   1       1.105  -3.034   1.428  0.00  0.00    -0.152 SA
BRANCH  27  28
ATOM     28  C   UNL d   1      -0.289  -2.942   2.592  0.00  0.00     0.177 C 
BRANCH  28  29
ATOM     29  C   UNL d   1       0.053  -3.223   4.044  0.00  0.00     0.231 C 
ATOM     30  N   UNL d   1       1.296  -3.784   4.295  0.00  0.00    -0.327 N 
ATOM     31  H   UNL d   1       1.890  -3.910   3.483  0.00  0.00     0.169 HD
ATOM     32  O   UNL d   1      -0.793  -2.973   4.904  0.00  0.00    -0.272 OA
BRANCH  30  33
ATOM     33  C   UNL d   1       1.833  -4.153   5.550  0.00  0.00     0.034 A 
ATOM     34  C   UNL d   1       1.139  -4.040   6.758  0.00  0.00     0.029 A 
ATOM     35  C   UNL d   1       1.728  -4.418   7.967  0.00  0.00     0.002 A 
ATOM     36  C   UNL d   1       3.030  -4.918   7.984  0.00  0.00     0.000 A 
ATOM     37  C   UNL d   1       3.732  -5.038   6.789  0.00  0.00     0.002 A 
ATOM     38  C   UNL d   1       3.139  -4.661   5.579  0.00  0.00     0.029 A 
ENDBRANCH  30  33
ENDBRANCH  28  29
ENDBRANCH  27  28
ENDBRANCH  26  27
ENDBRANCH   7  26
TORSDOF 11
