REMARK  6 active torsions:
REMARK  status: ('A' for Active; 'I' for Inactive)
REMARK    1  A    between atoms: N_2  and  S_1 
REMARK    2  A    between atoms: C_3  and  S_1 
REMARK    3  A    between atoms: C_11  and  N_2 
REMARK    4  A    between atoms: C_16  and  N_2 
REMARK    5  A    between atoms: C_17  and  C_11 
REMARK    6  A    between atoms: C_15  and  C_16 
ROOT
ATOM      1  N   UNL d   1       3.062   3.372   2.165  0.00  0.00    -0.197 NA
ATOM      2  C   UNL d   1       2.808   2.271   2.431  0.00  0.00     0.060 C 
ATOM      3  C   UNL d   1       2.513   0.871   2.755  0.00  0.00     0.139 C 
ENDROOT
BRANCH   3   4
ATOM      4  C   UNL d   1       1.051   0.507   2.482  0.00  0.00     0.122 C 
BRANCH   4   5
ATOM      5  N   UNL d   1       0.576   0.880   1.105  0.00  0.00    -0.201 NA
BRANCH   5   6
ATOM      6  S   UNL d   1       1.133  -0.175  -0.139  0.00  0.00     0.244 S 
ATOM      7  O   UNL d   1       0.121  -1.192  -0.329  0.00  0.00    -0.206 OA
ATOM      8  O   UNL d   1       2.503  -0.541   0.147  0.00  0.00    -0.206 OA
BRANCH   6   9
ATOM      9  C   UNL d   1       1.196   0.847  -1.593  0.00  0.00     0.075 A 
ATOM     10  C   UNL d   1       2.021   1.981  -1.588  0.00  0.00     0.034 A 
ATOM     11  C   UNL d   1       2.199   2.653  -2.785  0.00  0.00    -0.021 A 
ATOM     12  C   UNL d   1       3.099   3.784  -3.108  0.00  0.00     0.068 C 
ATOM     13  C   UNL d   1       1.584   2.215  -3.948  0.00  0.00     0.075 A 
ATOM     14  C   UNL d   1       2.598   4.103  -4.518  0.00  0.00     0.180 C 
ATOM     15  O   UNL d   1       1.916   2.947  -5.058  0.00  0.00    -0.350 OA
ATOM     16  C   UNL d   1       0.760   1.106  -3.970  0.00  0.00     0.039 A 
ATOM     17  C   UNL d   1       0.559   0.413  -2.772  0.00  0.00     0.027 A 
ENDBRANCH   6   9
ENDBRANCH   5   6
BRANCH   5  18
ATOM     18  C   UNL d   1      -0.909   1.105   1.028  0.00  0.00     0.146 C 
BRANCH  18  19
ATOM     19  C   UNL d   1      -1.476   2.042   2.077  0.00  0.00    -0.044 A 
ATOM     20  C   UNL d   1      -1.153   3.404   2.072  0.00  0.00     0.008 A 
ATOM     21  C   UNL d   1      -1.647   4.250   3.069  0.00  0.00     0.001 A 
ATOM     22  C   UNL d   1      -2.462   3.744   4.080  0.00  0.00     0.000 A 
ATOM     23  C   UNL d   1      -2.793   2.391   4.096  0.00  0.00     0.001 A 
ATOM     24  C   UNL d   1      -2.308   1.545   3.097  0.00  0.00     0.008 A 
ENDBRANCH  18  19
ENDBRANCH   5  18
ENDBRANCH   4   5
ENDBRANCH   3   4
TORSDOF 6
