REMARK  1 active torsions:
REMARK  status: ('A' for Active; 'I' for Inactive)
REMARK    1  A    between atoms: C_12  and  N_4 
ROOT
ATOM      1  N   UNL d   1       0.777   0.335  -0.060  0.00  0.00    -0.241 N 
ATOM      2  C   UNL d   1       1.315  -0.923  -0.035  0.00  0.00     0.164 A 
ATOM      3  C   UNL d   1       1.611   1.434  -0.063  0.00  0.00     0.344 A 
ATOM      4  N   UNL d   1       2.981   1.134  -0.039  0.00  0.00    -0.215 N 
ATOM      5  N   UNL d   1       2.558  -1.210  -0.012  0.00  0.00    -0.287 N 
ATOM      6  HN  UNL d   1       2.871  -2.181   0.014  1.00  0.00     0.172 HD
ATOM      7  C   UNL d   1       3.458  -0.183  -0.024  0.00  0.00     0.337 A 
ATOM      8  S   UNL d   1       0.081  -2.170  -0.030  0.00  0.00    -0.051 SA
ATOM      9  C   UNL d   1      -0.643   0.349  -0.037  0.00  0.00     0.063 A 
ATOM     10  C   UNL d   1      -1.190  -0.940  -0.026  0.00  0.00     0.035 A 
ATOM     11  O   UNL d   1       1.177   2.590  -0.035  0.00  0.00    -0.245 OA
ATOM     12  O   UNL d   1       4.657  -0.456  -0.057  0.00  0.00    -0.246 OA
ATOM     13  C   UNL d   1      -1.492   1.449  -0.017  0.00  0.00     0.031 A 
ATOM     14  C   UNL d   1      -2.558  -1.163  -0.005  0.00  0.00     0.021 A 
ATOM     15  C   UNL d   1      -2.877   1.239   0.006  0.00  0.00     0.002 A 
ATOM     16  C   UNL d   1      -3.407  -0.058   0.009  0.00  0.00     0.002 A 
ENDROOT
BRANCH   4  17
ATOM     17  C   UNL d   1       3.929   2.212   0.011  0.00  0.00     0.048 A 
ATOM     18  C   UNL d   1       4.979   2.192   0.943  0.00  0.00     0.030 A 
ATOM     19  C   UNL d   1       5.878   3.255   1.031  0.00  0.00     0.002 A 
ATOM     20  C   UNL d   1       5.760   4.341   0.169  0.00  0.00     0.000 A 
ATOM     21  C   UNL d   1       4.739   4.367  -0.778  0.00  0.00     0.002 A 
ATOM     22  C   UNL d   1       3.820   3.315  -0.849  0.00  0.00     0.030 A 
ENDBRANCH   4  17
TORSDOF 1
