REMARK  2 active torsions:
REMARK  status: ('A' for Active; 'I' for Inactive)
REMARK    1  A    between atoms: C_2  and  C_1 
REMARK    2  A    between atoms: O_10  and  C_1 
ROOT
ATOM      1  C   UNL d   1       0.322  -0.625   1.200  0.00  0.00     0.038 A 
ATOM      2  C   UNL d   1      -0.695  -1.546   0.929  0.00  0.00     0.027 A 
ATOM      3  C   UNL d   1      -1.367  -2.189   1.980  0.00  0.00    -0.031 A 
ATOM      4  C   UNL d   1      -1.017  -1.910   3.311  0.00  0.00     0.034 A 
ATOM      5  N   UNL d   1      -1.563  -2.615   4.384  0.00  0.00    -0.389 N 
ATOM      6  C   UNL d   1       0.639  -0.307   2.523  0.00  0.00     0.020 A 
ATOM      7  C   UNL d   1      -0.025  -0.955   3.568  0.00  0.00     0.031 A 
ATOM      8  C   UNL d   1      -2.438  -3.743   4.102  0.00  0.00     0.120 C 
ATOM      9  C   UNL d   1      -2.453  -3.187   1.669  0.00  0.00     0.042 C 
ATOM     10  C   UNL d   1      -3.318  -3.483   2.890  0.00  0.00     0.024 C 
ATOM     11  H   UNL d   1      -1.837  -2.026   5.165  0.00  0.00     0.159 HD
ENDROOT
BRANCH   1  12
ATOM     12  C   UNL d   1       1.026   0.007   0.055  0.00  0.00     0.176 C 
ATOM     13  O   UNL d   1       0.480   0.258  -1.003  0.00  0.00    -0.646 OA
BRANCH  12  14
ATOM     14  O   UNL d   1       2.338   0.222   0.284  0.00  0.00    -0.773 OA
ATOM     15  H   UNL d   1       2.686  -0.197   1.092  0.00  0.00     0.167 HD
ENDBRANCH  12  14
ENDBRANCH   1  12
TORSDOF 2
