REMARK  4 active torsions:
REMARK  status: ('A' for Active; 'I' for Inactive)
REMARK    1  A    between atoms: N_2  and  S_1 
REMARK    2  A    between atoms: C_3  and  S_1 
REMARK    3  A    between atoms: C_8  and  N_2 
REMARK    4  A    between atoms: C_11  and  C_8 
ROOT
ATOM      1  S   UNL d   1       0.968  -0.077   0.064  0.00  0.00     0.241 S 
ATOM      2  O   UNL d   1       0.473  -0.498   1.357  0.00  0.00    -0.206 OA
ATOM      3  O   UNL d   1       2.380   0.115  -0.182  0.00  0.00    -0.206 OA
ENDROOT
BRANCH   1   4
ATOM      4  N   UNL d   1       0.194   1.356  -0.373  0.00  0.00    -0.210 NA
ATOM      5  H   UNL d   1       0.175   1.483  -1.389  0.00  0.00     0.140 HD
BRANCH   4   6
ATOM      6  C   UNL d   1      -1.150   1.546   0.208  0.00  0.00     0.161 C 
BRANCH   6   7
ATOM      7  C   UNL d   1      -1.788   2.852  -0.213  0.00  0.00     0.022 A 
ATOM      8  N   UNL d   1      -2.543   2.836  -1.342  0.00  0.00    -0.368 N 
ATOM      9  C   UNL d   1      -3.156   3.990  -1.692  0.00  0.00     0.088 A 
ATOM     10  HN  UNL d   1      -2.643   1.990  -1.902  1.00  0.00     0.165 HD
ATOM     11  C   UNL d   1      -3.042   5.172  -0.980  0.00  0.00     0.017 A 
ATOM     12  C   UNL d   1      -2.238   5.181   0.152  0.00  0.00     0.003 A 
ATOM     13  C   UNL d   1      -1.594   4.010   0.541  0.00  0.00     0.026 A 
ENDBRANCH   6   7
ENDBRANCH   4   6
ENDBRANCH   1   4
BRANCH   1  14
ATOM     14  C   UNL d   1       0.380  -1.236  -1.155  0.00  0.00     0.074 A 
ATOM     15  C   UNL d   1       1.152  -1.491  -2.292  0.00  0.00     0.025 A 
ATOM     16  C   UNL d   1       0.738  -2.465  -3.204  0.00  0.00     0.008 A 
ATOM     17  C   UNL d   1      -0.440  -3.191  -2.982  0.00  0.00    -0.062 A 
ATOM     18  C   UNL d   1      -1.203  -2.926  -1.838  0.00  0.00     0.008 A 
ATOM     19  C   UNL d   1      -0.851  -4.262  -3.951  0.00  0.00     0.048 C 
ATOM     20  C   UNL d   1      -0.792  -1.958  -0.918  0.00  0.00     0.025 A 
ENDBRANCH   1  14
TORSDOF 4
