REMARK  6 active torsions:
REMARK  status: ('A' for Active; 'I' for Inactive)
REMARK       I    between atoms: C_2  and  N_1 
REMARK    1  A    between atoms: C_3  and  N_1 
REMARK    2  A    between atoms: C_10  and  C_2 
REMARK    3  A    between atoms: N_14  and  C_3 
REMARK    4  A    between atoms: C_4  and  C_16 
REMARK    5  A    between atoms: O_18  and  C_6 
REMARK    6  A    between atoms: N_8  and  N_14 
ROOT
ATOM      1  N   UNL d   1       3.331   0.637   1.965  0.00  0.00    -0.309 N 
ATOM      2  HN  UNL d   1       2.412   0.785   2.382  1.00  0.00     0.186 HD
ATOM      3  C   UNL d   1       4.450   0.753   2.620  0.00  0.00     0.121 C 
ENDROOT
BRANCH   1   4
ATOM      4  N   UNL d   1       3.527   0.294   0.654  0.00  0.00    -0.276 N 
ATOM      5  H   UNL d   1       4.471   0.229   0.280  0.00  0.00     0.189 HD
BRANCH   4   6
ATOM      6  C   UNL d   1       2.508   0.088  -0.249  0.00  0.00     0.193 C 
ATOM      7  S   UNL d   1       2.950  -0.250  -1.823  0.00  0.00    -0.039 SA
BRANCH   6   8
ATOM      8  N   UNL d   1       1.238   0.198   0.292  0.00  0.00    -0.302 N 
ATOM      9  C   UNL d   1       0.000   0.041  -0.327  0.00  0.00     0.231 C 
ATOM     10  O   UNL d   1      -0.145  -0.363  -1.479  0.00  0.00    -0.272 OA
ATOM     11  H   UNL d   1       1.277   0.456   1.269  0.00  0.00     0.171 HD
BRANCH   9  12
ATOM     12  C   UNL d   1      -1.230   0.380   0.545  0.00  0.00     0.030 C 
ATOM     13  C   UNL d   1      -1.161   1.834   1.034  0.00  0.00     0.025 C 
ATOM     14  C   UNL d   1      -2.509   0.213  -0.303  0.00  0.00     0.025 C 
ATOM     15  C   UNL d   1      -1.320  -0.575   1.743  0.00  0.00     0.025 C 
ENDBRANCH   9  12
ENDBRANCH   6   8
ENDBRANCH   4   6
ENDBRANCH   1   4
BRANCH   3  16
ATOM     16  C   UNL d   1       4.521   1.164   4.038  0.00  0.00     0.017 A 
ATOM     17  C   UNL d   1       5.762   1.274   4.676  0.00  0.00     0.099 A 
ATOM     18  C   UNL d   1       5.826   1.707   6.005  0.00  0.00     0.069 A 
ATOM     19 CL   UNL d   1       7.351   1.861   6.799  0.00  0.00    -0.081 Cl
ATOM     20  C   UNL d   1       4.662   2.023   6.702  0.00  0.00     0.050 A 
ATOM     21  C   UNL d   1       3.430   1.901   6.063  0.00  0.00     0.036 A 
ATOM     22  C   UNL d   1       3.349   1.473   4.737  0.00  0.00     0.039 A 
ATOM     23 CL   UNL d   1       1.988   2.292   6.917  0.00  0.00    -0.084 Cl
BRANCH  17  24
ATOM     24  O   UNL d   1       6.909   0.962   3.992  0.00  0.00    -0.358 OA
ATOM     25  H   UNL d   1       7.664   1.087   4.600  0.00  0.00     0.217 HD
ENDBRANCH  17  24
ENDBRANCH   3  16
TORSDOF 6
