REMARK  4 active torsions:
REMARK  status: ('A' for Active; 'I' for Inactive)
REMARK    1  A    between atoms: C_4  and  C_1 
REMARK    2  A    between atoms: C_2  and  C_3 
REMARK    3  A    between atoms: C_6  and  C_5 
REMARK    4  A    between atoms: N_17  and  C_6 
ROOT
ATOM      1  C   UNL d   1       0.925   3.669  -0.078  0.00  0.00     0.049 A 
ATOM      2  C   UNL d   1       0.560   1.260  -0.268  0.00  0.00     0.049 A 
ATOM      3  C   UNL d   1      -1.243   2.816  -0.820  0.00  0.00     0.003 A 
ATOM      4  C   UNL d   1       1.392   2.350   0.034  0.00  0.00     0.032 A 
ATOM      5  C   UNL d   1      -0.755   1.508  -0.702  0.00  0.00     0.030 A 
ATOM      6  C   UNL d   1      -0.397   3.890  -0.505  0.00  0.00     0.030 A 
ENDROOT
BRANCH   3   7
ATOM      7  C   UNL d   1      -2.647   3.076  -1.249  0.00  0.00     0.104 C 
ATOM      8  S   UNL d   1      -3.962   2.111  -0.881  0.00  0.00    -0.060 SA
BRANCH   7   9
ATOM      9  N   UNL d   1      -2.866   4.200  -2.003  0.00  0.00    -0.390 N 
ATOM     10  H   UNL d   1      -2.131   4.791  -2.370  0.00  0.00     0.157 HD
ATOM     11  H   UNL d   1      -3.808   4.378  -2.335  0.00  0.00     0.157 HD
ENDBRANCH   7   9
ENDBRANCH   3   7
BRANCH   2  12
ATOM     12  C   UNL d   1       1.049  -0.164  -0.133  0.00  0.00     0.417 C 
ATOM     13  F   UNL d   1       2.314  -0.255   0.363  0.00  0.00    -0.166 F 
ATOM     14  F   UNL d   1       1.066  -0.821  -1.324  0.00  0.00    -0.166 F 
ATOM     15  F   UNL d   1       0.268  -0.905   0.698  0.00  0.00    -0.166 F 
ENDBRANCH   2  12
BRANCH   1  16
ATOM     16  C   UNL d   1       1.811   4.846   0.259  0.00  0.00     0.417 C 
ATOM     17  F   UNL d   1       3.047   4.488   0.700  0.00  0.00    -0.166 F 
ATOM     18  F   UNL d   1       2.015   5.659  -0.814  0.00  0.00    -0.166 F 
ATOM     19  F   UNL d   1       1.277   5.635   1.231  0.00  0.00    -0.166 F 
ENDBRANCH   1  16
TORSDOF 4
