REMARK  0 active torsions:
REMARK  status: ('A' for Active; 'I' for Inactive)
ROOT
ATOM      1  N   UNL d   1       0.584  -1.630   0.330  0.00  0.00    -0.353 N 
ATOM      2  C   UNL d   1      -0.226  -0.534   0.157  0.00  0.00     0.055 A 
ATOM      3  C   UNL d   1       1.906  -1.320   0.121  0.00  0.00     0.055 A 
ATOM      4  C   UNL d   1       1.956   0.046  -0.155  0.00  0.00     0.004 A 
ATOM      5  C   UNL d   1       0.620   0.554  -0.054  0.00  0.00     0.004 A 
ATOM      6  C   UNL d   1      -1.639  -0.413   0.158  0.00  0.00     0.002 A 
ATOM      7  C   UNL d   1       3.061  -2.143   0.124  0.00  0.00     0.002 A 
ATOM      8  C   UNL d   1       3.201   0.623  -0.478  0.00  0.00     0.015 A 
ATOM      9  C   UNL d   1       0.050   1.837  -0.178  0.00  0.00     0.015 A 
ATOM     10  C   UNL d   1      -2.188   0.880   0.018  0.00  0.00    -0.024 A 
ATOM     11  C   UNL d   1       4.286  -1.558  -0.269  0.00  0.00    -0.024 A 
ATOM     12  C   UNL d   1       4.342  -0.189  -0.563  0.00  0.00     0.013 A 
ATOM     13  C   UNL d   1      -1.343   1.990  -0.121  0.00  0.00     0.013 A 
ATOM     14  C   UNL d   1      -2.473  -1.543   0.257  0.00  0.00     0.014 A 
ATOM     15  C   UNL d   1       3.000  -3.503   0.487  0.00  0.00     0.014 A 
ATOM     16  C   UNL d   1      -3.586   1.011   0.000  0.00  0.00     0.012 A 
ATOM     17  C   UNL d   1       5.419  -2.382  -0.357  0.00  0.00     0.012 A 
ATOM     18  C   UNL d   1      -3.858  -1.387   0.211  0.00  0.00     0.001 A 
ATOM     19  C   UNL d   1       4.147  -4.291   0.421  0.00  0.00     0.001 A 
ATOM     20  C   UNL d   1      -4.413  -0.115   0.089  0.00  0.00     0.001 A 
ATOM     21  C   UNL d   1       5.348  -3.738  -0.019  0.00  0.00     0.001 A 
ATOM     22  H   UNL d   1       0.245  -2.559   0.522  0.00  0.00     0.166 HD
ENDROOT
TORSDOF 0
