REMARK  2 active torsions:
REMARK  status: ('A' for Active; 'I' for Inactive)
REMARK    1  A    between atoms: C_6  and  C_1 
REMARK       I    between atoms: N_8  and  C_6 
REMARK    2  A    between atoms: C_12  and  N_8 
ROOT
ATOM      1  C   UNL d   1      -1.591  -4.482   0.706  0.00  0.00     0.275 C 
ATOM      2  N   UNL d   1      -1.756  -3.289   0.017  0.00  0.00    -0.322 N 
ATOM      3  O   UNL d   1      -2.494  -5.104   1.253  0.00  0.00    -0.266 OA
ATOM      4  H   UNL d   1      -0.940  -2.962  -0.493  0.00  0.00     0.169 HD
ENDROOT
BRANCH   1   5
ATOM      5  C   UNL d   1      -0.197  -4.980   0.732  0.00  0.00     0.131 A 
ATOM      6  C   UNL d   1       0.243  -6.222   1.333  0.00  0.00     0.096 A 
ATOM      7  C   UNL d   1       1.606  -6.341   1.216  0.00  0.00     0.115 A 
ATOM      8 CL   UNL d   1      -0.769  -7.383   2.084  0.00  0.00    -0.079 Cl
ATOM      9 CL   UNL d   1       2.636  -7.598   1.757  0.00  0.00    -0.073 Cl
ATOM     10  S   UNL d   1       2.236  -4.994   0.415  0.00  0.00     0.000 SA
ATOM     11  N   UNL d   1       0.779  -4.232   0.182  0.00  0.00    -0.319 N 
ATOM     12  HN  UNL d   1       0.645  -3.342  -0.300  1.00  0.00     0.174 HD
ENDBRANCH   1   5
BRANCH   2  13
ATOM     13  C   UNL d   1      -2.922  -2.495  -0.013  0.00  0.00     0.035 A 
ATOM     14  C   UNL d   1      -4.011  -2.709   0.836  0.00  0.00     0.030 A 
ATOM     15  C   UNL d   1      -5.116  -1.855   0.817  0.00  0.00     0.009 A 
ATOM     16  C   UNL d   1      -5.159  -0.769  -0.057  0.00  0.00    -0.062 A 
ATOM     17  C   UNL d   1      -4.086  -0.562  -0.928  0.00  0.00     0.009 A 
ATOM     18  C   UNL d   1      -6.341   0.155  -0.022  0.00  0.00     0.048 C 
ATOM     19  C   UNL d   1      -2.971  -1.413  -0.900  0.00  0.00     0.030 A 
ENDBRANCH   2  13
TORSDOF 2
