REMARK  4 active torsions:
REMARK  status: ('A' for Active; 'I' for Inactive)
REMARK    1  A    between atoms: C_3  and  C_1 
REMARK    2  A    between atoms: C_6  and  C_1 
REMARK    3  A    between atoms: N_2  and  C_3 
REMARK    4  A    between atoms: O_7  and  N_4 
ROOT
ATOM      1  C   UNL d   1       1.080   0.095   0.214  0.00  0.00     0.070 C 
ATOM      2  N   UNL d   1       0.894   0.735   1.339  0.00  0.00    -0.271 N 
ATOM      3  HN  UNL d   1       1.375   1.600   1.584  1.00  0.00     0.194 HD
ENDROOT
BRANCH   1   4
ATOM      4  C   UNL d   1       0.344  -1.211  -0.143  0.00  0.00     0.332 C 
BRANCH   4   5
ATOM      5  N   UNL d   1       1.286  -2.309  -0.443  0.00  0.00     0.094 N 
ATOM      6  C   UNL d   1       2.120  -2.668   0.713  0.00  0.00     0.273 C 
ATOM      7  C   UNL d   1       3.178  -3.691   0.290  0.00  0.00     0.030 C 
ATOM      8  C   UNL d   1       2.555  -4.925  -0.358  0.00  0.00     0.003 C 
ATOM      9  C   UNL d   1       1.552  -4.535  -1.438  0.00  0.00     0.030 C 
ATOM     10  C   UNL d   1       0.559  -3.490  -0.929  0.00  0.00     0.273 C 
ENDBRANCH   4   5
ENDBRANCH   1   4
BRANCH   1  11
ATOM     11  C   UNL d   1       2.064   0.685  -0.771  0.00  0.00    -0.010 A 
ATOM     12  C   UNL d   1       2.285   0.138  -2.040  0.00  0.00     0.013 A 
ATOM     13  C   UNL d   1       3.257   0.677  -2.889  0.00  0.00     0.001 A 
ATOM     14  C   UNL d   1       4.005   1.781  -2.487  0.00  0.00     0.000 A 
ATOM     15  C   UNL d   1       3.774   2.356  -1.240  0.00  0.00     0.001 A 
ATOM     16  C   UNL d   1       2.809   1.813  -0.388  0.00  0.00     0.013 A 
ENDBRANCH   1  11
BRANCH   2  17
ATOM     17  O   UNL d   1      -0.036   0.103   2.171  0.00  0.00    -0.290 OA
ATOM     18  H   UNL d   1      -0.049   0.690   2.949  0.00  0.00     0.244 HD
ENDBRANCH   2  17
TORSDOF 4
