REMARK  3 active torsions:
REMARK  status: ('A' for Active; 'I' for Inactive)
REMARK    1  A    between atoms: C_12  and  C_3 
REMARK    2  A    between atoms: C_13  and  C_6 
REMARK    3  A    between atoms: C_15  and  C_11 
ROOT
ATOM      1  C   UNL d   1      -0.140  -1.015  -0.009  0.00  0.00     0.040 A 
ATOM      2  C   UNL d   1      -1.451  -1.618   0.204  0.00  0.00     0.061 A 
ATOM      3  C   UNL d   1      -2.496  -0.708   0.110  0.00  0.00     0.079 A 
ATOM      4  C   UNL d   1      -0.288   0.357  -0.152  0.00  0.00     0.103 A 
ATOM      5  S   UNL d   1      -1.895   0.877  -0.168  0.00  0.00    -0.064 SA
ATOM      6  C   UNL d   1       1.202  -1.500  -0.093  0.00  0.00     0.018 A 
ATOM      7  N   UNL d   1       1.943   0.804  -0.291  0.00  0.00    -0.298 N 
ATOM      8  HN  UNL d   1       2.712   1.471  -0.348  1.00  0.00     0.187 HD
ATOM      9  N   UNL d   1       0.707   1.247  -0.294  0.00  0.00    -0.292 N 
ATOM     10  HN  UNL d   1       0.508   2.241  -0.401  1.00  0.00     0.187 HD
ATOM     11  C   UNL d   1       2.218  -0.524  -0.214  0.00  0.00     0.070 A 
ATOM     12  N   UNL d   1      -1.615  -2.936   0.466  0.00  0.00    -0.397 N 
ATOM     13  H   UNL d   1      -0.826  -3.565   0.600  0.00  0.00     0.156 HD
ATOM     14  H   UNL d   1      -2.480  -3.449   0.339  0.00  0.00     0.156 HD
ENDROOT
BRANCH   6  15
ATOM     15  C   UNL d   1       1.463  -2.949  -0.096  0.00  0.00    -0.023 A 
ATOM     16  C   UNL d   1       0.986  -3.752  -1.149  0.00  0.00     0.012 A 
ATOM     17  C   UNL d   1       1.248  -5.123  -1.189  0.00  0.00     0.001 A 
ATOM     18  C   UNL d   1       2.018  -5.711  -0.191  0.00  0.00     0.000 A 
ATOM     19  C   UNL d   1       2.512  -4.933   0.855  0.00  0.00     0.001 A 
ATOM     20  C   UNL d   1       2.226  -3.566   0.909  0.00  0.00     0.012 A 
ENDBRANCH   6  15
BRANCH  11  21
ATOM     21  C   UNL d   1       3.672  -0.808  -0.228  0.00  0.00    -0.007 A 
ATOM     22  C   UNL d   1       4.537  -0.079   0.613  0.00  0.00     0.014 A 
ATOM     23  C   UNL d   1       5.908  -0.347   0.659  0.00  0.00     0.001 A 
ATOM     24  C   UNL d   1       6.447  -1.352  -0.137  0.00  0.00     0.000 A 
ATOM     25  C   UNL d   1       5.620  -2.069  -0.997  0.00  0.00     0.001 A 
ATOM     26  C   UNL d   1       4.251  -1.788  -1.054  0.00  0.00     0.014 A 
ENDBRANCH  11  21
BRANCH   3  27
ATOM     27  C   UNL d   1      -3.946  -0.839   0.237  0.00  0.00     0.164 C 
ATOM     28  O   UNL d   1      -4.741   0.004  -0.188  0.00  0.00    -0.292 OA
ATOM     29  C   UNL d   1      -4.513  -2.071   0.897  0.00  0.00     0.097 C 
ENDBRANCH   3  27
TORSDOF 3
