REMARK  4 active torsions:
REMARK  status: ('A' for Active; 'I' for Inactive)
REMARK    1  A    between atoms: N_3  and  S_1 
REMARK    2  A    between atoms: C_8  and  S_1 
REMARK    3  A    between atoms: S_2  and  C_7 
REMARK    4  A    between atoms: N_4  and  S_2 
ROOT
ATOM      1  C   UNL d   1       0.159  -4.918   4.234  0.00  0.00    -0.041 A 
ATOM      2  C   UNL d   1       0.418  -3.223   2.630  0.00  0.00    -0.041 A 
ATOM      3  C   UNL d   1      -0.462  -6.105   6.201  0.00  0.00     0.080 A 
ATOM      4  C   UNL d   1       0.409  -1.099   1.545  0.00  0.00     0.075 A 
ATOM      5  C   UNL d   1      -0.436  -3.737   4.734  0.00  0.00    -0.019 A 
ATOM      6  C   UNL d   1      -0.266  -2.684   3.744  0.00  0.00    -0.019 A 
ATOM      7  C   UNL d   1       0.735  -4.684   2.856  0.00  0.00     0.078 A 
ATOM      8  C   UNL d   1       0.758  -2.452   1.528  0.00  0.00     0.033 A 
ATOM      9  C   UNL d   1       0.168  -6.100   4.954  0.00  0.00     0.033 A 
ATOM     10  C   UNL d   1      -1.039  -3.744   5.986  0.00  0.00     0.014 A 
ATOM     11  C   UNL d   1      -0.619  -1.343   3.753  0.00  0.00     0.014 A 
ATOM     12  C   UNL d   1      -0.269  -0.543   2.650  0.00  0.00     0.026 A 
ATOM     13  C   UNL d   1      -1.058  -4.941   6.723  0.00  0.00     0.026 A 
ENDROOT
BRANCH   3  14
ATOM     14  S   UNL d   1      -0.525  -7.649   7.090  0.00  0.00     0.261 S 
ATOM     15  O   UNL d   1       0.846  -8.037   7.345  0.00  0.00    -0.200 OA
ATOM     16  O   UNL d   1      -1.494  -7.528   8.158  0.00  0.00    -0.200 OA
BRANCH  14  17
ATOM     17  N   UNL d   1      -1.177  -8.684   5.914  0.00  0.00    -0.303 N 
ATOM     18  C   UNL d   1      -2.636  -8.549   5.626  0.00  0.00     0.161 C 
ATOM     19  C   UNL d   1      -3.473  -9.484   6.510  0.00  0.00     0.188 C 
ATOM     20  O   UNL d   1      -3.028 -10.844   6.403  0.00  0.00    -0.388 OA
ATOM     21  C   UNL d   1      -1.662 -10.954   6.829  0.00  0.00     0.188 C 
ATOM     22  C   UNL d   1      -0.750 -10.112   5.938  0.00  0.00     0.161 C 
ENDBRANCH  14  17
ENDBRANCH   3  14
BRANCH   4  23
ATOM     23  S   UNL d   1       1.026  -0.050   0.235  0.00  0.00     0.243 S 
ATOM     24  O   UNL d   1       0.977   1.320   0.699  0.00  0.00    -0.206 OA
ATOM     25  O   UNL d   1       2.270  -0.635  -0.218  0.00  0.00    -0.206 OA
BRANCH  23  26
ATOM     26  N   UNL d   1      -0.125  -0.236  -1.007  0.00  0.00    -0.202 NA
ATOM     27  C   UNL d   1      -1.433   0.473  -0.828  0.00  0.00     0.134 C 
ATOM     28  C   UNL d   1      -1.354   1.942  -1.275  0.00  0.00     0.183 C 
ATOM     29  O   UNL d   1      -0.879   2.058  -2.625  0.00  0.00    -0.389 OA
ATOM     30  C   UNL d   1       0.429   1.480  -2.747  0.00  0.00     0.183 C 
ATOM     31  C   UNL d   1       0.390  -0.011  -2.399  0.00  0.00     0.134 C 
ENDBRANCH  23  26
ENDBRANCH   4  23
TORSDOF 4
