REMARK  6 active torsions:
REMARK  status: ('A' for Active; 'I' for Inactive)
REMARK       I    between atoms: N_2  and  C_1 
REMARK    1  A    between atoms: C_3  and  C_1 
REMARK    2  A    between atoms: C_4  and  N_2 
REMARK       I    between atoms: N_5  and  C_3 
REMARK    3  A    between atoms: C_12  and  N_5 
REMARK    4  A    between atoms: O_14  and  C_7 
REMARK    5  A    between atoms: O_16  and  C_11 
REMARK    6  A    between atoms: C_15  and  C_12 
ROOT
ATOM      1  C   UNL d   1       1.199   0.052   0.131  0.00  0.00     0.314 C 
ATOM      2  N   UNL d   1       0.430  -0.723   0.997  0.00  0.00    -0.316 N 
ATOM      3  O   UNL d   1       2.424   0.106   0.075  0.00  0.00    -0.262 OA
ATOM      4  H   UNL d   1      -0.552  -0.826   0.751  0.00  0.00     0.169 HD
ENDROOT
BRANCH   1   5
ATOM      5  C   UNL d   1       0.341   0.815  -0.891  0.00  0.00     0.309 C 
ATOM      6  N   UNL d   1       1.041   1.512  -1.846  0.00  0.00    -0.349 N 
ATOM      7  H   UNL d   1       2.056   1.506  -1.787  0.00  0.00     0.163 HD
ATOM      8  O   UNL d   1      -0.884   0.743  -0.810  0.00  0.00    -0.262 OA
BRANCH   6   9
ATOM      9  C   UNL d   1       0.388   2.279  -2.884  0.00  0.00     0.161 C 
BRANCH   9  10
ATOM     10  C   UNL d   1       0.728   1.794  -4.271  0.00  0.00    -0.041 A 
ATOM     11  C   UNL d   1       0.405   0.487  -4.665  0.00  0.00     0.009 A 
ATOM     12  C   UNL d   1       0.669   0.049  -5.964  0.00  0.00     0.001 A 
ATOM     13  C   UNL d   1       1.248   0.915  -6.889  0.00  0.00     0.000 A 
ATOM     14  C   UNL d   1       1.561   2.221  -6.517  0.00  0.00     0.001 A 
ATOM     15  C   UNL d   1       1.304   2.659  -5.216  0.00  0.00     0.009 A 
ENDBRANCH   9  10
ENDBRANCH   6   9
ENDBRANCH   1   5
BRANCH   2  16
ATOM     16  C   UNL d   1       0.984  -1.591   1.953  0.00  0.00     0.071 A 
ATOM     17  C   UNL d   1       1.845  -1.026   2.908  0.00  0.00     0.069 A 
ATOM     18  C   UNL d   1       2.324  -1.776   3.983  0.00  0.00     0.070 A 
ATOM     19  C   UNL d   1       1.960  -3.118   4.081  0.00  0.00     0.039 A 
ATOM     20  C   UNL d   1       1.120  -3.695   3.126  0.00  0.00     0.042 A 
ATOM     21  C   UNL d   1       0.624  -2.942   2.051  0.00  0.00     0.095 A 
BRANCH  18  22
ATOM     22  O   UNL d   1       3.123  -1.298   4.987  0.00  0.00    -0.356 OA
ATOM     23  C   UNL d   1       3.472   0.083   4.910  0.00  0.00     0.210 C 
ENDBRANCH  18  22
BRANCH  21  24
ATOM     24  O   UNL d   1      -0.169  -3.657   1.194  0.00  0.00    -0.354 OA
ATOM     25  C   UNL d   1      -0.139  -3.306  -0.186  0.00  0.00     0.210 C 
ENDBRANCH  21  24
ENDBRANCH   2  16
TORSDOF 6
