REMARK  4 active torsions:
REMARK  status: ('A' for Active; 'I' for Inactive)
REMARK    1  A    between atoms: C_2  and  S_1 
REMARK    2  A    between atoms: N_3  and  S_1 
REMARK    3  A    between atoms: C_9  and  N_3 
REMARK    4  A    between atoms: N_10  and  C_11 
ROOT
ATOM      1  N   UNL d   1       0.058   1.567  -0.241  0.00  0.00    -0.179 NA
ATOM      2  H   UNL d   1       0.765   1.065  -0.784  0.00  0.00     0.146 HD
ENDROOT
BRANCH   1   3
ATOM      3  S   UNL d   1      -0.688   0.442   0.788  0.00  0.00     0.250 S 
ATOM      4  O   UNL d   1      -0.603  -0.827   0.104  0.00  0.00    -0.205 OA
ATOM      5  O   UNL d   1      -0.178   0.600   2.139  0.00  0.00    -0.205 OA
BRANCH   3   6
ATOM      6  C   UNL d   1      -2.360   0.662   0.985  0.00  0.00     0.130 C 
ATOM      7  C   UNL d   1      -3.317   0.871   0.026  0.00  0.00     0.097 C 
ATOM      8  O   UNL d   1      -4.538   0.913   0.629  0.00  0.00    -0.241 OA
ATOM      9  C   UNL d   1      -3.331   0.965  -1.442  0.00  0.00     0.081 C 
ATOM     10  N   UNL d   1      -4.401   0.649   1.980  0.00  0.00    -0.264 N 
ATOM     11  C   UNL d   1      -3.094   0.440   2.179  0.00  0.00     0.054 C 
ATOM     12  HN  UNL d   1      -5.142   0.620   2.680  1.00  0.00     0.194 HD
ATOM     13  C   UNL d   1      -2.622  -0.046   3.504  0.00  0.00     0.072 C 
ENDBRANCH   3   6
ENDBRANCH   1   3
BRANCH   1  14
ATOM     14  C   UNL d   1       0.689   2.713   0.374  0.00  0.00     0.044 A 
ATOM     15  C   UNL d   1       2.085   2.721   0.684  0.00  0.00     0.033 A 
ATOM     16  C   UNL d   1       2.597   3.917   1.226  0.00  0.00     0.025 A 
ATOM     17  C   UNL d   1       1.800   5.054   1.407  0.00  0.00     0.002 A 
ATOM     18  C   UNL d   1       0.452   5.023   1.066  0.00  0.00     0.002 A 
ATOM     19  C   UNL d   1      -0.109   3.848   0.570  0.00  0.00     0.026 A 
BRANCH  15  20
ATOM     20  N   UNL d   1       2.930   1.638   0.346  0.00  0.00    -0.278 NA
ATOM     21  C   UNL d   1       4.386   1.919   0.181  0.00  0.00     0.122 C 
ATOM     22  C   UNL d   1       5.082   0.698  -0.461  0.00  0.00     0.182 C 
ATOM     23  O   UNL d   1       4.847  -0.521   0.264  0.00  0.00    -0.389 OA
ATOM     24  C   UNL d   1       3.440  -0.747   0.421  0.00  0.00     0.182 C 
ATOM     25  C   UNL d   1       2.800   0.420   1.181  0.00  0.00     0.122 C 
ENDBRANCH  15  20
ENDBRANCH   1  14
TORSDOF 4
