REMARK  9 active torsions:
REMARK  status: ('A' for Active; 'I' for Inactive)
REMARK    1  A    between atoms: N_4  and  C_1 
REMARK       I    between atoms: C_2  and  N_3 
REMARK    2  A    between atoms: C_9  and  C_2 
REMARK    3  A    between atoms: N_3  and  N_4 
REMARK    4  A    between atoms: C_15  and  N_10 
REMARK    5  A    between atoms: C_16  and  C_15 
REMARK    6  A    between atoms: C_19  and  C_16 
REMARK    7  A    between atoms: C_17  and  C_18 
REMARK    8  A    between atoms: C_18  and  C_20 
REMARK    9  A    between atoms: C_20  and  C_19 
ROOT
ATOM      1  N   UNL d   1       1.774  -1.854  -1.339  0.00  0.00    -0.274 N 
ATOM      2  H   UNL d   1       1.399  -2.126  -2.245  0.00  0.00     0.189 HD
ENDROOT
BRANCH   1   3
ATOM      3  N   UNL d   1       1.401  -2.723  -0.301  0.00  0.00    -0.264 N 
ATOM      4  C   UNL d   1       1.690  -4.083  -0.432  0.00  0.00     0.270 C 
ATOM      5  O   UNL d   1       2.171  -4.596  -1.432  0.00  0.00    -0.266 OA
ATOM      6  H   UNL d   1       1.187  -2.303   0.595  0.00  0.00     0.190 HD
BRANCH   4   7
ATOM      7  C   UNL d   1       1.386  -4.887   0.779  0.00  0.00     0.036 A 
ATOM      8  C   UNL d   1       0.291  -4.600   1.590  0.00  0.00     0.034 A 
ATOM      9  C   UNL d   1       0.098  -5.375   2.716  0.00  0.00     0.088 A 
ATOM     10  N   UNL d   1       0.908  -6.395   3.068  0.00  0.00    -0.375 N 
ATOM     11  C   UNL d   1       1.944  -6.674   2.247  0.00  0.00     0.088 A 
ATOM     12  HN  UNL d   1       0.746  -6.933   3.920  1.00  0.00     0.164 HD
ATOM     13  C   UNL d   1       2.221  -5.959   1.092  0.00  0.00     0.034 A 
ENDBRANCH   4   7
ENDBRANCH   1   3
BRANCH   1  14
ATOM     14  C   UNL d   1       1.852  -0.512  -1.109  0.00  0.00     0.186 C 
ATOM     15  S   UNL d   1       1.340   0.566  -2.272  0.00  0.00    -0.040 SA
ATOM     16  N   UNL d   1       2.333  -0.039   0.067  0.00  0.00    -0.366 N 
ATOM     17  H   UNL d   1       2.279   0.973   0.135  0.00  0.00     0.161 HD
BRANCH  16  18
ATOM     18  C   UNL d   1       3.269  -0.676   0.980  0.00  0.00     0.122 C 
BRANCH  18  19
ATOM     19  C   UNL d   1       4.746  -0.444   0.648  0.00  0.00     0.020 C 
BRANCH  19  20
ATOM     20  C   UNL d   1       5.563  -1.205   1.698  0.00  0.00     0.002 C 
BRANCH  20  21
ATOM     21  C   UNL d   1       7.069  -1.083   1.516  0.00  0.00     0.000 C 
BRANCH  21  22
ATOM     22  C   UNL d   1       7.798  -1.872   2.605  0.00  0.00    -0.000 C 
BRANCH  22  23
ATOM     23  C   UNL d   1       9.311  -1.761   2.442  0.00  0.00    -0.005 C 
ATOM     24  C   UNL d   1      10.053  -2.539   3.516  0.00  0.00     0.005 C 
ENDBRANCH  22  23
ENDBRANCH  21  22
ENDBRANCH  20  21
ENDBRANCH  19  20
ENDBRANCH  18  19
ENDBRANCH  16  18
ENDBRANCH   1  14
TORSDOF 9
