REMARK  3 active torsions:
REMARK  status: ('A' for Active; 'I' for Inactive)
REMARK    1  A    between atoms: N_4  and  C_1 
REMARK       I    between atoms: C_6  and  N_4 
REMARK    2  A    between atoms: C_9  and  C_5 
REMARK    3  A    between atoms: C_10  and  C_6 
ROOT
ATOM      1  C   UNL d   1       0.303  -1.176  -0.121  0.00  0.00     0.151 A 
ATOM      2  N   UNL d   1       1.437  -0.539  -0.228  0.00  0.00    -0.335 N 
ATOM      3  HN  UNL d   1       2.342  -0.981  -0.387  1.00  0.00     0.168 HD
ATOM      4  C   UNL d   1       1.236   0.824  -0.092  0.00  0.00     0.051 A 
ATOM      5  S   UNL d   1      -1.078  -0.215   0.155  0.00  0.00    -0.063 SA
ATOM      6  C   UNL d   1      -0.084   1.192   0.097  0.00  0.00     0.083 A 
ENDROOT
BRANCH   1   7
ATOM      7  N   UNL d   1       0.082  -2.527  -0.150  0.00  0.00    -0.303 N 
ATOM      8  C   UNL d   1       1.075  -3.394  -0.546  0.00  0.00     0.257 C 
ATOM      9  O   UNL d   1       2.138  -3.101  -1.083  0.00  0.00    -0.267 OA
ATOM     10  H   UNL d   1      -0.847  -2.849   0.074  0.00  0.00     0.171 HD
BRANCH   8  11
ATOM     11  C   UNL d   1       0.798  -4.838  -0.329  0.00  0.00     0.032 A 
ATOM     12  C   UNL d   1       1.306  -5.758  -1.259  0.00  0.00     0.018 A 
ATOM     13  C   UNL d   1       1.174  -7.130  -1.039  0.00  0.00     0.025 A 
ATOM     14  C   UNL d   1       0.540  -7.584   0.117  0.00  0.00     0.034 A 
ATOM     15  C   UNL d   1       0.025  -6.677   1.044  0.00  0.00     0.025 A 
ATOM     16 CL   UNL d   1       0.422  -9.273   0.417  0.00  0.00    -0.084 Cl
ATOM     17  C   UNL d   1       0.150  -5.301   0.824  0.00  0.00     0.018 A 
ENDBRANCH   8  11
ENDBRANCH   1   7
BRANCH   4  18
ATOM     18  C   UNL d   1       2.373   1.738  -0.085  0.00  0.00    -0.009 A 
ATOM     19  C   UNL d   1       2.267   3.080  -0.472  0.00  0.00     0.015 A 
ATOM     20  C   UNL d   1       3.385   3.923  -0.419  0.00  0.00     0.020 A 
ATOM     21  C   UNL d   1       4.612   3.427   0.021  0.00  0.00     0.011 A 
ATOM     22  C   UNL d   1       4.738   2.093   0.396  0.00  0.00     0.020 A 
ATOM     23 BR   UNL d   1       6.114   4.571   0.110  0.00  0.00    -0.051 Br
ATOM     24  C   UNL d   1       3.623   1.253   0.335  0.00  0.00     0.015 A 
ENDBRANCH   4  18
TORSDOF 3
