REMARK  2 active torsions:
REMARK  status: ('A' for Active; 'I' for Inactive)
REMARK    1  A    between atoms: C_9  and  C_7 
REMARK    2  A    between atoms: C_16  and  C_11 
ROOT
ATOM      1  C   UNL d   1      -1.224  -0.652   0.060  0.00  0.00     0.047 A 
ATOM      2  C   UNL d   1      -1.765   0.767   0.039  0.00  0.00     0.257 A 
ATOM      3  N   UNL d   1      -0.655   1.583   0.103  0.00  0.00    -0.322 N 
ATOM      4  C   UNL d   1       0.245  -0.526   0.096  0.00  0.00     0.006 A 
ATOM      5  C   UNL d   1      -1.905  -1.808   0.034  0.00  0.00     0.049 C 
ATOM      6  C   UNL d   1       0.520   0.846   0.110  0.00  0.00     0.046 A 
ATOM      7  O   UNL d   1      -2.914   1.145  -0.073  0.00  0.00    -0.267 OA
ATOM      8  C   UNL d   1       1.287  -1.435   0.062  0.00  0.00     0.015 A 
ATOM      9  C   UNL d   1       1.799   1.361   0.089  0.00  0.00     0.030 A 
ATOM     10  C   UNL d   1       2.599  -0.937   0.034  0.00  0.00     0.001 A 
ATOM     11  C   UNL d   1       2.852   0.448   0.045  0.00  0.00     0.002 A 
ATOM     12  H   UNL d   1      -0.721   2.591   0.085  0.00  0.00     0.169 HD
ENDROOT
BRANCH   5  13
ATOM     13  C   UNL d   1      -3.311  -1.940  -0.102  0.00  0.00     0.050 A 
ATOM     14  N   UNL d   1      -4.035  -1.079  -0.889  0.00  0.00    -0.345 N 
ATOM     15  C   UNL d   1      -5.345  -1.475  -0.897  0.00  0.00     0.081 A 
ATOM     16  H   UNL d   1      -3.686  -0.233  -1.320  0.00  0.00     0.167 HD
ATOM     17  N   UNL d   1      -5.505  -2.557  -0.165  0.00  0.00    -0.354 N 
ATOM     18  C   UNL d   1      -4.255  -2.852   0.331  0.00  0.00     0.119 A 
ATOM     19  HN  UNL d   1      -6.372  -3.069  -0.000  1.00  0.00     0.166 HD
BRANCH  15  20
ATOM     20  C   UNL d   1      -6.373  -0.727  -1.673  0.00  0.00     0.072 C 
ATOM     21  C   UNL d   1      -6.956   0.428  -0.876  0.00  0.00     0.013 C 
ENDBRANCH  15  20
ENDBRANCH   5  13
TORSDOF 2
