REMARK  6 active torsions:
REMARK  status: ('A' for Active; 'I' for Inactive)
REMARK    1  A    between atoms: C_3  and  N_1 
REMARK    2  A    between atoms: C_8  and  C_4 
REMARK    3  A    between atoms: S_9  and  C_6 
REMARK    4  A    between atoms: C_16  and  C_8 
REMARK    5  A    between atoms: C_11  and  S_9 
REMARK    6  A    between atoms: N_20  and  C_17 
ROOT
ATOM      1  N   UNL d   1      -0.010   0.817   0.182  0.00  0.00    -0.250 N 
ATOM      2  C   UNL d   1      -1.170   0.149   0.460  0.00  0.00     0.232 C 
ATOM      3  C   UNL d   1       1.086  -0.014   0.225  0.00  0.00     0.245 C 
ATOM      4  C   UNL d   1       0.605  -1.449   0.448  0.00  0.00     0.154 C 
ATOM      5  C   UNL d   1      -0.908  -1.319   0.388  0.00  0.00     0.129 C 
ATOM      6  O   UNL d   1      -2.277   0.621   0.692  0.00  0.00    -0.273 OA
ATOM      7  O   UNL d   1       2.260   0.344   0.239  0.00  0.00    -0.271 OA
ENDROOT
BRANCH   1   8
ATOM      8  C   UNL d   1       0.057   2.224   0.034  0.00  0.00     0.059 A 
ATOM      9  C   UNL d   1       0.628   2.853  -1.094  0.00  0.00     0.044 A 
ATOM     10  C   UNL d   1       0.536   4.255  -1.223  0.00  0.00     0.041 A 
ATOM     11  C   UNL d   1      -0.029   5.025  -0.212  0.00  0.00     0.035 A 
ATOM     12  C   UNL d   1      -0.554   4.419   0.920  0.00  0.00     0.026 A 
ATOM     13 CL   UNL d   1      -0.098   6.736  -0.381  0.00  0.00    -0.084 Cl
ATOM     14  C   UNL d   1      -0.534   3.027   1.030  0.00  0.00     0.033 A 
BRANCH   9  15
ATOM     15  C   UNL d   1       1.154   2.077  -2.257  0.00  0.00     0.194 C 
ATOM     16  O   UNL d   1       0.621   1.011  -2.553  0.00  0.00    -0.287 OA
BRANCH  15  17
ATOM     17  C   UNL d   1       2.242   2.623  -3.127  0.00  0.00     0.015 A 
ATOM     18  C   UNL d   1       2.239   2.297  -4.487  0.00  0.00     0.015 A 
ATOM     19  C   UNL d   1       3.191   2.850  -5.349  0.00  0.00     0.001 A 
ATOM     20  C   UNL d   1       4.149   3.734  -4.852  0.00  0.00     0.000 A 
ATOM     21  C   UNL d   1       4.174   4.043  -3.493  0.00  0.00     0.001 A 
ATOM     22  C   UNL d   1       3.237   3.475  -2.628  0.00  0.00     0.015 A 
ENDBRANCH  15  17
ENDBRANCH   9  15
ENDBRANCH   1   8
BRANCH   4  23
ATOM     23  S   UNL d   1       1.305  -2.529  -0.860  0.00  0.00    -0.113 SA
BRANCH  23  24
ATOM     24  C   UNL d   1       1.209  -4.203  -0.195  0.00  0.00     0.022 A 
ATOM     25  C   UNL d   1       0.017  -4.862   0.172  0.00  0.00     0.022 A 
ATOM     26  C   UNL d   1       0.040  -6.250   0.408  0.00  0.00     0.024 A 
ATOM     27  C   UNL d   1       1.226  -6.978   0.323  0.00  0.00     0.002 A 
ATOM     28  C   UNL d   1       2.409  -6.325   0.005  0.00  0.00     0.001 A 
ATOM     29  C   UNL d   1       2.401  -4.950  -0.250  0.00  0.00     0.020 A 
BRANCH  25  30
ATOM     30  N   UNL d   1      -1.240  -4.228   0.104  0.00  0.00    -0.302 NA
ATOM     31  H   UNL d   1      -1.467  -4.028  -0.875  0.00  0.00     0.124 HD
ATOM     32  H   UNL d   1      -1.984  -4.777   0.525  0.00  0.00     0.124 HD
ENDBRANCH  25  30
ENDBRANCH  23  24
ENDBRANCH   4  23
TORSDOF 6
