REMARK  5 active torsions:
REMARK  status: ('A' for Active; 'I' for Inactive)
REMARK    1  A    between atoms: C_9  and  N_1 
REMARK    2  A    between atoms: S_12  and  C_5 
REMARK    3  A    between atoms: O_17  and  C_18 
REMARK    4  A    between atoms: C_19  and  O_17 
REMARK    5  A    between atoms: C_22  and  C_19 
ROOT
ATOM      1  N   UNL d   1      -0.236  -1.319  -0.040  0.00  0.00    -0.273 N 
ATOM      2  C   UNL d   1       0.923  -0.683   0.400  0.00  0.00     0.163 A 
ATOM      3  N   UNL d   1       0.777   0.624   0.335  0.00  0.00    -0.281 N 
ATOM      4  HN  UNL d   1       1.455   1.319   0.647  1.00  0.00     0.188 HD
ATOM      5  C   UNL d   1      -1.041  -0.262  -0.451  0.00  0.00     0.165 A 
ATOM      6  N   UNL d   1      -0.442   0.886  -0.223  0.00  0.00    -0.278 N 
ATOM      7  HN  UNL d   1      -0.822   1.810  -0.427  1.00  0.00     0.189 HD
ATOM      8  C   UNL d   1       2.155  -1.305   0.784  0.00  0.00     0.120 A 
ATOM      9  O   UNL d   1       2.610  -2.480   0.237  0.00  0.00    -0.319 OA
ATOM     10  C   UNL d   1       3.079  -0.876   1.722  0.00  0.00     0.043 A 
ATOM     11  C   UNL d   1       3.776  -2.801   0.846  0.00  0.00     0.142 A 
ATOM     12  C   UNL d   1       4.106  -1.850   1.777  0.00  0.00     0.027 A 
ENDROOT
BRANCH   1  13
ATOM     13  C   UNL d   1      -0.515  -2.720  -0.014  0.00  0.00     0.043 A 
ATOM     14  C   UNL d   1      -0.035  -3.503   1.046  0.00  0.00     0.033 A 
ATOM     15  C   UNL d   1      -0.238  -4.887   1.065  0.00  0.00     0.039 A 
ATOM     16  C   UNL d   1      -0.946  -5.502   0.037  0.00  0.00     0.069 A 
ATOM     17  C   UNL d   1      -1.471  -4.720  -0.993  0.00  0.00     0.039 A 
ATOM     18  C   UNL d   1      -1.242  -3.339  -1.034  0.00  0.00     0.033 A 
BRANCH  16  19
ATOM     19  O   UNL d   1      -1.216  -6.840  -0.040  0.00  0.00    -0.347 OA
BRANCH  19  20
ATOM     20  C   UNL d   1      -0.221  -7.703   0.520  0.00  0.00     0.214 C 
BRANCH  20  21
ATOM     21  C   UNL d   1      -0.616  -9.152   0.340  0.00  0.00    -0.034 A 
ATOM     22  C   UNL d   1       0.374 -10.133   0.170  0.00  0.00     0.009 A 
ATOM     23  C   UNL d   1       0.029 -11.483   0.084  0.00  0.00     0.001 A 
ATOM     24  C   UNL d   1      -1.307 -11.869   0.174  0.00  0.00     0.000 A 
ATOM     25  C   UNL d   1      -2.299 -10.906   0.349  0.00  0.00     0.001 A 
ATOM     26  C   UNL d   1      -1.955  -9.557   0.437  0.00  0.00     0.009 A 
ENDBRANCH  20  21
ENDBRANCH  19  20
ENDBRANCH  16  19
ENDBRANCH   1  13
BRANCH   5  27
ATOM     27  S   UNL d   1      -2.686  -0.342  -0.999  0.00  0.00    -0.105 SA
ATOM     28  H   UNL d   1      -3.029  -1.548  -0.530  0.00  0.00     0.110 HD
ENDBRANCH   5  27
TORSDOF 5
