REMARK  7 active torsions:
REMARK  status: ('A' for Active; 'I' for Inactive)
REMARK    1  A    between atoms: C_2  and  N_1 
REMARK    2  A    between atoms: C_3  and  N_1 
REMARK    3  A    between atoms: N_5  and  C_2 
REMARK    4  A    between atoms: C_4  and  C_9 
REMARK    5  A    between atoms: O_15  and  C_4 
REMARK    6  A    between atoms: C_14  and  N_5 
REMARK    7  A    between atoms: C_21  and  O_15 
ROOT
ATOM      1  N   UNL d   1       1.077  -2.667   0.598  0.00  0.00    -0.333 N 
ATOM      2  H   UNL d   1       0.633  -2.649  -0.320  0.00  0.00     0.168 HD
ENDROOT
BRANCH   1   3
ATOM      3  C   UNL d   1       0.242  -2.330   1.627  0.00  0.00     0.177 C 
ATOM      4  S   UNL d   1       0.386  -2.809   3.230  0.00  0.00    -0.040 SA
BRANCH   3   5
ATOM      5  N   UNL d   1      -0.837  -1.549   1.334  0.00  0.00    -0.319 N 
ATOM      6  H   UNL d   1      -1.373  -1.312   2.158  0.00  0.00     0.170 HD
BRANCH   5   7
ATOM      7  C   UNL d   1      -1.277  -1.019   0.112  0.00  0.00     0.113 A 
ATOM      8  N   UNL d   1      -0.659  -1.405  -1.030  0.00  0.00    -0.352 N 
ATOM      9  C   UNL d   1      -1.132  -0.903  -2.194  0.00  0.00     0.089 A 
ATOM     10  HN  UNL d   1       0.132  -2.049  -1.014  1.00  0.00     0.166 HD
ATOM     11  C   UNL d   1      -2.219  -0.052  -2.285  0.00  0.00     0.018 A 
ATOM     12  C   UNL d   1      -2.837   0.340  -1.109  0.00  0.00     0.012 A 
ATOM     13  C   UNL d   1      -2.361  -0.128   0.121  0.00  0.00    -0.018 A 
ATOM     14  C   UNL d   1      -2.990   0.381   1.389  0.00  0.00     0.052 C 
ENDBRANCH   5   7
ENDBRANCH   3   5
ENDBRANCH   1   3
BRANCH   1  15
ATOM     15  C   UNL d   1       2.460  -2.931   0.631  0.00  0.00     0.034 A 
ATOM     16  C   UNL d   1       3.022  -3.692  -0.398  0.00  0.00     0.030 A 
ATOM     17  C   UNL d   1       4.411  -3.869  -0.476  0.00  0.00     0.020 A 
ATOM     18  C   UNL d   1       5.254  -3.244   0.452  0.00  0.00     0.039 A 
ATOM     19  C   UNL d   1       4.689  -2.498   1.492  0.00  0.00     0.020 A 
ATOM     20  C   UNL d   1       3.303  -2.350   1.583  0.00  0.00     0.030 A 
BRANCH  18  21
ATOM     21  C   UNL d   1       6.739  -3.259   0.338  0.00  0.00     0.293 C 
ATOM     22  O   UNL d   1       7.471  -2.602   1.063  0.00  0.00    -0.259 OA
BRANCH  21  23
ATOM     23  O   UNL d   1       7.136  -4.039  -0.696  0.00  0.00    -0.318 OA
BRANCH  23  24
ATOM     24  C   UNL d   1       8.534  -3.974  -1.015  0.00  0.00     0.174 C 
ATOM     25  C   UNL d   1       9.358  -4.840  -0.081  0.00  0.00     0.034 C 
ENDBRANCH  23  24
ENDBRANCH  21  23
ENDBRANCH  18  21
ENDBRANCH   1  15
TORSDOF 7
