REMARK  6 active torsions:
REMARK  status: ('A' for Active; 'I' for Inactive)
REMARK    1  A    between atoms: N_2  and  C_1 
REMARK       I    between atoms: C_3  and  N_2 
REMARK    2  A    between atoms: C_8  and  C_3 
REMARK    3  A    between atoms: C_19  and  C_4 
REMARK    4  A    between atoms: C_20  and  C_5 
REMARK    5  A    between atoms: S_6  and  C_8 
REMARK    6  A    between atoms: C_9  and  S_6 
ROOT
ATOM      1  N   UNL d   1       2.759  -0.773   0.281  0.00  0.00    -0.326 N 
ATOM      2  C   UNL d   1       3.737  -0.746  -0.703  0.00  0.00     0.231 C 
ATOM      3  O   UNL d   1       3.582  -0.299  -1.839  0.00  0.00    -0.272 OA
ATOM      4  H   UNL d   1       2.872  -1.567   0.903  0.00  0.00     0.169 HD
ENDROOT
BRANCH   1   5
ATOM      5  C   UNL d   1       1.423  -0.385   0.034  0.00  0.00     0.047 A 
ATOM      6  C   UNL d   1       0.424  -1.386   0.030  0.00  0.00    -0.031 A 
ATOM      7  C   UNL d   1      -0.927  -0.998   0.022  0.00  0.00     0.009 A 
ATOM      8  C   UNL d   1      -1.282   0.345  -0.001  0.00  0.00     0.001 A 
ATOM      9  C   UNL d   1      -0.294   1.322  -0.074  0.00  0.00     0.009 A 
ATOM     10  C   UNL d   1       1.074   0.985  -0.058  0.00  0.00    -0.031 A 
BRANCH   6  11
ATOM     11  C   UNL d   1       0.750  -2.853  -0.166  0.00  0.00     0.036 C 
ATOM     12  C   UNL d   1       0.144  -3.788   0.868  0.00  0.00     0.010 C 
ENDBRANCH   6  11
BRANCH  10  13
ATOM     13  C   UNL d   1       2.089   2.101  -0.198  0.00  0.00     0.036 C 
ATOM     14  C   UNL d   1       1.949   3.227   0.821  0.00  0.00     0.010 C 
ENDBRANCH  10  13
ENDBRANCH   1   5
BRANCH   2  15
ATOM     15  C   UNL d   1       5.101  -1.235  -0.226  0.00  0.00     0.182 C 
BRANCH  15  16
ATOM     16  S   UNL d   1       4.984  -2.810   0.698  0.00  0.00    -0.121 SA
BRANCH  16  17
ATOM     17  C   UNL d   1       6.667  -3.112   1.238  0.00  0.00     0.001 A 
ATOM     18  C   UNL d   1       7.759  -2.282   0.958  0.00  0.00     0.020 A 
ATOM     19  C   UNL d   1       9.039  -2.597   1.436  0.00  0.00     0.025 A 
ATOM     20  C   UNL d   1       9.238  -3.746   2.194  0.00  0.00     0.034 A 
ATOM     21  C   UNL d   1       8.168  -4.587   2.480  0.00  0.00     0.025 A 
ATOM     22 CL   UNL d   1      10.809  -4.126   2.781  0.00  0.00    -0.084 Cl
ATOM     23  C   UNL d   1       6.889  -4.271   1.999  0.00  0.00     0.020 A 
ENDBRANCH  16  17
ENDBRANCH  15  16
ENDBRANCH   2  15
TORSDOF 6
