REMARK  2 active torsions:
REMARK  status: ('A' for Active; 'I' for Inactive)
REMARK    1  A    between atoms: C_9  and  N_1 
REMARK    2  A    between atoms: N_10  and  C_4 
ROOT
ATOM      1  N   UNL d   1      -0.158  -1.136  -0.004  0.00  0.00    -0.285 N 
ATOM      2  C   UNL d   1       1.097  -0.630   0.414  0.00  0.00     0.152 A 
ATOM      3  C   UNL d   1      -0.509   1.099  -0.424  0.00  0.00     0.126 A 
ATOM      4  C   UNL d   1      -1.037  -0.143  -0.496  0.00  0.00     0.114 A 
ATOM      5  S   UNL d   1       1.067   1.135   0.278  0.00  0.00    -0.046 SA
ATOM      6  C   UNL d   1      -1.176   2.279  -0.837  0.00  0.00     0.110 C 
ATOM      7  N   UNL d   1      -1.756   3.230  -1.167  0.00  0.00    -0.191 NA
ATOM      8  S   UNL d   1       2.509  -1.406   0.862  0.00  0.00    -0.052 SA
ENDROOT
BRANCH   4   9
ATOM      9  N   UNL d   1      -2.316  -0.412  -0.954  0.00  0.00    -0.286 NA
ATOM     10  H   UNL d   1      -2.939   0.391  -1.023  0.00  0.00     0.125 HD
ATOM     11  H   UNL d   1      -2.754  -1.186  -0.457  0.00  0.00     0.125 HD
ENDBRANCH   4   9
BRANCH   1  12
ATOM     12  C   UNL d   1      -0.468  -2.543   0.002  0.00  0.00     0.042 A 
ATOM     13  C   UNL d   1      -0.133  -3.360   1.092  0.00  0.00     0.030 A 
ATOM     14  C   UNL d   1      -0.431  -4.727   1.092  0.00  0.00     0.002 A 
ATOM     15  C   UNL d   1      -1.095  -5.297   0.011  0.00  0.00     0.000 A 
ATOM     16  C   UNL d   1      -1.457  -4.501  -1.071  0.00  0.00     0.002 A 
ATOM     17  C   UNL d   1      -1.142  -3.138  -1.076  0.00  0.00     0.030 A 
ENDBRANCH   1  12
TORSDOF 2
