REMARK  5 active torsions:
REMARK  status: ('A' for Active; 'I' for Inactive)
REMARK    1  A    between atoms: C_7  and  N_1 
REMARK    2  A    between atoms: S_8  and  C_2 
REMARK    3  A    between atoms: C_16  and  S_8 
REMARK    4  A    between atoms: C_10  and  C_11 
REMARK    5  A    between atoms: C_17  and  C_16 
ROOT
ATOM      1  N   UNL d   1       0.933  -0.601   0.046  0.00  0.00    -0.241 N 
ATOM      2  C   UNL d   1       0.874   0.770   0.076  0.00  0.00     0.170 A 
ATOM      3  C   UNL d   1      -0.396  -0.993   0.058  0.00  0.00     0.347 A 
ATOM      4  N   UNL d   1      -0.330   1.268   0.146  0.00  0.00    -0.275 N 
ATOM      5  HN  UNL d   1      -0.601   2.250   0.190  1.00  0.00     0.189 HD
ATOM      6  N   UNL d   1      -1.139   0.179   0.146  0.00  0.00    -0.249 N 
ATOM      7  O   UNL d   1      -0.901  -2.107   0.024  0.00  0.00    -0.245 OA
ATOM      8  H   UNL d   1      -2.148   0.235   0.137  0.00  0.00     0.192 HD
ENDROOT
BRANCH   1   9
ATOM      9  C   UNL d   1       2.039  -1.494  -0.016  0.00  0.00     0.046 A 
ATOM     10  C   UNL d   1       1.904  -2.786  -0.543  0.00  0.00     0.031 A 
ATOM     11  C   UNL d   1       3.009  -3.644  -0.684  0.00  0.00     0.010 A 
ATOM     12  C   UNL d   1       4.299  -3.251  -0.293  0.00  0.00    -0.051 A 
ATOM     13  C   UNL d   1       4.416  -1.991   0.296  0.00  0.00     0.010 A 
ATOM     14  C   UNL d   1       3.308  -1.141   0.445  0.00  0.00     0.031 A 
BRANCH  12  15
ATOM     15  C   UNL d   1       5.507  -4.177  -0.509  0.00  0.00    -0.024 C 
ATOM     16  C   UNL d   1       6.847  -3.561  -0.040  0.00  0.00     0.019 C 
ATOM     17  C   UNL d   1       5.306  -5.490   0.274  0.00  0.00     0.019 C 
ATOM     18  C   UNL d   1       5.661  -4.498  -2.011  0.00  0.00     0.019 C 
ENDBRANCH  12  15
ENDBRANCH   1   9
BRANCH   2  19
ATOM     19  S   UNL d   1       2.250   1.817  -0.104  0.00  0.00    -0.087 SA
BRANCH  19  20
ATOM     20  C   UNL d   1       1.663   3.294   0.765  0.00  0.00     0.121 C 
BRANCH  20  21
ATOM     21  C   UNL d   1       2.710   4.382   0.833  0.00  0.00    -0.049 A 
ATOM     22  C   UNL d   1       2.797   5.347  -0.182  0.00  0.00     0.008 A 
ATOM     23  C   UNL d   1       3.718   6.396  -0.095  0.00  0.00     0.007 A 
ATOM     24  C   UNL d   1       4.578   6.497   1.005  0.00  0.00    -0.062 A 
ATOM     25  C   UNL d   1       4.521   5.516   2.001  0.00  0.00     0.007 A 
ATOM     26  C   UNL d   1       5.533   7.651   1.104  0.00  0.00     0.048 C 
ATOM     27  C   UNL d   1       3.599   4.467   1.913  0.00  0.00     0.008 A 
ENDBRANCH  20  21
ENDBRANCH  19  20
ENDBRANCH   2  19
TORSDOF 5
