REMARK  8 active torsions:
REMARK  status: ('A' for Active; 'I' for Inactive)
REMARK    1  A    between atoms: N_2  and  S_1 
REMARK    2  A    between atoms: C_9  and  S_1 
REMARK    3  A    between atoms: N_5  and  N_2 
REMARK    4  A    between atoms: C_3  and  C_7 
REMARK    5  A    between atoms: C_4  and  C_8 
REMARK    6  A    between atoms: C_6  and  N_5 
REMARK    7  A    between atoms: N_12  and  C_6 
REMARK    8  A    between atoms: C_11  and  N_12 
ROOT
ATOM      1  C   UNL d   1       0.707   0.350   3.891  0.00  0.00     0.191 C 
ATOM      2  S   UNL d   1       1.207  -0.469   5.265  0.00  0.00    -0.039 SA
ENDROOT
BRANCH   1   3
ATOM      3  N   UNL d   1       1.016  -0.014   2.597  0.00  0.00    -0.266 N 
ATOM      4  H   UNL d   1       0.190  -0.253   2.043  0.00  0.00     0.190 HD
BRANCH   3   5
ATOM      5  N   UNL d   1       2.163  -0.890   2.367  0.00  0.00    -0.221 N 
ATOM      6  H   UNL d   1       3.078  -0.437   2.305  0.00  0.00     0.200 HD
BRANCH   5   7
ATOM      7  S   UNL d   1       1.976  -2.302   1.448  0.00  0.00     0.276 S 
ATOM      8  O   UNL d   1       1.453  -1.885   0.165  0.00  0.00    -0.199 OA
ATOM      9  O   UNL d   1       1.303  -3.294   2.256  0.00  0.00    -0.199 OA
BRANCH   7  10
ATOM     10  C   UNL d   1       3.667  -2.800   1.250  0.00  0.00     0.081 A 
ATOM     11  C   UNL d   1       4.466  -2.951   2.382  0.00  0.00     0.026 A 
ATOM     12  C   UNL d   1       5.823  -3.263   2.229  0.00  0.00     0.008 A 
ATOM     13  C   UNL d   1       6.368  -3.442   0.952  0.00  0.00    -0.062 A 
ATOM     14  C   UNL d   1       5.542  -3.315  -0.174  0.00  0.00     0.008 A 
ATOM     15  C   UNL d   1       7.828  -3.760   0.803  0.00  0.00     0.048 C 
ATOM     16  C   UNL d   1       4.188  -2.997  -0.030  0.00  0.00     0.026 A 
ENDBRANCH   7  10
ENDBRANCH   5   7
ENDBRANCH   3   5
ENDBRANCH   1   3
BRANCH   1  17
ATOM     17  N   UNL d   1      -0.135   1.417   4.060  0.00  0.00    -0.332 N 
ATOM     18  H   UNL d   1      -0.528   1.466   4.996  0.00  0.00     0.168 HD
BRANCH  17  19
ATOM     19  C   UNL d   1      -0.374   2.527   3.224  0.00  0.00     0.035 A 
ATOM     20  C   UNL d   1       0.376   2.808   2.082  0.00  0.00     0.045 A 
ATOM     21  C   UNL d   1       0.089   3.922   1.275  0.00  0.00     0.050 A 
ATOM     22  C   UNL d   1      -0.953   4.781   1.648  0.00  0.00     0.032 A 
ATOM     23  C   UNL d   1      -1.703   4.535   2.807  0.00  0.00     0.050 A 
ATOM     24  C   UNL d   1      -1.387   3.417   3.601  0.00  0.00     0.045 A 
BRANCH  21  25
ATOM     25  C   UNL d   1       0.904   4.149   0.025  0.00  0.00     0.417 C 
ATOM     26  F   UNL d   1       0.465   5.204  -0.722  0.00  0.00    -0.166 F 
ATOM     27  F   UNL d   1       2.213   4.396   0.295  0.00  0.00    -0.166 F 
ATOM     28  F   UNL d   1       0.889   3.066  -0.800  0.00  0.00    -0.166 F 
ENDBRANCH  21  25
BRANCH  23  29
ATOM     29  C   UNL d   1      -2.854   5.434   3.194  0.00  0.00     0.417 C 
ATOM     30  F   UNL d   1      -3.185   6.334   2.228  0.00  0.00    -0.166 F 
ATOM     31  F   UNL d   1      -3.991   4.732   3.454  0.00  0.00    -0.166 F 
ATOM     32  F   UNL d   1      -2.596   6.161   4.315  0.00  0.00    -0.166 F 
ENDBRANCH  23  29
ENDBRANCH  17  19
ENDBRANCH   1  17
TORSDOF 8
