REMARK  4 active torsions:
REMARK  status: ('A' for Active; 'I' for Inactive)
REMARK    1  A    between atoms: C_4  and  C_1 
REMARK    2  A    between atoms: N_12  and  C_2 
REMARK    3  A    between atoms: C_3  and  N_13 
REMARK    4  A    between atoms: C_8  and  C_5 
ROOT
ATOM      1  N   UNL d   1      -3.726  -0.397  -0.217  0.00  0.00    -0.363 N 
ATOM      2  N   UNL d   1      -6.579  -0.635  -0.212  0.00  0.00    -0.377 N 
ATOM      3  C   UNL d   1      -4.394  -0.853   1.020  0.00  0.00     0.144 C 
ATOM      4  C   UNL d   1      -4.541   0.638  -0.888  0.00  0.00     0.144 C 
ATOM      5  C   UNL d   1      -5.746  -1.526   0.643  0.00  0.00     0.143 C 
ATOM      6  C   UNL d   1      -5.857  -0.029  -1.350  0.00  0.00     0.143 C 
ENDROOT
BRANCH   2   7
ATOM      7  C   UNL d   1      -7.955  -0.888  -0.277  0.00  0.00     0.045 A 
ATOM      8  C   UNL d   1      -8.652  -0.799   0.940  0.00  0.00     0.064 A 
ATOM      9  C   UNL d   1     -10.039  -0.869   0.976  0.00  0.00     0.119 A 
ATOM     10  N   UNL d   1     -10.773  -1.007  -0.152  0.00  0.00    -0.352 N 
ATOM     11  C   UNL d   1     -10.142  -1.121  -1.326  0.00  0.00     0.045 A 
ATOM     12  HN  UNL d   1     -11.792  -1.024  -0.108  1.00  0.00     0.166 HD
ATOM     13  C   UNL d   1      -8.730  -1.118  -1.462  0.00  0.00     0.017 A 
ATOM     14  C   UNL d   1     -10.948  -1.249  -2.450  0.00  0.00     0.030 A 
ATOM     15  C   UNL d   1      -8.226  -1.372  -2.769  0.00  0.00     0.016 A 
ATOM     16  C   UNL d   1      -9.054  -1.502  -3.885  0.00  0.00     0.001 A 
ATOM     17  C   UNL d   1     -10.424  -1.417  -3.729  0.00  0.00     0.002 A 
BRANCH   9  18
ATOM     18  C   UNL d   1     -10.736  -0.759   2.323  0.00  0.00     0.432 C 
ATOM     19  F   UNL d   1     -12.097  -0.791   2.260  0.00  0.00    -0.165 F 
ATOM     20  F   UNL d   1     -10.381  -1.765   3.176  0.00  0.00    -0.165 F 
ATOM     21  F   UNL d   1     -10.422   0.398   2.979  0.00  0.00    -0.165 F 
ENDBRANCH   9  18
ENDBRANCH   2   7
BRANCH   1  22
ATOM     22  C   UNL d   1      -2.362  -0.176  -0.159  0.00  0.00     0.118 A 
ATOM     23  C   UNL d   1      -1.548  -0.309  -1.286  0.00  0.00     0.093 A 
ATOM     24  C   UNL d   1      -0.153  -0.144  -1.140  0.00  0.00     0.045 A 
ATOM     25  C   UNL d   1       0.391   0.119   0.104  0.00  0.00     0.050 A 
ATOM     26  C   UNL d   1      -0.475   0.225   1.170  0.00  0.00     0.113 A 
ATOM     27 CL   UNL d   1       2.085   0.276   0.308  0.00  0.00    -0.083 Cl
ATOM     28  N   UNL d   1      -1.821   0.082   1.060  0.00  0.00    -0.350 N 
ATOM     29  HN  UNL d   1      -2.418   0.167   1.883  1.00  0.00     0.166 HD
BRANCH  23  30
ATOM     30  C   UNL d   1      -2.041  -0.676  -2.656  0.00  0.00     0.421 C 
ATOM     31  F   UNL d   1      -3.354  -1.006  -2.786  0.00  0.00    -0.166 F 
ATOM     32  F   UNL d   1      -1.842   0.342  -3.546  0.00  0.00    -0.166 F 
ATOM     33  F   UNL d   1      -1.359  -1.740  -3.177  0.00  0.00    -0.166 F 
ENDBRANCH  23  30
ENDBRANCH   1  22
TORSDOF 4
