REMARK  2 active torsions:
REMARK  status: ('A' for Active; 'I' for Inactive)
REMARK    1  A    between atoms: C_3  and  C_1 
REMARK    2  A    between atoms: C_4  and  C_2 
ROOT
ATOM      1  C   UNL d   1       1.015   0.030   0.076  0.00  0.00    -0.061 C 
ATOM      2  C   UNL d   1      -0.188   0.015   0.076  0.00  0.00    -0.061 C 
ENDROOT
BRANCH   1   3
ATOM      3  C   UNL d   1       2.442   0.048  -0.018  0.00  0.00     0.018 A 
ATOM      4  C   UNL d   1       3.124   1.264  -0.092  0.00  0.00     0.021 A 
ATOM      5  C   UNL d   1       4.511   1.282  -0.263  0.00  0.00     0.008 A 
ATOM      6  C   UNL d   1       5.230   0.084  -0.362  0.00  0.00    -0.062 A 
ATOM      7  C   UNL d   1       4.543  -1.132  -0.266  0.00  0.00     0.008 A 
ATOM      8  C   UNL d   1       6.711   0.117  -0.603  0.00  0.00     0.048 C 
ATOM      9  C   UNL d   1       3.155  -1.150  -0.094  0.00  0.00     0.021 A 
ENDBRANCH   1   3
BRANCH   2  10
ATOM     10  C   UNL d   1      -1.616  -0.004  -0.018  0.00  0.00     0.018 A 
ATOM     11  C   UNL d   1      -2.297  -1.220  -0.092  0.00  0.00     0.021 A 
ATOM     12  C   UNL d   1      -3.685  -1.237  -0.263  0.00  0.00     0.008 A 
ATOM     13  C   UNL d   1      -4.404  -0.039  -0.362  0.00  0.00    -0.062 A 
ATOM     14  C   UNL d   1      -3.716   1.177  -0.265  0.00  0.00     0.008 A 
ATOM     15  C   UNL d   1      -5.884  -0.072  -0.603  0.00  0.00     0.048 C 
ATOM     16  C   UNL d   1      -2.329   1.194  -0.093  0.00  0.00     0.021 A 
ENDBRANCH   2  10
TORSDOF 2
