REMARK  6 active torsions:
REMARK  status: ('A' for Active; 'I' for Inactive)
REMARK    1  A    between atoms: N_2  and  C_1 
REMARK    2  A    between atoms: N_8  and  C_1 
REMARK    3  A    between atoms: C_3  and  N_2 
REMARK    4  A    between atoms: N_4  and  N_8 
REMARK    5  A    between atoms: N_10  and  C_9 
REMARK    6  A    between atoms: C_17  and  C_15 
ROOT
ATOM      1  N   UNL d   1       2.479  -0.242  -0.040  0.00  0.00    -0.276 N 
ATOM      2  H   UNL d   1       2.980   0.362  -0.686  0.00  0.00     0.189 HD
ENDROOT
BRANCH   1   3
ATOM      3  N   UNL d   1       3.105  -0.724   1.076  0.00  0.00    -0.309 N 
ATOM      4  C   UNL d   1       4.366  -0.419   1.133  0.00  0.00     0.118 C 
ATOM      5  HN  UNL d   1       2.628  -1.270   1.794  1.00  0.00     0.186 HD
BRANCH   4   6
ATOM      6  C   UNL d   1       5.236  -0.812   2.258  0.00  0.00    -0.019 A 
ATOM      7  C   UNL d   1       4.729  -1.486   3.362  0.00  0.00     0.015 A 
ATOM      8  C   UNL d   1       5.575  -1.802   4.434  0.00  0.00     0.030 A 
ATOM      9  C   UNL d   1       6.939  -1.463   4.436  0.00  0.00     0.029 A 
ATOM     10  C   UNL d   1       7.421  -0.802   3.294  0.00  0.00     0.030 A 
ATOM     11  C   UNL d   1       6.589  -0.476   2.215  0.00  0.00     0.015 A 
BRANCH   9  12
ATOM     12  N   UNL d   1       7.763  -1.730   5.515  0.00  0.00    -0.390 N 
ATOM     13  C   UNL d   1       7.232  -1.893   6.863  0.00  0.00     0.149 C 
ATOM     14  C   UNL d   1       9.168  -2.072   5.333  0.00  0.00     0.149 C 
ENDBRANCH   9  12
ENDBRANCH   4   6
ENDBRANCH   1   3
BRANCH   1  15
ATOM     15  C   UNL d   1       1.224  -0.650  -0.433  0.00  0.00     0.191 C 
ATOM     16  S   UNL d   1       0.623  -0.023  -1.865  0.00  0.00    -0.039 SA
BRANCH  15  17
ATOM     17  N   UNL d   1       0.604  -1.513   0.440  0.00  0.00    -0.332 N 
ATOM     18  H   UNL d   1       0.951  -1.425   1.388  0.00  0.00     0.168 HD
BRANCH  17  19
ATOM     19  C   UNL d   1      -0.417  -2.447   0.183  0.00  0.00     0.040 A 
ATOM     20  C   UNL d   1      -1.342  -2.811   1.183  0.00  0.00    -0.034 A 
ATOM     21  C   UNL d   1      -2.278  -3.831   0.913  0.00  0.00     0.032 A 
ATOM     22  C   UNL d   1      -1.438  -2.132   2.521  0.00  0.00     0.050 C 
ATOM     23  C   UNL d   1      -2.300  -4.477  -0.323  0.00  0.00     0.034 A 
ATOM     24  C   UNL d   1      -1.393  -4.120  -1.309  0.00  0.00     0.026 A 
ATOM     25 CL   UNL d   1      -3.442  -5.727  -0.622  0.00  0.00    -0.084 Cl
ATOM     26  C   UNL d   1      -0.458  -3.115  -1.053  0.00  0.00     0.032 A 
ENDBRANCH  17  19
ENDBRANCH  15  17
ENDBRANCH   1  15
TORSDOF 6
