REMARK  5 active torsions:
REMARK  status: ('A' for Active; 'I' for Inactive)
REMARK    1  A    between atoms: C_7  and  C_1 
REMARK    2  A    between atoms: C_10  and  C_2 
REMARK    3  A    between atoms: N_6  and  C_7 
REMARK    4  A    between atoms: C_11  and  N_9 
REMARK    5  A    between atoms: C_16  and  C_11 
ROOT
ATOM      1  C   UNL d   1       1.940   1.442  -0.221  0.00  0.00     0.315 C 
ENDROOT
BRANCH   1   2
ATOM      2  N   UNL d   1       3.264   1.074   0.334  0.00  0.00     0.096 N 
ATOM      3  C   UNL d   1       3.977   0.210  -0.652  0.00  0.00     0.303 C 
ATOM      4  C   UNL d   1       3.422  -1.242  -0.781  0.00  0.00     0.303 C 
ATOM      5  N   UNL d   1       3.233  -1.972   0.493  0.00  0.00     0.096 N 
ATOM      6  C   UNL d   1       2.565  -1.084   1.468  0.00  0.00     0.303 C 
ATOM      7  C   UNL d   1       3.224   0.303   1.592  0.00  0.00     0.303 C 
BRANCH   5   8
ATOM      8  C   UNL d   1       4.519  -2.495   0.994  0.00  0.00     0.311 C 
BRANCH   8   9
ATOM      9  C   UNL d   1       4.389  -3.305   2.270  0.00  0.00    -0.030 A 
ATOM     10  C   UNL d   1       3.578  -4.449   2.310  0.00  0.00     0.009 A 
ATOM     11  C   UNL d   1       3.429  -5.171   3.496  0.00  0.00     0.001 A 
ATOM     12  C   UNL d   1       4.094  -4.761   4.650  0.00  0.00     0.000 A 
ATOM     13  C   UNL d   1       4.910  -3.632   4.622  0.00  0.00     0.001 A 
ATOM     14  C   UNL d   1       5.060  -2.909   3.437  0.00  0.00     0.009 A 
ENDBRANCH   8   9
ENDBRANCH   5   8
ENDBRANCH   1   2
BRANCH   1  15
ATOM     15  C   UNL d   1       1.119   2.438   0.558  0.00  0.00     0.016 C 
ATOM     16  C   UNL d   1       0.208   3.415  -0.002  0.00  0.00     0.067 C 
ATOM     17  N   UNL d   1      -0.347   4.171   0.965  0.00  0.00    -0.300 N 
ATOM     18  N   UNL d   1       0.093   3.637   2.101  0.00  0.00    -0.311 N 
ATOM     19  HN  UNL d   1      -0.967   4.973   0.851  1.00  0.00     0.187 HD
ATOM     20  C   UNL d   1       0.917   2.572   1.921  0.00  0.00     0.118 C 
ATOM     21  H   UNL d   1      -0.238   4.032   2.977  0.00  0.00     0.186 HD
BRANCH  16  22
ATOM     22  C   UNL d   1      -0.218   3.623  -1.391  0.00  0.00    -0.007 A 
ATOM     23  C   UNL d   1      -0.392   2.544  -2.269  0.00  0.00     0.014 A 
ATOM     24  C   UNL d   1      -0.886   2.743  -3.559  0.00  0.00     0.001 A 
ATOM     25  C   UNL d   1      -1.234   4.023  -3.985  0.00  0.00     0.000 A 
ATOM     26  C   UNL d   1      -1.079   5.106  -3.122  0.00  0.00     0.001 A 
ATOM     27  C   UNL d   1      -0.569   4.907  -1.837  0.00  0.00     0.014 A 
ENDBRANCH  16  22
ENDBRANCH   1  15
TORSDOF 5
