REMARK  4 active torsions:
REMARK  status: ('A' for Active; 'I' for Inactive)
REMARK    1  A    between atoms: C_4  and  C_1 
REMARK       I    between atoms: N_5  and  C_1 
REMARK    2  A    between atoms: N_2  and  C_7 
REMARK    3  A    between atoms: N_3  and  C_8 
REMARK    4  A    between atoms: C_23  and  N_5 
ROOT
ATOM      1  C   UNL d   1      -3.984  -0.444  -1.537  0.00  0.00     0.030 A 
ATOM      2  C   UNL d   1      -3.121   0.034  -2.536  0.00  0.00     0.031 A 
ATOM      3  C   UNL d   1      -3.395  -0.819  -0.326  0.00  0.00     0.031 A 
ATOM      4  C   UNL d   1      -1.168  -0.302  -1.137  0.00  0.00     0.035 A 
ATOM      5  C   UNL d   1      -2.013  -0.754  -0.129  0.00  0.00     0.032 A 
ATOM      6  C   UNL d   1      -1.735   0.116  -2.341  0.00  0.00     0.032 A 
ENDROOT
BRANCH   1   7
ATOM      7  N   UNL d   1      -5.342  -0.604  -1.792  0.00  0.00    -0.381 N 
ATOM      8  C   UNL d   1      -6.134  -1.501  -0.948  0.00  0.00     0.125 C 
ATOM      9  C   UNL d   1      -7.252  -2.100  -1.789  0.00  0.00     0.045 C 
ATOM     10  C   UNL d   1      -8.068  -1.045  -2.543  0.00  0.00     0.091 C 
ATOM     11  C   UNL d   1      -7.195   0.012  -3.234  0.00  0.00     0.045 C 
ATOM     12  C   UNL d   1      -6.073   0.539  -2.347  0.00  0.00     0.125 C 
BRANCH  10  13
ATOM     13  N   UNL d   1      -9.149  -0.473  -1.737  0.00  0.00    -0.362 N 
ATOM     14  C   UNL d   1      -9.037   0.336  -0.638  0.00  0.00     0.091 A 
ATOM     15  C   UNL d   1     -10.306   0.664  -0.209  0.00  0.00     0.019 A 
ATOM     16  C   UNL d   1     -11.219   0.014  -1.067  0.00  0.00     0.019 A 
ATOM     17  C   UNL d   1     -10.483  -0.687  -1.994  0.00  0.00     0.091 A 
ENDBRANCH  10  13
ENDBRANCH   1   7
BRANCH   4  18
ATOM     18  N   UNL d   1       0.232  -0.231  -1.001  0.00  0.00    -0.323 N 
ATOM     19  C   UNL d   1       0.992  -0.783   0.018  0.00  0.00     0.263 C 
ATOM     20  O   UNL d   1       0.539  -1.500   0.907  0.00  0.00    -0.267 OA
ATOM     21  H   UNL d   1       0.746   0.222  -1.744  0.00  0.00     0.169 HD
BRANCH  19  22
ATOM     22  C   UNL d   1       2.419  -0.482  -0.024  0.00  0.00     0.072 A 
ATOM     23  S   UNL d   1       3.138   0.512  -1.216  0.00  0.00    -0.097 SA
ATOM     24  C   UNL d   1       4.697   0.307  -0.541  0.00  0.00     0.050 A 
ATOM     25  C   UNL d   1       4.676  -0.494   0.578  0.00  0.00     0.009 A 
ATOM     26  C   UNL d   1       3.361  -0.944   0.878  0.00  0.00     0.025 A 
ENDBRANCH  19  22
ENDBRANCH   4  18
TORSDOF 4
