REMARK  2 active torsions:
REMARK  status: ('A' for Active; 'I' for Inactive)
REMARK    1  A    between atoms: C_8  and  N_1 
REMARK    2  A    between atoms: C_7  and  C_8 
ROOT
ATOM      1  N   UNL d   1       0.047  -1.573   0.183  0.00  0.00    -0.344 N 
ATOM      2  C   UNL d   1       1.144  -0.732   0.263  0.00  0.00     0.046 A 
ATOM      3  C   UNL d   1      -1.126  -0.843   0.131  0.00  0.00     0.046 A 
ATOM      4  C   UNL d   1       0.662   0.574   0.139  0.00  0.00     0.003 A 
ATOM      5  C   UNL d   1      -0.765   0.503   0.074  0.00  0.00     0.003 A 
ATOM      6  C   UNL d   1      -2.472  -1.248   0.100  0.00  0.00     0.030 A 
ATOM      7  C   UNL d   1       2.516  -1.003   0.402  0.00  0.00     0.030 A 
ATOM      8  C   UNL d   1       1.584   1.641   0.107  0.00  0.00     0.014 A 
ATOM      9  C   UNL d   1      -1.780   1.479  -0.031  0.00  0.00     0.014 A 
ATOM     10  C   UNL d   1       3.408   0.074   0.379  0.00  0.00     0.002 A 
ATOM     11  C   UNL d   1      -3.458  -0.262   0.010  0.00  0.00     0.002 A 
ATOM     12  C   UNL d   1       2.952   1.379   0.221  0.00  0.00     0.001 A 
ATOM     13  C   UNL d   1      -3.120   1.085  -0.060  0.00  0.00     0.001 A 
ENDROOT
BRANCH   1  14
ATOM     14  C   UNL d   1       0.133  -3.026   0.032  0.00  0.00     0.145 C 
BRANCH  14  15
ATOM     15  C   UNL d   1       0.022  -3.748   1.339  0.00  0.00     0.075 A 
ATOM     16  S   UNL d   1       0.019  -5.483   1.275  0.00  0.00    -0.161 SA
ATOM     17  C   UNL d   1      -1.253  -4.425   1.758  0.00  0.00     0.091 A 
ENDBRANCH  14  15
ENDBRANCH   1  14
TORSDOF 2
