REMARK  3 active torsions:
REMARK  status: ('A' for Active; 'I' for Inactive)
REMARK    1  A    between atoms: C_7  and  N_2 
REMARK    2  A    between atoms: C_12  and  N_3 
REMARK    3  A    between atoms: C_9  and  C_10 
ROOT
ATOM      1  C   UNL d   1       1.335   0.300   0.185  0.00  0.00     0.332 C 
ATOM      2  N   UNL d   1       0.056   0.897   0.191  0.00  0.00    -0.234 N 
ATOM      3  N   UNL d   1       1.348  -1.077  -0.040  0.00  0.00    -0.329 N 
ATOM      4  C   UNL d   1      -1.147   0.185   0.228  0.00  0.00     0.234 C 
ATOM      5  C   UNL d   1      -1.036  -1.313   0.207  0.00  0.00     0.123 C 
ATOM      6  C   UNL d   1       0.172  -1.718  -0.587  0.00  0.00     0.137 C 
ATOM      7  O   UNL d   1       2.375   0.909   0.436  0.00  0.00    -0.246 OA
ATOM      8  O   UNL d   1      -2.272   0.687   0.311  0.00  0.00    -0.272 OA
ENDROOT
BRANCH   2   9
ATOM      9  C   UNL d   1       0.004   2.314   0.387  0.00  0.00     0.047 A 
ATOM     10  C   UNL d   1       0.710   3.186  -0.447  0.00  0.00     0.031 A 
ATOM     11  C   UNL d   1       0.662   4.571  -0.235  0.00  0.00     0.010 A 
ATOM     12  C   UNL d   1      -0.052   5.128   0.844  0.00  0.00    -0.051 A 
ATOM     13  C   UNL d   1      -0.749   4.238   1.675  0.00  0.00     0.010 A 
ATOM     14  C   UNL d   1      -0.735   2.859   1.444  0.00  0.00     0.031 A 
BRANCH  12  15
ATOM     15  C   UNL d   1      -0.035   6.646   1.096  0.00  0.00    -0.024 C 
ATOM     16  C   UNL d   1      -0.807   7.066   2.368  0.00  0.00     0.019 C 
ATOM     17  C   UNL d   1       1.421   7.130   1.267  0.00  0.00     0.019 C 
ATOM     18  C   UNL d   1      -0.677   7.389  -0.094  0.00  0.00     0.019 C 
ENDBRANCH  12  15
ENDBRANCH   2   9
BRANCH   3  19
ATOM     19  C   UNL d   1       2.605  -1.837   0.106  0.00  0.00     0.080 C 
ATOM     20  C   UNL d   1       2.498  -2.862   1.238  0.00  0.00     0.032 C 
ATOM     21  C   UNL d   1       3.049  -2.490  -1.202  0.00  0.00     0.032 C 
ENDBRANCH   3  19
TORSDOF 3
