REMARK  8 active torsions:
REMARK  status: ('A' for Active; 'I' for Inactive)
REMARK       I    between atoms: N_2  and  C_1 
REMARK       I    between atoms: N_4  and  C_1 
REMARK    1  A    between atoms: C_14  and  N_3 
REMARK    2  A    between atoms: C_15  and  N_4 
REMARK    3  A    between atoms: C_5  and  C_16 
REMARK    4  A    between atoms: C_20  and  C_6 
REMARK    5  A    between atoms: C_23  and  C_20 
REMARK    6  A    between atoms: C_26  and  C_23 
REMARK    7  A    between atoms: C_24  and  C_25 
REMARK    8  A    between atoms: C_25  and  C_26 
ROOT
ATOM      1  C   UNL d   1       1.022   0.953   0.480  0.00  0.00     0.323 C 
ATOM      2  N   UNL d   1       2.364   0.723   0.231  0.00  0.00    -0.331 N 
ATOM      3  N   UNL d   1       5.126   1.362  -0.192  0.00  0.00    -0.378 N 
ATOM      4  N   UNL d   1       0.191   0.933  -0.621  0.00  0.00    -0.307 N 
ATOM      5  O   UNL d   1       0.627   1.175   1.622  0.00  0.00    -0.247 OA
ATOM      6  C   UNL d   1       3.303   0.742   1.368  0.00  0.00     0.147 C 
ATOM      7  C   UNL d   1       3.018   0.407  -1.048  0.00  0.00     0.147 C 
ATOM      8  C   UNL d   1       4.491   1.687   1.102  0.00  0.00     0.143 C 
ATOM      9  C   UNL d   1       4.190   1.371  -1.329  0.00  0.00     0.143 C 
ATOM     10  H   UNL d   1       0.617   0.936  -1.530  0.00  0.00     0.170 HD
ENDROOT
BRANCH   4  11
ATOM     11  C   UNL d   1      -1.221   1.020  -0.617  0.00  0.00     0.053 A 
ATOM     12  C   UNL d   1      -2.004   0.890   0.524  0.00  0.00     0.053 A 
ATOM     13  C   UNL d   1      -3.395   0.892   0.415  0.00  0.00     0.035 A 
ATOM     14  C   UNL d   1      -3.964   1.060  -0.839  0.00  0.00     0.108 A 
ATOM     15  N   UNL d   1      -3.244   1.222  -1.972  0.00  0.00    -0.372 N 
ATOM     16  C   UNL d   1      -1.895   1.191  -1.831  0.00  0.00     0.117 A 
ATOM     17  HN  UNL d   1      -3.689   1.360  -2.879  1.00  0.00     0.164 HD
BRANCH  13  18
ATOM     18  C   UNL d   1      -4.205   0.676   1.562  0.00  0.00    -0.066 C 
ATOM     19  C   UNL d   1      -4.898   0.466   2.522  0.00  0.00    -0.101 C 
BRANCH  19  20
ATOM     20  C   UNL d   1      -5.779   0.214   3.661  0.00  0.00     0.094 C 
BRANCH  20  21
ATOM     21  C   UNL d   1      -7.200   0.653   3.322  0.00  0.00     0.012 C 
BRANCH  21  22
ATOM     22  C   UNL d   1      -8.138   0.412   4.498  0.00  0.00     0.001 C 
BRANCH  22  23
ATOM     23  C   UNL d   1      -9.556   0.861   4.162  0.00  0.00    -0.000 C 
BRANCH  23  24
ATOM     24  C   UNL d   1     -10.498   0.624   5.341  0.00  0.00    -0.005 C 
ATOM     25  C   UNL d   1     -11.909   1.068   5.005  0.00  0.00     0.005 C 
ENDBRANCH  23  24
ENDBRANCH  22  23
ENDBRANCH  21  22
ENDBRANCH  20  21
ENDBRANCH  19  20
ENDBRANCH  13  18
ENDBRANCH   4  11
BRANCH   3  26
ATOM     26  C   UNL d   1       6.459   1.022  -0.325  0.00  0.00     0.030 A 
ATOM     27  C   UNL d   1       7.143   1.153  -1.546  0.00  0.00     0.029 A 
ATOM     28  C   UNL d   1       8.501   0.833  -1.685  0.00  0.00     0.002 A 
ATOM     29  C   UNL d   1       9.225   0.381  -0.592  0.00  0.00     0.000 A 
ATOM     30  C   UNL d   1       8.582   0.231   0.629  0.00  0.00     0.002 A 
ATOM     31  C   UNL d   1       7.219   0.534   0.751  0.00  0.00     0.029 A 
ENDBRANCH   3  26
TORSDOF 8
