REMARK  2 active torsions:
REMARK  status: ('A' for Active; 'I' for Inactive)
REMARK    1  A    between atoms: S_2  and  C_1 
REMARK       I    between atoms: N_4  and  C_1 
REMARK    2  A    between atoms: C_3  and  S_2 
ROOT
ATOM      1  S   UNL d   1      -0.019  -0.151  -1.564  0.00  0.00    -0.026 SA
ENDROOT
BRANCH   1   2
ATOM      2  C   UNL d   1       0.879   0.233  -0.101  0.00  0.00     0.287 C 
ATOM      3  N   UNL d   1       0.223   0.126   1.116  0.00  0.00    -0.339 N 
ATOM      4  C   UNL d   1       0.912   0.552   2.337  0.00  0.00     0.152 C 
ATOM      5  C   UNL d   1      -1.173  -0.251   1.359  0.00  0.00     0.152 C 
ATOM      6  C   UNL d   1       0.759  -0.502   3.440  0.00  0.00     0.187 C 
ATOM      7  O   UNL d   1      -0.622  -0.838   3.662  0.00  0.00    -0.388 OA
ATOM      8  C   UNL d   1      -1.236  -1.317   2.455  0.00  0.00     0.187 C 
ATOM      9  O   UNL d   1       2.035   0.636  -0.191  0.00  0.00    -0.260 OA
ENDBRANCH   1   2
BRANCH   1  10
ATOM     10  C   UNL d   1       0.140  -1.943  -1.687  0.00  0.00     0.053 A 
ATOM     11  C   UNL d   1      -1.014  -2.760  -1.674  0.00  0.00     0.053 A 
ATOM     12 CL   UNL d   1      -2.629  -2.129  -1.567  0.00  0.00    -0.083 Cl
ATOM     13  C   UNL d   1      -0.925  -4.155  -1.792  0.00  0.00     0.025 A 
ATOM     14  C   UNL d   1       0.309  -4.768  -1.961  0.00  0.00     0.003 A 
ATOM     15  C   UNL d   1       1.456  -3.984  -2.021  0.00  0.00     0.025 A 
ATOM     16  C   UNL d   1       1.377  -2.587  -1.894  0.00  0.00     0.053 A 
ATOM     17 CL   UNL d   1       2.873  -1.738  -2.085  0.00  0.00    -0.083 Cl
ENDBRANCH   1  10
TORSDOF 2
