REMARK  1 active torsions:
REMARK  status: ('A' for Active; 'I' for Inactive)
REMARK    1  A    between atoms: C_8  and  N_4 
ROOT
ATOM      1  C   UNL d   1      -0.518  -1.043  -0.129  0.00  0.00     0.141 C 
ATOM      2  N   UNL d   1      -0.980   0.156   0.343  0.00  0.00    -0.361 N 
ATOM      3  S   UNL d   1       1.230  -1.072  -0.004  0.00  0.00    -0.092 SA
ATOM      4  N   UNL d   1      -1.317  -1.982  -0.511  0.00  0.00    -0.337 N 
ATOM      5  HN  UNL d   1      -2.318  -1.786  -0.526  1.00  0.00     0.168 HD
ATOM      6  C   UNL d   1      -0.091   0.888   1.242  0.00  0.00     0.033 C 
ATOM      7  C   UNL d   1       1.145  -0.010   1.471  0.00  0.00     0.112 C 
ATOM      8  C   UNL d   1       0.310   2.217   0.596  0.00  0.00     0.039 C 
ATOM      9  C   UNL d   1      -0.824   1.146   2.562  0.00  0.00     0.039 C 
ATOM     10  H   UNL d   1      -1.980   0.187   0.501  0.00  0.00     0.162 HD
ENDROOT
BRANCH   4  11
ATOM     11  C   UNL d   1      -0.886  -3.256  -0.906  0.00  0.00     0.034 A 
ATOM     12  C   UNL d   1      -0.044  -4.060  -0.122  0.00  0.00     0.032 A 
ATOM     13  C   UNL d   1       0.317  -5.342  -0.540  0.00  0.00     0.044 A 
ATOM     14  C   UNL d   1      -0.212  -5.847  -1.718  0.00  0.00     0.116 A 
ATOM     15  C   UNL d   1      -1.094  -5.096  -2.485  0.00  0.00     0.044 A 
ATOM     16  F   UNL d   1       0.116  -7.085  -2.112  0.00  0.00    -0.206 F 
ATOM     17  C   UNL d   1      -1.425  -3.800  -2.078  0.00  0.00     0.032 A 
ENDBRANCH   4  11
TORSDOF 1
