REMARK  5 active torsions:
REMARK  status: ('A' for Active; 'I' for Inactive)
REMARK       I    between atoms: N_2  and  C_4 
REMARK    1  A    between atoms: C_5  and  N_2 
REMARK    2  A    between atoms: C_4  and  C_3 
REMARK    3  A    between atoms: N_17  and  C_5 
REMARK    4  A    between atoms: C_8  and  C_16 
REMARK    5  A    between atoms: C_21  and  N_17 
ROOT
ATOM      1  N   UNL d   1      -3.807  -2.601  -0.464  0.00  0.00    -0.299 N 
ATOM      2  C   UNL d   1      -3.790  -1.211  -0.391  0.00  0.00     0.257 C 
ATOM      3  O   UNL d   1      -2.813  -0.504  -0.202  0.00  0.00    -0.267 OA
ATOM      4  H   UNL d   1      -4.720  -3.036  -0.483  0.00  0.00     0.171 HD
ENDROOT
BRANCH   1   5
ATOM      5  C   UNL d   1      -2.854  -3.500  -0.075  0.00  0.00     0.179 C 
ATOM      6  S   UNL d   1      -3.349  -5.048   0.323  0.00  0.00    -0.040 SA
BRANCH   5   7
ATOM      7  N   UNL d   1      -1.561  -3.138   0.104  0.00  0.00    -0.333 N 
ATOM      8  H   UNL d   1      -1.118  -3.656   0.856  0.00  0.00     0.168 HD
BRANCH   7   9
ATOM      9  C   UNL d   1      -0.644  -2.880  -0.952  0.00  0.00     0.035 A 
ATOM     10  C   UNL d   1      -1.027  -2.603  -2.265  0.00  0.00     0.045 A 
ATOM     11  C   UNL d   1      -0.061  -2.494  -3.284  0.00  0.00     0.050 A 
ATOM     12  C   UNL d   1       1.297  -2.653  -2.965  0.00  0.00     0.016 A 
ATOM     13  C   UNL d   1       1.685  -2.905  -1.652  0.00  0.00     0.003 A 
ATOM     14  C   UNL d   1       0.719  -3.011  -0.651  0.00  0.00     0.029 A 
BRANCH  11  15
ATOM     15  C   UNL d   1      -0.462  -2.212  -4.710  0.00  0.00     0.417 C 
ATOM     16  F   UNL d   1      -1.806  -2.291  -4.925  0.00  0.00    -0.166 F 
ATOM     17  F   UNL d   1      -0.090  -0.969  -5.122  0.00  0.00    -0.166 F 
ATOM     18  F   UNL d   1       0.104  -3.082  -5.595  0.00  0.00    -0.166 F 
ENDBRANCH  11  15
ENDBRANCH   7   9
ENDBRANCH   5   7
ENDBRANCH   1   5
BRANCH   2  19
ATOM     19  C   UNL d   1      -5.135  -0.569  -0.526  0.00  0.00     0.034 A 
ATOM     20  C   UNL d   1      -5.404   0.538   0.311  0.00  0.00     0.051 A 
ATOM     21  C   UNL d   1      -6.698   1.077   0.175  0.00  0.00     0.086 A 
ATOM     22  C   UNL d   1      -7.676   0.539  -0.762  0.00  0.00     0.085 A 
ATOM     23  N   UNL d   1      -7.265   2.098   0.829  0.00  0.00    -0.240 N 
ATOM     24  N   UNL d   1      -8.803   1.253  -0.653  0.00  0.00    -0.240 N 
ATOM     25  C   UNL d   1      -7.388  -0.551  -1.604  0.00  0.00     0.035 A 
ATOM     26  O   UNL d   1      -8.549   2.207   0.319  0.00  0.00    -0.156 OA
ATOM     27  HN  UNL d   1      -9.669   1.121  -1.177  1.00  0.00     0.197 HD
ATOM     28  C   UNL d   1      -6.090  -1.082  -1.458  0.00  0.00     0.019 A 
ATOM     29  HN  UNL d   1      -6.840   2.677   1.553  1.00  0.00     0.197 HD
ENDBRANCH   2  19
TORSDOF 5
