REMARK  4 active torsions:
REMARK  status: ('A' for Active; 'I' for Inactive)
REMARK    1  A    between atoms: N_3  and  C_4 
REMARK    2  A    between atoms: C_11  and  C_5 
REMARK    3  A    between atoms: C_10  and  C_6 
REMARK    4  A    between atoms: O_18  and  C_12 
ROOT
ATOM      1  C   UNL d   1       0.519  -4.768   1.062  0.00  0.00     0.137 A 
ATOM      2  C   UNL d   1       0.623  -3.363   1.032  0.00  0.00     0.053 A 
ATOM      3  C   UNL d   1       0.035  -2.623  -0.004  0.00  0.00     0.000 A 
ATOM      4  C   UNL d   1      -0.176  -5.469   0.075  0.00  0.00     0.101 A 
ATOM      5  C   UNL d   1      -0.656  -3.321  -1.001  0.00  0.00     0.017 A 
ATOM      6  C   UNL d   1      -0.754  -4.718  -0.959  0.00  0.00     0.040 A 
ENDROOT
BRANCH   3   7
ATOM      7  C   UNL d   1       0.226  -1.166  -0.036  0.00  0.00     0.085 A 
ATOM      8  N   UNL d   1       1.305  -0.565   0.422  0.00  0.00    -0.347 N 
ATOM      9  C   UNL d   1       1.203   0.815   0.277  0.00  0.00     0.085 A 
ATOM     10  HN  UNL d   1       2.108  -1.046   0.829  1.00  0.00     0.167 HD
ATOM     11  C   UNL d   1       0.008   1.237  -0.276  0.00  0.00     0.085 A 
ATOM     12  S   UNL d   1      -0.987  -0.106  -0.641  0.00  0.00    -0.081 SA
BRANCH   9  13
ATOM     13  C   UNL d   1       2.279   1.723   0.684  0.00  0.00     0.172 C 
ATOM     14  O   UNL d   1       2.163   2.944   0.567  0.00  0.00    -0.291 OA
ATOM     15  C   UNL d   1       3.550   1.135   1.243  0.00  0.00     0.098 C 
ENDBRANCH   9  13
ENDBRANCH   3   7
BRANCH   1  16
ATOM     16  N   UNL d   1       1.242  -5.426   2.129  0.00  0.00    -0.113 N 
ATOM     17  O   UNL d   1       0.955  -5.098   3.286  0.00  0.00    -0.532 OA
ATOM     18  O   UNL d   1       2.118  -6.242   1.810  0.00  0.00    -0.532 OA
ENDBRANCH   1  16
BRANCH   4  19
ATOM     19  O   UNL d   1      -0.345  -6.809  -0.108  0.00  0.00    -0.353 OA
ATOM     20  C   UNL d   1      -0.466  -7.666   1.018  0.00  0.00     0.210 C 
ENDBRANCH   4  19
TORSDOF 4
