REMARK  1 active torsions:
REMARK  status: ('A' for Active; 'I' for Inactive)
REMARK    1  A    between atoms: C_10  and  N_3 
ROOT
ATOM      1  N   UNL d   1      -0.654   1.185   0.023  0.00  0.00    -0.269 N 
ATOM      2  C   UNL d   1      -1.420   0.018   0.032  0.00  0.00     0.335 A 
ATOM      3  N   UNL d   1      -0.683  -1.184  -0.003  0.00  0.00    -0.273 N 
ATOM      4  C   UNL d   1       1.432  -0.066  -0.019  0.00  0.00     0.128 A 
ATOM      5  C   UNL d   1       0.733   1.233   0.004  0.00  0.00     0.273 A 
ATOM      6  C   UNL d   1       0.700  -1.183  -0.042  0.00  0.00     0.130 A 
ATOM      7  C   UNL d   1       2.852  -0.109   0.001  0.00  0.00     0.106 C 
ATOM      8  N   UNL d   1       4.006  -0.211   0.023  0.00  0.00    -0.191 NA
ATOM      9  O   UNL d   1      -2.652   0.060   0.029  0.00  0.00    -0.246 OA
ATOM     10  O   UNL d   1       1.373   2.283   0.001  0.00  0.00    -0.266 OA
ATOM     11  C   UNL d   1      -1.346   2.463   0.001  0.00  0.00     0.164 C 
ENDROOT
BRANCH   3  12
ATOM     12  C   UNL d   1      -1.404  -2.424  -0.014  0.00  0.00     0.043 A 
ATOM     13  C   UNL d   1      -1.104  -3.413  -0.962  0.00  0.00     0.030 A 
ATOM     14  C   UNL d   1      -1.843  -4.598  -1.001  0.00  0.00     0.002 A 
ATOM     15  C   UNL d   1      -2.855  -4.823  -0.068  0.00  0.00     0.000 A 
ATOM     16  C   UNL d   1      -3.136  -3.862   0.899  0.00  0.00     0.002 A 
ATOM     17  C   UNL d   1      -2.423  -2.663   0.918  0.00  0.00     0.030 A 
ENDBRANCH   3  12
TORSDOF 1
