REMARK  4 active torsions:
REMARK  status: ('A' for Active; 'I' for Inactive)
REMARK    1  A    between atoms: C_2  and  C_1 
REMARK       I    between atoms: N_3  and  C_2 
REMARK    2  A    between atoms: N_8  and  N_3 
REMARK    3  A    between atoms: C_6  and  C_7 
REMARK    4  A    between atoms: C_12  and  N_8 
ROOT
ATOM      1  C   UNL d   1       0.419   1.432   0.535  0.00  0.00     0.271 C 
ATOM      2  N   UNL d   1       1.443   2.375   0.589  0.00  0.00    -0.282 N 
ATOM      3  O   UNL d   1       0.430   0.537  -0.307  0.00  0.00    -0.266 OA
ATOM      4  H   UNL d   1       1.267   3.298   0.979  0.00  0.00     0.184 HD
ENDROOT
BRANCH   2   5
ATOM      5  N   UNL d   1       2.368   2.329  -0.473  0.00  0.00    -0.203 NA
ATOM      6  H   UNL d   1       2.275   1.434  -0.973  0.00  0.00     0.153 HD
BRANCH   5   7
ATOM      7  C   UNL d   1       3.714   2.582  -0.111  0.00  0.00     0.027 A 
ATOM      8  C   UNL d   1       4.736   2.003  -0.870  0.00  0.00     0.026 A 
ATOM      9  C   UNL d   1       6.081   2.344  -0.667  0.00  0.00     0.010 A 
ATOM     10  C   UNL d   1       6.461   3.312   0.280  0.00  0.00    -0.051 A 
ATOM     11  C   UNL d   1       5.432   3.881   1.046  0.00  0.00     0.010 A 
ATOM     12  C   UNL d   1       4.085   3.531   0.846  0.00  0.00     0.026 A 
BRANCH  10  13
ATOM     13  C   UNL d   1       7.937   3.729   0.410  0.00  0.00    -0.024 C 
ATOM     14  C   UNL d   1       8.172   4.885   1.410  0.00  0.00     0.019 C 
ATOM     15  C   UNL d   1       8.784   2.530   0.883  0.00  0.00     0.019 C 
ATOM     16  C   UNL d   1       8.471   4.210  -0.960  0.00  0.00     0.019 C 
ENDBRANCH  10  13
ENDBRANCH   5   7
ENDBRANCH   2   5
BRANCH   1  17
ATOM     17  C   UNL d   1      -0.682   1.563   1.533  0.00  0.00     0.093 A 
ATOM     18  C   UNL d   1      -1.494   0.476   1.902  0.00  0.00     0.052 A 
ATOM     19 CL   UNL d   1      -1.301  -1.135   1.294  0.00  0.00    -0.083 Cl
ATOM     20  C   UNL d   1      -2.515   0.641   2.851  0.00  0.00     0.025 A 
ATOM     21  C   UNL d   1      -2.741   1.879   3.449  0.00  0.00     0.005 A 
ATOM     22  C   UNL d   1      -1.947   2.962   3.091  0.00  0.00     0.043 A 
ATOM     23  C   UNL d   1      -0.935   2.798   2.144  0.00  0.00     0.133 A 
ATOM     24  F   UNL d   1      -0.206   3.883   1.833  0.00  0.00    -0.205 F 
ENDBRANCH   1  17
TORSDOF 4
