REMARK  10 active torsions:
REMARK  status: ('A' for Active; 'I' for Inactive)
REMARK    1  A    between atoms: C_18  and  C_1 
REMARK    2  A    between atoms: C_13  and  C_2 
REMARK    3  A    between atoms: C_3  and  S_8 
REMARK    4  A    between atoms: S_8  and  C_6 
REMARK    5  A    between atoms: S_22  and  C_10 
REMARK    6  A    between atoms: C_17  and  C_21 
REMARK    7  A    between atoms: O_32  and  C_18 
REMARK    8  A    between atoms: C_33  and  S_22 
REMARK    9  A    between atoms: C_31  and  C_33 
REMARK   10  A    between atoms: C_37  and  O_32 
ROOT
ATOM      1  C   UNL d   1      -0.685   1.715   0.030  0.00  0.00     0.072 C 
ATOM      2  C   UNL d   1       0.110   1.258   1.075  0.00  0.00     0.134 C 
ATOM      3  N   UNL d   1       0.418  -0.082   1.181  0.00  0.00    -0.345 N 
ATOM      4  HN  UNL d   1       1.035  -0.404   1.927  1.00  0.00     0.166 HD
ATOM      5  C   UNL d   1      -0.099  -0.975   0.298  0.00  0.00     0.098 C 
ATOM      6  C   UNL d   1      -1.069  -0.591  -0.624  0.00  0.00     0.079 C 
ATOM      7  C   UNL d   1      -1.333   0.776  -0.783  0.00  0.00     0.045 C 
ATOM      8  C   UNL d   1      -1.842  -1.536  -1.370  0.00  0.00     0.102 C 
ATOM      9  N   UNL d   1      -2.533  -2.269  -1.947  0.00  0.00    -0.191 NA
ENDROOT
BRANCH   5  10
ATOM     10  S   UNL d   1       0.474  -2.660   0.458  0.00  0.00    -0.044 SA
BRANCH  10  11
ATOM     11  C   UNL d   1       2.210  -2.396   0.365  0.00  0.00     0.135 A 
ATOM     12  S   UNL d   1       3.217  -2.222   1.744  0.00  0.00    -0.037 SA
ATOM     13  C   UNL d   1       4.555  -2.115   0.668  0.00  0.00     0.129 A 
ATOM     14  N   UNL d   1       4.238  -2.264  -0.600  0.00  0.00    -0.287 N 
ATOM     15  N   UNL d   1       2.867  -2.430  -0.777  0.00  0.00    -0.286 N 
ATOM     16  HN  UNL d   1       4.915  -2.259  -1.363  1.00  0.00     0.188 HD
ATOM     17  HN  UNL d   1       2.423  -2.563  -1.686  1.00  0.00     0.188 HD
BRANCH  13  18
ATOM     18  S   UNL d   1       6.184  -1.785   1.236  0.00  0.00    -0.099 SA
BRANCH  18  19
ATOM     19  C   UNL d   1       6.942  -0.878  -0.149  0.00  0.00     0.120 C 
BRANCH  19  20
ATOM     20  C   UNL d   1       6.324   0.432  -0.597  0.00  0.00    -0.048 C 
ATOM     21  C   UNL d   1       5.213   0.997   0.014  0.00  0.00     0.024 C 
ATOM     22  C   UNL d   1       4.511   2.050  -0.592  0.00  0.00     0.048 C 
ATOM     23  C   UNL d   1       5.027   2.696  -1.711  0.00  0.00     0.016 C 
ATOM     24  C   UNL d   1       6.207   2.223  -2.268  0.00  0.00     0.001 C 
ATOM     25  C   UNL d   1       6.831   1.082  -1.735  0.00  0.00     0.008 C 
BRANCH  22  26
ATOM     26  C   UNL d   1       3.131   2.334  -0.104  0.00  0.00     0.417 C 
ATOM     27  F   UNL d   1       2.665   1.285   0.622  0.00  0.00    -0.166 F 
ATOM     28  F   UNL d   1       3.024   3.426   0.691  0.00  0.00    -0.166 F 
ATOM     29  F   UNL d   1       2.232   2.478  -1.115  0.00  0.00    -0.166 F 
ENDBRANCH  22  26
ENDBRANCH  19  20
ENDBRANCH  18  19
ENDBRANCH  13  18
ENDBRANCH  10  11
ENDBRANCH   5  10
BRANCH   1  30
ATOM     30  C   UNL d   1      -0.806   3.155  -0.289  0.00  0.00     0.295 C 
ATOM     31  O   UNL d   1       0.136   3.909  -0.351  0.00  0.00    -0.259 OA
BRANCH  30  32
ATOM     32  O   UNL d   1      -2.114   3.453  -0.436  0.00  0.00    -0.318 OA
BRANCH  32  33
ATOM     33  C   UNL d   1      -2.392   4.864  -0.396  0.00  0.00     0.174 C 
ATOM     34  C   UNL d   1      -2.621   5.235   1.056  0.00  0.00     0.034 C 
ENDBRANCH  32  33
ENDBRANCH  30  32
ENDBRANCH   1  30
BRANCH   2  35
ATOM     35  C   UNL d   1       0.557   2.165   2.229  0.00  0.00     0.433 C 
ATOM     36  F   UNL d   1       0.472   3.503   2.017  0.00  0.00    -0.165 F 
ATOM     37  F   UNL d   1      -0.219   1.946   3.334  0.00  0.00    -0.165 F 
ATOM     38  F   UNL d   1       1.835   1.945   2.653  0.00  0.00    -0.165 F 
ENDBRANCH   2  35
TORSDOF 10
