REMARK  3 active torsions:
REMARK  status: ('A' for Active; 'I' for Inactive)
REMARK    1  A    between atoms: C_3  and  N_1 
REMARK    2  A    between atoms: C_21  and  C_15 
REMARK    3  A    between atoms: O_24  and  C_21 
ROOT
ATOM      1  N   UNL d   1       1.453   1.250   0.003  0.00  0.00    -0.297 N 
ATOM      2  C   UNL d   1       0.463   0.886  -0.868  0.00  0.00     0.144 A 
ATOM      3  C   UNL d   1       0.205  -0.438  -0.580  0.00  0.00     0.146 A 
ATOM      4  N   UNL d   1       1.020  -0.912   0.411  0.00  0.00    -0.345 N 
ATOM      5  HN  UNL d   1       1.051  -1.854   0.802  1.00  0.00     0.167 HD
ATOM      6  C   UNL d   1       1.756   0.126   0.744  0.00  0.00     0.188 A 
ATOM      7  N   UNL d   1      -0.144   1.667  -1.801  0.00  0.00    -0.336 N 
ATOM      8  HN  UNL d   1       0.090   2.647  -1.961  1.00  0.00     0.168 HD
ATOM      9  C   UNL d   1      -0.845  -1.118  -1.313  0.00  0.00     0.277 A 
ATOM     10  N   UNL d   1      -1.425  -0.295  -2.266  0.00  0.00    -0.318 N 
ATOM     11  C   UNL d   1      -1.057   1.023  -2.467  0.00  0.00     0.185 A 
ATOM     12  O   UNL d   1      -1.215  -2.272  -1.139  0.00  0.00    -0.266 OA
ATOM     13  H   UNL d   1      -2.168  -0.719  -2.803  0.00  0.00     0.169 HD
ENDROOT
BRANCH   1  14
ATOM     14  C   UNL d   1       2.051   2.543   0.267  0.00  0.00     0.262 C 
ATOM     15  C   UNL d   1       2.081   3.596  -0.844  0.00  0.00     0.206 C 
ATOM     16  C   UNL d   1       1.054   4.625  -0.435  0.00  0.00     0.189 C 
ATOM     17  O   UNL d   1       3.349   4.290  -0.861  0.00  0.00    -0.344 OA
ATOM     18  O   UNL d   1       1.756   5.855  -0.247  0.00  0.00    -0.345 OA
ATOM     19  C   UNL d   1       0.438   4.107   0.863  0.00  0.00     0.179 C 
ATOM     20  C   UNL d   1       3.146   5.551  -0.226  0.00  0.00     0.158 C 
ATOM     21  C   UNL d   1       3.667   5.501   1.212  0.00  0.00     0.078 C 
ATOM     22  C   UNL d   1       3.887   6.646  -0.984  0.00  0.00     0.078 C 
ATOM     23  O   UNL d   1       1.345   3.119   1.388  0.00  0.00    -0.353 OA
BRANCH  19  24
ATOM     24  C   UNL d   1       0.179   5.198   1.914  0.00  0.00     0.198 C 
BRANCH  24  25
ATOM     25  O   UNL d   1      -0.452   4.696   3.092  0.00  0.00    -0.398 OA
ATOM     26  H   UNL d   1      -0.803   3.810   2.904  0.00  0.00     0.209 HD
ENDBRANCH  24  25
ENDBRANCH  19  24
ENDBRANCH   1  14
TORSDOF 3
