REMARK  1 active torsions:
REMARK  status: ('A' for Active; 'I' for Inactive)
REMARK    1  A    between atoms: C_9  and  C_7 
ROOT
ATOM      1  S   UNL d   1       0.189  -1.149   0.018  0.00  0.00    -0.038 SA
ATOM      2  C   UNL d   1      -0.821   0.242   0.067  0.00  0.00     0.158 A 
ATOM      3  N   UNL d   1      -0.159   1.376   0.018  0.00  0.00    -0.279 N 
ATOM      4  HN  UNL d   1      -0.607   2.292   0.020  1.00  0.00     0.189 HD
ATOM      5  N   UNL d   1       1.209   1.192  -0.036  0.00  0.00    -0.296 N 
ATOM      6  HN  UNL d   1       1.886   1.955  -0.077  1.00  0.00     0.187 HD
ATOM      7  C   UNL d   1       1.536  -0.081  -0.028  0.00  0.00     0.069 A 
ATOM      8  N   UNL d   1      -2.160   0.140   0.140  0.00  0.00    -0.379 N 
ATOM      9  H   UNL d   1      -2.599  -0.730  -0.130  0.00  0.00     0.158 HD
ATOM     10  H   UNL d   1      -2.689   0.975  -0.086  0.00  0.00     0.158 HD
ENDROOT
BRANCH   7  11
ATOM     11  C   UNL d   1       2.935  -0.600  -0.054  0.00  0.00     0.062 C 
ATOM     12  C   UNL d   1       3.493  -0.778   1.350  0.00  0.00     0.012 C 
ENDBRANCH   7  11
TORSDOF 1
