REMARK  5 active torsions:
REMARK  status: ('A' for Active; 'I' for Inactive)
REMARK    1  A    between atoms: C_3  and  C_1 
REMARK       I    between atoms: N_4  and  C_1 
REMARK    2  A    between atoms: C_2  and  C_9 
REMARK       I    between atoms: N_6  and  C_3 
REMARK    3  A    between atoms: C_8  and  N_4 
REMARK    4  A    between atoms: C_5  and  C_8 
REMARK    5  A    between atoms: C_11  and  N_6 
ROOT
ATOM      1  C   UNL d   1       0.985   0.979   0.944  0.00  0.00     0.310 C 
ATOM      2  N   UNL d   1       0.272  -0.117   1.374  0.00  0.00    -0.345 N 
ATOM      3  O   UNL d   1       0.607   2.145   0.968  0.00  0.00    -0.262 OA
ATOM      4  H   UNL d   1       0.740  -1.020   1.332  0.00  0.00     0.163 HD
ENDROOT
BRANCH   1   5
ATOM      5  C   UNL d   1       2.404   0.645   0.435  0.00  0.00     0.314 C 
ATOM      6  N   UNL d   1       3.214   1.762   0.317  0.00  0.00    -0.319 N 
ATOM      7  H   UNL d   1       2.780   2.638   0.599  0.00  0.00     0.169 HD
ATOM      8  O   UNL d   1       2.693  -0.531   0.264  0.00  0.00    -0.262 OA
BRANCH   6   9
ATOM      9  C   UNL d   1       4.603   1.756   0.075  0.00  0.00     0.035 A 
ATOM     10  C   UNL d   1       5.286   0.642  -0.424  0.00  0.00     0.045 A 
ATOM     11  C   UNL d   1       6.690   0.630  -0.509  0.00  0.00     0.050 A 
ATOM     12  C   UNL d   1       7.405   1.768  -0.112  0.00  0.00     0.016 A 
ATOM     13  C   UNL d   1       6.728   2.904   0.329  0.00  0.00     0.003 A 
ATOM     14  C   UNL d   1       5.332   2.903   0.407  0.00  0.00     0.029 A 
BRANCH  11  15
ATOM     15  C   UNL d   1       7.428  -0.597  -0.986  0.00  0.00     0.417 C 
ATOM     16  F   UNL d   1       6.616  -1.633  -1.330  0.00  0.00    -0.166 F 
ATOM     17  F   UNL d   1       8.198  -0.348  -2.082  0.00  0.00    -0.166 F 
ATOM     18  F   UNL d   1       8.278  -1.087  -0.040  0.00  0.00    -0.166 F 
ENDBRANCH  11  15
ENDBRANCH   6   9
ENDBRANCH   1   5
BRANCH   2  19
ATOM     19  C   UNL d   1      -1.091  -0.043   1.904  0.00  0.00     0.114 C 
ATOM     20  C   UNL d   1      -1.044   0.432   3.353  0.00  0.00     0.037 C 
BRANCH  19  21
ATOM     21  C   UNL d   1      -1.865  -1.319   1.542  0.00  0.00    -0.030 A 
ATOM     22  C   UNL d   1      -2.482  -2.265   2.392  0.00  0.00    -0.053 A 
ATOM     23  C   UNL d   1      -3.139  -3.385   1.818  0.00  0.00     0.014 A 
ATOM     24  C   UNL d   1      -2.494  -2.248   3.898  0.00  0.00     0.049 C 
ATOM     25  C   UNL d   1      -3.247  -3.572   0.436  0.00  0.00    -0.061 A 
ATOM     26  C   UNL d   1      -2.663  -2.633  -0.400  0.00  0.00     0.007 A 
ATOM     27  C   UNL d   1      -3.989  -4.754  -0.110  0.00  0.00     0.048 C 
ATOM     28  C   UNL d   1      -1.986  -1.538   0.143  0.00  0.00     0.010 A 
ENDBRANCH  19  21
ENDBRANCH   2  19
TORSDOF 5
