REMARK  3 active torsions:
REMARK  status: ('A' for Active; 'I' for Inactive)
REMARK    1  A    between atoms: C_5  and  C_1 
REMARK    2  A    between atoms: C_8  and  C_4 
REMARK       I    between atoms: N_10  and  C_5 
REMARK    3  A    between atoms: N_14  and  N_10 
ROOT
ATOM      1  C   UNL d   1       1.343   0.812  -0.032  0.00  0.00     0.109 A 
ATOM      2  N   UNL d   1       1.466  -0.583  -0.003  0.00  0.00    -0.345 N 
ATOM      3  HN  UNL d   1       2.351  -1.089   0.029  1.00  0.00     0.167 HD
ATOM      4  C   UNL d   1       0.273  -1.150  -0.021  0.00  0.00     0.086 A 
ATOM      5  S   UNL d   1      -1.050  -0.042   0.010  0.00  0.00    -0.081 SA
ATOM      6  C   UNL d   1       0.040   1.270  -0.015  0.00  0.00     0.087 A 
ENDROOT
BRANCH   1   7
ATOM      7  C   UNL d   1       2.508   1.697  -0.093  0.00  0.00     0.282 C 
ATOM      8  O   UNL d   1       2.426   2.922  -0.157  0.00  0.00    -0.265 OA
ATOM      9  N   UNL d   1       3.718   1.015  -0.089  0.00  0.00    -0.288 N 
ATOM     10  H   UNL d   1       3.697   0.002   0.039  0.00  0.00     0.183 HD
BRANCH   9  11
ATOM     11  N   UNL d   1       4.944   1.718  -0.111  0.00  0.00    -0.247 NA
ATOM     12  H   UNL d   1       4.724   2.714   0.030  0.00  0.00     0.143 HD
ATOM     13  H   UNL d   1       5.311   1.677  -1.065  0.00  0.00     0.143 HD
ENDBRANCH   9  11
ENDBRANCH   1   7
BRANCH   4  14
ATOM     14  C   UNL d   1       0.037  -2.599  -0.027  0.00  0.00     0.013 A 
ATOM     15  C   UNL d   1      -1.064  -3.187  -0.649  0.00  0.00     0.101 A 
ATOM     16  N   UNL d   1      -1.318  -4.519  -0.676  0.00  0.00    -0.374 N 
ATOM     17  C   UNL d   1      -0.427  -5.319  -0.057  0.00  0.00     0.087 A 
ATOM     18  HN  UNL d   1      -2.142  -4.898  -1.143  1.00  0.00     0.164 HD
ATOM     19  C   UNL d   1       0.708  -4.847   0.582  0.00  0.00     0.018 A 
ATOM     20  C   UNL d   1       0.941  -3.471   0.590  0.00  0.00     0.017 A 
ENDBRANCH   4  14
TORSDOF 3
