REMARK  1 active torsions:
REMARK  status: ('A' for Active; 'I' for Inactive)
REMARK    1  A    between atoms: N_2  and  C_1 
ROOT
ATOM      1  C   UNL d   1      -2.320   0.024  -0.107  0.00  0.00     0.103 A 
ATOM      2  N   UNL d   1      -1.756  -0.166   1.107  0.00  0.00    -0.351 N 
ATOM      3  HN  UNL d   1      -2.340  -0.296   1.933  1.00  0.00     0.166 HD
ATOM      4  N   UNL d   1       3.019  -0.150   0.465  0.00  0.00    -0.191 NA
ATOM      5  C   UNL d   1       1.870  -0.099   0.323  0.00  0.00     0.101 C 
ATOM      6  C   UNL d   1       0.456  -0.038   0.144  0.00  0.00     0.060 A 
ATOM      7  C   UNL d   1      -1.504   0.192  -1.228  0.00  0.00     0.050 A 
ATOM      8  C   UNL d   1      -0.404  -0.182   1.214  0.00  0.00     0.112 A 
ATOM      9  C   UNL d   1      -0.112   0.151  -1.109  0.00  0.00     0.028 A 
ENDROOT
BRANCH   1  10
ATOM     10  N   UNL d   1      -3.695   0.014  -0.209  0.00  0.00    -0.366 N 
ATOM     11  C   UNL d   1      -4.406   0.774  -1.225  0.00  0.00     0.126 C 
ATOM     12  C   UNL d   1      -4.877  -0.114  -2.371  0.00  0.00     0.050 C 
ATOM     13  C   UNL d   1      -5.616  -1.400  -1.985  0.00  0.00     0.271 C 
ATOM     14  N   UNL d   1      -6.301  -1.423  -0.694  0.00  0.00     0.085 N 
ATOM     15  C   UNL d   1      -5.368  -1.707   0.414  0.00  0.00     0.289 C 
ATOM     16  H   UNL d   1      -6.777  -0.540  -0.525  0.00  0.00     0.315 HD
ATOM     17  C   UNL d   1      -4.500  -0.522   0.894  0.00  0.00     0.154 C 
ENDBRANCH   1  10
TORSDOF 1
