REMARK  6 active torsions:
REMARK  status: ('A' for Active; 'I' for Inactive)
REMARK    1  A    between atoms: N_2  and  C_1 
REMARK    2  A    between atoms: N_3  and  C_1 
REMARK    3  A    between atoms: C_4  and  N_2 
REMARK    4  A    between atoms: C_11  and  N_3 
REMARK    5  A    between atoms: C_15  and  N_3 
REMARK    6  A    between atoms: C_12  and  C_15 
ROOT
ATOM      1  N   UNL d   1      -0.887  -2.271   3.014  0.00  0.00    -0.197 NA
ATOM      2  C   UNL d   1      -1.303  -1.594   2.164  0.00  0.00     0.060 C 
ATOM      3  C   UNL d   1      -1.819  -0.744   1.083  0.00  0.00     0.143 C 
ENDROOT
BRANCH   3   4
ATOM      4  C   UNL d   1      -1.123   0.617   1.068  0.00  0.00     0.139 C 
BRANCH   4   5
ATOM      5  N   UNL d   1       0.341   0.516   0.841  0.00  0.00    -0.352 N 
BRANCH   5   6
ATOM      6  C   UNL d   1       0.805   0.161  -0.448  0.00  0.00     0.174 C 
ATOM      7  S   UNL d   1       0.102   0.702  -1.880  0.00  0.00    -0.041 SA
BRANCH   6   8
ATOM      8  N   UNL d   1       1.755  -0.852  -0.386  0.00  0.00    -0.333 N 
ATOM      9  H   UNL d   1       1.598  -1.521   0.356  0.00  0.00     0.168 HD
BRANCH   8  10
ATOM     10  C   UNL d   1       2.760  -1.169  -1.337  0.00  0.00     0.040 A 
ATOM     11  C   UNL d   1       3.243  -2.482  -1.485  0.00  0.00    -0.035 A 
ATOM     12  C   UNL d   1       4.389  -2.701  -2.282  0.00  0.00     0.015 A 
ATOM     13  C   UNL d   1       2.588  -3.699  -0.895  0.00  0.00     0.050 C 
ATOM     14  C   UNL d   1       5.057  -1.647  -2.916  0.00  0.00    -0.061 A 
ATOM     15  C   UNL d   1       4.544  -0.360  -2.792  0.00  0.00     0.009 A 
ATOM     16  C   UNL d   1       6.312  -1.900  -3.696  0.00  0.00     0.048 C 
ATOM     17  C   UNL d   1       3.399  -0.130  -2.029  0.00  0.00     0.030 A 
ENDBRANCH   8  10
ENDBRANCH   6   8
ENDBRANCH   5   6
BRANCH   5  18
ATOM     18  C   UNL d   1       1.157   1.381   1.746  0.00  0.00     0.086 C 
ATOM     19  C   UNL d   1       1.108   2.874   1.377  0.00  0.00     0.025 C 
ATOM     20  C   UNL d   1       2.145   3.286   0.342  0.00  0.00     0.002 C 
ATOM     21  C   UNL d   1       3.555   2.925   0.782  0.00  0.00     0.000 C 
ATOM     22  C   UNL d   1       3.704   1.468   1.200  0.00  0.00     0.002 C 
ATOM     23  C   UNL d   1       2.585   0.925   2.083  0.00  0.00     0.025 C 
ENDBRANCH   5  18
ENDBRANCH   4   5
ENDBRANCH   3   4
TORSDOF 6
