REMARK  6 active torsions:
REMARK  status: ('A' for Active; 'I' for Inactive)
REMARK    1  A    between atoms: N_2  and  S_1 
REMARK    2  A    between atoms: C_8  and  S_1 
REMARK       I    between atoms: C_4  and  N_2 
REMARK       I    between atoms: N_10  and  C_4 
REMARK    3  A    between atoms: C_9  and  N_7 
REMARK    4  A    between atoms: C_14  and  N_10 
REMARK    5  A    between atoms: C_20  and  C_14 
REMARK    6  A    between atoms: C_15  and  C_20 
ROOT
ATOM      1  N   UNL d   1       0.849  -1.101  -1.627  0.00  0.00    -0.113 N 
ATOM      2  HN  UNL d   1       0.526  -2.009  -1.961  1.00  0.00     0.197 HD
ATOM      3  C   UNL d   1       0.881  -0.144  -2.495  0.00  0.00     0.688 C 
ATOM      4  N   UNL d   1       1.245   1.171  -2.522  0.00  0.00    -0.191 N 
ATOM      5  N   UNL d   1       0.300  -0.530  -3.684  0.00  0.00    -0.225 N 
ATOM      6  H   UNL d   1       0.656   1.734  -3.123  0.00  0.00     0.184 HD
ATOM      7  H   UNL d   1       0.112  -1.529  -3.643  0.00  0.00     0.177 HD
ENDROOT
BRANCH   1   8
ATOM      8  S   UNL d   1       1.265  -1.010  -0.076  0.00  0.00     0.276 S 
ATOM      9  O   UNL d   1       0.895   0.268   0.497  0.00  0.00    -0.200 OA
ATOM     10  O   UNL d   1       2.601  -1.551   0.073  0.00  0.00    -0.200 OA
BRANCH   8  11
ATOM     11  C   UNL d   1       0.180  -2.184   0.753  0.00  0.00     0.080 A 
ATOM     12  C   UNL d   1      -0.934  -2.735   0.111  0.00  0.00     0.025 A 
ATOM     13  C   UNL d   1      -1.758  -3.626   0.808  0.00  0.00     0.002 A 
ATOM     14  C   UNL d   1      -1.472  -3.958   2.132  0.00  0.00     0.000 A 
ATOM     15  C   UNL d   1      -0.362  -3.402   2.771  0.00  0.00     0.002 A 
ATOM     16  C   UNL d   1       0.467  -2.517   2.083  0.00  0.00     0.025 A 
ENDBRANCH   8  11
ENDBRANCH   1   8
BRANCH   4  17
ATOM     17  C   UNL d   1       2.131   1.956  -1.762  0.00  0.00     0.050 A 
ATOM     18  C   UNL d   1       1.796   3.303  -1.534  0.00  0.00     0.053 A 
ATOM     19  C   UNL d   1       2.601   4.126  -0.742  0.00  0.00     0.036 A 
ATOM     20 CL   UNL d   1       2.140   5.763  -0.469  0.00  0.00    -0.084 Cl
ATOM     21  C   UNL d   1       3.764   3.630  -0.171  0.00  0.00     0.024 A 
ATOM     22  C   UNL d   1       4.124   2.304  -0.407  0.00  0.00     0.004 A 
ATOM     23  C   UNL d   1       3.312   1.473  -1.194  0.00  0.00     0.030 A 
ENDBRANCH   4  17
BRANCH   5  24
ATOM     24  C   UNL d   1       0.679  -0.089  -5.021  0.00  0.00     0.142 C 
BRANCH  24  25
ATOM     25  C   UNL d   1      -0.097  -0.912  -6.060  0.00  0.00     0.058 C 
BRANCH  25  26
ATOM     26  C   UNL d   1       0.219  -0.523  -7.481  0.00  0.00    -0.057 A 
ATOM     27  C   UNL d   1       1.282  -1.131  -8.162  0.00  0.00     0.007 A 
ATOM     28  C   UNL d   1       1.567  -0.781  -9.483  0.00  0.00     0.001 A 
ATOM     29  C   UNL d   1       0.797   0.181 -10.133  0.00  0.00     0.000 A 
ATOM     30  C   UNL d   1      -0.258   0.796  -9.462  0.00  0.00     0.001 A 
ATOM     31  C   UNL d   1      -0.546   0.448  -8.141  0.00  0.00     0.007 A 
ENDBRANCH  25  26
ENDBRANCH  24  25
ENDBRANCH   5  24
TORSDOF 6
