REMARK  4 active torsions:
REMARK  status: ('A' for Active; 'I' for Inactive)
REMARK    1  A    between atoms: C_2  and  S_1 
REMARK    2  A    between atoms: C_11  and  S_1 
REMARK    3  A    between atoms: C_3  and  C_10 
REMARK    4  A    between atoms: N_6  and  C_4 
ROOT
ATOM      1  C   UNL d   1      -0.399   2.097  -2.875  0.00  0.00     0.154 C 
ATOM      2  C   UNL d   1      -0.276   0.899  -2.273  0.00  0.00     0.120 C 
ATOM      3  C   UNL d   1      -1.039   2.280  -4.127  0.00  0.00     0.113 C 
ATOM      4  N   UNL d   1      -1.595   2.406  -5.138  0.00  0.00    -0.191 NA
ENDROOT
BRANCH   1   5
ATOM      5  S   UNL d   1       0.180   3.516  -2.056  0.00  0.00     0.190 S 
ATOM      6  O   UNL d   1       0.519   4.521  -3.049  0.00  0.00    -0.222 OA
ATOM      7  O   UNL d   1       1.175   3.141  -1.065  0.00  0.00    -0.222 OA
BRANCH   5   8
ATOM      8  C   UNL d   1      -1.269   4.113  -1.166  0.00  0.00     0.106 C 
ATOM      9  C   UNL d   1      -1.745   3.131  -0.100  0.00  0.00     0.026 C 
ATOM     10  C   UNL d   1      -0.961   5.463  -0.516  0.00  0.00     0.026 C 
ENDBRANCH   5   8
ENDBRANCH   1   5
BRANCH   2  11
ATOM     11  N   UNL d   1      -0.663  -0.358  -2.732  0.00  0.00    -0.388 N 
ATOM     12  C   UNL d   1      -0.129  -0.883  -4.004  0.00  0.00     0.123 C 
ATOM     13  C   UNL d   1      -1.230  -1.670  -4.704  0.00  0.00     0.033 C 
ATOM     14  C   UNL d   1      -1.756  -2.814  -3.823  0.00  0.00     0.096 C 
ATOM     15  C   UNL d   1      -2.159  -2.272  -2.439  0.00  0.00     0.033 C 
ATOM     16  C   UNL d   1      -1.057  -1.423  -1.792  0.00  0.00     0.123 C 
BRANCH  14  17
ATOM     17  C   UNL d   1      -0.767  -3.977  -3.726  0.00  0.00     0.391 C 
ATOM     18  F   UNL d   1       0.334  -3.786  -4.484  0.00  0.00    -0.171 F 
ATOM     19  F   UNL d   1      -0.352  -4.199  -2.461  0.00  0.00    -0.171 F 
ATOM     20  F   UNL d   1      -1.352  -5.119  -4.158  0.00  0.00    -0.171 F 
ENDBRANCH  14  17
ENDBRANCH   2  11
TORSDOF 4
