REMARK  5 active torsions:
REMARK  status: ('A' for Active; 'I' for Inactive)
REMARK    1  A    between atoms: C_18  and  N_1 
REMARK    2  A    between atoms: C_8  and  C_2 
REMARK    3  A    between atoms: S_17  and  C_5 
REMARK    4  A    between atoms: C_22  and  S_17 
REMARK    5  A    between atoms: C_20  and  C_18 
ROOT
ATOM      1  N   UNL d   1      -6.329   1.351  -0.805  0.00  0.00    -0.197 NA
ATOM      2  C   UNL d   1      -5.172   1.259  -0.782  0.00  0.00     0.069 C 
ATOM      3  C   UNL d   1      -3.693   1.174  -0.775  0.00  0.00     0.206 C 
ENDROOT
BRANCH   3   4
ATOM      4  S   UNL d   1      -3.065  -0.425  -0.137  0.00  0.00    -0.078 SA
BRANCH   4   5
ATOM      5  C   UNL d   1      -1.337  -0.195  -0.138  0.00  0.00     0.164 A 
ATOM      6  N   UNL d   1      -0.402  -1.210  -0.076  0.00  0.00    -0.307 N 
ATOM      7  C   UNL d   1       0.847  -0.597  -0.119  0.00  0.00     0.135 A 
ATOM      8  N   UNL d   1       0.633   0.713  -0.126  0.00  0.00    -0.283 N 
ATOM      9  N   UNL d   1      -0.719   0.962  -0.156  0.00  0.00    -0.278 N 
ATOM     10  HN  UNL d   1       1.362   1.426  -0.110  1.00  0.00     0.188 HD
ATOM     11  HN  UNL d   1      -1.162   1.881  -0.188  1.00  0.00     0.189 HD
BRANCH   6  12
ATOM     12  C   UNL d   1      -0.676  -2.624   0.120  0.00  0.00     0.159 C 
BRANCH  12  13
ATOM     13  C   UNL d   1      -0.839  -3.439  -1.139  0.00  0.00    -0.017 C 
ATOM     14  C   UNL d   1      -0.737  -3.027  -2.412  0.00  0.00     0.008 C 
ENDBRANCH  12  13
ENDBRANCH   6  12
BRANCH   7  15
ATOM     15  C   UNL d   1       2.197  -1.212  -0.166  0.00  0.00     0.011 A 
ATOM     16  C   UNL d   1       2.480  -2.438  -0.781  0.00  0.00     0.029 A 
ATOM     17  C   UNL d   1       3.796  -2.941  -0.906  0.00  0.00    -0.009 A 
ATOM     18  C   UNL d   1       4.062  -4.161  -1.544  0.00  0.00     0.015 A 
ATOM     19  C   UNL d   1       4.889  -2.203  -0.416  0.00  0.00     0.042 A 
ATOM     20  C   UNL d   1       5.374  -4.599  -1.697  0.00  0.00     0.018 A 
ATOM     21  C   UNL d   1       6.382  -3.799  -1.196  0.00  0.00     0.088 A 
ATOM     22  N   UNL d   1       6.162  -2.627  -0.555  0.00  0.00    -0.365 N 
ATOM     23  HN  UNL d   1       6.939  -2.079  -0.186  1.00  0.00     0.165 HD
ATOM     24  C   UNL d   1       4.613  -0.997   0.210  0.00  0.00     0.031 A 
ATOM     25  C   UNL d   1       3.299  -0.502   0.334  0.00  0.00     0.017 A 
ENDBRANCH   7  15
ENDBRANCH   4   5
ENDBRANCH   3   4
TORSDOF 5
