REMARK  5 active torsions:
REMARK  status: ('A' for Active; 'I' for Inactive)
REMARK    1  A    between atoms: C_2  and  C_1 
REMARK    2  A    between atoms: N_3  and  C_7 
REMARK    3  A    between atoms: C_13  and  C_6 
REMARK    4  A    between atoms: O_22  and  C_8 
REMARK    5  A    between atoms: O_23  and  C_19 
ROOT
ATOM      1  C   UNL d   1      -0.799  -0.916  -0.187  0.00  0.00     0.286 C 
ATOM      2  O   UNL d   1       0.629  -1.016  -0.043  0.00  0.00    -0.337 OA
ATOM      3  N   UNL d   1      -1.197   0.418   0.295  0.00  0.00     0.126 N 
ATOM      4  C   UNL d   1       1.154   0.325  -0.008  0.00  0.00     0.186 C 
ATOM      5  C   UNL d   1      -0.059   1.256  -0.079  0.00  0.00     0.310 C 
ATOM      6  C   UNL d   1      -1.462  -1.965   0.717  0.00  0.00     0.087 C 
ATOM      7  H   UNL d   1      -1.230   0.373   1.312  0.00  0.00     0.320 HD
ENDROOT
BRANCH   1   8
ATOM      8  C   UNL d   1      -1.157  -1.204  -1.647  0.00  0.00     0.042 A 
ATOM      9  C   UNL d   1      -0.427  -2.123  -2.430  0.00  0.00     0.077 A 
ATOM     10  C   UNL d   1      -0.790  -2.424  -3.743  0.00  0.00     0.040 A 
ATOM     11  C   UNL d   1      -1.890  -1.800  -4.318  0.00  0.00     0.039 A 
ATOM     12  C   UNL d   1      -2.622  -0.891  -3.568  0.00  0.00     0.066 A 
ATOM     13  C   UNL d   1      -2.280  -0.600  -2.246  0.00  0.00     0.051 A 
BRANCH   9  14
ATOM     14  O   UNL d   1       0.688  -2.767  -1.966  0.00  0.00    -0.360 OA
ATOM     15  H   UNL d   1       1.006  -2.275  -1.182  0.00  0.00     0.217 HD
ENDBRANCH   9  14
BRANCH  12  16
ATOM     16  O   UNL d   1      -3.688  -0.290  -4.173  0.00  0.00    -0.361 OA
ATOM     17  H   UNL d   1      -4.085   0.340  -3.548  0.00  0.00     0.217 HD
ENDBRANCH  12  16
ENDBRANCH   1   8
BRANCH   4  18
ATOM     18  C   UNL d   1       2.209   0.492  -1.088  0.00  0.00    -0.028 A 
ATOM     19  C   UNL d   1       1.899   0.977  -2.371  0.00  0.00     0.012 A 
ATOM     20  C   UNL d   1       2.881   1.139  -3.348  0.00  0.00     0.037 A 
ATOM     21  C   UNL d   1       4.198   0.777  -3.063  0.00  0.00     0.102 A 
ATOM     22  C   UNL d   1       4.535   0.262  -1.806  0.00  0.00     0.037 A 
ATOM     23  C   UNL d   1       3.541   0.121  -0.826  0.00  0.00     0.012 A 
BRANCH  21  24
ATOM     24  N   UNL d   1       5.222   0.928  -4.103  0.00  0.00    -0.116 N 
ATOM     25  O   UNL d   1       4.877   1.400  -5.194  0.00  0.00    -0.532 OA
ATOM     26  O   UNL d   1       6.380   0.583  -3.826  0.00  0.00    -0.532 OA
ENDBRANCH  21  24
ENDBRANCH   4  18
TORSDOF 5
