REMARK  4 active torsions:
REMARK  status: ('A' for Active; 'I' for Inactive)
REMARK       I    between atoms: N_2  and  C_1 
REMARK    1  A    between atoms: C_3  and  C_1 
REMARK    2  A    between atoms: C_16  and  N_4 
REMARK    3  A    between atoms: N_5  and  C_17 
REMARK    4  A    between atoms: C_17  and  C_16 
ROOT
ATOM      1  C   UNL d   1       0.901   0.005   0.013  0.00  0.00     0.277 C 
ATOM      2  N   UNL d   1       0.217   0.468  -1.112  0.00  0.00    -0.343 N 
ATOM      3  N   UNL d   1      -0.448   2.117  -3.465  0.00  0.00     0.093 N 
ATOM      4  O   UNL d   1       1.994  -0.552  -0.102  0.00  0.00    -0.265 OA
ATOM      5  C   UNL d   1       0.668   0.062  -2.446  0.00  0.00     0.156 C 
ATOM      6  C   UNL d   1      -0.943   1.367  -1.088  0.00  0.00     0.156 C 
ATOM      7  C   UNL d   1       0.764   1.259  -3.416  0.00  0.00     0.292 C 
ATOM      8  C   UNL d   1      -0.770   2.529  -2.084  0.00  0.00     0.292 C 
ENDROOT
BRANCH   3   9
ATOM      9  C   UNL d   1      -1.555   1.407  -4.140  0.00  0.00     0.302 C 
BRANCH   9  10
ATOM     10  C   UNL d   1      -2.845   2.246  -4.323  0.00  0.00     0.302 C 
BRANCH  10  11
ATOM     11  N   UNL d   1      -3.953   1.506  -4.965  0.00  0.00     0.094 N 
ATOM     12  C   UNL d   1      -3.658   1.071  -6.346  0.00  0.00     0.298 C 
ATOM     13  C   UNL d   1      -3.597   2.229  -7.355  0.00  0.00     0.198 C 
ATOM     14  O   UNL d   1      -4.829   2.961  -7.366  0.00  0.00    -0.388 OA
ATOM     15  C   UNL d   1      -5.140   3.462  -6.059  0.00  0.00     0.198 C 
ATOM     16  C   UNL d   1      -5.182   2.335  -5.010  0.00  0.00     0.298 C 
ENDBRANCH  10  11
ENDBRANCH   9  10
ENDBRANCH   3   9
BRANCH   1  17
ATOM     17  C   UNL d   1       0.314   0.224   1.324  0.00  0.00     0.142 A 
ATOM     18  O   UNL d   1      -1.045   0.162   1.501  0.00  0.00    -0.317 OA
ATOM     19  C   UNL d   1      -1.292   0.386   2.815  0.00  0.00     0.143 A 
ATOM     20  C   UNL d   1      -0.118   0.570   3.503  0.00  0.00     0.027 A 
ATOM     21  C   UNL d   1       0.919   0.437   2.550  0.00  0.00     0.045 A 
ENDBRANCH   1  17
TORSDOF 4
