REMARK  4 active torsions:
REMARK  status: ('A' for Active; 'I' for Inactive)
REMARK    1  A    between atoms: C_2  and  C_1 
REMARK       I    between atoms: N_7  and  C_2 
REMARK    2  A    between atoms: C_9  and  C_5 
REMARK    3  A    between atoms: C_12  and  C_8 
REMARK    4  A    between atoms: O_18  and  C_8 
ROOT
ATOM      1  C   UNL d   1      -2.813  -1.244   0.068  0.00  0.00     0.256 C 
ATOM      2  N   UNL d   1      -4.012  -0.524   0.021  0.00  0.00    -0.348 N 
ATOM      3  C   UNL d   1      -6.845  -0.630  -0.683  0.00  0.00     0.088 C 
ATOM      4  C   UNL d   1      -6.245  -1.403   0.514  0.00  0.00     0.063 C 
ATOM      5  C   UNL d   1      -5.742  -0.384  -1.732  0.00  0.00     0.063 C 
ATOM      6  C   UNL d   1      -5.000  -0.721   1.070  0.00  0.00     0.129 C 
ATOM      7  C   UNL d   1      -4.488   0.240  -1.127  0.00  0.00     0.129 C 
ATOM      8  O   UNL d   1      -2.657  -2.179   0.852  0.00  0.00    -0.267 OA
ENDROOT
BRANCH   1   9
ATOM      9  C   UNL d   1      -1.733  -0.869  -0.832  0.00  0.00     0.063 A 
ATOM     10  C   UNL d   1      -0.807  -1.765  -1.451  0.00  0.00     0.053 A 
ATOM     11  C   UNL d   1       0.090  -1.000  -2.166  0.00  0.00     0.062 A 
ATOM     12  O   UNL d   1      -0.226   0.317  -2.019  0.00  0.00    -0.318 OA
ATOM     13  C   UNL d   1      -1.296   0.400  -1.182  0.00  0.00     0.065 A 
ATOM     14  C   UNL d   1      -1.710   1.778  -0.844  0.00  0.00     0.077 C 
BRANCH  11  15
ATOM     15  C   UNL d   1       1.308  -1.295  -2.999  0.00  0.00    -0.002 C 
ATOM     16  C   UNL d   1       1.603  -2.805  -3.032  0.00  0.00     0.021 C 
ATOM     17  C   UNL d   1       1.085  -0.802  -4.440  0.00  0.00     0.021 C 
ATOM     18  C   UNL d   1       2.525  -0.570  -2.395  0.00  0.00     0.021 C 
ENDBRANCH  11  15
ENDBRANCH   1   9
BRANCH   3  19
ATOM     19  C   UNL d   1      -8.038  -1.331  -1.354  0.00  0.00    -0.024 A 
ATOM     20  C   UNL d   1      -8.505  -2.588  -0.928  0.00  0.00     0.012 A 
ATOM     21  C   UNL d   1      -9.539  -3.248  -1.599  0.00  0.00     0.024 A 
ATOM     22  C   UNL d   1     -10.140  -2.654  -2.702  0.00  0.00     0.034 A 
ATOM     23  C   UNL d   1      -9.723  -1.400  -3.132  0.00  0.00     0.024 A 
ATOM     24 CL   UNL d   1     -11.393  -3.479  -3.542  0.00  0.00    -0.084 Cl
ATOM     25  C   UNL d   1      -8.683  -0.744  -2.465  0.00  0.00     0.012 A 
ENDBRANCH   3  19
BRANCH   3  26
ATOM     26  O   UNL d   1      -7.270   0.646  -0.181  0.00  0.00    -0.385 OA
ATOM     27  H   UNL d   1      -7.954   1.004  -0.770  0.00  0.00     0.211 HD
ENDBRANCH   3  26
TORSDOF 4
