REMARK  6 active torsions:
REMARK  status: ('A' for Active; 'I' for Inactive)
REMARK    1  A    between atoms: C_9  and  C_1 
REMARK    2  A    between atoms: N_17  and  C_3 
REMARK    3  A    between atoms: C_16  and  C_6 
REMARK       I    between atoms: N_15  and  C_9 
REMARK    4  A    between atoms: C_14  and  C_10 
REMARK    5  A    between atoms: N_12  and  N_15 
REMARK    6  A    between atoms: C_26  and  C_21 
ROOT
ATOM      1  C   UNL d   1       2.426   0.042   0.072  0.00  0.00     0.174 A 
ATOM      2  C   UNL d   1       0.307   0.853   0.035  0.00  0.00     0.056 A 
ATOM      3  C   UNL d   1       1.682   1.203   0.128  0.00  0.00     0.081 A 
ATOM      4  C   UNL d   1       0.301  -0.546   0.016  0.00  0.00     0.162 A 
ATOM      5  O   UNL d   1       1.583  -1.036   0.022  0.00  0.00    -0.285 OA
ATOM      6  C   UNL d   1      -0.944   1.516  -0.035  0.00  0.00    -0.007 A 
ATOM      7  N   UNL d   1      -0.772  -1.360  -0.018  0.00  0.00    -0.335 N 
ATOM      8  HN  UNL d   1      -0.695  -2.377  -0.011  1.00  0.00     0.168 HD
ATOM      9  C   UNL d   1      -1.960  -0.715  -0.062  0.00  0.00     0.045 A 
ATOM     10  C   UNL d   1      -2.074   0.679  -0.065  0.00  0.00     0.043 A 
ENDROOT
BRANCH   1  11
ATOM     11  C   UNL d   1       3.867  -0.103   0.076  0.00  0.00     0.296 C 
ATOM     12  N   UNL d   1       4.365  -1.399   0.014  0.00  0.00    -0.264 N 
ATOM     13  H   UNL d   1       3.737  -2.194  -0.038  0.00  0.00     0.190 HD
ATOM     14  O   UNL d   1       4.612   0.884   0.131  0.00  0.00    -0.264 OA
BRANCH  12  15
ATOM     15  N   UNL d   1       5.719  -1.553  -0.045  0.00  0.00    -0.308 N 
ATOM     16  C   UNL d   1       6.200  -2.749  -0.109  0.00  0.00     0.118 C 
ATOM     17  HN  UNL d   1       6.337  -0.742  -0.038  1.00  0.00     0.186 HD
BRANCH  16  18
ATOM     18  C   UNL d   1       7.662  -2.957  -0.213  0.00  0.00    -0.019 A 
ATOM     19  C   UNL d   1       8.540  -1.864  -0.207  0.00  0.00     0.013 A 
ATOM     20  C   UNL d   1       9.915  -2.071  -0.336  0.00  0.00     0.001 A 
ATOM     21  C   UNL d   1      10.413  -3.365  -0.470  0.00  0.00     0.000 A 
ATOM     22  C   UNL d   1       9.540  -4.455  -0.469  0.00  0.00     0.001 A 
ATOM     23  C   UNL d   1       8.164  -4.255  -0.338  0.00  0.00     0.013 A 
ENDBRANCH  16  18
ENDBRANCH  12  15
ENDBRANCH   1  11
BRANCH   3  24
ATOM     24  N   UNL d   1       2.225   2.435   0.242  0.00  0.00    -0.396 N 
ATOM     25  H   UNL d   1       1.709   3.219   0.626  0.00  0.00     0.156 HD
ATOM     26  H   UNL d   1       3.241   2.527   0.353  0.00  0.00     0.156 HD
ENDBRANCH   3  24
BRANCH   6  27
ATOM     27  C   UNL d   1      -1.079   2.986  -0.093  0.00  0.00    -0.025 A 
ATOM     28  C   UNL d   1      -0.236   3.780  -0.890  0.00  0.00     0.012 A 
ATOM     29  C   UNL d   1      -0.321   5.176  -0.887  0.00  0.00     0.001 A 
ATOM     30  C   UNL d   1      -1.311   5.810  -0.146  0.00  0.00     0.000 A 
ATOM     31  C   UNL d   1      -2.212   5.048   0.589  0.00  0.00     0.001 A 
ATOM     32  C   UNL d   1      -2.088   3.654   0.625  0.00  0.00     0.012 A 
ENDBRANCH   6  27
BRANCH   9  33
ATOM     33  C   UNL d   1      -3.169  -1.575  -0.135  0.00  0.00    -0.009 A 
ATOM     34  C   UNL d   1      -3.229  -2.814   0.529  0.00  0.00     0.015 A 
ATOM     35  C   UNL d   1      -4.370  -3.626   0.460  0.00  0.00     0.024 A 
ATOM     36  C   UNL d   1      -5.474  -3.211  -0.280  0.00  0.00     0.034 A 
ATOM     37  C   UNL d   1      -5.449  -1.992  -0.945  0.00  0.00     0.024 A 
ATOM     38 CL   UNL d   1      -6.869  -4.211  -0.382  0.00  0.00    -0.084 Cl
ATOM     39  C   UNL d   1      -4.306  -1.186  -0.875  0.00  0.00     0.015 A 
ENDBRANCH   9  33
TORSDOF 6
