REMARK  10 active torsions:
REMARK  status: ('A' for Active; 'I' for Inactive)
REMARK    1  A    between atoms: C_13  and  N_1 
REMARK    2  A    between atoms: C_8  and  C_2 
REMARK    3  A    between atoms: S_20  and  C_5 
REMARK    4  A    between atoms: C_11  and  C_26 
REMARK    5  A    between atoms: C_12  and  C_27 
REMARK    6  A    between atoms: C_16  and  C_13 
REMARK    7  A    between atoms: O_24  and  C_14 
REMARK    8  A    between atoms: O_25  and  C_15 
REMARK    9  A    between atoms: C_26  and  O_24 
REMARK   10  A    between atoms: C_27  and  O_25 
ROOT
ATOM      1  C   UNL d   1       2.401  -1.168  -0.192  0.00  0.00     0.018 A 
ATOM      2  N   UNL d   1       4.925  -2.354  -0.172  0.00  0.00    -0.318 N 
ATOM      3  HN  UNL d   1       5.833  -2.820  -0.149  1.00  0.00     0.170 HD
ATOM      4  C   UNL d   1       4.506  -1.613   0.868  0.00  0.00     0.145 A 
ATOM      5  C   UNL d   1       4.123  -2.468  -1.243  0.00  0.00     0.145 A 
ATOM      6  C   UNL d   1       2.876  -1.869  -1.301  0.00  0.00     0.071 A 
ATOM      7  C   UNL d   1       3.255  -1.019   0.907  0.00  0.00     0.071 A 
ENDROOT
BRANCH   1   8
ATOM      8  C   UNL d   1       1.059  -0.568  -0.137  0.00  0.00     0.135 A 
ATOM      9  N   UNL d   1      -0.124  -1.023  -0.706  0.00  0.00    -0.305 N 
ATOM     10  C   UNL d   1      -1.089  -0.123  -0.328  0.00  0.00     0.160 A 
ATOM     11  N   UNL d   1      -0.555   0.804   0.428  0.00  0.00    -0.278 N 
ATOM     12  N   UNL d   1       0.778   0.523   0.556  0.00  0.00    -0.283 N 
ATOM     13  HN  UNL d   1      -1.046   1.594   0.847  1.00  0.00     0.189 HD
ATOM     14  HN  UNL d   1       1.449   1.068   1.098  1.00  0.00     0.188 HD
BRANCH   9  15
ATOM     15  C   UNL d   1      -0.338  -2.254  -1.442  0.00  0.00     0.198 C 
BRANCH  15  16
ATOM     16  C   UNL d   1      -0.287  -2.048  -2.919  0.00  0.00     0.070 A 
ATOM     17  O   UNL d   1      -0.480  -3.175  -3.666  0.00  0.00    -0.325 OA
ATOM     18  C   UNL d   1      -0.391  -2.812  -4.973  0.00  0.00     0.142 A 
ATOM     19  C   UNL d   1      -0.128  -1.467  -5.080  0.00  0.00     0.027 A 
ATOM     20  C   UNL d   1      -0.059  -0.972  -3.753  0.00  0.00     0.036 A 
ENDBRANCH  15  16
ENDBRANCH   9  15
BRANCH  10  21
ATOM     21  S   UNL d   1      -2.763  -0.180  -0.758  0.00  0.00    -0.105 SA
ATOM     22  H   UNL d   1      -2.761  -1.142  -1.690  0.00  0.00     0.110 HD
ENDBRANCH  10  21
ENDBRANCH   1   8
BRANCH   5  23
ATOM     23  O   UNL d   1       4.636  -3.287  -2.207  0.00  0.00    -0.327 OA
BRANCH  23  24
ATOM     24  C   UNL d   1       4.170  -3.098  -3.544  0.00  0.00     0.294 C 
BRANCH  24  25
ATOM     25  C   UNL d   1       4.787  -4.114  -4.502  0.00  0.00     0.408 C 
ATOM     26  F   UNL d   1       5.471  -5.092  -3.875  0.00  0.00    -0.169 F 
ATOM     27  F   UNL d   1       3.814  -4.711  -5.235  0.00  0.00    -0.169 F 
ATOM     28  F   UNL d   1       5.627  -3.512  -5.375  0.00  0.00    -0.169 F 
ENDBRANCH  24  25
ENDBRANCH  23  24
ENDBRANCH   5  23
BRANCH   4  29
ATOM     29  O   UNL d   1       5.405  -1.574   1.894  0.00  0.00    -0.327 OA
BRANCH  29  30
ATOM     30  C   UNL d   1       5.465  -0.345   2.625  0.00  0.00     0.294 C 
BRANCH  30  31
ATOM     31  C   UNL d   1       6.843  -0.139   3.252  0.00  0.00     0.408 C 
ATOM     32  F   UNL d   1       7.744  -1.073   2.883  0.00  0.00    -0.169 F 
ATOM     33  F   UNL d   1       7.349   1.069   2.905  0.00  0.00    -0.169 F 
ATOM     34  F   UNL d   1       6.765  -0.162   4.604  0.00  0.00    -0.169 F 
ENDBRANCH  30  31
ENDBRANCH  29  30
ENDBRANCH   4  29
TORSDOF 10
