REMARK  5 active torsions:
REMARK  status: ('A' for Active; 'I' for Inactive)
REMARK    1  A    between atoms: C_12  and  C_1 
REMARK    2  A    between atoms: C_6  and  N_11 
REMARK    3  A    between atoms: N_7  and  C_6 
REMARK    4  A    between atoms: C_8  and  N_7 
REMARK    5  A    between atoms: N_11  and  C_12 
ROOT
ATOM      1  N   UNL d   1       4.106   1.460   0.018  0.00  0.00    -0.362 N 
ATOM      2  H   UNL d   1       3.495   2.269  -0.021  0.00  0.00     0.162 HD
ENDROOT
BRANCH   1   3
ATOM      3  C   UNL d   1       5.414   1.670  -0.317  0.00  0.00     0.172 C 
ATOM      4  S   UNL d   1       6.525   0.492  -0.715  0.00  0.00    -0.041 SA
BRANCH   3   5
ATOM      5  N   UNL d   1       5.795   2.984  -0.392  0.00  0.00    -0.332 N 
ATOM      6  H   UNL d   1       6.595   3.167  -0.989  0.00  0.00     0.168 HD
BRANCH   5   7
ATOM      7  C   UNL d   1       5.484   4.033   0.512  0.00  0.00     0.056 A 
ATOM      8  C   UNL d   1       5.823   5.356   0.169  0.00  0.00     0.062 A 
ATOM      9  C   UNL d   1       5.648   6.399   1.083  0.00  0.00     0.050 A 
ATOM     10 CL   UNL d   1       6.448   5.740  -1.397  0.00  0.00    -0.082 Cl
ATOM     11  C   UNL d   1       5.160   6.121   2.354  0.00  0.00     0.035 A 
ATOM     12  C   UNL d   1       4.815   4.818   2.711  0.00  0.00     0.026 A 
ATOM     13 CL   UNL d   1       5.005   7.388   3.507  0.00  0.00    -0.084 Cl
ATOM     14  C   UNL d   1       4.969   3.779   1.788  0.00  0.00     0.033 A 
ENDBRANCH   5   7
ENDBRANCH   3   5
ENDBRANCH   1   3
BRANCH   1  15
ATOM     15  C   UNL d   1       3.483   0.176   0.284  0.00  0.00     0.168 C 
BRANCH  15  16
ATOM     16  C   UNL d   1       1.992   0.329   0.352  0.00  0.00     0.008 A 
ATOM     17  S   UNL d   1       1.290   0.992   1.765  0.00  0.00    -0.092 SA
ATOM     18  C   UNL d   1      -0.311   0.723   1.207  0.00  0.00     0.016 A 
ATOM     19  C   UNL d   1      -1.508   0.993   1.903  0.00  0.00     0.019 A 
ATOM     20  C   UNL d   1      -0.317   0.171  -0.075  0.00  0.00    -0.012 A 
ATOM     21  C   UNL d   1      -2.730   0.687   1.299  0.00  0.00     0.001 A 
ATOM     22  C   UNL d   1      -2.767   0.135   0.028  0.00  0.00     0.001 A 
ATOM     23  C   UNL d   1      -1.577  -0.119  -0.662  0.00  0.00     0.013 A 
ATOM     24  C   UNL d   1       1.029  -0.028  -0.583  0.00  0.00    -0.036 A 
ATOM     25  C   UNL d   1       1.304  -0.604  -1.938  0.00  0.00     0.050 C 
ENDBRANCH  15  16
ENDBRANCH   1  15
TORSDOF 5
