REMARK  2 active torsions:
REMARK  status: ('A' for Active; 'I' for Inactive)
REMARK    1  A    between atoms: N_5  and  C_8 
REMARK    2  A    between atoms: C_13  and  C_7 
ROOT
ATOM      1  C   UNL d   1      -5.186  -1.413   1.080  0.00  0.00     0.103 A 
ATOM      2  C   UNL d   1      -3.854   0.331   0.065  0.00  0.00    -0.032 A 
ATOM      3  C   UNL d   1      -4.059  -0.581   1.106  0.00  0.00     0.047 A 
ATOM      4  C   UNL d   1      -6.114  -1.330   0.033  0.00  0.00     0.036 A 
ATOM      5  C   UNL d   1      -5.910  -0.408  -0.993  0.00  0.00     0.003 A 
ATOM      6  C   UNL d   1      -4.784   0.418  -0.979  0.00  0.00     0.011 A 
ENDROOT
BRANCH   2   7
ATOM      7  C   UNL d   1      -2.636   1.143   0.035  0.00  0.00     0.036 C 
ATOM      8  C   UNL d   1      -1.493   0.750  -0.542  0.00  0.00     0.076 A 
ATOM      9  C   UNL d   1      -0.268   1.591  -0.539  0.00  0.00     0.264 A 
ATOM     10  S   UNL d   1      -1.181  -0.737  -1.366  0.00  0.00    -0.055 SA
ATOM     11  N   UNL d   1       0.742   0.930  -1.181  0.00  0.00    -0.307 N 
ATOM     12  O   UNL d   1      -0.172   2.700  -0.042  0.00  0.00    -0.267 OA
ATOM     13  C   UNL d   1       0.480  -0.305  -1.691  0.00  0.00     0.146 A 
ATOM     14  H   UNL d   1       1.653   1.356  -1.267  0.00  0.00     0.170 HD
ATOM     15  S   UNL d   1       1.597  -1.226  -2.492  0.00  0.00    -0.052 SA
ENDBRANCH   2   7
BRANCH   1  16
ATOM     16  N   UNL d   1      -5.384  -2.397   2.152  0.00  0.00    -0.116 N 
ATOM     17  O   UNL d   1      -4.535  -2.447   3.053  0.00  0.00    -0.532 OA
ATOM     18  O   UNL d   1      -6.389  -3.121   2.091  0.00  0.00    -0.532 OA
ENDBRANCH   1  16
TORSDOF 2
