REMARK  7 active torsions:
REMARK  status: ('A' for Active; 'I' for Inactive)
REMARK       I    between atoms: C_2  and  N_1 
REMARK       I    between atoms: N_5  and  C_2 
REMARK    1  A    between atoms: C_6  and  C_3 
REMARK    2  A    between atoms: C_7  and  C_4 
REMARK    3  A    between atoms: C_13  and  N_5 
REMARK    4  A    between atoms: O_15  and  C_6 
REMARK    5  A    between atoms: O_16  and  C_7 
REMARK    6  A    between atoms: C_23  and  O_15 
REMARK    7  A    between atoms: C_22  and  O_16 
ROOT
ATOM      1  N   UNL d   1      -1.028   0.471   0.133  0.00  0.00    -0.306 N 
ATOM      2  C   UNL d   1      -2.147   1.296   0.154  0.00  0.00     0.324 C 
ATOM      3  C   UNL d   1      -0.928  -0.972  -0.156  0.00  0.00     0.189 C 
ATOM      4  C   UNL d   1       0.251   1.126  -0.160  0.00  0.00     0.189 C 
ATOM      5  N   UNL d   1      -3.356   0.650   0.101  0.00  0.00    -0.309 N 
ATOM      6  C   UNL d   1       1.307   0.019  -0.102  0.00  0.00     0.038 C 
ATOM      7  C   UNL d   1       0.542  -1.265   0.167  0.00  0.00     0.038 C 
ATOM      8  O   UNL d   1      -2.007   2.515   0.175  0.00  0.00    -0.247 OA
ATOM      9  H   UNL d   1      -3.347  -0.342   0.281  0.00  0.00     0.170 HD
ENDROOT
BRANCH   3  10
ATOM     10  C   UNL d   1      -1.780  -1.936   0.673  0.00  0.00     0.282 C 
ATOM     11  O   UNL d   1      -2.701  -1.603   1.407  0.00  0.00    -0.263 OA
BRANCH  10  12
ATOM     12  O   UNL d   1      -1.444  -3.229   0.398  0.00  0.00    -0.320 OA
BRANCH  12  13
ATOM     13  C   UNL d   1      -2.167  -4.224   1.136  0.00  0.00     0.174 C 
ATOM     14  C   UNL d   1      -1.495  -4.439   2.479  0.00  0.00     0.034 C 
ENDBRANCH  12  13
ENDBRANCH  10  12
ENDBRANCH   3  10
BRANCH   4  15
ATOM     15  C   UNL d   1       0.312   1.684  -1.594  0.00  0.00     0.282 C 
ATOM     16  O   UNL d   1      -0.283   1.208  -2.555  0.00  0.00    -0.263 OA
BRANCH  15  17
ATOM     17  O   UNL d   1       1.295   2.631  -1.665  0.00  0.00    -0.320 OA
BRANCH  17  18
ATOM     18  C   UNL d   1       1.769   2.952  -2.980  0.00  0.00     0.174 C 
ATOM     19  C   UNL d   1       2.960   2.062  -3.291  0.00  0.00     0.034 C 
ENDBRANCH  17  18
ENDBRANCH  15  17
ENDBRANCH   4  15
BRANCH   5  20
ATOM     20  C   UNL d   1      -4.644   1.200  -0.023  0.00  0.00     0.036 A 
ATOM     21  C   UNL d   1      -4.932   2.561   0.071  0.00  0.00     0.031 A 
ATOM     22  C   UNL d   1      -6.240   3.021  -0.122  0.00  0.00     0.026 A 
ATOM     23  C   UNL d   1      -7.257   2.121  -0.429  0.00  0.00     0.034 A 
ATOM     24  C   UNL d   1      -6.989   0.758  -0.501  0.00  0.00     0.026 A 
ATOM     25 CL   UNL d   1      -8.850   2.696  -0.732  0.00  0.00    -0.084 Cl
ATOM     26  C   UNL d   1      -5.689   0.299  -0.280  0.00  0.00     0.031 A 
ENDBRANCH   5  20
TORSDOF 7
