REMARK  3 active torsions:
REMARK  status: ('A' for Active; 'I' for Inactive)
REMARK    1  A    between atoms: C_3  and  C_6 
REMARK    2  A    between atoms: C_16  and  C_4 
REMARK    3  A    between atoms: C_15  and  C_5 
ROOT
ATOM      1  C   UNL d   1       0.341   1.120  -0.307  0.00  0.00     0.143 A 
ATOM      2  C   UNL d   1       0.656   2.507  -0.050  0.00  0.00     0.071 A 
ATOM      3  C   UNL d   1      -0.206   3.538   0.421  0.00  0.00     0.086 A 
ATOM      4  C   UNL d   1       0.602  -0.962  -0.311  0.00  0.00     0.187 A 
ATOM      5  N   UNL d   1       1.210   0.135   0.088  0.00  0.00    -0.318 N 
ATOM      6  HN  UNL d   1       2.104   0.229   0.571  1.00  0.00     0.169 HD
ATOM      7  N   UNL d   1       0.490   4.682   0.556  0.00  0.00    -0.259 N 
ATOM      8  HN  UNL d   1       0.134   5.574   0.899  1.00  0.00     0.195 HD
ATOM      9  N   UNL d   1      -0.743   0.692  -0.961  0.00  0.00    -0.242 N 
ATOM     10  HN  UNL d   1      -1.512   1.241  -1.345  1.00  0.00     0.196 HD
ATOM     11  O   UNL d   1      -0.563  -0.691  -0.990  0.00  0.00    -0.217 OA
ATOM     12  O   UNL d   1       1.778   4.415   0.139  0.00  0.00    -0.241 OA
ATOM     13  C   UNL d   1       1.879   3.111  -0.221  0.00  0.00     0.089 A 
ATOM     14  C   UNL d   1       3.190   2.646  -0.712  0.00  0.00     0.080 C 
ENDROOT
BRANCH   3  15
ATOM     15  C   UNL d   1      -1.617   3.476   0.799  0.00  0.00     0.054 A 
ATOM     16  C   UNL d   1      -2.050   2.470   1.677  0.00  0.00     0.130 A 
ATOM     17  F   UNL d   1      -1.174   1.591   2.186  0.00  0.00    -0.205 F 
ATOM     18  C   UNL d   1      -3.384   2.351   2.063  0.00  0.00     0.043 A 
ATOM     19  C   UNL d   1      -4.325   3.260   1.594  0.00  0.00     0.005 A 
ATOM     20  C   UNL d   1      -3.919   4.282   0.737  0.00  0.00     0.025 A 
ATOM     21  C   UNL d   1      -2.579   4.390   0.335  0.00  0.00     0.049 A 
ATOM     22 CL   UNL d   1      -2.210   5.666  -0.776  0.00  0.00    -0.083 Cl
ENDBRANCH   3  15
BRANCH   4  23
ATOM     23  C   UNL d   1       1.082  -2.336  -0.037  0.00  0.00     0.078 A 
ATOM     24  C   UNL d   1       2.065  -2.805   0.880  0.00  0.00     0.085 A 
ATOM     25  N   UNL d   1       2.142  -4.146   0.813  0.00  0.00    -0.259 N 
ATOM     26  O   UNL d   1       1.242  -4.549  -0.148  0.00  0.00    -0.241 OA
ATOM     27  HN  UNL d   1       2.749  -4.749   1.368  1.00  0.00     0.195 HD
ATOM     28  C   UNL d   1       0.597  -3.465  -0.654  0.00  0.00     0.089 A 
ATOM     29  C   UNL d   1      -0.404  -3.733  -1.701  0.00  0.00     0.080 C 
BRANCH  24  30
ATOM     30  C   UNL d   1       2.881  -2.071   1.850  0.00  0.00     0.037 A 
ATOM     31  C   UNL d   1       2.288  -1.290   2.861  0.00  0.00     0.048 A 
ATOM     32 CL   UNL d   1       0.572  -1.208   3.104  0.00  0.00    -0.083 Cl
ATOM     33  C   UNL d   1       3.075  -0.577   3.777  0.00  0.00     0.025 A 
ATOM     34  C   UNL d   1       4.463  -0.671   3.738  0.00  0.00     0.003 A 
ATOM     35  C   UNL d   1       5.067  -1.474   2.776  0.00  0.00     0.025 A 
ATOM     36  C   UNL d   1       4.288  -2.159   1.831  0.00  0.00     0.048 A 
ATOM     37 CL   UNL d   1       5.160  -3.086   0.653  0.00  0.00    -0.083 Cl
ENDBRANCH  24  30
ENDBRANCH   4  23
TORSDOF 3
