REMARK  5 active torsions:
REMARK  status: ('A' for Active; 'I' for Inactive)
REMARK    1  A    between atoms: C_4  and  C_1 
REMARK    2  A    between atoms: C_6  and  N_3 
REMARK    3  A    between atoms: C_5  and  C_6 
REMARK       I    between atoms: N_9  and  C_5 
REMARK    4  A    between atoms: C_19  and  N_9 
REMARK    5  A    between atoms: C_20  and  C_12 
ROOT
ATOM      1  C   UNL d   1       3.439   0.280  -0.720  0.00  0.00     0.240 C 
ATOM      2  N   UNL d   1       3.085  -1.029  -0.421  0.00  0.00    -0.326 N 
ATOM      3  O   UNL d   1       2.682   1.247  -0.754  0.00  0.00    -0.271 OA
ATOM      4  H   UNL d   1       3.865  -1.647  -0.191  0.00  0.00     0.169 HD
ENDROOT
BRANCH   1   5
ATOM      5  C   UNL d   1       4.966   0.461  -0.914  0.00  0.00     0.234 C 
BRANCH   5   6
ATOM      6  N   UNL d   1       5.623   0.672   0.374  0.00  0.00    -0.315 N 
ATOM      7  C   UNL d   1       5.535  -0.344   1.326  0.00  0.00     0.263 C 
ATOM      8  C   UNL d   1       5.810   0.086   2.708  0.00  0.00     0.115 C 
ATOM      9  O   UNL d   1       5.198  -1.497   1.057  0.00  0.00    -0.267 OA
ATOM     10  C   UNL d   1       6.641   1.130   2.892  0.00  0.00     0.023 C 
ATOM     11  C   UNL d   1       7.128   1.876   1.749  0.00  0.00     0.018 C 
ATOM     12  C   UNL d   1       6.535   1.705   0.560  0.00  0.00     0.095 C 
BRANCH   8  13
ATOM     13  C   UNL d   1       4.978  -0.546   3.754  0.00  0.00     0.422 C 
ATOM     14  F   UNL d   1       3.927  -1.266   3.287  0.00  0.00    -0.166 F 
ATOM     15  F   UNL d   1       5.696  -1.367   4.562  0.00  0.00    -0.166 F 
ATOM     16  F   UNL d   1       4.434   0.405   4.568  0.00  0.00    -0.166 F 
ENDBRANCH   8  13
ENDBRANCH   5   6
ENDBRANCH   1   5
BRANCH   2  17
ATOM     17  C   UNL d   1       1.815  -1.533  -0.060  0.00  0.00     0.034 A 
ATOM     18  C   UNL d   1       0.628  -0.809  -0.151  0.00  0.00     0.030 A 
ATOM     19  C   UNL d   1      -0.580  -1.360   0.303  0.00  0.00     0.010 A 
ATOM     20  C   UNL d   1      -0.633  -2.651   0.848  0.00  0.00    -0.055 A 
ATOM     21  C   UNL d   1       0.558  -3.388   0.901  0.00  0.00     0.010 A 
ATOM     22  C   UNL d   1       1.764  -2.836   0.450  0.00  0.00     0.030 A 
BRANCH  20  23
ATOM     23  C   UNL d   1      -1.901  -3.228   1.461  0.00  0.00     0.010 C 
ATOM     24  C   UNL d   1      -2.099  -2.671   2.874  0.00  0.00     0.015 C 
ATOM     25  C   UNL d   1      -3.163  -3.008   0.622  0.00  0.00     0.015 C 
ENDBRANCH  20  23
ENDBRANCH   2  17
TORSDOF 5
