REMARK  2 active torsions:
REMARK  status: ('A' for Active; 'I' for Inactive)
REMARK    1  A    between atoms: C_8  and  N_1 
REMARK    2  A    between atoms: N_3  and  C_2 
ROOT
ATOM      1  N   UNL d   1       0.463   0.993  -0.265  0.00  0.00    -0.295 N 
ATOM      2  C   UNL d   1      -1.388  -0.407  -0.831  0.00  0.00     0.118 A 
ATOM      3  C   UNL d   1      -0.848   0.814  -0.704  0.00  0.00     0.133 A 
ATOM      4  C   UNL d   1       1.270  -0.104   0.073  0.00  0.00     0.249 A 
ATOM      5  C   UNL d   1      -0.608  -1.583  -0.532  0.00  0.00     0.043 A 
ATOM      6  C   UNL d   1       0.661  -1.452  -0.117  0.00  0.00     0.077 A 
ATOM      7  O   UNL d   1       2.402  -0.035   0.538  0.00  0.00    -0.268 OA
ENDROOT
BRANCH   1   8
ATOM      8  C   UNL d   1       0.975   2.328   0.086  0.00  0.00     0.230 C 
ATOM      9  O   UNL d   1       0.830   3.269  -0.979  0.00  0.00    -0.366 OA
ATOM     10  C   UNL d   1      -0.314   4.110  -1.014  0.00  0.00     0.170 C 
ATOM     11  C   UNL d   1      -0.796   4.616   0.337  0.00  0.00     0.026 C 
ATOM     12  C   UNL d   1      -0.876   3.504   1.366  0.00  0.00     0.006 C 
ATOM     13  C   UNL d   1       0.472   2.806   1.452  0.00  0.00     0.054 C 
ENDBRANCH   1   8
BRANCH   2  14
ATOM     14  N   UNL d   1      -2.798  -0.495  -1.216  0.00  0.00    -0.114 N 
ATOM     15  O   UNL d   1      -3.285  -1.628  -1.320  0.00  0.00    -0.532 OA
ATOM     16  O   UNL d   1      -3.426   0.558  -1.399  0.00  0.00    -0.532 OA
ENDBRANCH   2  14
TORSDOF 2
