REMARK  5 active torsions:
REMARK  status: ('A' for Active; 'I' for Inactive)
REMARK    1  A    between atoms: C_4  and  C_1 
REMARK    2  A    between atoms: N_5  and  C_3 
REMARK    3  A    between atoms: O_14  and  C_4 
REMARK       I    between atoms: C_8  and  N_5 
REMARK    4  A    between atoms: C_6  and  C_7 
REMARK    5  A    between atoms: O_15  and  C_6 
ROOT
ATOM      1  C   UNL d   1      -1.416   0.345  -0.355  0.00  0.00     0.109 C 
ATOM      2  C   UNL d   1      -0.405   1.405   0.118  0.00  0.00     0.031 C 
ATOM      3  C   UNL d   1      -1.024  -1.037   0.204  0.00  0.00     0.098 C 
ATOM      4  C   UNL d   1       1.050   1.044  -0.221  0.00  0.00     0.086 C 
ATOM      5  C   UNL d   1       0.411  -1.427  -0.166  0.00  0.00     0.027 C 
ATOM      6  C   UNL d   1       1.407  -0.364   0.281  0.00  0.00     0.017 C 
ENDROOT
BRANCH   3   7
ATOM      7  N   UNL d   1      -1.956  -2.089  -0.179  0.00  0.00    -0.356 N 
ATOM      8  C   UNL d   1      -3.096  -2.350   0.546  0.00  0.00     0.213 C 
ATOM      9  O   UNL d   1      -3.388  -1.766   1.584  0.00  0.00    -0.274 OA
ATOM     10  C   UNL d   1      -3.967  -3.432  -0.034  0.00  0.00     0.117 C 
ATOM     11  H   UNL d   1      -1.911  -2.412  -1.141  0.00  0.00     0.162 HD
ENDBRANCH   3   7
BRANCH   1  12
ATOM     12  C   UNL d   1      -1.550   0.332  -1.873  0.00  0.00     0.264 C 
ATOM     13  O   UNL d   1      -1.385  -0.653  -2.586  0.00  0.00    -0.265 OA
BRANCH  12  14
ATOM     14  O   UNL d   1      -1.926   1.556  -2.338  0.00  0.00    -0.326 OA
ATOM     15  C   UNL d   1      -2.103   1.609  -3.756  0.00  0.00     0.213 C 
ENDBRANCH  12  14
ENDBRANCH   1  12
BRANCH   4  16
ATOM     16  C   UNL d   1       2.016   2.062   0.379  0.00  0.00     0.262 C 
ATOM     17  O   UNL d   1       2.894   1.801   1.188  0.00  0.00    -0.265 OA
BRANCH  16  18
ATOM     18  O   UNL d   1       1.787   3.300  -0.143  0.00  0.00    -0.326 OA
ATOM     19  C   UNL d   1       2.675   4.304   0.354  0.00  0.00     0.213 C 
ENDBRANCH  16  18
ENDBRANCH   4  16
TORSDOF 5
