REMARK  6 active torsions:
REMARK  status: ('A' for Active; 'I' for Inactive)
REMARK       I    between atoms: C_2  and  N_1 
REMARK       I    between atoms: C_3  and  N_1 
REMARK       I    between atoms: N_9  and  C_2 
REMARK    1  A    between atoms: C_6  and  C_3 
REMARK    2  A    between atoms: C_4  and  C_7 
REMARK    3  A    between atoms: O_10  and  C_5 
REMARK    4  A    between atoms: C_15  and  N_9 
REMARK    5  A    between atoms: C_21  and  O_10 
REMARK    6  A    between atoms: O_22  and  C_11 
ROOT
ATOM      1  N   UNL d   1       1.002  -0.863  -0.046  0.00  0.00    -0.275 N 
ATOM      2  C   UNL d   1      -0.021  -0.650   0.838  0.00  0.00     0.327 C 
ATOM      3  C   UNL d   1       2.367  -0.745   0.123  0.00  0.00     0.259 C 
ATOM      4  N   UNL d   1       0.340  -0.406   2.136  0.00  0.00    -0.309 N 
ATOM      5  O   UNL d   1      -1.160  -0.674   0.378  0.00  0.00    -0.247 OA
ATOM      6  O   UNL d   1       2.921  -0.544   1.194  0.00  0.00    -0.267 OA
ATOM      7  H   UNL d   1       0.633  -1.081  -0.960  0.00  0.00     0.173 HD
ATOM      8  H   UNL d   1       1.340  -0.299   2.301  0.00  0.00     0.170 HD
ENDROOT
BRANCH   3   9
ATOM      9  C   UNL d   1       3.148  -0.968  -1.127  0.00  0.00     0.035 A 
ATOM     10  C   UNL d   1       2.674  -0.507  -2.365  0.00  0.00     0.056 A 
ATOM     11  C   UNL d   1       3.325  -0.855  -3.555  0.00  0.00     0.103 A 
ATOM     12  C   UNL d   1       4.513  -1.601  -3.486  0.00  0.00     0.101 A 
ATOM     13  C   UNL d   1       4.999  -2.024  -2.238  0.00  0.00     0.040 A 
ATOM     14  C   UNL d   1       4.324  -1.709  -1.060  0.00  0.00     0.020 A 
BRANCH  11  15
ATOM     15  O   UNL d   1       2.838  -0.492  -4.783  0.00  0.00    -0.343 OA
BRANCH  15  16
ATOM     16  C   UNL d   1       1.422  -0.409  -4.949  0.00  0.00     0.129 C 
ATOM     17  C   UNL d   1       0.707  -1.748  -4.763  0.00  0.00     0.032 C 
ATOM     18  C   UNL d   1      -0.548  -1.669  -5.626  0.00  0.00     0.002 C 
ATOM     19  C   UNL d   1      -0.336  -0.506  -6.590  0.00  0.00     0.002 C 
ATOM     20  C   UNL d   1       1.112  -0.078  -6.408  0.00  0.00     0.032 C 
ENDBRANCH  15  16
ENDBRANCH  11  15
BRANCH  12  21
ATOM     21  O   UNL d   1       5.265  -2.062  -4.536  0.00  0.00    -0.353 OA
ATOM     22  C   UNL d   1       5.323  -1.240  -5.694  0.00  0.00     0.210 C 
ENDBRANCH  12  21
ENDBRANCH   3   9
BRANCH   4  23
ATOM     23  C   UNL d   1      -0.537  -0.141   3.207  0.00  0.00     0.037 A 
ATOM     24  C   UNL d   1      -1.918  -0.340   3.122  0.00  0.00     0.045 A 
ATOM     25  C   UNL d   1      -2.775   0.030   4.169  0.00  0.00     0.050 A 
ATOM     26  C   UNL d   1      -2.222   0.578   5.333  0.00  0.00     0.016 A 
ATOM     27  C   UNL d   1      -0.839   0.734   5.448  0.00  0.00     0.003 A 
ATOM     28  C   UNL d   1       0.000   0.369   4.392  0.00  0.00     0.029 A 
BRANCH  25  29
ATOM     29  C   UNL d   1      -4.268  -0.121   4.022  0.00  0.00     0.417 C 
ATOM     30  F   UNL d   1      -4.651  -0.742   2.870  0.00  0.00    -0.166 F 
ATOM     31  F   UNL d   1      -4.824  -0.844   5.033  0.00  0.00    -0.166 F 
ATOM     32  F   UNL d   1      -4.912   1.080   4.026  0.00  0.00    -0.166 F 
ENDBRANCH  25  29
ENDBRANCH   4  23
TORSDOF 6
