REMARK  2 active torsions:
REMARK  status: ('A' for Active; 'I' for Inactive)
REMARK    1  A    between atoms: N_13  and  C_2 
REMARK    2  A    between atoms: C_11  and  C_3 
ROOT
ATOM      1  C   UNL d   1       2.471  -0.667  -0.233  0.00  0.00     0.094 A 
ATOM      2  C   UNL d   1       2.380   0.720  -0.214  0.00  0.00     0.100 A 
ATOM      3  C   UNL d   1       1.297  -1.453  -0.052  0.00  0.00     0.011 A 
ATOM      4  C   UNL d   1       0.047  -0.743   0.088  0.00  0.00     0.005 A 
ATOM      5  N   UNL d   1       1.212   1.368  -0.123  0.00  0.00    -0.345 N 
ATOM      6  HN  UNL d   1       1.187   2.388  -0.139  1.00  0.00     0.167 HD
ATOM      7  C   UNL d   1       0.083   0.668  -0.012  0.00  0.00     0.044 A 
ATOM      8  C   UNL d   1       3.761  -1.252  -0.495  0.00  0.00     0.103 C 
ATOM      9  N   UNL d   1       4.816  -1.714  -0.656  0.00  0.00    -0.191 NA
ATOM     10  C   UNL d   1      -1.235  -1.328   0.298  0.00  0.00     0.038 A 
ATOM     11  C   UNL d   1      -1.098   1.401  -0.021  0.00  0.00     0.032 A 
ATOM     12  C   UNL d   1      -2.411  -0.577   0.241  0.00  0.00     0.035 A 
ATOM     13  C   UNL d   1      -2.347   0.792   0.066  0.00  0.00     0.026 A 
ATOM     14 CL   UNL d   1      -3.937  -1.360   0.346  0.00  0.00    -0.084 Cl
ENDROOT
BRANCH   2  15
ATOM     15  N   UNL d   1       3.482   1.558  -0.361  0.00  0.00    -0.287 NA
ATOM     16  H   UNL d   1       4.243   1.348   0.276  0.00  0.00     0.125 HD
ATOM     17  H   UNL d   1       3.155   2.516  -0.260  0.00  0.00     0.125 HD
ENDBRANCH   2  15
BRANCH   3  18
ATOM     18  C   UNL d   1       1.353  -2.960  -0.066  0.00  0.00    -0.023 A 
ATOM     19  C   UNL d   1       2.353  -3.680   0.617  0.00  0.00     0.012 A 
ATOM     20  C   UNL d   1       2.428  -5.078   0.561  0.00  0.00     0.001 A 
ATOM     21  C   UNL d   1       1.455  -5.804  -0.112  0.00  0.00     0.000 A 
ATOM     22  C   UNL d   1       0.436  -5.130  -0.772  0.00  0.00     0.001 A 
ATOM     23  C   UNL d   1       0.417  -3.730  -0.786  0.00  0.00     0.012 A 
ENDBRANCH   3  18
TORSDOF 2
