REMARK  7 active torsions:
REMARK  status: ('A' for Active; 'I' for Inactive)
REMARK    1  A    between atoms: C_7  and  C_1 
REMARK    2  A    between atoms: C_4  and  C_2 
REMARK       I    between atoms: N_3  and  C_4 
REMARK       I    between atoms: C_6  and  N_3 
REMARK    3  A    between atoms: N_11  and  C_5 
REMARK    4  A    between atoms: O_18  and  C_6 
REMARK    5  A    between atoms: O_19  and  C_7 
REMARK    6  A    between atoms: C_8  and  N_11 
REMARK    7  A    between atoms: C_20  and  O_18 
ROOT
ATOM      1  C   UNL d   1       3.510   4.127  -0.024  0.00  0.00     0.128 C 
ATOM      2  C   UNL d   1       2.494   3.236  -0.096  0.00  0.00     0.116 C 
ATOM      3  C   UNL d   1       3.198   5.514  -0.047  0.00  0.00     0.106 C 
ATOM      4  N   UNL d   1       2.829   6.611  -0.108  0.00  0.00    -0.191 NA
ENDROOT
BRANCH   1   5
ATOM      5  C   UNL d   1       4.902   3.580  -0.096  0.00  0.00     0.271 C 
ATOM      6  N   UNL d   1       6.024   4.333   0.158  0.00  0.00    -0.268 N 
ATOM      7  C   UNL d   1       6.178   5.661   0.440  0.00  0.00     0.367 C 
ATOM      8  H   UNL d   1       6.857   3.902  -0.218  0.00  0.00     0.174 HD
ATOM      9  O   UNL d   1       5.484   6.311   1.202  0.00  0.00    -0.238 OA
ATOM     10  O   UNL d   1       5.091   2.415  -0.462  0.00  0.00    -0.266 OA
BRANCH   7  11
ATOM     11  O   UNL d   1       7.267   6.122  -0.220  0.00  0.00    -0.304 OA
BRANCH  11  12
ATOM     12  C   UNL d   1       7.322   7.546  -0.413  0.00  0.00     0.176 C 
ATOM     13  C   UNL d   1       6.832   7.831  -1.822  0.00  0.00     0.034 C 
ENDBRANCH  11  12
ENDBRANCH   7  11
ENDBRANCH   1   5
BRANCH   2  14
ATOM     14  N   UNL d   1       1.134   3.507  -0.101  0.00  0.00    -0.363 N 
ATOM     15  H   UNL d   1       0.920   4.471   0.164  0.00  0.00     0.165 HD
BRANCH  14  16
ATOM     16  C   UNL d   1       0.072   2.662  -0.204  0.00  0.00     0.055 A 
ATOM     17  C   UNL d   1      -0.049   1.466  -0.898  0.00  0.00     0.106 A 
ATOM     18  S   UNL d   1      -1.605   0.758  -0.628  0.00  0.00    -0.094 SA
ATOM     19  C   UNL d   1      -2.131   2.073   0.314  0.00  0.00     0.053 A 
ATOM     20  C   UNL d   1      -1.147   3.020   0.457  0.00  0.00     0.038 A 
BRANCH  17  21
ATOM     21  C   UNL d   1       0.828   0.744  -1.800  0.00  0.00     0.302 C 
ATOM     22  O   UNL d   1       0.826  -0.469  -1.985  0.00  0.00    -0.259 OA
BRANCH  21  23
ATOM     23  O   UNL d   1       1.637   1.607  -2.485  0.00  0.00    -0.322 OA
ATOM     24  C   UNL d   1       2.502   0.974  -3.430  0.00  0.00     0.213 C 
ENDBRANCH  21  23
ENDBRANCH  17  21
ENDBRANCH  14  16
ENDBRANCH   2  14
TORSDOF 7
