REMARK  6 active torsions:
REMARK  status: ('A' for Active; 'I' for Inactive)
REMARK    1  A    between atoms: C_2  and  S_1 
REMARK    2  A    between atoms: C_6  and  S_1 
REMARK    3  A    between atoms: N_5  and  C_3 
REMARK    4  A    between atoms: C_8  and  C_11 
REMARK    5  A    between atoms: O_17  and  C_8 
REMARK    6  A    between atoms: C_21  and  O_17 
ROOT
ATOM      1  C   UNL d   1      -0.754   2.728   1.946  0.00  0.00     0.154 C 
ATOM      2  C   UNL d   1      -0.423   2.103   0.801  0.00  0.00     0.120 C 
ATOM      3  C   UNL d   1      -1.789   3.693   2.013  0.00  0.00     0.113 C 
ATOM      4  N   UNL d   1      -2.664   4.454   2.053  0.00  0.00    -0.191 NA
ENDROOT
BRANCH   1   5
ATOM      5  S   UNL d   1       0.107   2.380   3.408  0.00  0.00     0.194 S 
ATOM      6  O   UNL d   1       0.011   3.535   4.290  0.00  0.00    -0.221 OA
ATOM      7  O   UNL d   1       1.430   1.880   3.071  0.00  0.00    -0.221 OA
BRANCH   5   8
ATOM      8  C   UNL d   1      -0.790   1.012   4.219  0.00  0.00     0.058 C 
ATOM      9  C   UNL d   1      -0.711  -0.268   3.374  0.00  0.00     0.031 C 
ATOM     10  C   UNL d   1      -0.111   0.746   5.577  0.00  0.00     0.031 C 
ATOM     11  C   UNL d   1      -2.261   1.376   4.473  0.00  0.00     0.031 C 
ENDBRANCH   5   8
ENDBRANCH   1   5
BRANCH   2  12
ATOM     12  N   UNL d   1      -0.957   2.316  -0.466  0.00  0.00    -0.388 N 
ATOM     13  C   UNL d   1      -0.767   3.599  -1.168  0.00  0.00     0.123 C 
ATOM     14  C   UNL d   1      -2.083   3.997  -1.831  0.00  0.00     0.034 C 
ATOM     15  C   UNL d   1      -2.598   2.897  -2.776  0.00  0.00     0.088 C 
ATOM     16  C   UNL d   1      -2.632   1.541  -2.043  0.00  0.00     0.034 C 
ATOM     17  C   UNL d   1      -1.293   1.209  -1.371  0.00  0.00     0.123 C 
BRANCH  15  18
ATOM     18  C   UNL d   1      -1.752   2.808  -4.041  0.00  0.00     0.263 C 
ATOM     19  O   UNL d   1      -1.279   1.771  -4.487  0.00  0.00    -0.265 OA
BRANCH  18  20
ATOM     20  O   UNL d   1      -1.582   4.039  -4.594  0.00  0.00    -0.322 OA
BRANCH  20  21
ATOM     21  C   UNL d   1      -0.550   4.152  -5.586  0.00  0.00     0.174 C 
ATOM     22  C   UNL d   1      -1.137   4.255  -6.979  0.00  0.00     0.034 C 
ENDBRANCH  20  21
ENDBRANCH  18  20
ENDBRANCH  15  18
ENDBRANCH   2  12
TORSDOF 6
