REMARK  3 active torsions:
REMARK  status: ('A' for Active; 'I' for Inactive)
REMARK    1  A    between atoms: C_12  and  C_1 
REMARK    2  A    between atoms: S_15  and  C_7 
REMARK    3  A    between atoms: C_8  and  C_9 
ROOT
ATOM      1  C   UNL d   1       5.367  -2.907  -0.016  0.00  0.00     0.063 A 
ATOM      2  N   UNL d   1       3.245  -2.247  -0.979  0.00  0.00    -0.362 N 
ATOM      3  HN  UNL d   1       2.547  -2.340  -1.717  1.00  0.00     0.165 HD
ATOM      4  C   UNL d   1       3.070  -1.378   0.050  0.00  0.00     0.085 A 
ATOM      5  C   UNL d   1       4.380  -2.986  -0.988  0.00  0.00     0.104 A 
ATOM      6  C   UNL d   1       5.161  -2.013   1.038  0.00  0.00     0.020 A 
ATOM      7  C   UNL d   1       4.001  -1.240   1.074  0.00  0.00     0.035 A 
ENDROOT
BRANCH   4   8
ATOM      8  C   UNL d   1       1.856  -0.570   0.035  0.00  0.00     0.192 A 
ATOM      9  O   UNL d   1       0.988  -0.739  -1.014  0.00  0.00    -0.266 OA
ATOM     10  C   UNL d   1       0.007   0.166  -0.718  0.00  0.00     0.201 A 
ATOM     11  N   UNL d   1       0.243   0.822   0.400  0.00  0.00    -0.272 N 
ATOM     12  N   UNL d   1       1.442   0.346   0.889  0.00  0.00    -0.275 N 
ATOM     13  HN  UNL d   1      -0.345   1.541   0.820  1.00  0.00     0.189 HD
ATOM     14  HN  UNL d   1       1.914   0.643   1.743  1.00  0.00     0.189 HD
BRANCH  10  15
ATOM     15  S   UNL d   1      -1.386   0.406  -1.719  0.00  0.00    -0.098 SA
ATOM     16  H   UNL d   1      -1.092  -0.540  -2.620  0.00  0.00     0.110 HD
ENDBRANCH  10  15
ENDBRANCH   4   8
BRANCH   1  17
ATOM     17  C   UNL d   1       6.607  -3.743  -0.104  0.00  0.00     0.418 C 
ATOM     18  F   UNL d   1       6.644  -4.552  -1.198  0.00  0.00    -0.166 F 
ATOM     19  F   UNL d   1       7.738  -2.987  -0.161  0.00  0.00    -0.166 F 
ATOM     20  F   UNL d   1       6.759  -4.562   0.972  0.00  0.00    -0.166 F 
ENDBRANCH   1  17
TORSDOF 3
