REMARK  5 active torsions:
REMARK  status: ('A' for Active; 'I' for Inactive)
REMARK    1  A    between atoms: O_2  and  C_1 
REMARK    2  A    between atoms: C_4  and  C_1 
REMARK    3  A    between atoms: C_6  and  O_2 
REMARK    4  A    between atoms: C_3  and  C_6 
REMARK    5  A    between atoms: C_8  and  C_3 
ROOT
ATOM      1  O   UNL d   1       0.418   1.031   0.642  0.00  0.00    -0.310 OA
ENDROOT
BRANCH   1   2
ATOM      2  C   UNL d   1       1.250   0.405   1.509  0.00  0.00     0.293 C 
ATOM      3  O   UNL d   1       0.910  -0.253   2.478  0.00  0.00    -0.259 OA
BRANCH   2   4
ATOM      4  C   UNL d   1       2.668   0.590   1.088  0.00  0.00     0.039 A 
ATOM      5  C   UNL d   1       3.679   0.063   1.905  0.00  0.00     0.019 A 
ATOM      6  C   UNL d   1       5.024   0.200   1.544  0.00  0.00     0.019 A 
ATOM      7  C   UNL d   1       5.361   0.861   0.363  0.00  0.00     0.006 A 
ATOM      8  C   UNL d   1       4.365   1.386  -0.460  0.00  0.00     0.019 A 
ATOM      9  I   UNL d   1       7.358   1.067  -0.174  0.00  0.00    -0.045 I 
ATOM     10  C   UNL d   1       3.020   1.252  -0.098  0.00  0.00     0.019 A 
ENDBRANCH   2   4
ENDBRANCH   1   2
BRANCH   1  11
ATOM     11  C   UNL d   1      -0.972   0.925   0.951  0.00  0.00     0.263 C 
BRANCH  11  12
ATOM     12  C   UNL d   1      -1.451   1.974   1.952  0.00  0.00     0.183 C 
ATOM     13  O   UNL d   1      -0.690   2.798   2.459  0.00  0.00    -0.290 OA
BRANCH  12  14
ATOM     14  C   UNL d   1      -2.910   2.016   2.287  0.00  0.00     0.012 A 
ATOM     15  C   UNL d   1      -3.844   1.162   1.683  0.00  0.00     0.015 A 
ATOM     16  C   UNL d   1      -5.201   1.261   2.006  0.00  0.00     0.001 A 
ATOM     17  C   UNL d   1      -5.634   2.208   2.932  0.00  0.00     0.000 A 
ATOM     18  C   UNL d   1      -4.713   3.057   3.541  0.00  0.00     0.001 A 
ATOM     19  C   UNL d   1      -3.357   2.962   3.220  0.00  0.00     0.015 A 
ENDBRANCH  12  14
ENDBRANCH  11  12
ENDBRANCH   1  11
TORSDOF 5
