REMARK  20 active torsions:
REMARK  status: ('A' for Active; 'I' for Inactive)
REMARK    1  A    between atoms: C_2  and  C_1 
REMARK    2  A    between atoms: C_3  and  C_1 
REMARK    3  A    between atoms: C_1  and  O_4 
REMARK    4  A    between atoms: C_2  and  O_5 
REMARK    5  A    between atoms: C_8  and  C_2 
REMARK    6  A    between atoms: O_9  and  C_3 
REMARK    7  A    between atoms: C_6  and  O_4 
REMARK    8  A    between atoms: C_7  and  O_5 
REMARK    9  A    between atoms: C_14  and  C_6 
REMARK   10  A    between atoms: C_15  and  C_7 
REMARK   11  A    between atoms: O_21  and  C_8 
REMARK   12  A    between atoms: C_18  and  O_9 
REMARK   13  A    between atoms: N_10  and  C_20 
REMARK   14  A    between atoms: C_17  and  N_10 
REMARK   15  A    between atoms: C_19  and  C_17 
REMARK   16  A    between atoms: C_20  and  C_18 
REMARK   17  A    between atoms: C_24  and  C_18 
REMARK   18  A    between atoms: O_22  and  C_24 
REMARK   19  A    between atoms: C_25  and  O_22 
REMARK   20  A    between atoms: C_23  and  C_25 
ROOT
ATOM      1  C   UNL d   1      -0.804  -1.455   3.382  0.00  0.00     0.271 C 
ENDROOT
BRANCH   1   2
ATOM      2  C   UNL d   1       0.640  -1.917   3.611  0.00  0.00     0.268 C 
BRANCH   2   3
ATOM      3  O   UNL d   1       1.379  -1.893   2.345  0.00  0.00    -0.298 OA
BRANCH   3   4
ATOM      4  C   UNL d   1       0.958  -2.651   1.307  0.00  0.00     0.294 C 
ATOM      5  O   UNL d   1       0.053  -3.464   1.341  0.00  0.00    -0.259 OA
BRANCH   4   6
ATOM      6  C   UNL d   1       1.669  -2.210   0.087  0.00  0.00     0.039 A 
ATOM      7  C   UNL d   1       0.972  -2.175  -1.128  0.00  0.00     0.017 A 
ATOM      8  C   UNL d   1       1.624  -1.759  -2.291  0.00  0.00     0.001 A 
ATOM      9  C   UNL d   1       2.970  -1.395  -2.245  0.00  0.00     0.000 A 
ATOM     10  C   UNL d   1       3.664  -1.425  -1.035  0.00  0.00     0.001 A 
ATOM     11  C   UNL d   1       3.013  -1.819   0.134  0.00  0.00     0.017 A 
ENDBRANCH   4   6
ENDBRANCH   3   4
ENDBRANCH   2   3
BRANCH   2  12
ATOM     12  C   UNL d   1       1.472  -0.929   4.446  0.00  0.00     0.173 C 
ATOM     13  O   UNL d   1       2.347  -0.208   3.980  0.00  0.00    -0.648 OA
BRANCH  12  14
ATOM     14  O   UNL d   1       1.205  -0.893   5.766  0.00  0.00    -0.774 OA
ATOM     15  H   UNL d   1       0.477  -1.480   6.088  0.00  0.00     0.167 HD
ENDBRANCH  12  14
ENDBRANCH   2  12
ENDBRANCH   1   2
BRANCH   1  16
ATOM     16  C   UNL d   1      -0.956   0.052   3.393  0.00  0.00     0.292 C 
ATOM     17  O   UNL d   1      -1.536   0.691   4.263  0.00  0.00    -0.262 OA
BRANCH  16  18
ATOM     18  O   UNL d   1      -0.523   0.540   2.195  0.00  0.00    -0.310 OA
BRANCH  18  19
ATOM     19  C   UNL d   1      -1.217   1.703   1.697  0.00  0.00     0.183 C 
BRANCH  19  20
ATOM     20  C   UNL d   1      -0.181   2.792   1.330  0.00  0.00     0.304 C 
BRANCH  20  21
ATOM     21  N   UNL d   1       1.054   2.421   0.627  0.00  0.00     0.094 N 
ATOM     22  H   UNL d   1       1.468   1.606   1.084  0.00  0.00     0.316 HD
BRANCH  21  23
ATOM     23  C   UNL d   1       0.994   2.194  -0.820  0.00  0.00     0.249 C 
ATOM     24  C   UNL d   1       2.432   2.026  -1.335  0.00  0.00     0.048 C 
BRANCH  23  25
ATOM     25  C   UNL d   1       0.306   3.304  -1.598  0.00  0.00    -0.026 A 
ATOM     26  C   UNL d   1       0.802   4.619  -1.588  0.00  0.00     0.009 A 
ATOM     27  C   UNL d   1       0.166   5.629  -2.309  0.00  0.00     0.001 A 
ATOM     28  C   UNL d   1      -0.987   5.345  -3.037  0.00  0.00     0.000 A 
ATOM     29  C   UNL d   1      -1.495   4.048  -3.054  0.00  0.00     0.001 A 
ATOM     30  C   UNL d   1      -0.848   3.033  -2.349  0.00  0.00     0.009 A 
ENDBRANCH  23  25
ENDBRANCH  21  23
ENDBRANCH  20  21
ENDBRANCH  19  20
BRANCH  19  31
ATOM     31  C   UNL d   1      -2.123   1.273   0.526  0.00  0.00     0.202 C 
BRANCH  31  32
ATOM     32  O   UNL d   1      -2.992   0.162   0.789  0.00  0.00    -0.384 OA
BRANCH  32  33
ATOM     33  C   UNL d   1      -3.964   0.308   1.816  0.00  0.00     0.206 C 
BRANCH  33  34
ATOM     34  C   UNL d   1      -5.078   1.280   1.533  0.00  0.00    -0.035 A 
ATOM     35  C   UNL d   1      -6.154   0.920   0.710  0.00  0.00     0.009 A 
ATOM     36  C   UNL d   1      -7.241   1.783   0.554  0.00  0.00     0.001 A 
ATOM     37  C   UNL d   1      -7.255   3.017   1.202  0.00  0.00     0.000 A 
ATOM     38  C   UNL d   1      -6.177   3.396   1.999  0.00  0.00     0.001 A 
ATOM     39  C   UNL d   1      -5.094   2.533   2.164  0.00  0.00     0.009 A 
ENDBRANCH  33  34
ENDBRANCH  32  33
ENDBRANCH  31  32
ENDBRANCH  19  31
ENDBRANCH  18  19
ENDBRANCH  16  18
ENDBRANCH   1  16
BRANCH   1  40
ATOM     40  O   UNL d   1      -1.864  -2.092   4.131  0.00  0.00    -0.299 OA
BRANCH  40  41
ATOM     41  C   UNL d   1      -1.794  -2.391   5.440  0.00  0.00     0.294 C 
ATOM     42  O   UNL d   1      -0.819  -2.245   6.156  0.00  0.00    -0.259 OA
BRANCH  41  43
ATOM     43  C   UNL d   1      -3.054  -3.084   5.801  0.00  0.00     0.039 A 
ATOM     44  C   UNL d   1      -4.265  -2.735   5.187  0.00  0.00     0.017 A 
ATOM     45  C   UNL d   1      -5.407  -3.505   5.406  0.00  0.00     0.001 A 
ATOM     46  C   UNL d   1      -5.345  -4.613   6.249  0.00  0.00     0.000 A 
ATOM     47  C   UNL d   1      -4.153  -4.930   6.905  0.00  0.00     0.001 A 
ATOM     48  C   UNL d   1      -3.007  -4.160   6.692  0.00  0.00     0.017 A 
ENDBRANCH  41  43
ENDBRANCH  40  41
ENDBRANCH   1  40
TORSDOF 20
