REMARK  6 active torsions:
REMARK  status: ('A' for Active; 'I' for Inactive)
REMARK    1  A    between atoms: C_3  and  S_1 
REMARK    2  A    between atoms: C_4  and  S_1 
REMARK    3  A    between atoms: C_5  and  C_2 
REMARK    4  A    between atoms: O_13  and  C_5 
REMARK    5  A    between atoms: C_10  and  C_6 
REMARK       I    between atoms: C_8  and  N_9 
REMARK    6  A    between atoms: N_9  and  C_10 
ROOT
ATOM      1  C   UNL d   1       0.477  -1.571  -0.733  0.00  0.00     0.044 A 
ATOM      2  C   UNL d   1       1.194  -2.728  -0.361  0.00  0.00    -0.021 A 
ATOM      3  C   UNL d   1      -0.670  -1.696  -1.535  0.00  0.00     0.022 A 
ATOM      4  C   UNL d   1       0.776  -3.975  -0.862  0.00  0.00     0.010 A 
ATOM      5  C   UNL d   1      -1.081  -2.944  -2.003  0.00  0.00     0.001 A 
ATOM      6  C   UNL d   1      -0.346  -4.080  -1.683  0.00  0.00     0.001 A 
ENDROOT
BRANCH   1   7
ATOM      7  S   UNL d   1       1.153   0.079  -0.422  0.00  0.00     0.086 S 
ATOM      8  O   UNL d   1       0.725   0.888  -1.614  0.00  0.00    -0.247 OA
BRANCH   7   9
ATOM      9  C   UNL d   1       0.086   0.652   0.941  0.00  0.00     0.053 A 
ATOM     10  C   UNL d   1      -0.113   2.036   1.144  0.00  0.00     0.057 A 
ATOM     11  C   UNL d   1      -0.908   2.506   2.204  0.00  0.00     0.020 A 
ATOM     12  C   UNL d   1      -1.484   1.610   3.097  0.00  0.00     0.001 A 
ATOM     13  C   UNL d   1      -1.276   0.243   2.930  0.00  0.00     0.002 A 
ATOM     14  C   UNL d   1      -0.496  -0.234   1.865  0.00  0.00     0.022 A 
BRANCH  10  15
ATOM     15  C   UNL d   1       0.468   3.076   0.272  0.00  0.00     0.177 C 
ATOM     16  O   UNL d   1      -0.130   4.039  -0.180  0.00  0.00    -0.646 OA
BRANCH  15  17
ATOM     17  O   UNL d   1       1.792   2.915   0.108  0.00  0.00    -0.773 OA
ATOM     18  H   UNL d   1       2.013   3.548  -0.608  0.00  0.00     0.167 HD
ENDBRANCH  15  17
ENDBRANCH  10  15
ENDBRANCH   7   9
ENDBRANCH   1   7
BRANCH   2  19
ATOM     19  C   UNL d   1       2.427  -2.681   0.505  0.00  0.00     0.162 C 
BRANCH  19  20
ATOM     20  N   UNL d   1       3.622  -2.450  -0.269  0.00  0.00    -0.357 N 
ATOM     21  C   UNL d   1       4.826  -2.275   0.371  0.00  0.00     0.213 C 
ATOM     22  O   UNL d   1       4.938  -2.222   1.590  0.00  0.00    -0.274 OA
ATOM     23  C   UNL d   1       6.015  -2.178  -0.547  0.00  0.00     0.117 C 
ATOM     24  H   UNL d   1       3.612  -2.672  -1.256  0.00  0.00     0.162 HD
ENDBRANCH  19  20
ENDBRANCH   2  19
TORSDOF 6
