REMARK  4 active torsions:
REMARK  status: ('A' for Active; 'I' for Inactive)
REMARK    1  A    between atoms: C_4  and  C_1 
REMARK    2  A    between atoms: C_2  and  C_3 
REMARK    3  A    between atoms: C_11  and  C_6 
REMARK    4  A    between atoms: C_7  and  C_11 
ROOT
ATOM      1  C   UNL d   1       0.872   3.569   0.820  0.00  0.00     0.049 A 
ATOM      2  C   UNL d   1       0.693   1.156   0.470  0.00  0.00     0.049 A 
ATOM      3  C   UNL d   1       1.114   2.425   0.042  0.00  0.00     0.032 A 
ATOM      4  C   UNL d   1      -0.241   2.171   2.486  0.00  0.00    -0.050 A 
ATOM      5  C   UNL d   1       0.204   3.426   2.047  0.00  0.00     0.023 A 
ATOM      6  C   UNL d   1      -0.003   1.045   1.685  0.00  0.00     0.023 A 
ENDROOT
BRANCH   4   7
ATOM      7  C   UNL d   1      -0.916   2.022   3.831  0.00  0.00     0.107 C 
BRANCH   7   8
ATOM      8  C   UNL d   1       0.003   1.659   4.991  0.00  0.00     0.075 C 
ATOM      9  S   UNL d   1      -0.572   1.581   6.558  0.00  0.00    -0.066 SA
ATOM     10  N   UNL d   1       1.311   1.371   4.754  0.00  0.00    -0.393 N 
ATOM     11  H   UNL d   1       1.738   1.416   3.837  0.00  0.00     0.156 HD
ATOM     12  H   UNL d   1       1.913   1.130   5.535  0.00  0.00     0.156 HD
ENDBRANCH   7   8
ENDBRANCH   4   7
BRANCH   2  13
ATOM     13  C   UNL d   1       0.996  -0.085  -0.336  0.00  0.00     0.417 C 
ATOM     14  F   UNL d   1       1.797   0.150  -1.412  0.00  0.00    -0.166 F 
ATOM     15  F   UNL d   1      -0.126  -0.682  -0.823  0.00  0.00    -0.166 F 
ATOM     16  F   UNL d   1       1.637  -1.032   0.404  0.00  0.00    -0.166 F 
ENDBRANCH   2  13
BRANCH   1  17
ATOM     17  C   UNL d   1       1.325   4.937   0.365  0.00  0.00     0.417 C 
ATOM     18  F   UNL d   1       1.999   4.920  -0.818  0.00  0.00    -0.166 F 
ATOM     19  F   UNL d   1       0.285   5.799   0.193  0.00  0.00    -0.166 F 
ATOM     20  F   UNL d   1       2.161   5.530   1.262  0.00  0.00    -0.166 F 
ENDBRANCH   1  17
TORSDOF 4
