REMARK  4 active torsions:
REMARK  status: ('A' for Active; 'I' for Inactive)
REMARK    1  A    between atoms: N_4  and  C_1 
REMARK    2  A    between atoms: C_3  and  N_4 
REMARK    3  A    between atoms: C_11  and  N_6 
REMARK    4  A    between atoms: C_13  and  C_11 
ROOT
ATOM      1  C   UNL d   1       1.082   0.000   0.227  0.00  0.00     0.172 C 
ATOM      2  S   UNL d   1       0.182  -0.641  -1.020  0.00  0.00    -0.041 SA
ATOM      3  N   UNL d   1       2.430   0.104   0.094  0.00  0.00    -0.363 N 
ATOM      4  H   UNL d   1       2.747  -0.226  -0.812  0.00  0.00     0.162 HD
ENDROOT
BRANCH   1   5
ATOM      5  N   UNL d   1       0.492   0.318   1.406  0.00  0.00    -0.332 N 
ATOM      6  H   UNL d   1      -0.372  -0.183   1.599  0.00  0.00     0.168 HD
BRANCH   5   7
ATOM      7  C   UNL d   1       0.654   1.502   2.173  0.00  0.00     0.058 A 
ATOM      8  C   UNL d   1       0.092   1.564   3.464  0.00  0.00     0.082 A 
ATOM      9  C   UNL d   1       0.164   2.755   4.199  0.00  0.00     0.058 A 
ATOM     10 CL   UNL d   1      -0.644   0.139   4.136  0.00  0.00    -0.080 Cl
ATOM     11 CL   UNL d   1      -0.482   2.902   5.796  0.00  0.00    -0.082 Cl
ATOM     12  C   UNL d   1       0.772   3.885   3.646  0.00  0.00     0.026 A 
ATOM     13  C   UNL d   1       1.329   3.825   2.369  0.00  0.00     0.004 A 
ATOM     14  C   UNL d   1       1.279   2.636   1.639  0.00  0.00     0.031 A 
ENDBRANCH   5   7
ENDBRANCH   1   5
BRANCH   3  15
ATOM     15  C   UNL d   1       3.387  -0.106   1.172  0.00  0.00     0.160 C 
BRANCH  15  16
ATOM     16  C   UNL d   1       3.676  -1.574   1.364  0.00  0.00    -0.038 A 
ATOM     17  C   UNL d   1       4.750  -2.187   0.712  0.00  0.00     0.025 A 
ATOM     18  C   UNL d   1       4.960  -3.545   0.907  0.00  0.00     0.088 A 
ATOM     19  N   UNL d   1       4.182  -4.322   1.689  0.00  0.00    -0.375 N 
ATOM     20  C   UNL d   1       3.142  -3.717   2.301  0.00  0.00     0.088 A 
ATOM     21  HN  UNL d   1       4.371  -5.316   1.812  1.00  0.00     0.164 HD
ATOM     22  C   UNL d   1       2.853  -2.366   2.172  0.00  0.00     0.025 A 
ENDBRANCH  15  16
ENDBRANCH   3  15
TORSDOF 4
