REMARK  4 active torsions:
REMARK  status: ('A' for Active; 'I' for Inactive)
REMARK    1  A    between atoms: C_3  and  N_1 
REMARK    2  A    between atoms: C_2  and  C_10 
REMARK       I    between atoms: N_6  and  C_2 
REMARK    3  A    between atoms: C_14  and  N_6 
REMARK    4  A    between atoms: C_10  and  C_11 
ROOT
ATOM      1  C   UNL d   1       0.173  -5.090   3.944  0.00  0.00     0.222 C 
ATOM      2  N   UNL d   1      -0.257  -3.853   4.367  0.00  0.00    -0.356 N 
ATOM      3  O   UNL d   1       1.091  -5.246   3.139  0.00  0.00    -0.273 OA
ATOM      4  H   UNL d   1      -0.887  -3.790   5.157  0.00  0.00     0.162 HD
ENDROOT
BRANCH   1   5
ATOM      5  C   UNL d   1      -0.611  -6.261   4.515  0.00  0.00     0.141 C 
BRANCH   5   6
ATOM      6  C   UNL d   1       0.104  -7.137   5.525  0.00  0.00    -0.049 A 
ATOM      7  C   UNL d   1      -0.669  -7.903   6.417  0.00  0.00     0.010 A 
ATOM      8  C   UNL d   1      -0.086  -8.911   7.189  0.00  0.00     0.036 A 
ATOM      9  C   UNL d   1       1.284  -9.162   7.067  0.00  0.00     0.102 A 
ATOM     10  C   UNL d   1       2.083  -8.357   6.249  0.00  0.00     0.036 A 
ATOM     11  C   UNL d   1       1.490  -7.350   5.482  0.00  0.00     0.010 A 
BRANCH   9  12
ATOM     12  N   UNL d   1       1.871 -10.331   7.731  0.00  0.00    -0.116 N 
ATOM     13  O   UNL d   1       3.041 -10.629   7.449  0.00  0.00    -0.532 OA
ATOM     14  O   UNL d   1       1.155 -10.969   8.516  0.00  0.00    -0.532 OA
ENDBRANCH   9  12
ENDBRANCH   5   6
ENDBRANCH   1   5
BRANCH   2  15
ATOM     15  C   UNL d   1       0.336  -2.613   3.855  0.00  0.00     0.084 C 
ATOM     16  C   UNL d   1       1.540  -2.203   4.723  0.00  0.00     0.025 C 
ATOM     17  C   UNL d   1       1.224  -1.361   5.962  0.00  0.00     0.002 C 
ATOM     18  C   UNL d   1       1.476   0.143   5.803  0.00  0.00     0.000 C 
ATOM     19  C   UNL d   1       0.553   0.920   4.862  0.00  0.00     0.000 C 
ATOM     20  C   UNL d   1       0.690   0.556   3.384  0.00  0.00     0.000 C 
ATOM     21  C   UNL d   1      -0.413  -0.354   2.849  0.00  0.00     0.002 C 
ATOM     22  C   UNL d   1      -0.779  -1.575   3.686  0.00  0.00     0.025 C 
ENDBRANCH   2  15
TORSDOF 4
