REMARK  7 active torsions:
REMARK  status: ('A' for Active; 'I' for Inactive)
REMARK    1  A    between atoms: C_7  and  S_1 
REMARK    2  A    between atoms: N_9  and  S_1 
REMARK    3  A    between atoms: N_3  and  C_2 
REMARK    4  A    between atoms: C_5  and  C_4 
REMARK    5  A    between atoms: S_10  and  C_8 
REMARK    6  A    between atoms: C_17  and  N_9 
REMARK    7  A    between atoms: C_24  and  S_10 
ROOT
ATOM      1  C   UNL d   1      -0.223   0.650   3.817  0.00  0.00     0.121 A 
ATOM      2  C   UNL d   1       0.222   0.870   2.502  0.00  0.00     0.062 A 
ATOM      3  C   UNL d   1       0.438  -0.229   1.673  0.00  0.00     0.082 A 
ATOM      4  C   UNL d   1      -0.501  -0.635   4.311  0.00  0.00     0.038 A 
ATOM      5  C   UNL d   1      -0.261  -1.720   3.450  0.00  0.00     0.023 A 
ATOM      6  C   UNL d   1       0.201  -1.525   2.141  0.00  0.00     0.027 A 
ENDROOT
BRANCH   3   7
ATOM      7  S   UNL d   1       0.967   0.028  -0.010  0.00  0.00     0.263 S 
ATOM      8  O   UNL d   1       0.486   1.328  -0.411  0.00  0.00    -0.200 OA
ATOM      9  O   UNL d   1       0.652  -1.167  -0.764  0.00  0.00    -0.200 OA
BRANCH   7  10
ATOM     10  N   UNL d   1       2.625   0.161   0.147  0.00  0.00    -0.281 N 
ATOM     11  H   UNL d   1       3.036   1.044  -0.150  0.00  0.00     0.179 HD
BRANCH  10  12
ATOM     12  C   UNL d   1       3.457  -0.934   0.462  0.00  0.00     0.043 A 
ATOM     13  C   UNL d   1       3.933  -1.052   1.766  0.00  0.00     0.048 A 
ATOM     14  C   UNL d   1       4.911  -2.013   2.107  0.00  0.00     0.071 A 
ATOM     15  C   UNL d   1       5.385  -2.862   1.102  0.00  0.00     0.049 A 
ATOM     16  C   UNL d   1       4.891  -2.748  -0.206  0.00  0.00     0.027 A 
ATOM     17 CL   UNL d   1       6.593  -4.062   1.371  0.00  0.00    -0.083 Cl
ATOM     18  C   UNL d   1       3.932  -1.783  -0.529  0.00  0.00     0.032 A 
BRANCH  14  19
ATOM     19  C   UNL d   1       5.379  -2.022   3.539  0.00  0.00     0.419 C 
ATOM     20  F   UNL d   1       6.417  -2.842   3.838  0.00  0.00    -0.166 F 
ATOM     21  F   UNL d   1       5.775  -0.777   3.937  0.00  0.00    -0.166 F 
ATOM     22  F   UNL d   1       4.373  -2.368   4.392  0.00  0.00    -0.166 F 
ENDBRANCH  14  19
ENDBRANCH  10  12
ENDBRANCH   7  10
ENDBRANCH   3   7
BRANCH   1  23
ATOM     23  N   UNL d   1      -0.289   1.813   4.678  0.00  0.00    -0.114 N 
ATOM     24  O   UNL d   1       0.790   2.368   4.935  0.00  0.00    -0.532 OA
ATOM     25  O   UNL d   1      -1.405   2.208   5.028  0.00  0.00    -0.532 OA
ENDBRANCH   1  23
BRANCH   4  26
ATOM     26  S   UNL d   1      -1.022  -1.006   5.981  0.00  0.00    -0.088 SA
BRANCH  26  27
ATOM     27  C   UNL d   1      -2.801  -1.073   5.815  0.00  0.00     0.005 A 
ATOM     28  C   UNL d   1      -3.452  -2.255   5.443  0.00  0.00     0.019 A 
ATOM     29  C   UNL d   1      -4.850  -2.302   5.372  0.00  0.00     0.001 A 
ATOM     30  C   UNL d   1      -5.605  -1.170   5.677  0.00  0.00     0.000 A 
ATOM     31  C   UNL d   1      -4.966   0.005   6.063  0.00  0.00     0.001 A 
ATOM     32  C   UNL d   1      -3.572   0.049   6.141  0.00  0.00     0.019 A 
ENDBRANCH  26  27
ENDBRANCH   4  26
TORSDOF 7
