REMARK  6 active torsions:
REMARK  status: ('A' for Active; 'I' for Inactive)
REMARK    1  A    between atoms: C_12  and  C_3 
REMARK    2  A    between atoms: N_18  and  C_4 
REMARK    3  A    between atoms: C_14  and  C_6 
REMARK    4  A    between atoms: N_8  and  C_13 
REMARK    5  A    between atoms: O_24  and  C_12 
REMARK    6  A    between atoms: C_27  and  O_24 
ROOT
ATOM      1  C   UNL d   1       0.913  -0.980  -0.175  0.00  0.00     0.066 A 
ATOM      2  C   UNL d   1       0.496   0.289  -0.055  0.00  0.00     0.104 A 
ATOM      3  C   UNL d   1       3.261  -0.070   0.009  0.00  0.00     0.081 A 
ATOM      4  C   UNL d   1       2.724   1.161   0.145  0.00  0.00     0.155 A 
ATOM      5  C   UNL d   1      -0.078  -2.072  -0.309  0.00  0.00     0.298 C 
ATOM      6  C   UNL d   1       2.394  -1.309  -0.219  0.00  0.00     0.104 A 
ATOM      7  O   UNL d   1       1.357   1.359   0.050  0.00  0.00    -0.292 OA
ATOM      8  C   UNL d   1      -0.921   0.630  -0.040  0.00  0.00     0.033 A 
ATOM      9  O   UNL d   1      -1.417  -1.743  -0.131  0.00  0.00    -0.274 OA
ATOM     10  C   UNL d   1      -1.844  -0.407  -0.052  0.00  0.00     0.092 A 
ATOM     11  O   UNL d   1       0.249  -3.226  -0.562  0.00  0.00    -0.259 OA
ATOM     12  C   UNL d   1      -1.398   1.947  -0.009  0.00  0.00     0.017 A 
ATOM     13  C   UNL d   1      -3.217  -0.171  -0.021  0.00  0.00     0.038 A 
ATOM     14  C   UNL d   1      -2.773   2.201   0.008  0.00  0.00     0.001 A 
ATOM     15  C   UNL d   1      -3.681   1.142   0.007  0.00  0.00     0.003 A 
ENDROOT
BRANCH   6  16
ATOM     16  C   UNL d   1       2.765  -2.450   0.740  0.00  0.00    -0.044 A 
ATOM     17  C   UNL d   1       2.667  -2.312   2.134  0.00  0.00     0.011 A 
ATOM     18  C   UNL d   1       3.013  -3.375   2.975  0.00  0.00     0.036 A 
ATOM     19  C   UNL d   1       3.454  -4.587   2.423  0.00  0.00     0.102 A 
ATOM     20  C   UNL d   1       3.558  -4.742   1.039  0.00  0.00     0.036 A 
ATOM     21  C   UNL d   1       3.217  -3.675   0.207  0.00  0.00     0.011 A 
BRANCH  19  22
ATOM     22  N   UNL d   1       3.810  -5.705   3.307  0.00  0.00    -0.116 N 
ATOM     23  O   UNL d   1       3.714  -5.519   4.529  0.00  0.00    -0.532 OA
ATOM     24  O   UNL d   1       4.188  -6.761   2.781  0.00  0.00    -0.532 OA
ENDBRANCH  19  22
ENDBRANCH   6  16
BRANCH   3  25
ATOM     25  C   UNL d   1       4.727  -0.323   0.079  0.00  0.00     0.294 C 
ATOM     26  O   UNL d   1       5.274  -1.289  -0.423  0.00  0.00    -0.259 OA
BRANCH  25  27
ATOM     27  O   UNL d   1       5.329   0.601   0.871  0.00  0.00    -0.318 OA
BRANCH  27  28
ATOM     28  C   UNL d   1       6.563   0.215   1.487  0.00  0.00     0.174 C 
ATOM     29  C   UNL d   1       6.229  -0.352   2.855  0.00  0.00     0.034 C 
ENDBRANCH  27  28
ENDBRANCH  25  27
ENDBRANCH   3  25
BRANCH   4  30
ATOM     30  N   UNL d   1       3.392   2.336   0.381  0.00  0.00    -0.379 N 
ATOM     31  H   UNL d   1       4.400   2.301   0.250  0.00  0.00     0.158 HD
ATOM     32  H   UNL d   1       2.933   3.153  -0.010  0.00  0.00     0.158 HD
ENDBRANCH   4  30
TORSDOF 6
