REMARK  3 active torsions:
REMARK  status: ('A' for Active; 'I' for Inactive)
REMARK    1  A    between atoms: N_2  and  C_1 
REMARK    2  A    between atoms: N_3  and  C_1 
REMARK    3  A    between atoms: C_5  and  N_3 
ROOT
ATOM      1  C   UNL d   1       0.873  -0.147  -0.100  0.00  0.00     0.179 C 
ATOM      2  S   UNL d   1       0.519  -1.381  -1.208  0.00  0.00    -0.040 SA
ENDROOT
BRANCH   1   3
ATOM      3  N   UNL d   1       0.453  -0.124   1.266  0.00  0.00    -0.323 N 
ATOM      4  C   UNL d   1       0.912   0.796   2.317  0.00  0.00     0.043 A 
ATOM      5  C   UNL d   1       0.395   0.686   3.629  0.00  0.00    -0.031 A 
ATOM      6  C   UNL d   1       1.892   1.787   2.130  0.00  0.00     0.031 A 
ATOM      7  C   UNL d   1       0.748   1.614   4.638  0.00  0.00     0.016 A 
ATOM      8  C   UNL d   1      -0.536  -0.420   4.049  0.00  0.00     0.042 C 
ATOM      9  C   UNL d   1       1.653   2.645   4.390  0.00  0.00    -0.061 A 
ATOM     10  C   UNL d   1       2.239   2.707   3.133  0.00  0.00     0.009 A 
ATOM     11  C   UNL d   1       2.030   3.606   5.474  0.00  0.00     0.048 C 
ATOM     12  C   UNL d   1      -0.457  -1.579   3.085  0.00  0.00     0.025 C 
ATOM     13  C   UNL d   1      -0.634  -1.043   1.681  0.00  0.00     0.132 C 
ENDBRANCH   1   3
BRANCH   1  14
ATOM     14  N   UNL d   1       1.486   1.005  -0.536  0.00  0.00    -0.332 N 
ATOM     15  H   UNL d   1       0.928   1.825  -0.334  0.00  0.00     0.168 HD
BRANCH  14  16
ATOM     16  C   UNL d   1       2.542   1.175  -1.470  0.00  0.00     0.046 A 
ATOM     17  C   UNL d   1       2.509   2.326  -2.295  0.00  0.00    -0.035 A 
ATOM     18  C   UNL d   1       3.608   2.626  -3.120  0.00  0.00     0.009 A 
ATOM     19  C   UNL d   1       1.347   3.284  -2.351  0.00  0.00     0.050 C 
ATOM     20  C   UNL d   1       4.717   1.793  -3.163  0.00  0.00     0.001 A 
ATOM     21  C   UNL d   1       4.746   0.652  -2.370  0.00  0.00     0.009 A 
ATOM     22  C   UNL d   1       3.682   0.335  -1.499  0.00  0.00    -0.035 A 
ATOM     23  C   UNL d   1       3.937  -0.849  -0.602  0.00  0.00     0.050 C 
ENDBRANCH  14  16
ENDBRANCH   1  14
TORSDOF 3
