REMARK  7 active torsions:
REMARK  status: ('A' for Active; 'I' for Inactive)
REMARK    1  A    between atoms: C_19  and  N_3 
REMARK    2  A    between atoms: C_17  and  N_4 
REMARK    3  A    between atoms: S_15  and  C_10 
REMARK    4  A    between atoms: C_18  and  C_13 
REMARK    5  A    between atoms: C_14  and  C_16 
REMARK    6  A    between atoms: C_16  and  S_15 
REMARK    7  A    between atoms: C_22  and  C_17 
ROOT
ATOM      1  C   UNL d   1      -0.175  -1.330   0.336  0.00  0.00     0.153 A 
ATOM      2  C   UNL d   1      -0.767  -2.599   0.017  0.00  0.00     0.098 C 
ATOM      3  N   UNL d   1       1.166  -0.963   0.384  0.00  0.00    -0.305 N 
ATOM      4  N   UNL d   1      -1.817  -3.223   0.673  0.00  0.00    -0.284 N 
ATOM      5  N   UNL d   1      -0.924  -0.265   0.508  0.00  0.00    -0.281 N 
ATOM      6  HN  UNL d   1      -1.942  -0.259   0.571  1.00  0.00     0.188 HD
ATOM      7  N   UNL d   1      -1.997  -4.505   0.237  0.00  0.00    -0.301 N 
ATOM      8  HN  UNL d   1      -2.579  -5.231   0.655  1.00  0.00     0.187 HD
ATOM      9  C   UNL d   1      -0.584  -3.367  -1.110  0.00  0.00     0.062 C 
ATOM     10  C   UNL d   1       1.127   0.426   0.471  0.00  0.00     0.163 A 
ATOM     11  N   UNL d   1      -0.115   0.833   0.589  0.00  0.00    -0.278 N 
ATOM     12  HN  UNL d   1      -0.422   1.798   0.719  1.00  0.00     0.189 HD
ATOM     13  C   UNL d   1      -1.237  -4.594  -0.864  0.00  0.00     0.036 C 
ENDROOT
BRANCH   3  14
ATOM     14  C   UNL d   1       2.410  -1.732   0.387  0.00  0.00     0.094 C 
ATOM     15  C   UNL d   1       2.530  -3.043  -0.405  0.00  0.00     0.026 C 
ATOM     16  C   UNL d   1       2.217  -4.294   0.404  0.00  0.00     0.002 C 
ATOM     17  C   UNL d   1       3.072  -4.358   1.657  0.00  0.00     0.000 C 
ATOM     18  C   UNL d   1       2.841  -3.127   2.523  0.00  0.00     0.002 C 
ATOM     19  C   UNL d   1       3.095  -1.829   1.768  0.00  0.00     0.026 C 
ENDBRANCH   3  14
BRANCH   4  20
ATOM     20  C   UNL d   1      -2.893  -2.602   1.446  0.00  0.00     0.187 C 
BRANCH  20  21
ATOM     21  C   UNL d   1      -2.883  -2.876   2.932  0.00  0.00    -0.038 A 
ATOM     22  C   UNL d   1      -3.015  -4.178   3.446  0.00  0.00     0.015 A 
ATOM     23  C   UNL d   1      -3.141  -4.403   4.826  0.00  0.00    -0.061 A 
ATOM     24  C   UNL d   1      -3.289  -5.791   5.379  0.00  0.00     0.048 C 
ATOM     25  C   UNL d   1      -3.133  -3.311   5.701  0.00  0.00     0.007 A 
ATOM     26  C   UNL d   1      -3.008  -2.014   5.205  0.00  0.00     0.001 A 
ATOM     27  C   UNL d   1      -2.885  -1.799   3.832  0.00  0.00     0.009 A 
ENDBRANCH  20  21
ENDBRANCH   4  20
BRANCH  10  28
ATOM     28  S   UNL d   1       2.490   1.506   0.563  0.00  0.00    -0.087 SA
BRANCH  28  29
ATOM     29  C   UNL d   1       3.175   1.425  -1.119  0.00  0.00     0.126 C 
BRANCH  29  30
ATOM     30  C   UNL d   1       4.247   2.447  -1.399  0.00  0.00     0.012 A 
ATOM     31  C   UNL d   1       3.962   3.500  -2.275  0.00  0.00     0.125 A 
ATOM     32  F   UNL d   1       2.738   3.610  -2.809  0.00  0.00    -0.205 F 
ATOM     33  C   UNL d   1       4.931   4.428  -2.656  0.00  0.00     0.043 A 
ATOM     34  C   UNL d   1       6.223   4.329  -2.151  0.00  0.00     0.005 A 
ATOM     35  C   UNL d   1       6.533   3.298  -1.262  0.00  0.00     0.024 A 
ATOM     36  C   UNL d   1       5.555   2.367  -0.889  0.00  0.00     0.044 A 
ATOM     37 CL   UNL d   1       6.045   1.093   0.173  0.00  0.00    -0.084 Cl
ENDBRANCH  29  30
ENDBRANCH  28  29
ENDBRANCH  10  28
BRANCH  13  38
ATOM     38  C   UNL d   1      -1.124  -5.888  -1.657  0.00  0.00    -0.007 C 
ATOM     39  C   UNL d   1      -0.655  -7.037  -0.739  0.00  0.00     0.021 C 
ATOM     40  C   UNL d   1      -2.476  -6.265  -2.286  0.00  0.00     0.021 C 
ATOM     41  C   UNL d   1      -0.087  -5.758  -2.798  0.00  0.00     0.021 C 
ENDBRANCH  13  38
TORSDOF 7
