REMARK  0 active torsions:
REMARK  status: ('A' for Active; 'I' for Inactive)
ROOT
ATOM      1  C   UNL d   1       0.765  -0.343  -0.005  0.00  0.00    -0.017 A 
ATOM      2  C   UNL d   1       1.450   0.894  -0.005  0.00  0.00    -0.026 A 
ATOM      3  C   UNL d   1      -0.723  -0.390   0.005  0.00  0.00    -0.019 A 
ATOM      4  C   UNL d   1       2.868   0.930  -0.008  0.00  0.00     0.052 A 
ATOM      5  N   UNL d   1       4.165   3.183   0.001  0.00  0.00    -0.191 NA
ATOM      6  C   UNL d   1       3.589   2.175  -0.003  0.00  0.00     0.100 C 
ATOM      7  C   UNL d   1       0.696   2.201   0.037  0.00  0.00     0.045 A 
ATOM      8  C   UNL d   1       1.557  -1.513  -0.007  0.00  0.00     0.019 A 
ATOM      9  C   UNL d   1      -1.473   0.801   0.003  0.00  0.00    -0.047 A 
ATOM     10  C   UNL d   1       3.611  -0.254  -0.010  0.00  0.00     0.030 A 
ATOM     11  C   UNL d   1       2.961  -1.484  -0.007  0.00  0.00    -0.060 A 
ATOM     12  C   UNL d   1      -0.825   2.154  -0.046  0.00  0.00     0.044 A 
ATOM     13  C   UNL d   1      -1.457  -1.596   0.010  0.00  0.00     0.013 A 
ATOM     14  C   UNL d   1      -2.883   0.771   0.008  0.00  0.00     0.008 A 
ATOM     15  C   UNL d   1       3.736  -2.768   0.002  0.00  0.00     0.048 C 
ATOM     16  C   UNL d   1      -2.857  -1.621   0.011  0.00  0.00     0.001 A 
ATOM     17  C   UNL d   1      -3.572  -0.434   0.012  0.00  0.00     0.001 A 
ENDROOT
TORSDOF 0
