REMARK  4 active torsions:
REMARK  status: ('A' for Active; 'I' for Inactive)
REMARK    1  A    between atoms: C_6  and  C_1 
REMARK    2  A    between atoms: S_13  and  C_9 
REMARK    3  A    between atoms: C_12  and  C_15 
REMARK    4  A    between atoms: C_15  and  S_13 
ROOT
ATOM      1  C   UNL d   1       4.019   0.057   0.050  0.00  0.00     0.053 A 
ATOM      2  N   UNL d   1       4.662   0.526   1.143  0.00  0.00    -0.336 N 
ATOM      3  HN  UNL d   1       4.158   0.768   1.997  1.00  0.00     0.168 HD
ATOM      4  C   UNL d   1       5.996   0.658   1.051  0.00  0.00     0.144 A 
ATOM      5  N   UNL d   1       6.723   0.344  -0.034  0.00  0.00    -0.347 N 
ATOM      6  HN  UNL d   1       7.737   0.452  -0.048  1.00  0.00     0.167 HD
ATOM      7  C   UNL d   1       4.689  -0.279  -1.115  0.00  0.00     0.048 A 
ATOM      8  C   UNL d   1       6.050  -0.120  -1.097  0.00  0.00     0.092 A 
ENDROOT
BRANCH   1   9
ATOM      9  C   UNL d   1       2.552  -0.065   0.178  0.00  0.00     0.039 A 
ATOM     10  S   UNL d   1       1.767  -1.385  -0.594  0.00  0.00    -0.087 SA
ATOM     11  C   UNL d   1       0.208  -0.902  -0.084  0.00  0.00     0.016 A 
ATOM     12  C   UNL d   1      -1.013  -1.538  -0.388  0.00  0.00     0.021 A 
ATOM     13  C   UNL d   1       0.269   0.241   0.711  0.00  0.00    -0.010 A 
ATOM     14  C   UNL d   1      -2.198  -1.012   0.130  0.00  0.00     0.025 A 
ATOM     15  C   UNL d   1      -2.165   0.118   0.932  0.00  0.00     0.035 A 
ATOM     16  C   UNL d   1      -0.954   0.748   1.228  0.00  0.00     0.037 A 
ATOM     17 CL   UNL d   1      -3.631   0.753   1.572  0.00  0.00    -0.084 Cl
ATOM     18  C   UNL d   1       1.632   0.730   0.859  0.00  0.00    -0.031 A 
ATOM     19  C   UNL d   1       1.946   1.966   1.648  0.00  0.00     0.050 C 
ENDBRANCH   1   9
BRANCH   4  20
ATOM     20  S   UNL d   1       6.923   1.294   2.424  0.00  0.00    -0.089 SA
BRANCH  20  21
ATOM     21  C   UNL d   1       5.584   1.710   3.578  0.00  0.00     0.122 C 
BRANCH  21  22
ATOM     22  C   UNL d   1       6.129   2.335   4.842  0.00  0.00    -0.027 A 
ATOM     23  C   UNL d   1       6.307   3.722   4.992  0.00  0.00     0.041 A 
ATOM     24 CL   UNL d   1       5.895   4.840   3.742  0.00  0.00    -0.084 Cl
ATOM     25  C   UNL d   1       6.832   4.247   6.180  0.00  0.00     0.024 A 
ATOM     26  C   UNL d   1       7.193   3.401   7.226  0.00  0.00     0.002 A 
ATOM     27  C   UNL d   1       7.035   2.024   7.088  0.00  0.00     0.001 A 
ATOM     28  C   UNL d   1       6.511   1.496   5.904  0.00  0.00     0.009 A 
ENDBRANCH  21  22
ENDBRANCH  20  21
ENDBRANCH   4  20
TORSDOF 4
