REMARK  7 active torsions:
REMARK  status: ('A' for Active; 'I' for Inactive)
REMARK    1  A    between atoms: C_2  and  C_1 
REMARK    2  A    between atoms: O_9  and  C_1 
REMARK    3  A    between atoms: O_10  and  C_4 
REMARK    4  A    between atoms: O_11  and  C_5 
REMARK    5  A    between atoms: C_12  and  O_10 
REMARK    6  A    between atoms: C_14  and  C_12 
REMARK    7  A    between atoms: C_15  and  C_14 
ROOT
ATOM      1  C   UNL d   1       0.181   1.044  -0.679  0.00  0.00     0.040 A 
ATOM      2  C   UNL d   1       0.534   1.486  -1.963  0.00  0.00     0.057 A 
ATOM      3  C   UNL d   1      -0.185   2.516  -2.591  0.00  0.00     0.103 A 
ATOM      4  C   UNL d   1      -1.268   3.109  -1.917  0.00  0.00     0.101 A 
ATOM      5  C   UNL d   1      -0.914   1.607  -0.030  0.00  0.00     0.021 A 
ATOM      6  C   UNL d   1      -1.628   2.635  -0.647  0.00  0.00     0.040 A 
ENDROOT
BRANCH   3   7
ATOM      7  O   UNL d   1       0.191   3.013  -3.809  0.00  0.00    -0.348 OA
BRANCH   7   8
ATOM      8  C   UNL d   1       0.753   2.096  -4.749  0.00  0.00     0.176 C 
BRANCH   8   9
ATOM      9  C   UNL d   1       0.957   2.853  -6.059  0.00  0.00     0.026 C 
BRANCH   9  10
ATOM     10  C   UNL d   1       1.592   1.966  -7.125  0.00  0.00    -0.002 C 
ATOM     11  C   UNL d   1       1.819   2.728  -8.421  0.00  0.00     0.005 C 
ENDBRANCH   9  10
ENDBRANCH   8   9
ENDBRANCH   7   8
ENDBRANCH   3   7
BRANCH   4  12
ATOM     12  O   UNL d   1      -2.079   4.132  -2.333  0.00  0.00    -0.353 OA
ATOM     13  C   UNL d   1      -1.874   4.700  -3.618  0.00  0.00     0.210 C 
ENDBRANCH   4  12
BRANCH   1  14
ATOM     14  C   UNL d   1       0.924  -0.042   0.007  0.00  0.00     0.176 C 
ATOM     15  O   UNL d   1       0.393  -0.822   0.775  0.00  0.00    -0.646 OA
BRANCH  14  16
ATOM     16  O   UNL d   1       2.245  -0.068  -0.274  0.00  0.00    -0.773 OA
ATOM     17  H   UNL d   1       2.591   0.723  -0.725  0.00  0.00     0.167 HD
ENDBRANCH  14  16
ENDBRANCH   1  14
TORSDOF 7
