REMARK  2 active torsions:
REMARK  status: ('A' for Active; 'I' for Inactive)
REMARK    1  A    between atoms: S_2  and  C_1 
REMARK    2  A    between atoms: N_3  and  S_2 
ROOT
ATOM      1  C   UNL d   1      -1.154   0.334  -0.057  0.00  0.00     0.053 C 
ATOM      2  C   UNL d   1      -0.220   0.969   1.001  0.00  0.00     0.029 C 
ATOM      3  C   UNL d   1      -0.791   0.876  -1.457  0.00  0.00     0.029 C 
ATOM      4  C   UNL d   1      -0.900  -1.200  -0.056  0.00  0.00     0.029 C 
ATOM      5  C   UNL d   1       0.573  -1.513  -0.374  0.00  0.00    -0.012 C 
ATOM      6  C   UNL d   1       1.252   0.661   0.687  0.00  0.00    -0.012 C 
ATOM      7  C   UNL d   1       0.691   0.578  -1.771  0.00  0.00    -0.012 C 
ATOM      8  C   UNL d   1       1.467  -0.858   0.690  0.00  0.00     0.009 C 
ATOM      9  C   UNL d   1       0.925  -0.941  -1.756  0.00  0.00     0.009 C 
ATOM     10  C   UNL d   1       1.588   1.230  -0.702  0.00  0.00     0.009 C 
ENDROOT
BRANCH   1  11
ATOM     11  S   UNL d   1      -2.930   0.608   0.416  0.00  0.00     0.101 S 
ATOM     12  O   UNL d   1      -3.776  -0.323  -0.396  0.00  0.00    -0.240 OA
BRANCH  11  13
ATOM     13  N   UNL d   1      -3.079   2.212  -0.074  0.00  0.00    -0.229 NA
ATOM     14  C   UNL d   1      -2.863   3.287   0.920  0.00  0.00     0.131 C 
ATOM     15  C   UNL d   1      -4.075   3.520   1.831  0.00  0.00     0.183 C 
ATOM     16  O   UNL d   1      -5.240   3.834   1.067  0.00  0.00    -0.389 OA
ATOM     17  C   UNL d   1      -5.518   2.789   0.123  0.00  0.00     0.183 C 
ATOM     18  C   UNL d   1      -4.320   2.566  -0.816  0.00  0.00     0.131 C 
ENDBRANCH  11  13
ENDBRANCH   1  11
TORSDOF 2
