REMARK  0 active torsions:
REMARK  status: ('A' for Active; 'I' for Inactive)
ROOT
ATOM      1  C   UNL d   1       2.158   0.716   0.322  0.00  0.00     0.103 A 
ATOM      2  C   UNL d   1       3.314   1.398  -0.076  0.00  0.00     0.058 A 
ATOM      3  C   UNL d   1       2.110  -0.682   0.273  0.00  0.00     0.102 A 
ATOM      4  O   UNL d   1       1.104   1.424   0.837  0.00  0.00    -0.346 OA
ATOM      5  O   UNL d   1       0.983  -1.318   0.729  0.00  0.00    -0.346 OA
ATOM      6  O   UNL d   1      -4.400   0.063  -0.132  0.00  0.00    -0.387 OA
ATOM      7  O   UNL d   1      -1.942   2.790  -0.281  0.00  0.00    -0.387 OA
ATOM      8  O   UNL d   1      -1.980  -2.639  -0.347  0.00  0.00    -0.387 OA
ATOM      9  C   UNL d   1       3.233  -1.395  -0.161  0.00  0.00     0.041 A 
ATOM     10  C   UNL d   1       4.415   0.673  -0.539  0.00  0.00     0.013 A 
ATOM     11  C   UNL d   1       4.382  -0.718  -0.578  0.00  0.00     0.022 A 
ATOM     12 BR   UNL d   1       5.974   1.591  -1.095  0.00  0.00    -0.051 Br
ATOM     13  C   UNL d   1       0.401   2.135  -0.189  0.00  0.00     0.201 C 
ATOM     14  C   UNL d   1       0.419  -2.219  -0.240  0.00  0.00     0.201 C 
ATOM     15  C   UNL d   1      -3.922  -1.218  -0.557  0.00  0.00     0.193 C 
ATOM     16  C   UNL d   1      -3.666   1.154  -0.698  0.00  0.00     0.193 C 
ATOM     17  C   UNL d   1      -2.845  -1.766   0.380  0.00  0.00     0.193 C 
ATOM     18  C   UNL d   1      -0.782  -2.945   0.379  0.00  0.00     0.194 C 
ATOM     19  C   UNL d   1      -0.723   2.960   0.451  0.00  0.00     0.194 C 
ATOM     20  C   UNL d   1      -2.837   1.877   0.359  0.00  0.00     0.193 C 
ENDROOT
TORSDOF 0
