REMARK  8 active torsions:
REMARK  status: ('A' for Active; 'I' for Inactive)
REMARK       I    between atoms: N_4  and  C_1 
REMARK       I    between atoms: N_5  and  C_1 
REMARK    1  A    between atoms: C_2  and  N_8 
REMARK    2  A    between atoms: N_6  and  C_2 
REMARK    3  A    between atoms: C_3  and  N_9 
REMARK    4  A    between atoms: N_7  and  C_3 
REMARK    5  A    between atoms: N_9  and  N_4 
REMARK    6  A    between atoms: N_8  and  N_5 
REMARK    7  A    between atoms: C_13  and  N_6 
REMARK    8  A    between atoms: C_14  and  N_7 
ROOT
ATOM      1  C   UNL d   1       1.091  -0.438   0.145  0.00  0.00     0.353 C 
ATOM      2  N   UNL d   1       0.340  -0.999  -0.860  0.00  0.00    -0.248 N 
ATOM      3  N   UNL d   1       0.455  -0.348   1.356  0.00  0.00    -0.248 N 
ATOM      4  O   UNL d   1       2.229  -0.005  -0.021  0.00  0.00    -0.244 OA
ATOM      5  H   UNL d   1      -0.347  -1.700  -0.597  0.00  0.00     0.192 HD
ATOM      6  H   UNL d   1       0.963   0.087   2.121  0.00  0.00     0.192 HD
ENDROOT
BRANCH   2   7
ATOM      7  N   UNL d   1       0.949  -1.152  -2.113  0.00  0.00    -0.272 N 
ATOM      8  H   UNL d   1       1.907  -0.819  -2.193  0.00  0.00     0.189 HD
BRANCH   7   9
ATOM      9  C   UNL d   1       0.227  -1.530  -3.209  0.00  0.00     0.191 C 
ATOM     10  S   UNL d   1      -1.170  -2.457  -3.134  0.00  0.00    -0.039 SA
BRANCH   9  11
ATOM     11  N   UNL d   1       0.692  -1.163  -4.437  0.00  0.00    -0.332 N 
ATOM     12  H   UNL d   1       0.260  -1.683  -5.194  0.00  0.00     0.168 HD
BRANCH  11  13
ATOM     13  C   UNL d   1       1.330   0.036  -4.841  0.00  0.00     0.034 A 
ATOM     14  C   UNL d   1       1.626   1.102  -3.988  0.00  0.00     0.036 A 
ATOM     15  C   UNL d   1       2.135   2.313  -4.487  0.00  0.00    -0.060 A 
ATOM     16  C   UNL d   1       2.422   3.457  -3.561  0.00  0.00     0.048 C 
ATOM     17  C   UNL d   1       2.348   2.450  -5.862  0.00  0.00     0.007 A 
ATOM     18  C   UNL d   1       2.065   1.394  -6.722  0.00  0.00     0.003 A 
ATOM     19  C   UNL d   1       1.562   0.192  -6.215  0.00  0.00     0.029 A 
ENDBRANCH  11  13
ENDBRANCH   9  11
ENDBRANCH   7   9
ENDBRANCH   2   7
BRANCH   3  20
ATOM     20  N   UNL d   1      -0.930  -0.521   1.508  0.00  0.00    -0.272 N 
ATOM     21  H   UNL d   1      -1.532  -0.088   0.813  0.00  0.00     0.189 HD
BRANCH  20  22
ATOM     22  C   UNL d   1      -1.444  -0.914   2.714  0.00  0.00     0.191 C 
ATOM     23  S   UNL d   1      -0.627  -1.871   3.822  0.00  0.00    -0.039 SA
BRANCH  22  24
ATOM     24  N   UNL d   1      -2.723  -0.545   3.015  0.00  0.00    -0.332 N 
ATOM     25  H   UNL d   1      -3.110  -1.091   3.780  0.00  0.00     0.168 HD
BRANCH  24  26
ATOM     26  C   UNL d   1      -3.386   0.688   2.797  0.00  0.00     0.034 A 
ATOM     27  C   UNL d   1      -2.830   1.785   2.133  0.00  0.00     0.036 A 
ATOM     28  C   UNL d   1      -3.500   3.019   2.087  0.00  0.00    -0.060 A 
ATOM     29  C   UNL d   1      -2.877   4.203   1.406  0.00  0.00     0.048 C 
ATOM     30  C   UNL d   1      -4.737   3.154   2.724  0.00  0.00     0.007 A 
ATOM     31  C   UNL d   1      -5.306   2.067   3.382  0.00  0.00     0.003 A 
ATOM     32  C   UNL d   1      -4.637   0.841   3.412  0.00  0.00     0.029 A 
ENDBRANCH  24  26
ENDBRANCH  22  24
ENDBRANCH  20  22
ENDBRANCH   3  20
TORSDOF 8
