REMARK  7 active torsions:
REMARK  status: ('A' for Active; 'I' for Inactive)
REMARK    1  A    between atoms: C_3  and  C_1 
REMARK    2  A    between atoms: C_4  and  C_2 
REMARK       I    between atoms: N_10  and  C_3 
REMARK       I    between atoms: N_9  and  C_4 
REMARK    3  A    between atoms: O_13  and  C_5 
REMARK    4  A    between atoms: C_6  and  O_14 
REMARK    5  A    between atoms: C_17  and  O_13 
REMARK    6  A    between atoms: O_14  and  C_18 
REMARK    7  A    between atoms: C_18  and  C_17 
ROOT
ATOM      1  C   UNL d   1       2.196  -2.978  -0.120  0.00  0.00     0.202 C 
ENDROOT
BRANCH   1   2
ATOM      2  O   UNL d   1       0.867  -2.562   0.162  0.00  0.00    -0.348 OA
BRANCH   2   3
ATOM      3  C   UNL d   1       0.567  -1.224   0.118  0.00  0.00     0.084 A 
ATOM      4  C   UNL d   1       1.329  -0.124  -0.317  0.00  0.00     0.065 A 
ATOM      5  C   UNL d   1       0.794   1.178  -0.243  0.00  0.00     0.020 A 
ATOM      6  C   UNL d   1      -0.487   1.398   0.261  0.00  0.00     0.001 A 
ATOM      7  C   UNL d   1      -1.245   0.319   0.692  0.00  0.00     0.003 A 
ATOM      8  C   UNL d   1      -0.723  -0.975   0.620  0.00  0.00     0.038 A 
BRANCH   4   9
ATOM      9  C   UNL d   1       2.674  -0.197  -0.927  0.00  0.00     0.252 C 
ATOM     10  O   UNL d   1       2.897  -0.836  -1.944  0.00  0.00    -0.268 OA
ATOM     11  N   UNL d   1       3.655   0.518  -0.296  0.00  0.00    -0.366 N 
ATOM     12  H   UNL d   1       3.509   1.030   0.563  0.00  0.00     0.159 HD
ATOM     13  H   UNL d   1       4.593   0.465  -0.677  0.00  0.00     0.159 HD
ENDBRANCH   4   9
ENDBRANCH   2   3
ENDBRANCH   1   2
BRANCH   1  14
ATOM     14  C   UNL d   1       2.438  -4.390   0.424  0.00  0.00     0.202 C 
BRANCH  14  15
ATOM     15  O   UNL d   1       3.827  -4.776   0.344  0.00  0.00    -0.348 OA
BRANCH  15  16
ATOM     16  C   UNL d   1       4.663  -3.974   1.089  0.00  0.00     0.084 A 
ATOM     17  C   UNL d   1       5.765  -3.342   0.484  0.00  0.00     0.065 A 
ATOM     18  C   UNL d   1       6.543  -2.458   1.255  0.00  0.00     0.020 A 
ATOM     19  C   UNL d   1       6.243  -2.218   2.597  0.00  0.00     0.001 A 
ATOM     20  C   UNL d   1       5.180  -2.882   3.197  0.00  0.00     0.003 A 
ATOM     21  C   UNL d   1       4.404  -3.769   2.453  0.00  0.00     0.038 A 
BRANCH  17  22
ATOM     22  C   UNL d   1       6.164  -3.494  -0.948  0.00  0.00     0.252 C 
ATOM     23  O   UNL d   1       7.103  -2.859  -1.421  0.00  0.00    -0.268 OA
ATOM     24  N   UNL d   1       5.461  -4.356  -1.731  0.00  0.00    -0.366 N 
ATOM     25  H   UNL d   1       4.662  -4.871  -1.382  0.00  0.00     0.159 HD
ATOM     26  H   UNL d   1       5.699  -4.416  -2.714  0.00  0.00     0.159 HD
ENDBRANCH  17  22
ENDBRANCH  15  16
ENDBRANCH  14  15
ENDBRANCH   1  14
TORSDOF 7
