REMARK  4 active torsions:
REMARK  status: ('A' for Active; 'I' for Inactive)
REMARK       I    between atoms: N_2  and  C_1 
REMARK    1  A    between atoms: C_3  and  C_1 
REMARK    2  A    between atoms: C_5  and  N_2 
REMARK    3  A    between atoms: C_10  and  N_2 
REMARK    4  A    between atoms: C_11  and  C_5 
ROOT
ATOM      1  C   UNL d   1       1.123  -0.084   0.031  0.00  0.00     0.261 C 
ATOM      2  N   UNL d   1       0.308  -1.238  -0.089  0.00  0.00    -0.339 N 
ATOM      3  O   UNL d   1       2.338  -0.251   0.209  0.00  0.00    -0.267 OA
ENDROOT
BRANCH   2   4
ATOM      4  C   UNL d   1      -1.156  -1.270  -0.046  0.00  0.00     0.165 C 
BRANCH   4   5
ATOM      5  C   UNL d   1      -1.851  -1.255  -1.391  0.00  0.00    -0.040 A 
ATOM      6  C   UNL d   1      -3.122  -1.845  -1.500  0.00  0.00     0.009 A 
ATOM      7  C   UNL d   1      -3.830  -1.810  -2.703  0.00  0.00     0.001 A 
ATOM      8  C   UNL d   1      -3.284  -1.174  -3.814  0.00  0.00     0.000 A 
ATOM      9  C   UNL d   1      -2.026  -0.585  -3.725  0.00  0.00     0.001 A 
ATOM     10  C   UNL d   1      -1.314  -0.626  -2.523  0.00  0.00     0.009 A 
ENDBRANCH   4   5
ENDBRANCH   2   4
BRANCH   2  11
ATOM     11  C   UNL d   1       1.016  -2.543  -0.087  0.00  0.00     0.079 C 
ATOM     12  C   UNL d   1       1.286  -3.016   1.346  0.00  0.00     0.032 C 
ATOM     13  C   UNL d   1       0.331  -3.655  -0.891  0.00  0.00     0.032 C 
ENDBRANCH   2  11
BRANCH   1  14
ATOM     14  C   UNL d   1       0.646   1.295  -0.163  0.00  0.00     0.072 A 
ATOM     15  S   UNL d   1      -0.891   1.925   0.231  0.00  0.00    -0.097 SA
ATOM     16  C   UNL d   1      -0.515   3.486  -0.341  0.00  0.00     0.050 A 
ATOM     17  C   UNL d   1       0.792   3.574  -0.754  0.00  0.00     0.009 A 
ATOM     18  C   UNL d   1       1.461   2.324  -0.628  0.00  0.00     0.025 A 
ENDBRANCH   1  14
TORSDOF 4
