REMARK  2 active torsions:
REMARK  status: ('A' for Active; 'I' for Inactive)
REMARK    1  A    between atoms: C_2  and  N_1 
REMARK    2  A    between atoms: N_6  and  C_3 
ROOT
ATOM      1  C   UNL d   1       1.296   2.086  -0.973  0.00  0.00     0.066 A 
ATOM      2  C   UNL d   1       1.749   1.647  -2.248  0.00  0.00     0.038 A 
ATOM      3  C   UNL d   1       1.463   3.414  -0.554  0.00  0.00     0.032 A 
ATOM      4  C   UNL d   1       2.383   2.596  -3.064  0.00  0.00     0.026 A 
ATOM      5  C   UNL d   1       2.085   4.332  -1.395  0.00  0.00     0.002 A 
ATOM      6  C   UNL d   1       2.547   3.924  -2.644  0.00  0.00     0.002 A 
ENDROOT
BRANCH   1   7
ATOM      7  N   UNL d   1       0.578   1.168  -0.150  0.00  0.00    -0.249 N 
ATOM      8  C   UNL d   1       1.275   0.626   0.938  0.00  0.00     0.240 C 
ATOM      9  O   UNL d   1       2.375   1.030   1.328  0.00  0.00    -0.272 OA
ATOM     10  C   UNL d   1       0.681  -0.612   1.575  0.00  0.00     0.178 C 
ATOM     11  S   UNL d   1      -1.078  -0.451   1.905  0.00  0.00    -0.150 SA
ATOM     12  C   UNL d   1      -1.560  -0.013   0.228  0.00  0.00     0.178 C 
ATOM     13  C   UNL d   1      -0.819   1.207  -0.266  0.00  0.00     0.240 C 
ATOM     14  O   UNL d   1      -1.451   2.143  -0.763  0.00  0.00    -0.272 OA
ENDBRANCH   1   7
BRANCH   2  15
ATOM     15  N   UNL d   1       1.513   0.327  -2.667  0.00  0.00    -0.278 NA
ATOM     16  C   UNL d   1       1.340   0.073  -4.114  0.00  0.00     0.122 C 
ATOM     17  C   UNL d   1       0.732  -1.332  -4.290  0.00  0.00     0.182 C 
ATOM     18  O   UNL d   1       1.543  -2.349  -3.669  0.00  0.00    -0.389 OA
ATOM     19  C   UNL d   1       1.737  -2.066  -2.272  0.00  0.00     0.182 C 
ATOM     20  C   UNL d   1       2.404  -0.693  -2.071  0.00  0.00     0.122 C 
ENDBRANCH   2  15
TORSDOF 2
