REMARK  6 active torsions:
REMARK  status: ('A' for Active; 'I' for Inactive)
REMARK       I    between atoms: N_8  and  C_1 
REMARK       I    between atoms: N_9  and  C_1 
REMARK    1  A    between atoms: N_2  and  N_8 
REMARK    2  A    between atoms: N_4  and  N_9 
REMARK    3  A    between atoms: O_25  and  C_11 
REMARK    4  A    between atoms: O_26  and  C_12 
REMARK    5  A    between atoms: C_19  and  C_17 
REMARK    6  A    between atoms: C_20  and  C_18 
ROOT
ATOM      1  C   UNL d   1       1.022   0.030   0.008  0.00  0.00     0.353 C 
ATOM      2  N   UNL d   1       0.327  -0.827  -0.846  0.00  0.00    -0.251 N 
ATOM      3  N   UNL d   1       0.157   0.835   0.743  0.00  0.00    -0.251 N 
ATOM      4  O   UNL d   1       2.246   0.064   0.105  0.00  0.00    -0.244 OA
ATOM      5  H   UNL d   1      -0.674  -0.763  -0.947  0.00  0.00     0.191 HD
ATOM      6  H   UNL d   1      -0.839   0.785   0.592  0.00  0.00     0.191 HD
ENDROOT
BRANCH   2   7
ATOM      7  N   UNL d   1       1.032  -1.657  -1.661  0.00  0.00    -0.307 N 
ATOM      8  C   UNL d   1       0.370  -2.417  -2.467  0.00  0.00     0.118 C 
ATOM      9  HN  UNL d   1       2.052  -1.679  -1.634  1.00  0.00     0.186 HD
BRANCH   8  10
ATOM     10  C   UNL d   1       1.089  -3.310  -3.397  0.00  0.00    -0.018 A 
ATOM     11  C   UNL d   1       2.487  -3.342  -3.393  0.00  0.00     0.034 A 
ATOM     12  C   UNL d   1       3.200  -4.151  -4.294  0.00  0.00     0.045 A 
ATOM     13 BR   UNL d   1       5.087  -4.051  -4.084  0.00  0.00    -0.048 Br
ATOM     14  C   UNL d   1       2.500  -4.934  -5.222  0.00  0.00     0.085 A 
ATOM     15  C   UNL d   1       1.090  -4.900  -5.195  0.00  0.00     0.039 A 
ATOM     16  C   UNL d   1       0.382  -4.101  -4.293  0.00  0.00     0.015 A 
BRANCH  14  17
ATOM     17  O   UNL d   1       2.939  -5.775  -6.205  0.00  0.00    -0.355 OA
ATOM     18  C   UNL d   1       4.319  -5.936  -6.474  0.00  0.00     0.210 C 
ENDBRANCH  14  17
ENDBRANCH   8  10
ENDBRANCH   2   7
BRANCH   3  19
ATOM     19  N   UNL d   1       0.661   1.765   1.604  0.00  0.00    -0.307 N 
ATOM     20  C   UNL d   1      -0.211   2.465   2.252  0.00  0.00     0.118 C 
ATOM     21  HN  UNL d   1       1.665   1.900   1.729  1.00  0.00     0.186 HD
BRANCH  20  22
ATOM     22  C   UNL d   1       0.192   3.534   3.186  0.00  0.00    -0.018 A 
ATOM     23  C   UNL d   1      -0.803   4.259   3.843  0.00  0.00     0.034 A 
ATOM     24  C   UNL d   1      -0.471   5.318   4.709  0.00  0.00     0.045 A 
ATOM     25 BR   UNL d   1      -1.985   6.153   5.504  0.00  0.00    -0.048 Br
ATOM     26  C   UNL d   1       0.874   5.657   4.915  0.00  0.00     0.085 A 
ATOM     27  C   UNL d   1       1.859   4.896   4.255  0.00  0.00     0.039 A 
ATOM     28  C   UNL d   1       1.530   3.843   3.399  0.00  0.00     0.015 A 
BRANCH  26  29
ATOM     29  O   UNL d   1       1.454   6.632   5.675  0.00  0.00    -0.355 OA
ATOM     30  C   UNL d   1       0.676   7.577   6.382  0.00  0.00     0.210 C 
ENDBRANCH  26  29
ENDBRANCH  20  22
ENDBRANCH   3  19
TORSDOF 6
