REMARK  5 active torsions:
REMARK  status: ('A' for Active; 'I' for Inactive)
REMARK    1  A    between atoms: C_2  and  O_8 
REMARK    2  A    between atoms: C_6  and  C_3 
REMARK    3  A    between atoms: C_22  and  C_5 
REMARK       I    between atoms: N_13  and  C_6 
REMARK    4  A    between atoms: O_8  and  C_16 
REMARK    5  A    between atoms: C_26  and  N_13 
ROOT
ATOM      1  N   UNL d   1      -3.921   0.451   1.273  0.00  0.00    -0.344 N 
ATOM      2  HN  UNL d   1      -3.957  -0.273   1.990  1.00  0.00     0.167 HD
ATOM      3  C   UNL d   1      -4.946   0.654   0.424  0.00  0.00     0.149 A 
ATOM      4  C   UNL d   1      -2.685   2.220   0.131  0.00  0.00     0.050 A 
ATOM      5  C   UNL d   1      -2.834   1.255   1.129  0.00  0.00     0.119 A 
ATOM      6  C   UNL d   1      -4.904   1.586  -0.603  0.00  0.00     0.059 A 
ATOM      7  C   UNL d   1      -3.759   2.379  -0.747  0.00  0.00     0.035 A 
ENDROOT
BRANCH   4   8
ATOM      8  N   UNL d   1      -1.529   3.021  -0.065  0.00  0.00    -0.321 N 
ATOM      9  C   UNL d   1      -0.366   2.981   0.688  0.00  0.00     0.263 C 
ATOM     10  O   UNL d   1      -0.218   2.244   1.660  0.00  0.00    -0.267 OA
ATOM     11  H   UNL d   1      -1.539   3.666  -0.845  0.00  0.00     0.169 HD
BRANCH   9  12
ATOM     12  C   UNL d   1       0.719   3.868   0.269  0.00  0.00     0.073 A 
ATOM     13  S   UNL d   1       0.644   4.867  -1.113  0.00  0.00    -0.083 SA
ATOM     14  C   UNL d   1       2.272   5.412  -0.930  0.00  0.00     0.032 A 
ATOM     15  C   UNL d   1       2.819   4.897   0.234  0.00  0.00     0.023 A 
ATOM     16  C   UNL d   1       1.936   4.009   0.911  0.00  0.00     0.026 A 
BRANCH  14  17
ATOM     17  C   UNL d   1       2.903   6.312  -1.910  0.00  0.00     0.049 A 
ATOM     18  N   UNL d   1       3.957   7.022  -1.433  0.00  0.00    -0.365 N 
ATOM     19  C   UNL d   1       4.573   7.873  -2.288  0.00  0.00     0.088 A 
ATOM     20  HN  UNL d   1       4.274   6.918  -0.469  1.00  0.00     0.165 HD
ATOM     21  C   UNL d   1       4.191   8.053  -3.606  0.00  0.00     0.017 A 
ATOM     22  C   UNL d   1       3.127   7.304  -4.088  0.00  0.00     0.004 A 
ATOM     23  C   UNL d   1       2.477   6.416  -3.232  0.00  0.00     0.031 A 
ENDBRANCH  14  17
ENDBRANCH   9  12
ENDBRANCH   4   8
BRANCH   3  24
ATOM     24  O   UNL d   1      -6.048  -0.189   0.451  0.00  0.00    -0.276 OA
BRANCH  24  25
ATOM     25  C   UNL d   1      -6.457  -0.668   1.691  0.00  0.00     0.163 A 
ATOM     26  C   UNL d   1      -7.042  -1.940   1.726  0.00  0.00     0.042 A 
ATOM     27  C   UNL d   1      -7.541  -2.320   2.978  0.00  0.00     0.049 A 
ATOM     28  C   UNL d   1      -7.167  -2.819   0.620  0.00  0.00     0.020 A 
ATOM     29  C   UNL d   1      -8.165  -3.554   3.103  0.00  0.00     0.054 A 
ATOM     30  N   UNL d   1      -7.445  -1.536   4.057  0.00  0.00    -0.351 N 
ATOM     31  C   UNL d   1      -8.292  -4.416   2.014  0.00  0.00     0.036 A 
ATOM     32  C   UNL d   1      -7.790  -4.057   0.769  0.00  0.00     0.025 A 
ATOM     33 CL   UNL d   1      -9.075  -5.936   2.212  0.00  0.00    -0.084 Cl
ATOM     34  C   UNL d   1      -6.871  -0.335   3.892  0.00  0.00     0.182 A 
ATOM     35  HN  UNL d   1      -7.794  -1.838   4.966  1.00  0.00     0.166 HD
ATOM     36  N   UNL d   1      -6.407   0.166   2.747  0.00  0.00    -0.332 N 
ATOM     37  HN  UNL d   1      -6.039   1.115   2.676  1.00  0.00     0.168 HD
ENDBRANCH  24  25
ENDBRANCH   3  24
TORSDOF 5
