REMARK  4 active torsions:
REMARK  status: ('A' for Active; 'I' for Inactive)
REMARK    1  A    between atoms: O_2  and  C_1 
REMARK    2  A    between atoms: C_6  and  C_1 
REMARK    3  A    between atoms: C_4  and  O_2 
REMARK    4  A    between atoms: N_3  and  C_5 
ROOT
ATOM      1  C   UNL d   1      -1.183   0.209   1.101  0.00  0.00     0.106 A 
ATOM      2  C   UNL d   1      -1.759  -0.964   0.560  0.00  0.00     0.064 A 
ATOM      3  C   UNL d   1      -1.915   1.108   1.892  0.00  0.00     0.040 A 
ATOM      4  C   UNL d   1      -3.125  -1.157   0.841  0.00  0.00     0.032 A 
ATOM      5  C   UNL d   1      -3.256   0.864   2.160  0.00  0.00     0.003 A 
ATOM      6  C   UNL d   1      -3.866  -0.260   1.621  0.00  0.00     0.002 A 
ENDROOT
BRANCH   1   7
ATOM      7  O   UNL d   1       0.110   0.587   0.643  0.00  0.00    -0.273 OA
BRANCH   7   8
ATOM      8  C   UNL d   1       0.976   1.380   1.378  0.00  0.00     0.298 C 
ATOM      9  O   UNL d   1       0.923   1.623   2.572  0.00  0.00    -0.259 OA
BRANCH   8  10
ATOM     10  C   UNL d   1       2.023   1.923   0.467  0.00  0.00     0.040 A 
ATOM     11  C   UNL d   1       3.036   2.721   1.014  0.00  0.00     0.018 A 
ATOM     12  C   UNL d   1       4.048   3.234   0.197  0.00  0.00     0.007 A 
ATOM     13  C   UNL d   1       4.054   2.966  -1.177  0.00  0.00    -0.062 A 
ATOM     14  C   UNL d   1       3.030   2.187  -1.726  0.00  0.00     0.007 A 
ATOM     15  C   UNL d   1       5.188   3.442  -2.037  0.00  0.00     0.048 C 
ATOM     16  C   UNL d   1       2.017   1.674  -0.912  0.00  0.00     0.018 A 
ENDBRANCH   8  10
ENDBRANCH   7   8
ENDBRANCH   1   7
BRANCH   2  17
ATOM     17  N   UNL d   1      -1.068  -1.909  -0.179  0.00  0.00    -0.375 N 
ATOM     18  C   UNL d   1      -1.661  -2.612  -1.328  0.00  0.00     0.149 C 
ATOM     19  C   UNL d   1      -1.375  -4.116  -1.212  0.00  0.00     0.187 C 
ATOM     20  O   UNL d   1       0.039  -4.366  -1.125  0.00  0.00    -0.388 OA
ATOM     21  C   UNL d   1       0.584  -3.722   0.040  0.00  0.00     0.187 C 
ATOM     22  C   UNL d   1       0.359  -2.197   0.025  0.00  0.00     0.149 C 
ENDBRANCH   2  17
TORSDOF 4
