REMARK  4 active torsions:
REMARK  status: ('A' for Active; 'I' for Inactive)
REMARK    1  A    between atoms: N_2  and  C_1 
REMARK    2  A    between atoms: O_9  and  C_3 
REMARK    3  A    between atoms: N_13  and  C_6 
REMARK    4  A    between atoms: C_14  and  O_9 
ROOT
ATOM      1  C   UNL d   1      -0.167  -1.454   0.379  0.00  0.00     0.192 A 
ATOM      2  C   UNL d   1       1.024  -0.822   0.098  0.00  0.00     0.185 A 
ATOM      3  N   UNL d   1       1.095   0.494  -0.196  0.00  0.00    -0.331 N 
ATOM      4  HN  UNL d   1       1.982   0.965  -0.369  1.00  0.00     0.168 HD
ATOM      5  C   UNL d   1      -1.333  -0.729   0.273  0.00  0.00     0.118 A 
ATOM      6  N   UNL d   1      -1.282   0.584  -0.039  0.00  0.00    -0.341 N 
ATOM      7  HN  UNL d   1      -2.134   1.139  -0.117  1.00  0.00     0.167 HD
ATOM      8  C   UNL d   1      -0.075   1.136  -0.243  0.00  0.00     0.183 A 
ENDROOT
BRANCH   2   9
ATOM      9  O   UNL d   1       2.204  -1.547   0.168  0.00  0.00    -0.291 OA
BRANCH   9  10
ATOM     10  C   UNL d   1       3.224  -1.228  -0.701  0.00  0.00     0.078 A 
ATOM     11  C   UNL d   1       4.522  -1.431  -0.225  0.00  0.00     0.039 A 
ATOM     12  C   UNL d   1       5.621  -1.164  -1.045  0.00  0.00     0.026 A 
ATOM     13  C   UNL d   1       5.419  -0.703  -2.345  0.00  0.00     0.034 A 
ATOM     14  C   UNL d   1       4.128  -0.526  -2.837  0.00  0.00     0.026 A 
ATOM     15 CL   UNL d   1       6.770  -0.358  -3.351  0.00  0.00    -0.084 Cl
ATOM     16  C   UNL d   1       3.028  -0.805  -2.020  0.00  0.00     0.039 A 
ENDBRANCH   9  10
ENDBRANCH   2   9
BRANCH   1  17
ATOM     17  N   UNL d   1      -0.148  -2.816   0.781  0.00  0.00    -0.108 N 
ATOM     18  O   UNL d   1      -0.034  -3.664  -0.117  0.00  0.00    -0.532 OA
ATOM     19  O   UNL d   1      -0.242  -3.058   1.991  0.00  0.00    -0.532 OA
ENDBRANCH   1  17
BRANCH   5  20
ATOM     20  N   UNL d   1      -2.628  -1.171   0.485  0.00  0.00    -0.281 NA
ATOM     21  C   UNL d   1      -3.073  -2.438  -0.066  0.00  0.00     0.114 C 
ATOM     22  H   UNL d   1      -3.244  -0.392   0.249  0.00  0.00     0.128 HD
ENDBRANCH   5  20
TORSDOF 4
