REMARK  6 active torsions:
REMARK  status: ('A' for Active; 'I' for Inactive)
REMARK    1  A    between atoms: N_2  and  C_1 
REMARK    2  A    between atoms: N_3  and  C_1 
REMARK    3  A    between atoms: C_6  and  N_2 
REMARK    4  A    between atoms: C_8  and  N_3 
REMARK    5  A    between atoms: O_14  and  C_5 
REMARK    6  A    between atoms: O_15  and  C_9 
ROOT
ATOM      1  N   UNL d   1       0.288  -0.906  -0.610  0.00  0.00    -0.333 N 
ATOM      2  H   UNL d   1       0.767  -1.789  -0.750  0.00  0.00     0.168 HD
ENDROOT
BRANCH   1   3
ATOM      3  C   UNL d   1       1.054   0.011   0.114  0.00  0.00     0.176 C 
ATOM      4  S   UNL d   1       0.485   1.071   1.287  0.00  0.00    -0.041 SA
BRANCH   3   5
ATOM      5  N   UNL d   1       2.384  -0.088  -0.292  0.00  0.00    -0.332 N 
ATOM      6  H   UNL d   1       2.499  -0.061  -1.301  0.00  0.00     0.168 HD
BRANCH   5   7
ATOM      7  C   UNL d   1       3.537   0.280   0.447  0.00  0.00     0.056 A 
ATOM      8  C   UNL d   1       4.651   0.827  -0.206  0.00  0.00     0.060 A 
ATOM      9 CL   UNL d   1       4.623   1.141  -1.906  0.00  0.00    -0.082 Cl
ATOM     10  C   UNL d   1       5.802   1.162   0.515  0.00  0.00     0.026 A 
ATOM     11  C   UNL d   1       5.860   0.924   1.888  0.00  0.00     0.002 A 
ATOM     12  C   UNL d   1       4.772   0.351   2.539  0.00  0.00     0.002 A 
ATOM     13  C   UNL d   1       3.619   0.024   1.822  0.00  0.00     0.031 A 
ENDBRANCH   5   7
ENDBRANCH   3   5
ENDBRANCH   1   3
BRANCH   1  14
ATOM     14  C   UNL d   1      -1.120  -0.946  -0.709  0.00  0.00     0.037 A 
ATOM     15  C   UNL d   1      -1.872   0.217  -0.895  0.00  0.00     0.069 A 
ATOM     16  C   UNL d   1      -3.268   0.167  -0.973  0.00  0.00     0.103 A 
ATOM     17  C   UNL d   1      -3.914  -1.074  -0.854  0.00  0.00     0.101 A 
ATOM     18  C   UNL d   1      -3.159  -2.247  -0.741  0.00  0.00     0.042 A 
ATOM     19  C   UNL d   1      -1.762  -2.182  -0.686  0.00  0.00     0.032 A 
BRANCH  16  20
ATOM     20  O   UNL d   1      -4.072   1.265  -1.155  0.00  0.00    -0.353 OA
ATOM     21  C   UNL d   1      -3.433   2.532  -1.248  0.00  0.00     0.210 C 
ENDBRANCH  16  20
BRANCH  17  22
ATOM     22  O   UNL d   1      -5.286  -1.076  -0.914  0.00  0.00    -0.353 OA
ATOM     23  C   UNL d   1      -5.923  -2.031  -0.072  0.00  0.00     0.210 C 
ENDBRANCH  17  22
ENDBRANCH   1  14
TORSDOF 6
