REMARK  3 active torsions:
REMARK  status: ('A' for Active; 'I' for Inactive)
REMARK    1  A    between atoms: C_11  and  N_9 
REMARK    2  A    between atoms: C_22  and  C_13 
REMARK    3  A    between atoms: C_21  and  C_14 
ROOT
ATOM      1  C   UNL d   1       0.714  -1.144   1.883  0.00  0.00     0.060 A 
ATOM      2  C   UNL d   1       0.561   0.225   1.635  0.00  0.00     0.075 A 
ATOM      3  C   UNL d   1       2.473  -0.089   0.540  0.00  0.00     0.150 C 
ATOM      4  N   UNL d   1       1.526   0.776   0.806  0.00  0.00    -0.334 N 
ATOM      5  HN  UNL d   1       1.502   1.732   0.450  1.00  0.00     0.168 HD
ATOM      6  S   UNL d   1       2.086  -1.704   0.990  0.00  0.00    -0.050 SA
ATOM      7  C   UNL d   1      -0.157  -1.841   2.750  0.00  0.00     0.075 A 
ATOM      8  C   UNL d   1      -0.505   0.891   2.275  0.00  0.00     0.064 A 
ATOM      9  N   UNL d   1       3.673   0.171  -0.023  0.00  0.00    -0.336 N 
ATOM     10  C   UNL d   1      -1.184  -1.121   3.390  0.00  0.00     0.059 A 
ATOM     11  C   UNL d   1      -1.362   0.238   3.153  0.00  0.00     0.051 A 
ATOM     12 CL   UNL d   1       0.082  -3.530   3.034  0.00  0.00    -0.081 Cl
ATOM     13 CL   UNL d   1      -0.656   2.566   1.966  0.00  0.00    -0.082 Cl
ATOM     14 CL   UNL d   1      -2.262  -1.871   4.517  0.00  0.00    -0.082 Cl
ATOM     15  H   UNL d   1       4.245  -0.630  -0.260  0.00  0.00     0.168 HD
ENDROOT
BRANCH   9  16
ATOM     16  C   UNL d   1       4.451   1.360   0.045  0.00  0.00     0.046 A 
ATOM     17  C   UNL d   1       4.419   2.292   1.127  0.00  0.00    -0.031 A 
ATOM     18  C   UNL d   1       5.197   3.464   1.036  0.00  0.00     0.009 A 
ATOM     19  C   UNL d   1       6.039   3.706  -0.041  0.00  0.00     0.001 A 
ATOM     20  C   UNL d   1       6.111   2.786  -1.075  0.00  0.00     0.009 A 
ATOM     21  C   UNL d   1       5.319   1.623  -1.055  0.00  0.00    -0.031 A 
BRANCH  17  22
ATOM     22  C   UNL d   1       3.572   2.097   2.373  0.00  0.00     0.036 C 
ATOM     23  C   UNL d   1       4.097   2.667   3.689  0.00  0.00     0.010 C 
ENDBRANCH  17  22
BRANCH  21  24
ATOM     24  C   UNL d   1       5.446   0.691  -2.245  0.00  0.00     0.036 C 
ATOM     25  C   UNL d   1       6.563  -0.326  -2.058  0.00  0.00     0.010 C 
ENDBRANCH  21  24
ENDBRANCH   9  16
TORSDOF 3
