REMARK  16 active torsions:
REMARK  status: ('A' for Active; 'I' for Inactive)
REMARK    1  A    between atoms: C_8  and  S_1 
REMARK    2  A    between atoms: N_12  and  S_1 
REMARK    3  A    between atoms: S_2  and  C_9 
REMARK    4  A    between atoms: N_13  and  S_2 
REMARK    5  A    between atoms: C_23  and  N_12 
REMARK    6  A    between atoms: C_24  and  N_12 
REMARK    7  A    between atoms: C_25  and  N_13 
REMARK    8  A    between atoms: C_26  and  N_13 
REMARK    9  A    between atoms: C_31  and  C_23 
REMARK   10  A    between atoms: C_32  and  C_24 
REMARK   11  A    between atoms: C_33  and  C_25 
REMARK   12  A    between atoms: C_34  and  C_26 
REMARK   13  A    between atoms: O_27  and  C_31 
REMARK   14  A    between atoms: O_28  and  C_32 
REMARK   15  A    between atoms: O_29  and  C_33 
REMARK   16  A    between atoms: O_30  and  C_34 
ROOT
ATOM      1  C   UNL d   1      -0.341   1.450  -3.566  0.00  0.00     0.027 A 
ATOM      2  C   UNL d   1      -0.732   2.437  -5.684  0.00  0.00     0.027 A 
ATOM      3  C   UNL d   1      -0.696   1.143  -4.968  0.00  0.00     0.194 A 
ATOM      4  C   UNL d   1      -0.429   3.444  -4.751  0.00  0.00    -0.011 A 
ATOM      5  C   UNL d   1      -0.222   2.845  -3.450  0.00  0.00    -0.011 A 
ATOM      6  C   UNL d   1       0.378   1.141  -1.334  0.00  0.00     0.080 A 
ATOM      7  C   UNL d   1      -0.736   3.997  -7.468  0.00  0.00     0.075 A 
ATOM      8  C   UNL d   1      -0.036   0.576  -2.543  0.00  0.00     0.041 A 
ATOM      9  C   UNL d   1      -0.910   2.677  -7.033  0.00  0.00     0.041 A 
ATOM     10  C   UNL d   1      -0.254   4.746  -5.183  0.00  0.00     0.015 A 
ATOM     11  C   UNL d   1       0.144   3.405  -2.238  0.00  0.00     0.015 A 
ATOM     12  O   UNL d   1      -0.886   0.043  -5.440  0.00  0.00    -0.287 OA
ATOM     13  C   UNL d   1      -0.364   5.009  -6.555  0.00  0.00     0.026 A 
ATOM     14  C   UNL d   1       0.440   2.544  -1.170  0.00  0.00     0.026 A 
ENDROOT
BRANCH   6  15
ATOM     15  S   UNL d   1       1.125   0.088  -0.095  0.00  0.00     0.261 S 
ATOM     16  O   UNL d   1       1.518   0.949   1.006  0.00  0.00    -0.200 OA
ATOM     17  O   UNL d   1       2.123  -0.673  -0.810  0.00  0.00    -0.200 OA
BRANCH  15  18
ATOM     18  N   UNL d   1      -0.130  -0.925   0.406  0.00  0.00    -0.303 N 
BRANCH  18  19
ATOM     19  C   UNL d   1      -0.336  -2.228  -0.304  0.00  0.00     0.161 C 
BRANCH  19  20
ATOM     20  C   UNL d   1       0.808  -3.239  -0.127  0.00  0.00     0.184 C 
BRANCH  20  21
ATOM     21  O   UNL d   1       1.007  -3.571   1.245  0.00  0.00    -0.399 OA
ATOM     22  H   UNL d   1       1.889  -3.981   1.300  0.00  0.00     0.209 HD
ENDBRANCH  20  21
ENDBRANCH  19  20
ENDBRANCH  18  19
BRANCH  18  23
ATOM     23  C   UNL d   1      -0.464  -0.987   1.865  0.00  0.00     0.161 C 
BRANCH  23  24
ATOM     24  C   UNL d   1      -1.017   0.321   2.445  0.00  0.00     0.184 C 
BRANCH  24  25
ATOM     25  O   UNL d   1      -2.202   0.734   1.767  0.00  0.00    -0.399 OA
ATOM     26  H   UNL d   1      -2.430   1.610   2.123  0.00  0.00     0.209 HD
ENDBRANCH  24  25
ENDBRANCH  23  24
ENDBRANCH  18  23
ENDBRANCH  15  18
ENDBRANCH   6  15
BRANCH   7  27
ATOM     27  S   UNL d   1      -0.765   4.333  -9.223  0.00  0.00     0.243 S 
ATOM     28  O   UNL d   1       0.391   5.149  -9.527  0.00  0.00    -0.206 OA
ATOM     29  O   UNL d   1      -0.954   3.059  -9.870  0.00  0.00    -0.206 OA
BRANCH  27  30
ATOM     30  N   UNL d   1      -2.187   5.308  -9.505  0.00  0.00    -0.202 NA
BRANCH  30  31
ATOM     31  C   UNL d   1      -2.024   6.703  -8.937  0.00  0.00     0.133 C 
BRANCH  31  32
ATOM     32  C   UNL d   1      -3.239   7.625  -9.049  0.00  0.00     0.179 C 
BRANCH  32  33
ATOM     33  O   UNL d   1      -2.953   8.834  -8.344  0.00  0.00    -0.400 OA
ATOM     34  H   UNL d   1      -3.724   9.418  -8.445  0.00  0.00     0.209 HD
ENDBRANCH  32  33
ENDBRANCH  31  32
ENDBRANCH  30  31
BRANCH  30  35
ATOM     35  C   UNL d   1      -2.552   5.379 -10.973  0.00  0.00     0.133 C 
BRANCH  35  36
ATOM     36  C   UNL d   1      -3.015   4.058 -11.592  0.00  0.00     0.179 C 
BRANCH  36  37
ATOM     37  O   UNL d   1      -3.590   4.316 -12.875  0.00  0.00    -0.400 OA
ATOM     38  H   UNL d   1      -3.724   3.447 -13.295  0.00  0.00     0.209 HD
ENDBRANCH  36  37
ENDBRANCH  35  36
ENDBRANCH  30  35
ENDBRANCH  27  30
ENDBRANCH   7  27
TORSDOF 16
