REMARK  1 active torsions:
REMARK  status: ('A' for Active; 'I' for Inactive)
REMARK    1  A    between atoms: C_7  and  C_3 
ROOT
ATOM      1  N   UNL d   1       2.201  -0.243   0.227  0.00  0.00    -0.336 N 
ATOM      2  C   UNL d   1       1.332   0.802   0.078  0.00  0.00     0.255 C 
ATOM      3  C   UNL d   1       1.840  -1.577  -0.143  0.00  0.00     0.196 C 
ATOM      4  N   UNL d   1       0.517  -1.883   0.362  0.00  0.00    -0.267 NA
ATOM      5  C   UNL d   1      -0.101   0.454   0.010  0.00  0.00     0.053 A 
ATOM      6  C   UNL d   1      -0.454  -0.898   0.118  0.00  0.00     0.026 A 
ATOM      7  O   UNL d   1       1.728   1.959   0.021  0.00  0.00    -0.268 OA
ATOM      8  C   UNL d   1      -1.070   1.454  -0.121  0.00  0.00     0.019 A 
ATOM      9  C   UNL d   1      -1.813  -1.227   0.144  0.00  0.00     0.024 A 
ATOM     10  C   UNL d   1      -2.419   1.104  -0.127  0.00  0.00     0.001 A 
ATOM     11  C   UNL d   1      -2.789  -0.234   0.006  0.00  0.00     0.002 A 
ATOM     12  H   UNL d   1       3.173   0.024   0.166  0.00  0.00     0.164 HD
ATOM     13  H   UNL d   1       0.205  -2.813   0.101  0.00  0.00     0.130 HD
ENDROOT
BRANCH   3  14
ATOM     14  C   UNL d   1       2.830  -2.571   0.431  0.00  0.00    -0.019 A 
ATOM     15  C   UNL d   1       3.570  -3.417  -0.411  0.00  0.00     0.036 A 
ATOM     16  C   UNL d   1       4.489  -4.329   0.124  0.00  0.00     0.056 A 
ATOM     17 CL   UNL d   1       5.358  -5.330  -0.987  0.00  0.00    -0.083 Cl
ATOM     18  C   UNL d   1       4.679  -4.407   1.508  0.00  0.00     0.055 A 
ATOM     19  C   UNL d   1       3.945  -3.573   2.354  0.00  0.00     0.026 A 
ATOM     20 CL   UNL d   1       5.797  -5.506   2.232  0.00  0.00    -0.083 Cl
ATOM     21  C   UNL d   1       3.029  -2.665   1.820  0.00  0.00     0.012 A 
ENDBRANCH   3  14
TORSDOF 1
