REMARK  3 active torsions:
REMARK  status: ('A' for Active; 'I' for Inactive)
REMARK    1  A    between atoms: S_12  and  C_6 
REMARK    2  A    between atoms: C_14  and  S_12 
REMARK    3  A    between atoms: C_15  and  C_14 
ROOT
ATOM      1  C   UNL d   1       0.223  -0.793   0.226  0.00  0.00     0.075 A 
ATOM      2  N   UNL d   1       2.287   0.163   0.362  0.00  0.00    -0.263 N 
ATOM      3  HN  UNL d   1       3.297   0.295   0.412  1.00  0.00     0.194 HD
ATOM      4  C   UNL d   1       0.078   0.579   0.287  0.00  0.00     0.186 A 
ATOM      5  O   UNL d   1       1.311   1.149   0.368  0.00  0.00    -0.218 OA
ATOM      6  C   UNL d   1      -0.958  -1.526   0.141  0.00  0.00     0.087 A 
ATOM      7  C   UNL d   1       1.625  -0.999   0.276  0.00  0.00     0.046 A 
ATOM      8  N   UNL d   1      -1.068   1.275   0.270  0.00  0.00    -0.330 N 
ATOM      9  HN  UNL d   1      -1.123   2.293   0.317  1.00  0.00     0.168 HD
ATOM     10  N   UNL d   1      -2.144  -0.880   0.119  0.00  0.00    -0.346 N 
ATOM     11  HN  UNL d   1      -3.022  -1.395   0.055  1.00  0.00     0.167 HD
ATOM     12  C   UNL d   1      -2.132   0.466   0.183  0.00  0.00     0.183 A 
ATOM     13  C   UNL d   1       2.378  -2.276   0.243  0.00  0.00     0.071 C 
ENDROOT
BRANCH   6  14
ATOM     14  S   UNL d   1      -0.863  -3.283   0.065  0.00  0.00    -0.107 SA
BRANCH  14  15
ATOM     15  C   UNL d   1      -2.619  -3.768  -0.002  0.00  0.00     0.119 C 
BRANCH  15  16
ATOM     16  C   UNL d   1      -2.707  -5.277  -0.005  0.00  0.00    -0.049 A 
ATOM     17  C   UNL d   1      -2.780  -5.988   1.201  0.00  0.00     0.008 A 
ATOM     18  C   UNL d   1      -2.757  -7.385   1.204  0.00  0.00     0.007 A 
ATOM     19  C   UNL d   1      -2.658  -8.097   0.004  0.00  0.00    -0.062 A 
ATOM     20  C   UNL d   1      -2.592  -7.391  -1.202  0.00  0.00     0.007 A 
ATOM     21  C   UNL d   1      -2.608  -9.596   0.025  0.00  0.00     0.048 C 
ATOM     22  C   UNL d   1      -2.616  -5.994  -1.207  0.00  0.00     0.008 A 
ENDBRANCH  15  16
ENDBRANCH  14  15
ENDBRANCH   6  14
TORSDOF 3
