REMARK  4 active torsions:
REMARK  status: ('A' for Active; 'I' for Inactive)
REMARK    1  A    between atoms: C_8  and  N_1 
REMARK    2  A    between atoms: C_7  and  N_3 
REMARK    3  A    between atoms: N_12  and  C_4 
REMARK    4  A    between atoms: C_9  and  C_7 
ROOT
ATOM      1  N   UNL d   1      -0.592   1.280   0.078  0.00  0.00    -0.251 N 
ATOM      2  C   UNL d   1      -1.368   0.106   0.216  0.00  0.00     0.338 A 
ATOM      3  N   UNL d   1      -0.691  -1.101   0.067  0.00  0.00    -0.261 N 
ATOM      4  C   UNL d   1       0.789   1.247  -0.104  0.00  0.00     0.094 A 
ATOM      5  C   UNL d   1       0.675  -1.196  -0.065  0.00  0.00     0.254 A 
ATOM      6  C   UNL d   1       1.412   0.062  -0.150  0.00  0.00     0.117 A 
ATOM      7  O   UNL d   1      -2.591   0.128   0.395  0.00  0.00    -0.246 OA
ATOM      8  O   UNL d   1       1.310  -2.247  -0.107  0.00  0.00    -0.268 OA
ENDROOT
BRANCH   3   9
ATOM      9  C   UNL d   1      -1.461  -2.346   0.054  0.00  0.00     0.178 C 
BRANCH   9  10
ATOM     10  C   UNL d   1      -1.863  -2.775  -1.344  0.00  0.00    -0.001 A 
ATOM     11  C   UNL d   1      -1.419  -3.991  -1.871  0.00  0.00     0.124 A 
ATOM     12  F   UNL d   1      -0.672  -4.816  -1.125  0.00  0.00    -0.205 F 
ATOM     13  C   UNL d   1      -1.747  -4.388  -3.167  0.00  0.00     0.043 A 
ATOM     14  C   UNL d   1      -2.546  -3.570  -3.962  0.00  0.00     0.003 A 
ATOM     15  C   UNL d   1      -3.033  -2.371  -3.444  0.00  0.00     0.001 A 
ATOM     16  C   UNL d   1      -2.701  -1.980  -2.143  0.00  0.00     0.012 A 
ENDBRANCH   9  10
ENDBRANCH   3   9
BRANCH   1  17
ATOM     17  C   UNL d   1      -1.314   2.521   0.052  0.00  0.00     0.084 A 
ATOM     18  C   UNL d   1      -2.100   2.927   1.137  0.00  0.00     0.143 A 
ATOM     19  F   UNL d   1      -2.126   2.202   2.266  0.00  0.00    -0.204 F 
ATOM     20  C   UNL d   1      -2.803   4.130   1.103  0.00  0.00     0.044 A 
ATOM     21  C   UNL d   1      -2.736   4.942  -0.030  0.00  0.00     0.003 A 
ATOM     22  C   UNL d   1      -1.953   4.554  -1.117  0.00  0.00     0.002 A 
ATOM     23  C   UNL d   1      -1.237   3.355  -1.074  0.00  0.00     0.033 A 
ENDBRANCH   1  17
BRANCH   4  24
ATOM     24  N   UNL d   1       1.553   2.404  -0.186  0.00  0.00    -0.288 NA
ATOM     25  H   UNL d   1       1.139   3.177   0.330  0.00  0.00     0.125 HD
ATOM     26  H   UNL d   1       2.531   2.274   0.060  0.00  0.00     0.125 HD
ENDBRANCH   4  24
TORSDOF 4
