REMARK  5 active torsions:
REMARK  status: ('A' for Active; 'I' for Inactive)
REMARK    1  A    between atoms: C_9  and  C_1 
REMARK       I    between atoms: C_2  and  N_6 
REMARK    2  A    between atoms: O_12  and  C_2 
REMARK    3  A    between atoms: N_6  and  N_3 
REMARK    4  A    between atoms: O_15  and  C_5 
REMARK    5  A    between atoms: C_16  and  O_12 
ROOT
ATOM      1  N   UNL d   1      -3.408  -2.444  -0.081  0.00  0.00    -0.307 N 
ATOM      2  HN  UNL d   1      -3.915  -1.559  -0.059  1.00  0.00     0.186 HD
ATOM      3  C   UNL d   1      -2.116  -2.485  -0.109  0.00  0.00     0.121 C 
ENDROOT
BRANCH   3   4
ATOM      4  C   UNL d   1      -1.341  -1.229  -0.076  0.00  0.00     0.015 A 
ATOM      5  C   UNL d   1      -1.967   0.025  -0.045  0.00  0.00     0.077 A 
ATOM      6  C   UNL d   1      -1.204   1.192  -0.005  0.00  0.00     0.039 A 
ATOM      7  C   UNL d   1       0.188   1.110   0.009  0.00  0.00     0.026 A 
ATOM      8  C   UNL d   1       0.809  -0.139  -0.018  0.00  0.00     0.035 A 
ATOM      9  C   UNL d   1       0.055  -1.312  -0.061  0.00  0.00     0.039 A 
ATOM     10 CL   UNL d   1       2.527  -0.235   0.006  0.00  0.00    -0.084 Cl
BRANCH   5  11
ATOM     11  O   UNL d   1      -3.323   0.195  -0.049  0.00  0.00    -0.360 OA
ATOM     12  H   UNL d   1      -3.752  -0.693  -0.051  0.00  0.00     0.217 HD
ENDBRANCH   5  11
ENDBRANCH   3   4
BRANCH   1  13
ATOM     13  N   UNL d   1      -4.056  -3.636  -0.084  0.00  0.00    -0.246 N 
ATOM     14  C   UNL d   1      -5.412  -3.675   0.147  0.00  0.00     0.379 C 
ATOM     15  O   UNL d   1      -6.144  -2.704   0.282  0.00  0.00    -0.237 OA
ATOM     16  H   UNL d   1      -3.554  -4.514  -0.098  0.00  0.00     0.192 HD
BRANCH  14  17
ATOM     17  O   UNL d   1      -5.808  -4.971   0.259  0.00  0.00    -0.303 OA
BRANCH  17  18
ATOM     18  C   UNL d   1      -7.162  -5.154   0.698  0.00  0.00     0.176 C 
ATOM     19  C   UNL d   1      -7.197  -5.171   2.215  0.00  0.00     0.034 C 
ENDBRANCH  17  18
ENDBRANCH  14  17
ENDBRANCH   1  13
TORSDOF 5
