REMARK  6 active torsions:
REMARK  status: ('A' for Active; 'I' for Inactive)
REMARK       I    between atoms: N_2  and  C_1 
REMARK    1  A    between atoms: O_4  and  C_1 
REMARK       I    between atoms: C_3  and  N_12 
REMARK    2  A    between atoms: C_11  and  C_3 
REMARK    3  A    between atoms: C_10  and  O_4 
REMARK    4  A    between atoms: C_16  and  N_5 
REMARK    5  A    between atoms: N_12  and  C_15 
REMARK    6  A    between atoms: C_15  and  C_16 
ROOT
ATOM      1  C   UNL d   1       0.900   0.068  -0.234  0.00  0.00     0.363 C 
ATOM      2  N   UNL d   1       0.431   1.359  -0.346  0.00  0.00    -0.325 N 
ATOM      3  N   UNL d   1      -0.391   4.184  -0.619  0.00  0.00     0.093 N 
ATOM      4  O   UNL d   1       1.610  -0.448  -1.086  0.00  0.00    -0.238 OA
ATOM      5  C   UNL d   1       0.671   2.080  -1.595  0.00  0.00     0.158 C 
ATOM      6  C   UNL d   1      -0.611   1.910   0.522  0.00  0.00     0.158 C 
ATOM      7  C   UNL d   1      -0.481   3.440   0.662  0.00  0.00     0.292 C 
ATOM      8  C   UNL d   1       0.731   3.607  -1.399  0.00  0.00     0.292 C 
ENDROOT
BRANCH   3   9
ATOM      9  C   UNL d   1      -1.648   4.145  -1.394  0.00  0.00     0.292 C 
BRANCH   9  10
ATOM     10  C   UNL d   1      -2.817   4.885  -0.715  0.00  0.00     0.153 C 
BRANCH  10  11
ATOM     11  N   UNL d   1      -4.058   4.769  -1.463  0.00  0.00    -0.355 N 
ATOM     12  C   UNL d   1      -4.867   3.660  -1.300  0.00  0.00     0.251 C 
ATOM     13  O   UNL d   1      -4.569   2.712  -0.583  0.00  0.00    -0.268 OA
ATOM     14  H   UNL d   1      -4.401   5.582  -1.950  0.00  0.00     0.162 HD
BRANCH  12  15
ATOM     15  C   UNL d   1      -6.170   3.673  -2.020  0.00  0.00     0.032 A 
ATOM     16  C   UNL d   1      -6.339   4.335  -3.242  0.00  0.00     0.017 A 
ATOM     17  C   UNL d   1      -7.574   4.289  -3.895  0.00  0.00     0.001 A 
ATOM     18  C   UNL d   1      -8.638   3.582  -3.333  0.00  0.00     0.000 A 
ATOM     19  C   UNL d   1      -8.474   2.920  -2.117  0.00  0.00     0.001 A 
ATOM     20  C   UNL d   1      -7.242   2.962  -1.463  0.00  0.00     0.017 A 
ENDBRANCH  12  15
ENDBRANCH  10  11
ENDBRANCH   9  10
ENDBRANCH   3   9
BRANCH   1  21
ATOM     21  O   UNL d   1       0.525  -0.552   0.918  0.00  0.00    -0.294 OA
BRANCH  21  22
ATOM     22  C   UNL d   1       1.018  -1.888   1.210  0.00  0.00     0.061 C 
ATOM     23  C   UNL d   1       2.547  -1.892   1.378  0.00  0.00     0.046 C 
ATOM     24  C   UNL d   1       0.390  -2.283   2.558  0.00  0.00     0.046 C 
ATOM     25  C   UNL d   1       0.547  -2.906   0.161  0.00  0.00     0.046 C 
ENDBRANCH  21  22
ENDBRANCH   1  21
TORSDOF 6
