REMARK  3 active torsions:
REMARK  status: ('A' for Active; 'I' for Inactive)
REMARK    1  A    between atoms: C_7  and  C_1 
REMARK    2  A    between atoms: C_9  and  N_4 
REMARK    3  A    between atoms: S_11  and  C_5 
REMARK       I    between atoms: N_8  and  C_7 
ROOT
ATOM      1  C   UNL d   1      -0.136   1.132   0.068  0.00  0.00     0.084 A 
ATOM      2  N   UNL d   1       1.020  -0.821   0.333  0.00  0.00    -0.287 N 
ATOM      3  HN  UNL d   1       1.778  -1.487   0.477  1.00  0.00     0.188 HD
ATOM      4  N   UNL d   1      -0.266  -1.093  -0.004  0.00  0.00    -0.266 N 
ATOM      5  C   UNL d   1       1.074   0.504   0.435  0.00  0.00     0.102 A 
ATOM      6  C   UNL d   1      -0.979   0.064  -0.201  0.00  0.00     0.136 A 
ENDROOT
BRANCH   1   7
ATOM      7  C   UNL d   1      -0.567   2.521   0.083  0.00  0.00     0.258 C 
ATOM      8  N   UNL d   1       0.326   3.512  -0.313  0.00  0.00    -0.344 N 
ATOM      9  C   UNL d   1      -0.021   4.905  -0.029  0.00  0.00     0.152 C 
ATOM     10  C   UNL d   1       1.274   3.368  -1.424  0.00  0.00     0.152 C 
ATOM     11  C   UNL d   1       1.252   5.732   0.164  0.00  0.00     0.187 C 
ATOM     12  O   UNL d   1       2.103   5.636  -0.991  0.00  0.00    -0.388 OA
ATOM     13  C   UNL d   1       2.497   4.272  -1.217  0.00  0.00     0.187 C 
ATOM     14  O   UNL d   1      -1.700   2.803   0.474  0.00  0.00    -0.267 OA
ENDBRANCH   1   7
BRANCH   5  15
ATOM     15  S   UNL d   1       2.521   1.283   1.046  0.00  0.00    -0.114 SA
ATOM     16  C   UNL d   1       3.660  -0.106   1.224  0.00  0.00     0.097 C 
ENDBRANCH   5  15
BRANCH   4  17
ATOM     17  C   UNL d   1      -0.723  -2.439  -0.090  0.00  0.00     0.056 A 
ATOM     18  C   UNL d   1      -2.061  -2.738  -0.381  0.00  0.00     0.031 A 
ATOM     19  C   UNL d   1      -2.481  -4.071  -0.440  0.00  0.00     0.002 A 
ATOM     20  C   UNL d   1      -1.575  -5.107  -0.211  0.00  0.00     0.000 A 
ATOM     21  C   UNL d   1      -0.245  -4.815   0.077  0.00  0.00     0.002 A 
ATOM     22  C   UNL d   1       0.182  -3.488   0.139  0.00  0.00     0.031 A 
ENDBRANCH   4  17
TORSDOF 3
