REMARK  2 active torsions:
REMARK  status: ('A' for Active; 'I' for Inactive)
REMARK    1  A    between atoms: C_8  and  C_3 
REMARK    2  A    between atoms: C_9  and  C_4 
ROOT
ATOM      1  N   UNL d   1      -1.141   1.346   0.041  0.00  0.00    -0.359 N 
ATOM      2  HN  UNL d   1      -1.139   2.366   0.072  1.00  0.00     0.166 HD
ATOM      3  C   UNL d   1      -1.149  -1.474  -0.032  0.00  0.00    -0.012 A 
ATOM      4  C   UNL d   1      -2.305   0.666   0.042  0.00  0.00     0.014 A 
ATOM      5  C   UNL d   1      -2.339  -0.723   0.031  0.00  0.00     0.038 A 
ATOM      6  C   UNL d   1       0.085  -0.750  -0.075  0.00  0.00     0.002 A 
ATOM      7  C   UNL d   1       0.010   0.667  -0.001  0.00  0.00     0.043 A 
ATOM      8  C   UNL d   1       1.382  -1.319  -0.194  0.00  0.00     0.014 A 
ATOM      9  C   UNL d   1       1.181   1.412   0.032  0.00  0.00     0.030 A 
ATOM     10  C   UNL d   1       2.546  -0.549  -0.134  0.00  0.00     0.001 A 
ATOM     11  C   UNL d   1       2.444   0.825  -0.010  0.00  0.00     0.002 A 
ENDROOT
BRANCH   3  12
ATOM     12  C   UNL d   1      -1.260  -2.967  -0.036  0.00  0.00    -0.025 A 
ATOM     13  C   UNL d   1      -0.379  -3.794   0.684  0.00  0.00     0.012 A 
ATOM     14  C   UNL d   1      -0.466  -5.190   0.634  0.00  0.00     0.001 A 
ATOM     15  C   UNL d   1      -1.493  -5.800  -0.076  0.00  0.00     0.000 A 
ATOM     16  C   UNL d   1      -2.425  -5.013  -0.742  0.00  0.00     0.001 A 
ATOM     17  C   UNL d   1      -2.297  -3.619  -0.737  0.00  0.00     0.012 A 
ENDBRANCH   3  12
BRANCH   4  18
ATOM     18  C   UNL d   1      -3.595   1.464   0.070  0.00  0.00     0.027 C 
ATOM     19  C   UNL d   1      -3.682   2.313   1.339  0.00  0.00     0.016 C 
ATOM     20  C   UNL d   1      -3.735   2.338  -1.179  0.00  0.00     0.016 C 
ENDBRANCH   4  18
TORSDOF 2
