REMARK  7 active torsions:
REMARK  status: ('A' for Active; 'I' for Inactive)
REMARK    1  A    between atoms: C_9  and  C_1 
REMARK    2  A    between atoms: C_3  and  N_2 
REMARK    3  A    between atoms: C_14  and  C_4 
REMARK    4  A    between atoms: C_17  and  C_10 
REMARK    5  A    between atoms: C_13  and  C_16 
REMARK    6  A    between atoms: O_26  and  C_14 
REMARK    7  A    between atoms: C_30  and  O_26 
ROOT
ATOM      1  C   UNL d   1       2.097   1.382  -0.021  0.00  0.00     0.171 A 
ATOM      2  N   UNL d   1       2.362   2.289   0.893  0.00  0.00    -0.334 N 
ATOM      3  HN  UNL d   1       1.797   2.477   1.721  1.00  0.00     0.168 HD
ATOM      4  C   UNL d   1       3.535   2.951   0.550  0.00  0.00     0.051 A 
ATOM      5  S   UNL d   1       3.218   1.236  -1.302  0.00  0.00    -0.062 SA
ATOM      6  C   UNL d   1       4.118   2.530  -0.632  0.00  0.00     0.083 A 
ENDROOT
BRANCH   1   7
ATOM      7  N   UNL d   1       0.976   0.540   0.003  0.00  0.00    -0.228 N 
ATOM      8  C   UNL d   1      -0.234   0.657   0.649  0.00  0.00     0.160 C 
ATOM      9  C   UNL d   1      -0.854  -0.591   0.566  0.00  0.00     0.090 C 
ATOM     10  C   UNL d   1       0.011  -1.353  -0.233  0.00  0.00     0.127 C 
ATOM     11  N   UNL d   1       1.071  -0.662  -0.640  0.00  0.00    -0.302 N 
ATOM     12  HN  UNL d   1       1.797  -0.964  -1.290  1.00  0.00     0.186 HD
BRANCH   8  13
ATOM     13  C   UNL d   1      -0.738   1.904   1.243  0.00  0.00     0.435 C 
ATOM     14  F   UNL d   1      -0.028   3.010   0.937  0.00  0.00    -0.165 F 
ATOM     15  F   UNL d   1      -1.995   2.164   0.785  0.00  0.00    -0.165 F 
ATOM     16  F   UNL d   1      -0.818   1.827   2.593  0.00  0.00    -0.165 F 
ENDBRANCH   8  13
BRANCH   9  17
ATOM     17  C   UNL d   1      -2.097  -0.986   1.186  0.00  0.00     0.297 C 
ATOM     18  O   UNL d   1      -2.757  -0.242   1.899  0.00  0.00    -0.259 OA
BRANCH  17  19
ATOM     19  O   UNL d   1      -2.384  -2.297   0.950  0.00  0.00    -0.318 OA
BRANCH  19  20
ATOM     20  C   UNL d   1      -3.370  -2.870   1.817  0.00  0.00     0.174 C 
ATOM     21  C   UNL d   1      -2.678  -3.342   3.083  0.00  0.00     0.034 C 
ENDBRANCH  19  20
ENDBRANCH  17  19
ENDBRANCH   9  17
ENDBRANCH   1   7
BRANCH   4  22
ATOM     22  C   UNL d   1       4.106   3.989   1.400  0.00  0.00    -0.008 A 
ATOM     23  C   UNL d   1       3.987   3.890   2.795  0.00  0.00     0.029 A 
ATOM     24  C   UNL d   1       4.536   4.871   3.639  0.00  0.00     0.048 A 
ATOM     25  C   UNL d   1       5.208   5.962   3.066  0.00  0.00     0.016 A 
ATOM     26  C   UNL d   1       5.329   6.070   1.682  0.00  0.00     0.002 A 
ATOM     27  C   UNL d   1       4.781   5.089   0.854  0.00  0.00     0.014 A 
BRANCH  24  28
ATOM     28  C   UNL d   1       4.409   4.775   5.139  0.00  0.00     0.417 C 
ATOM     29  F   UNL d   1       3.755   3.661   5.567  0.00  0.00    -0.166 F 
ATOM     30  F   UNL d   1       5.622   4.756   5.761  0.00  0.00    -0.166 F 
ATOM     31  F   UNL d   1       3.736   5.833   5.672  0.00  0.00    -0.166 F 
ENDBRANCH  24  28
ENDBRANCH   4  22
TORSDOF 7
