REMARK  2 active torsions:
REMARK  status: ('A' for Active; 'I' for Inactive)
REMARK    1  A    between atoms: C_7  and  N_1 
REMARK    2  A    between atoms: C_12  and  C_2 
ROOT
ATOM      1  N   UNL d   1       2.437  -0.652  -0.324  0.00  0.00    -0.247 N 
ATOM      2  C   UNL d   1       2.425   0.731  -0.120  0.00  0.00     0.127 A 
ATOM      3  C   UNL d   1       1.256  -1.402  -0.346  0.00  0.00     0.267 A 
ATOM      4  N   UNL d   1       1.320   1.409   0.004  0.00  0.00    -0.340 N 
ATOM      5  HN  UNL d   1       1.348   2.420   0.135  1.00  0.00     0.167 HD
ATOM      6  C   UNL d   1       0.006  -0.645  -0.185  0.00  0.00     0.059 A 
ATOM      7  C   UNL d   1       0.096   0.735  -0.043  0.00  0.00     0.049 A 
ATOM      8  O   UNL d   1       1.185  -2.622  -0.490  0.00  0.00    -0.267 OA
ATOM      9  C   UNL d   1      -1.236  -1.295  -0.174  0.00  0.00     0.019 A 
ATOM     10  C   UNL d   1      -1.084   1.476   0.067  0.00  0.00     0.030 A 
ATOM     11  C   UNL d   1      -2.405  -0.546  -0.051  0.00  0.00     0.001 A 
ATOM     12  C   UNL d   1      -2.329   0.841   0.059  0.00  0.00     0.002 A 
ENDROOT
BRANCH   1  13
ATOM     13  C   UNL d   1       3.636  -1.406  -0.323  0.00  0.00     0.122 A 
ATOM     14  N   UNL d   1       4.348  -1.439   0.830  0.00  0.00    -0.351 N 
ATOM     15  C   UNL d   1       5.453  -2.216   0.858  0.00  0.00     0.089 A 
ATOM     16  HN  UNL d   1       4.060  -0.897   1.645  1.00  0.00     0.166 HD
ATOM     17  C   UNL d   1       5.915  -2.937  -0.228  0.00  0.00     0.018 A 
ATOM     18  C   UNL d   1       5.205  -2.855  -1.419  0.00  0.00     0.012 A 
ATOM     19  C   UNL d   1       4.044  -2.078  -1.488  0.00  0.00    -0.017 A 
ATOM     20  C   UNL d   1       3.339  -1.957  -2.809  0.00  0.00     0.052 C 
ENDBRANCH   1  13
BRANCH   2  21
ATOM     21  C   UNL d   1       3.698   1.522  -0.081  0.00  0.00     0.009 A 
ATOM     22  C   UNL d   1       4.724   1.355  -1.020  0.00  0.00     0.015 A 
ATOM     23  C   UNL d   1       5.877   2.142  -0.952  0.00  0.00     0.001 A 
ATOM     24  C   UNL d   1       5.992   3.132   0.022  0.00  0.00     0.000 A 
ATOM     25  C   UNL d   1       4.952   3.342   0.926  0.00  0.00     0.001 A 
ATOM     26  C   UNL d   1       3.810   2.541   0.875  0.00  0.00     0.015 A 
ENDBRANCH   2  21
TORSDOF 2
