REMARK  3 active torsions:
REMARK  status: ('A' for Active; 'I' for Inactive)
REMARK    1  A    between atoms: C_7  and  C_1 
REMARK    2  A    between atoms: C_11  and  C_6 
REMARK       I    between atoms: C_10  and  N_12 
REMARK    3  A    between atoms: N_12  and  C_18 
ROOT
ATOM      1  C   UNL d   1       0.986   0.761   0.110  0.00  0.00     0.141 C 
ATOM      2  N   UNL d   1      -0.347   1.234  -0.045  0.00  0.00    -0.351 N 
ATOM      3  N   UNL d   1       1.056  -0.529   0.253  0.00  0.00    -0.303 N 
ATOM      4  HN  UNL d   1       1.899  -1.097   0.335  1.00  0.00     0.182 HD
ATOM      5  N   UNL d   1      -0.252  -0.964   0.270  0.00  0.00    -0.211 NA
ATOM      6  C   UNL d   1      -1.202   0.069  -0.150  0.00  0.00     0.209 C 
ATOM      7  H   UNL d   1      -0.563   2.208  -0.192  0.00  0.00     0.163 HD
ATOM      8  H   UNL d   1      -0.400  -1.850  -0.212  0.00  0.00     0.149 HD
ENDROOT
BRANCH   6   9
ATOM      9  C   UNL d   1      -1.655  -0.056  -1.588  0.00  0.00    -0.020 A 
ATOM     10  C   UNL d   1      -0.742  -0.179  -2.651  0.00  0.00     0.013 A 
ATOM     11  C   UNL d   1      -1.179  -0.247  -3.977  0.00  0.00     0.030 A 
ATOM     12  C   UNL d   1      -2.542  -0.199  -4.280  0.00  0.00     0.034 A 
ATOM     13  C   UNL d   1      -3.457  -0.089  -3.231  0.00  0.00     0.030 A 
ATOM     14  C   UNL d   1      -3.020  -0.017  -1.900  0.00  0.00     0.013 A 
BRANCH  12  15
ATOM     15  N   UNL d   1      -2.900  -0.263  -5.641  0.00  0.00    -0.328 N 
ATOM     16  C   UNL d   1      -4.175  -0.208  -6.174  0.00  0.00     0.218 C 
ATOM     17  O   UNL d   1      -5.224  -0.100  -5.549  0.00  0.00    -0.274 OA
ATOM     18  C   UNL d   1      -4.195  -0.292  -7.681  0.00  0.00     0.117 C 
ATOM     19  H   UNL d   1      -2.135  -0.344  -6.299  0.00  0.00     0.169 HD
ENDBRANCH  12  15
ENDBRANCH   6   9
BRANCH   1  20
ATOM     20  C   UNL d   1       2.094   1.709  -0.014  0.00  0.00     0.092 A 
ATOM     21  N   UNL d   1       1.755   3.021  -0.182  0.00  0.00    -0.360 N 
ATOM     22  C   UNL d   1       2.807   3.854  -0.376  0.00  0.00     0.105 A 
ATOM     23  HN  UNL d   1       0.789   3.347  -0.165  1.00  0.00     0.165 HD
ATOM     24  C   UNL d   1       4.118   3.404  -0.415  0.00  0.00     0.104 A 
ATOM     25  N   UNL d   1       4.441   2.098  -0.258  0.00  0.00    -0.372 N 
ATOM     26  C   UNL d   1       3.401   1.255  -0.054  0.00  0.00     0.121 A 
ATOM     27  HN  UNL d   1       5.407   1.770  -0.292  1.00  0.00     0.164 HD
ENDBRANCH   1  20
TORSDOF 3
