REMARK  3 active torsions:
REMARK  status: ('A' for Active; 'I' for Inactive)
REMARK    1  A    between atoms: C_2  and  C_1 
REMARK       I    between atoms: N_6  and  C_2 
REMARK    2  A    between atoms: C_9  and  N_6 
REMARK    3  A    between atoms: N_8  and  C_10 
ROOT
ATOM      1  C   UNL d   1      -0.309   4.035   0.039  0.00  0.00     0.061 A 
ATOM      2  C   UNL d   1      -0.973   3.230   1.004  0.00  0.00     0.057 A 
ATOM      3  C   UNL d   1      -0.975   5.076  -0.617  0.00  0.00     0.032 A 
ATOM      4  C   UNL d   1      -2.329   3.503   1.244  0.00  0.00     0.031 A 
ATOM      5  C   UNL d   1      -2.321   5.316  -0.358  0.00  0.00     0.002 A 
ATOM      6  C   UNL d   1      -2.998   4.530   0.568  0.00  0.00     0.002 A 
ENDROOT
BRANCH   1   7
ATOM      7  N   UNL d   1       1.020   3.693  -0.303  0.00  0.00    -0.321 N 
ATOM      8  C   UNL d   1       2.011   4.588  -0.644  0.00  0.00     0.258 C 
ATOM      9  O   UNL d   1       1.861   5.806  -0.720  0.00  0.00    -0.267 OA
ATOM     10  H   UNL d   1       1.294   2.771   0.013  0.00  0.00     0.169 HD
BRANCH   8  11
ATOM     11  C   UNL d   1       3.322   3.973  -0.824  0.00  0.00     0.064 A 
ATOM     12  C   UNL d   1       4.540   4.624  -0.692  0.00  0.00     0.065 A 
ATOM     13  O   UNL d   1       5.569   3.768  -0.940  0.00  0.00    -0.319 OA
ATOM     14  C   UNL d   1       4.947   6.002  -0.336  0.00  0.00     0.077 C 
ATOM     15  C   UNL d   1       5.029   2.557  -1.235  0.00  0.00     0.050 A 
ATOM     16  C   UNL d   1       3.655   2.626  -1.175  0.00  0.00     0.051 A 
ATOM     17  C   UNL d   1       5.989   1.482  -1.551  0.00  0.00     0.076 C 
ENDBRANCH   8  11
ENDBRANCH   1   7
BRANCH   2  18
ATOM     18  N   UNL d   1      -0.279   2.200   1.659  0.00  0.00    -0.375 N 
ATOM     19  C   UNL d   1      -1.032   1.098   2.293  0.00  0.00     0.149 C 
ATOM     20  C   UNL d   1      -0.066  -0.086   2.487  0.00  0.00     0.187 C 
ATOM     21  O   UNL d   1       1.088   0.281   3.268  0.00  0.00    -0.388 OA
ATOM     22  C   UNL d   1       1.778   1.396   2.679  0.00  0.00     0.187 C 
ATOM     23  C   UNL d   1       0.845   2.613   2.538  0.00  0.00     0.149 C 
ENDBRANCH   2  18
TORSDOF 3
