REMARK  4 active torsions:
REMARK  status: ('A' for Active; 'I' for Inactive)
REMARK    1  A    between atoms: C_2  and  C_1 
REMARK    2  A    between atoms: C_5  and  C_1 
REMARK    3  A    between atoms: C_7  and  C_2 
REMARK    4  A    between atoms: O_8  and  N_3 
ROOT
ATOM      1  C   UNL d   1       1.046   0.077  -0.150  0.00  0.00     0.115 C 
ATOM      2  N   UNL d   1       0.407   1.212  -0.264  0.00  0.00    -0.265 N 
ATOM      3  HN  UNL d   1       0.866   2.122  -0.224  1.00  0.00     0.194 HD
ENDROOT
BRANCH   1   4
ATOM      4  C   UNL d   1       0.342  -1.272  -0.162  0.00  0.00     0.211 C 
ATOM      5  O   UNL d   1       0.749  -2.137  -0.929  0.00  0.00    -0.285 OA
BRANCH   4   6
ATOM      6  C   UNL d   1      -0.834  -1.526   0.708  0.00  0.00     0.016 A 
ATOM      7  C   UNL d   1      -1.825  -2.400   0.239  0.00  0.00     0.015 A 
ATOM      8  C   UNL d   1      -3.003  -2.576   0.966  0.00  0.00     0.001 A 
ATOM      9  C   UNL d   1      -3.185  -1.899   2.171  0.00  0.00     0.000 A 
ATOM     10  C   UNL d   1      -2.183  -1.058   2.660  0.00  0.00     0.001 A 
ATOM     11  C   UNL d   1      -1.005  -0.872   1.933  0.00  0.00     0.015 A 
ENDBRANCH   4   6
ENDBRANCH   1   4
BRANCH   1  12
ATOM     12  C   UNL d   1       2.538   0.111  -0.061  0.00  0.00    -0.004 A 
ATOM     13  C   UNL d   1       3.209   1.245  -0.547  0.00  0.00     0.014 A 
ATOM     14  C   UNL d   1       4.601   1.322  -0.502  0.00  0.00     0.001 A 
ATOM     15  C   UNL d   1       5.336   0.270   0.036  0.00  0.00     0.000 A 
ATOM     16  C   UNL d   1       4.680  -0.860   0.525  0.00  0.00     0.001 A 
ATOM     17  C   UNL d   1       3.282  -0.945   0.475  0.00  0.00     0.014 A 
ENDBRANCH   1  12
BRANCH   2  18
ATOM     18  O   UNL d   1      -0.967   1.051  -0.445  0.00  0.00    -0.289 OA
ATOM     19  H   UNL d   1      -1.296   1.969  -0.434  0.00  0.00     0.244 HD
ENDBRANCH   2  18
TORSDOF 4
