REMARK  4 active torsions:
REMARK  status: ('A' for Active; 'I' for Inactive)
REMARK    1  A    between atoms: C_5  and  N_1 
REMARK    2  A    between atoms: C_2  and  C_8 
REMARK    3  A    between atoms: O_3  and  C_2 
REMARK    4  A    between atoms: C_4  and  O_3 
ROOT
ATOM      1  C   UNL d   1      -1.591  -3.336  -3.741  0.00  0.00     0.298 C 
ATOM      2  O   UNL d   1      -1.246  -4.474  -4.030  0.00  0.00    -0.259 OA
ENDROOT
BRANCH   1   3
ATOM      3  C   UNL d   1      -1.007  -2.554  -2.611  0.00  0.00     0.040 A 
ATOM      4  C   UNL d   1      -1.306  -1.198  -2.400  0.00  0.00     0.020 A 
ATOM      5  C   UNL d   1      -0.607  -0.461  -1.437  0.00  0.00     0.037 A 
ATOM      6  C   UNL d   1       0.392  -1.083  -0.675  0.00  0.00     0.102 A 
ATOM      7  C   UNL d   1       0.665  -2.447  -0.845  0.00  0.00     0.037 A 
ATOM      8  C   UNL d   1      -0.036  -3.177  -1.812  0.00  0.00     0.020 A 
BRANCH   6   9
ATOM      9  N   UNL d   1       1.185  -0.292   0.275  0.00  0.00    -0.116 N 
ATOM     10  O   UNL d   1       2.060  -0.880   0.924  0.00  0.00    -0.532 OA
ATOM     11  O   UNL d   1       0.941   0.920   0.358  0.00  0.00    -0.532 OA
ENDBRANCH   6   9
ENDBRANCH   1   3
BRANCH   1  12
ATOM     12  O   UNL d   1      -2.478  -2.554  -4.449  0.00  0.00    -0.274 OA
BRANCH  12  13
ATOM     13  C   UNL d   1      -2.346  -2.418  -5.853  0.00  0.00     0.097 A 
ATOM     14  C   UNL d   1      -3.409  -1.825  -6.542  0.00  0.00     0.045 A 
ATOM     15  C   UNL d   1      -3.227  -1.383  -7.855  0.00  0.00     0.028 A 
ATOM     16 BR   UNL d   1      -5.092  -1.542  -5.716  0.00  0.00    -0.048 Br
ATOM     17  C   UNL d   1      -1.982  -1.524  -8.483  0.00  0.00    -0.061 A 
ATOM     18  C   UNL d   1      -0.957  -2.209  -7.820  0.00  0.00     0.009 A 
ATOM     19  C   UNL d   1      -1.751  -0.918  -9.837  0.00  0.00     0.048 C 
ATOM     20  C   UNL d   1      -1.133  -2.651  -6.506  0.00  0.00     0.039 A 
ENDBRANCH  12  13
ENDBRANCH   1  12
TORSDOF 4
