REMARK  3 active torsions:
REMARK  status: ('A' for Active; 'I' for Inactive)
REMARK    1  A    between atoms: N_9  and  N_6 
REMARK    2  A    between atoms: C_11  and  N_9 
REMARK    3  A    between atoms: O_18  and  C_12 
ROOT
ATOM      1  C   UNL d   1       0.031   0.789  -0.013  0.00  0.00     0.141 A 
ATOM      2  C   UNL d   1      -1.167  -0.081   0.230  0.00  0.00     0.290 A 
ATOM      3  N   UNL d   1       0.760  -1.393   0.018  0.00  0.00    -0.300 N 
ATOM      4  HN  UNL d   1       1.338  -2.234  -0.012  1.00  0.00     0.186 HD
ATOM      5  N   UNL d   1      -0.620  -1.344   0.186  0.00  0.00    -0.264 N 
ATOM      6  N   UNL d   1       0.127   2.072  -0.152  0.00  0.00    -0.293 N 
ATOM      7  HN  UNL d   1       1.016   2.532  -0.350  1.00  0.00     0.187 HD
ATOM      8  C   UNL d   1       1.176  -0.163  -0.094  0.00  0.00     0.055 A 
ATOM      9  O   UNL d   1      -2.299   0.294   0.438  0.00  0.00    -0.264 OA
ATOM     10  C   UNL d   1       2.575   0.300  -0.240  0.00  0.00     0.072 C 
ATOM     11  H   UNL d   1      -1.149  -2.199   0.330  0.00  0.00     0.190 HD
ENDROOT
BRANCH   6  12
ATOM     12  N   UNL d   1      -1.033   2.768  -0.015  0.00  0.00    -0.300 N 
ATOM     13  H   UNL d   1      -1.837   2.366   0.476  0.00  0.00     0.187 HD
BRANCH  12  14
ATOM     14  C   UNL d   1      -0.997   4.170  -0.091  0.00  0.00     0.048 A 
ATOM     15  C   UNL d   1      -0.072   4.843  -0.897  0.00  0.00     0.034 A 
ATOM     16  C   UNL d   1      -0.053   6.242  -0.969  0.00  0.00     0.039 A 
ATOM     17  C   UNL d   1      -0.944   6.993  -0.204  0.00  0.00     0.068 A 
ATOM     18  C   UNL d   1      -1.853   6.331   0.622  0.00  0.00     0.039 A 
ATOM     19  C   UNL d   1      -1.886   4.934   0.673  0.00  0.00     0.034 A 
BRANCH  17  20
ATOM     20  O   UNL d   1      -1.024   8.358  -0.168  0.00  0.00    -0.356 OA
ATOM     21  C   UNL d   1      -0.147   9.074  -1.029  0.00  0.00     0.210 C 
ENDBRANCH  17  20
ENDBRANCH  12  14
ENDBRANCH   6  12
TORSDOF 3
