REMARK  3 active torsions:
REMARK  status: ('A' for Active; 'I' for Inactive)
REMARK    1  A    between atoms: C_2  and  C_1 
REMARK       I    between atoms: N_5  and  C_2 
REMARK    2  A    between atoms: N_8  and  N_5 
REMARK    3  A    between atoms: C_9  and  N_8 
ROOT
ATOM      1  C   UNL d   1       0.413   2.373   0.727  0.00  0.00     0.274 C 
ATOM      2  N   UNL d   1       1.102   3.475   0.231  0.00  0.00    -0.282 N 
ATOM      3  O   UNL d   1       0.954   1.262   0.717  0.00  0.00    -0.266 OA
ATOM      4  H   UNL d   1       0.593   4.306  -0.052  0.00  0.00     0.184 HD
ENDROOT
BRANCH   2   5
ATOM      5  N   UNL d   1       2.322   3.223  -0.433  0.00  0.00    -0.203 NA
ATOM      6  H   UNL d   1       2.619   2.253  -0.254  0.00  0.00     0.153 HD
BRANCH   5   7
ATOM      7  C   UNL d   1       3.353   4.151  -0.134  0.00  0.00     0.030 A 
ATOM      8  C   UNL d   1       4.687   3.718  -0.182  0.00  0.00     0.049 A 
ATOM      9  C   UNL d   1       5.739   4.622  -0.017  0.00  0.00     0.037 A 
ATOM     10 CL   UNL d   1       7.365   4.058  -0.071  0.00  0.00    -0.084 Cl
ATOM     11  C   UNL d   1       5.489   5.976   0.172  0.00  0.00     0.047 A 
ATOM     12  C   UNL d   1       4.171   6.419   0.193  0.00  0.00     0.037 A 
ATOM     13  C   UNL d   1       3.111   5.521   0.033  0.00  0.00     0.049 A 
ATOM     14 CL   UNL d   1       3.841   8.097   0.389  0.00  0.00    -0.084 Cl
ENDBRANCH   5   7
ENDBRANCH   2   5
BRANCH   1  15
ATOM     15  C   UNL d   1      -0.931   2.628   1.230  0.00  0.00     0.095 A 
ATOM     16  C   UNL d   1      -1.630   3.804   1.444  0.00  0.00     0.057 A 
ATOM     17  C   UNL d   1      -2.925   3.583   2.003  0.00  0.00     0.032 A 
ATOM     18 CL   UNL d   1      -1.092   5.404   1.133  0.00  0.00    -0.083 Cl
ATOM     19  C   UNL d   1      -3.192   2.247   2.188  0.00  0.00     0.052 A 
ATOM     20  S   UNL d   1      -1.889   1.267   1.688  0.00  0.00    -0.095 SA
ENDBRANCH   1  15
TORSDOF 3
