REMARK  10 active torsions:
REMARK  status: ('A' for Active; 'I' for Inactive)
REMARK    1  A    between atoms: C_4  and  C_1 
REMARK    2  A    between atoms: N_3  and  C_2 
REMARK    3  A    between atoms: C_6  and  N_3 
REMARK    4  A    between atoms: O_16  and  C_4 
REMARK    5  A    between atoms: N_5  and  C_7 
REMARK       I    between atoms: C_8  and  N_5 
REMARK    6  A    between atoms: C_18  and  C_8 
REMARK    7  A    between atoms: C_10  and  C_19 
REMARK    8  A    between atoms: O_17  and  C_10 
REMARK    9  A    between atoms: C_20  and  C_18 
REMARK   10  A    between atoms: C_19  and  C_20 
ROOT
ATOM      1  C   UNL d   1       3.501  -0.995  -0.420  0.00  0.00     0.039 A 
ATOM      2  C   UNL d   1       3.913  -0.127   0.613  0.00  0.00     0.056 A 
ATOM      3  C   UNL d   1       4.398  -1.272  -1.464  0.00  0.00     0.026 A 
ATOM      4  C   UNL d   1       5.211   0.398   0.612  0.00  0.00     0.031 A 
ATOM      5  C   UNL d   1       6.096   0.090  -0.421  0.00  0.00     0.002 A 
ATOM      6  C   UNL d   1       5.687  -0.738  -1.461  0.00  0.00     0.002 A 
ENDROOT
BRANCH   1   7
ATOM      7  N   UNL d   1       2.128  -1.405  -0.486  0.00  0.00    -0.260 NA
ATOM      8  H   UNL d   1       1.599  -0.573  -0.754  0.00  0.00     0.133 HD
BRANCH   7   9
ATOM      9  C   UNL d   1       1.742  -2.516  -1.233  0.00  0.00     0.012 C 
ATOM     10  C   UNL d   1       2.068  -3.807  -1.020  0.00  0.00     0.044 C 
ATOM     11  C   UNL d   1       1.650  -4.795  -2.055  0.00  0.00     0.120 C 
ATOM     12  S   UNL d   1       0.505  -3.908  -3.150  0.00  0.00    -0.159 SA
ATOM     13  C   UNL d   1       0.883  -2.281  -2.454  0.00  0.00     0.126 C 
BRANCH  10  14
ATOM     14  C   UNL d   1       2.821  -4.362   0.125  0.00  0.00     0.291 C 
ATOM     15  O   UNL d   1       3.410  -5.431   0.065  0.00  0.00    -0.260 OA
BRANCH  14  16
ATOM     16  O   UNL d   1       2.669  -3.591   1.226  0.00  0.00    -0.323 OA
ATOM     17  C   UNL d   1       3.341  -4.022   2.409  0.00  0.00     0.213 C 
ENDBRANCH  14  16
ENDBRANCH  10  14
ENDBRANCH   7   9
ENDBRANCH   1   7
BRANCH   2  18
ATOM     18  N   UNL d   1       3.008   0.167   1.658  0.00  0.00    -0.326 N 
ATOM     19  C   UNL d   1       2.932   1.400   2.277  0.00  0.00     0.222 C 
ATOM     20  O   UNL d   1       3.541   2.406   1.923  0.00  0.00    -0.273 OA
ATOM     21  H   UNL d   1       2.231  -0.482   1.753  0.00  0.00     0.169 HD
BRANCH  19  22
ATOM     22  C   UNL d   1       1.990   1.434   3.463  0.00  0.00     0.103 C 
BRANCH  22  23
ATOM     23  C   UNL d   1       1.168   2.727   3.517  0.00  0.00     0.019 C 
BRANCH  23  24
ATOM     24  C   UNL d   1       0.229   2.937   2.325  0.00  0.00     0.110 C 
BRANCH  24  25
ATOM     25  C   UNL d   1      -0.865   1.902   2.225  0.00  0.00     0.139 C 
ATOM     26  O   UNL d   1      -1.035   0.971   3.000  0.00  0.00    -0.650 OA
BRANCH  25  27
ATOM     27  O   UNL d   1      -1.657   2.089   1.144  0.00  0.00    -0.776 OA
ATOM     28  H   UNL d   1      -1.426   2.882   0.623  0.00  0.00     0.167 HD
ENDBRANCH  25  27
ENDBRANCH  24  25
ENDBRANCH  23  24
ENDBRANCH  22  23
ENDBRANCH  19  22
ENDBRANCH   2  18
TORSDOF 10
