REMARK  3 active torsions:
REMARK  status: ('A' for Active; 'I' for Inactive)
REMARK    1  A    between atoms: C_5  and  C_7 
REMARK    2  A    between atoms: O_16  and  N_12 
REMARK    3  A    between atoms: O_17  and  N_14 
ROOT
ATOM      1  C   UNL d   1       4.209   0.426  -0.808  0.00  0.00     0.015 C 
ATOM      2  C   UNL d   1       4.770  -0.775   0.195  0.00  0.00     0.025 C 
ATOM      3  C   UNL d   1       2.595   0.115  -0.700  0.00  0.00     0.053 C 
ATOM      4  C   UNL d   1       3.558   1.819   0.062  0.00  0.00     0.010 C 
ATOM      5  C   UNL d   1       4.374  -0.181   1.515  0.00  0.00     0.048 C 
ATOM      6  C   UNL d   1       2.377  -1.107   0.309  0.00  0.00     0.020 C 
ATOM      7  C   UNL d   1       2.844  -0.557   1.662  0.00  0.00     0.044 C 
ATOM      8  C   UNL d   1       4.602   1.334   1.083  0.00  0.00     0.003 C 
ATOM      9  C   UNL d   1       2.201   1.274   0.227  0.00  0.00     0.003 C 
ATOM     10  C   UNL d   1       5.408   1.387  -0.291  0.00  0.00     0.022 C 
ATOM     11  C   UNL d   1       1.968   0.703   1.643  0.00  0.00     0.017 C 
ATOM     12  N   UNL d   1       5.371  -1.863  -0.136  0.00  0.00    -0.276 N 
ATOM     13  HN  UNL d   1       5.593  -2.150  -1.090  1.00  0.00     0.193 HD
ATOM     14  N   UNL d   1       1.994  -2.314   0.059  0.00  0.00    -0.277 N 
ATOM     15  HN  UNL d   1       1.865  -3.050   0.753  1.00  0.00     0.193 HD
ENDROOT
BRANCH  12  16
ATOM     16  O   UNL d   1       5.671  -2.593   1.024  0.00  0.00    -0.290 OA
ATOM     17  H   UNL d   1       6.044  -3.418   0.662  0.00  0.00     0.244 HD
ENDBRANCH  12  16
BRANCH  14  18
ATOM     18  O   UNL d   1       1.786  -2.450  -1.317  0.00  0.00    -0.290 OA
ATOM     19  H   UNL d   1       1.948  -3.401  -1.459  0.00  0.00     0.244 HD
ENDBRANCH  14  18
TORSDOF 3
