REMARK  4 active torsions:
REMARK  status: ('A' for Active; 'I' for Inactive)
REMARK    1  A    between atoms: S_8  and  C_3 
REMARK    2  A    between atoms: C_7  and  C_4 
REMARK    3  A    between atoms: C_14  and  S_8 
REMARK    4  A    between atoms: C_15  and  N_10 
ROOT
ATOM      1  N   UNL d   1       1.399  -1.259  -0.008  0.00  0.00    -0.329 N 
ATOM      2  HN  UNL d   1       1.481  -2.276   0.010  1.00  0.00     0.168 HD
ATOM      3  C   UNL d   1       2.407  -0.313  -0.021  0.00  0.00     0.105 A 
ATOM      4  C   UNL d   1       1.912   0.990  -0.040  0.00  0.00     0.090 A 
ATOM      5  C   UNL d   1       0.319  -0.532  -0.024  0.00  0.00     0.156 A 
ATOM      6  N   UNL d   1       0.552   0.812  -0.030  0.00  0.00    -0.298 N 
ATOM      7  S   UNL d   1      -1.381  -0.883  -0.017  0.00  0.00    -0.064 SA
ATOM      8  C   UNL d   1      -0.583   1.597  -0.026  0.00  0.00     0.107 A 
ATOM      9  C   UNL d   1      -1.704   0.857  -0.017  0.00  0.00     0.071 A 
ENDROOT
BRANCH   4  10
ATOM     10  C   UNL d   1       2.617   2.236  -0.072  0.00  0.00     0.121 C 
ATOM     11  N   UNL d   1       1.975   3.355  -0.001  0.00  0.00    -0.364 N 
ATOM     12  HN  UNL d   1       0.960   3.357   0.095  1.00  0.00     0.165 HD
BRANCH  11  13
ATOM     13  C   UNL d   1       2.680   4.570  -0.056  0.00  0.00     0.032 A 
ATOM     14  C   UNL d   1       2.042   5.658  -0.658  0.00  0.00     0.030 A 
ATOM     15  C   UNL d   1       2.658   6.912  -0.722  0.00  0.00     0.009 A 
ATOM     16  C   UNL d   1       3.933   7.099  -0.181  0.00  0.00    -0.062 A 
ATOM     17  C   UNL d   1       4.574   6.018   0.431  0.00  0.00     0.009 A 
ATOM     18  C   UNL d   1       4.585   8.448  -0.240  0.00  0.00     0.048 C 
ATOM     19  C   UNL d   1       3.946   4.770   0.503  0.00  0.00     0.030 A 
ENDBRANCH  11  13
ENDBRANCH   4  10
BRANCH   3  20
ATOM     20  S   UNL d   1       4.097  -0.776   0.066  0.00  0.00    -0.070 SA
BRANCH  20  21
ATOM     21  C   UNL d   1       4.339  -1.664  -1.460  0.00  0.00     0.007 A 
ATOM     22  C   UNL d   1       5.314  -1.217  -2.361  0.00  0.00     0.020 A 
ATOM     23  C   UNL d   1       5.549  -1.909  -3.553  0.00  0.00     0.025 A 
ATOM     24  C   UNL d   1       4.813  -3.056  -3.843  0.00  0.00     0.034 A 
ATOM     25  C   UNL d   1       3.850  -3.519  -2.950  0.00  0.00     0.025 A 
ATOM     26 CL   UNL d   1       5.101  -3.907  -5.310  0.00  0.00    -0.084 Cl
ATOM     27  C   UNL d   1       3.618  -2.826  -1.758  0.00  0.00     0.020 A 
ENDBRANCH  20  21
ENDBRANCH   3  20
TORSDOF 4
