REMARK  3 active torsions:
REMARK  status: ('A' for Active; 'I' for Inactive)
REMARK       I    between atoms: C_5  and  N_2 
REMARK    1  A    between atoms: C_15  and  C_3 
REMARK       I    between atoms: C_6  and  N_9 
REMARK    2  A    between atoms: C_10  and  C_6 
REMARK    3  A    between atoms: N_9  and  C_15 
ROOT
ATOM      1  C   UNL d   1       5.926  -0.657   0.236  0.00  0.00     0.222 C 
ATOM      2  N   UNL d   1       7.036   0.139   0.234  0.00  0.00    -0.356 N 
ATOM      3  O   UNL d   1       4.820  -0.219   0.569  0.00  0.00    -0.273 OA
ATOM      4  H   UNL d   1       7.961  -0.250   0.094  0.00  0.00     0.162 HD
ENDROOT
BRANCH   2   5
ATOM      5  C   UNL d   1       6.891   1.527   0.609  0.00  0.00     0.168 C 
BRANCH   5   6
ATOM      6  C   UNL d   1       8.183   2.256   0.467  0.00  0.00     0.002 A 
ATOM      7  S   UNL d   1       9.229   2.429   1.805  0.00  0.00    -0.092 SA
ATOM      8  C   UNL d   1      10.331   3.417   0.925  0.00  0.00     0.015 A 
ATOM      9  C   UNL d   1       9.915   3.590  -0.397  0.00  0.00    -0.018 A 
ATOM     10  C   UNL d   1      11.514   4.009   1.409  0.00  0.00     0.019 A 
ATOM     11  C   UNL d   1      10.719   4.379  -1.254  0.00  0.00     0.013 A 
ATOM     12  C   UNL d   1       8.676   2.908  -0.644  0.00  0.00     0.029 A 
ATOM     13  C   UNL d   1      11.896   4.965  -0.779  0.00  0.00     0.001 A 
ATOM     14  C   UNL d   1      12.287   4.782   0.540  0.00  0.00     0.001 A 
ENDBRANCH   5   6
ENDBRANCH   2   5
BRANCH   1  15
ATOM     15  C   UNL d   1       6.066  -2.105  -0.165  0.00  0.00     0.081 C 
ATOM     16  C   UNL d   1       6.754  -2.313  -1.514  0.00  0.00     0.034 C 
ATOM     17  C   UNL d   1       6.623  -3.780  -1.914  0.00  0.00     0.126 C 
ATOM     18  N   UNL d   1       7.151  -4.677  -0.878  0.00  0.00    -0.352 N 
ATOM     19  C   UNL d   1       6.654  -4.443   0.484  0.00  0.00     0.126 C 
ATOM     20  C   UNL d   1       7.772  -5.843  -1.312  0.00  0.00     0.215 C 
ATOM     21  C   UNL d   1       6.761  -2.968   0.885  0.00  0.00     0.034 C 
ATOM     22  O   UNL d   1       8.025  -6.042  -2.504  0.00  0.00    -0.274 OA
ATOM     23  C   UNL d   1       8.204  -6.882  -0.306  0.00  0.00     0.117 C 
ENDBRANCH   1  15
TORSDOF 3
