REMARK  6 active torsions:
REMARK  status: ('A' for Active; 'I' for Inactive)
REMARK    1  A    between atoms: N_10  and  C_1 
REMARK    2  A    between atoms: O_18  and  C_8 
REMARK    3  A    between atoms: O_19  and  C_9 
REMARK    4  A    between atoms: C_11  and  C_14 
REMARK    5  A    between atoms: O_20  and  C_11 
REMARK    6  A    between atoms: C_21  and  O_20 
ROOT
ATOM      1  C   UNL d   1      -1.365  -0.109  -0.029  0.00  0.00     0.686 A 
ATOM      2  N   UNL d   1      -0.719   0.580  -0.963  0.00  0.00    -0.154 N 
ATOM      3  HN  UNL d   1      -1.210   1.051  -1.722  1.00  0.00     0.188 HD
ATOM      4  N   UNL d   1      -0.733  -0.737   0.956  0.00  0.00    -0.154 N 
ATOM      5  HN  UNL d   1      -1.237  -1.267   1.667  1.00  0.00     0.188 HD
ATOM      6  N   UNL d   1       1.324   0.030   0.089  0.00  0.00    -0.287 N 
ATOM      7  HN  UNL d   1       2.341   0.085   0.135  1.00  0.00     0.173 HD
ATOM      8  C   UNL d   1       0.593  -0.636   0.962  0.00  0.00     0.240 A 
ATOM      9  C   UNL d   1       0.606   0.619  -0.850  0.00  0.00     0.240 A 
ENDROOT
BRANCH   1  10
ATOM     10  N   UNL d   1      -2.741  -0.129  -0.052  0.00  0.00    -0.217 N 
ATOM     11  C   UNL d   1      -3.478   0.397  -1.188  0.00  0.00     0.142 C 
ATOM     12  C   UNL d   1      -4.577   1.321  -0.663  0.00  0.00     0.035 C 
ATOM     13  C   UNL d   1      -5.478   0.608   0.360  0.00  0.00     0.088 C 
ATOM     14  C   UNL d   1      -4.620  -0.005   1.480  0.00  0.00     0.035 C 
ATOM     15  C   UNL d   1      -3.496  -0.892   0.933  0.00  0.00     0.142 C 
BRANCH  13  16
ATOM     16  C   UNL d   1      -6.353  -0.453  -0.304  0.00  0.00     0.263 C 
ATOM     17  O   UNL d   1      -6.506  -1.589   0.117  0.00  0.00    -0.265 OA
BRANCH  16  18
ATOM     18  O   UNL d   1      -6.941   0.049  -1.423  0.00  0.00    -0.322 OA
BRANCH  18  19
ATOM     19  C   UNL d   1      -7.614  -0.897  -2.266  0.00  0.00     0.174 C 
ATOM     20  C   UNL d   1      -9.109  -0.869  -2.021  0.00  0.00     0.034 C 
ENDBRANCH  18  19
ENDBRANCH  16  18
ENDBRANCH  13  16
ENDBRANCH   1  10
BRANCH   9  21
ATOM     21  O   UNL d   1       1.349   1.342  -1.762  0.00  0.00    -0.327 OA
ATOM     22  C   UNL d   1       0.559   1.968  -2.763  0.00  0.00     0.213 C 
ENDBRANCH   9  21
BRANCH   8  23
ATOM     23  O   UNL d   1       1.319  -1.261   1.956  0.00  0.00    -0.327 OA
ATOM     24  C   UNL d   1       0.506  -1.940   2.903  0.00  0.00     0.213 C 
ENDBRANCH   8  23
TORSDOF 6
