REMARK  3 active torsions:
REMARK  status: ('A' for Active; 'I' for Inactive)
REMARK    1  A    between atoms: C_11  and  C_1 
REMARK    2  A    between atoms: N_5  and  C_6 
REMARK       I    between atoms: C_10  and  N_5 
REMARK    3  A    between atoms: C_14  and  C_10 
ROOT
ATOM      1  C   UNL d   1       5.849   0.659   0.937  0.00  0.00     0.685 A 
ATOM      2  N   UNL d   1       4.519   0.614   0.828  0.00  0.00    -0.190 N 
ATOM      3  HN  UNL d   1       3.915   0.944   1.580  1.00  0.00     0.184 HD
ATOM      4  C   UNL d   1       4.004   0.115  -0.315  0.00  0.00     0.068 A 
ATOM      5  N   UNL d   1       6.701   0.237  -0.010  0.00  0.00    -0.202 N 
ATOM      6  HN  UNL d   1       7.712   0.263   0.127  1.00  0.00     0.183 HD
ATOM      7  C   UNL d   1       4.800  -0.312  -1.353  0.00  0.00     0.049 A 
ATOM      8  C   UNL d   1       6.153  -0.221  -1.149  0.00  0.00     0.108 A 
ENDROOT
BRANCH   1   9
ATOM      9  N   UNL d   1       6.476   1.095   2.097  0.00  0.00    -0.155 N 
ATOM     10  C   UNL d   1       5.861   1.726   3.150  0.00  0.00     0.269 C 
ATOM     11  O   UNL d   1       4.706   2.128   3.183  0.00  0.00    -0.267 OA
ATOM     12  H   UNL d   1       7.453   0.862   2.109  0.00  0.00     0.187 HD
BRANCH  10  13
ATOM     13  C   UNL d   1       6.699   1.907   4.376  0.00  0.00     0.033 A 
ATOM     14  C   UNL d   1       8.097   2.007   4.342  0.00  0.00     0.018 A 
ATOM     15  C   UNL d   1       8.825   2.056   5.537  0.00  0.00     0.025 A 
ATOM     16  C   UNL d   1       8.160   2.026   6.763  0.00  0.00     0.034 A 
ATOM     17  C   UNL d   1       6.769   1.995   6.808  0.00  0.00     0.025 A 
ATOM     18 CL   UNL d   1       9.063   2.009   8.226  0.00  0.00    -0.084 Cl
ATOM     19  C   UNL d   1       6.040   1.942   5.616  0.00  0.00     0.018 A 
ENDBRANCH  10  13
ENDBRANCH   1   9
BRANCH   4  20
ATOM     20  C   UNL d   1       2.527   0.052  -0.360  0.00  0.00     0.039 A 
ATOM     21  S   UNL d   1       1.792  -1.254  -1.200  0.00  0.00    -0.087 SA
ATOM     22  C   UNL d   1       0.205  -0.701  -0.891  0.00  0.00     0.016 A 
ATOM     23  C   UNL d   1      -0.991  -1.290  -1.348  0.00  0.00     0.021 A 
ATOM     24  C   UNL d   1       0.213   0.445  -0.098  0.00  0.00    -0.010 A 
ATOM     25  C   UNL d   1      -2.209  -0.718  -0.980  0.00  0.00     0.025 A 
ATOM     26  C   UNL d   1      -2.232   0.407  -0.170  0.00  0.00     0.035 A 
ATOM     27  C   UNL d   1      -1.043   0.994   0.273  0.00  0.00     0.037 A 
ATOM     28 CL   UNL d   1      -3.743   1.091   0.291  0.00  0.00    -0.084 Cl
ATOM     29  C   UNL d   1       1.567   0.891   0.198  0.00  0.00    -0.031 A 
ATOM     30  C   UNL d   1       1.842   2.134   0.995  0.00  0.00     0.050 C 
ENDBRANCH   4  20
TORSDOF 3
