REMARK  8 active torsions:
REMARK  status: ('A' for Active; 'I' for Inactive)
REMARK    1  A    between atoms: C_3  and  C_1 
REMARK    2  A    between atoms: O_14  and  C_1 
REMARK       I    between atoms: C_2  and  N_4 
REMARK    3  A    between atoms: C_11  and  C_2 
REMARK    4  A    between atoms: N_4  and  C_8 
REMARK    5  A    between atoms: C_5  and  C_13 
REMARK    6  A    between atoms: O_15  and  C_5 
REMARK    7  A    between atoms: C_6  and  C_11 
REMARK    8  A    between atoms: C_13  and  C_6 
ROOT
ATOM      1  C   UNL d   1       1.656  -2.695   4.306  0.00  0.00     0.222 C 
ATOM      2  N   UNL d   1       0.983  -1.514   4.045  0.00  0.00    -0.327 N 
ATOM      3  O   UNL d   1       1.991  -3.529   3.466  0.00  0.00    -0.273 OA
ATOM      4  H   UNL d   1       0.594  -1.002   4.838  0.00  0.00     0.169 HD
ENDROOT
BRANCH   2   5
ATOM      5  C   UNL d   1       0.659  -1.040   2.754  0.00  0.00     0.035 A 
ATOM      6  C   UNL d   1       1.320  -1.494   1.610  0.00  0.00     0.047 A 
ATOM      7  C   UNL d   1       0.933  -1.063   0.339  0.00  0.00     0.039 A 
ATOM      8  C   UNL d   1      -0.081  -0.109   0.208  0.00  0.00     0.018 A 
ATOM      9  C   UNL d   1      -0.712   0.388   1.349  0.00  0.00     0.003 A 
ATOM     10  C   UNL d   1      -0.342  -0.073   2.619  0.00  0.00     0.029 A 
BRANCH   7  11
ATOM     11  C   UNL d   1       1.606  -1.567  -0.884  0.00  0.00     0.176 C 
ATOM     12  O   UNL d   1       1.709  -0.903  -1.901  0.00  0.00    -0.646 OA
BRANCH  11  13
ATOM     13  O   UNL d   1       2.057  -2.837  -0.784  0.00  0.00    -0.773 OA
ATOM     14  H   UNL d   1       1.797  -3.318   0.026  0.00  0.00     0.167 HD
ENDBRANCH  11  13
ENDBRANCH   7  11
ENDBRANCH   2   5
BRANCH   1  15
ATOM     15  C   UNL d   1       2.000  -2.917   5.768  0.00  0.00     0.112 C 
BRANCH  15  16
ATOM     16  C   UNL d   1       3.380  -2.351   6.195  0.00  0.00    -0.030 C 
ATOM     17  C   UNL d   1       3.651  -2.809   7.644  0.00  0.00     0.016 C 
ATOM     18  C   UNL d   1       4.504  -2.935   5.312  0.00  0.00     0.016 C 
BRANCH  16  19
ATOM     19  C   UNL d   1       3.455  -0.810   6.100  0.00  0.00     0.119 C 
BRANCH  19  20
ATOM     20  C   UNL d   1       2.392  -0.106   6.904  0.00  0.00     0.140 C 
ATOM     21  O   UNL d   1       1.248   0.060   6.497  0.00  0.00    -0.650 OA
BRANCH  20  22
ATOM     22  O   UNL d   1       2.792   0.267   8.136  0.00  0.00    -0.776 OA
ATOM     23  H   UNL d   1       3.721   0.042   8.346  0.00  0.00     0.167 HD
ENDBRANCH  20  22
ENDBRANCH  19  20
ENDBRANCH  16  19
ENDBRANCH  15  16
ENDBRANCH   1  15
TORSDOF 8
