REMARK  7 active torsions:
REMARK  status: ('A' for Active; 'I' for Inactive)
REMARK    1  A    between atoms: C_8  and  C_1 
REMARK    2  A    between atoms: C_10  and  C_2 
REMARK    3  A    between atoms: C_6  and  O_11 
REMARK    4  A    between atoms: C_7  and  O_12 
REMARK       I    between atoms: N_9  and  C_7 
REMARK    5  A    between atoms: C_19  and  N_9 
REMARK    6  A    between atoms: O_12  and  C_10 
REMARK    7  A    between atoms: O_11  and  C_20 
ROOT
ATOM      1  C   UNL d   1       2.346  -3.606   0.906  0.00  0.00     0.365 C 
ATOM      2  N   UNL d   1       3.609  -4.013   0.564  0.00  0.00    -0.303 N 
ATOM      3  O   UNL d   1       1.889  -3.900   2.007  0.00  0.00    -0.238 OA
ATOM      4  H   UNL d   1       4.025  -4.554   1.312  0.00  0.00     0.171 HD
ENDROOT
BRANCH   1   5
ATOM      5  O   UNL d   1       1.670  -2.926  -0.046  0.00  0.00    -0.299 OA
BRANCH   5   6
ATOM      6  C   UNL d   1       0.302  -2.597   0.243  0.00  0.00     0.222 C 
BRANCH   6   7
ATOM      7  C   UNL d   1       0.086  -1.122   0.219  0.00  0.00    -0.002 A 
ATOM      8  C   UNL d   1       0.251  -0.267  -0.903  0.00  0.00     0.050 A 
ATOM      9  C   UNL d   1      -0.038   1.017  -0.499  0.00  0.00     0.086 A 
ATOM     10  O   UNL d   1      -0.399   1.000   0.822  0.00  0.00    -0.314 OA
ATOM     11  C   UNL d   1      -0.323  -0.291   1.251  0.00  0.00     0.058 A 
ATOM     12  C   UNL d   1      -0.673  -0.542   2.665  0.00  0.00     0.077 C 
BRANCH   9  13
ATOM     13  C   UNL d   1      -0.010   2.314  -1.173  0.00  0.00    -0.002 A 
ATOM     14  C   UNL d   1      -0.353   3.508  -0.525  0.00  0.00     0.016 A 
ATOM     15  C   UNL d   1      -0.272   4.736  -1.194  0.00  0.00     0.024 A 
ATOM     16  C   UNL d   1       0.151   4.780  -2.521  0.00  0.00     0.034 A 
ATOM     17  C   UNL d   1       0.483   3.606  -3.188  0.00  0.00     0.024 A 
ATOM     18 CL   UNL d   1       0.273   6.288  -3.338  0.00  0.00    -0.084 Cl
ATOM     19  C   UNL d   1       0.399   2.383  -2.520  0.00  0.00     0.016 A 
ENDBRANCH   9  13
ENDBRANCH   6   7
ENDBRANCH   5   6
ENDBRANCH   1   5
BRANCH   2  20
ATOM     20  C   UNL d   1       4.343  -3.922  -0.634  0.00  0.00     0.037 A 
ATOM     21  C   UNL d   1       3.943  -3.219  -1.770  0.00  0.00     0.032 A 
ATOM     22  C   UNL d   1       4.700  -3.263  -2.954  0.00  0.00     0.039 A 
ATOM     23  C   UNL d   1       5.896  -3.972  -3.001  0.00  0.00     0.078 A 
ATOM     24  C   UNL d   1       6.312  -4.657  -1.858  0.00  0.00     0.039 A 
ATOM     25  C   UNL d   1       5.551  -4.626  -0.685  0.00  0.00     0.032 A 
BRANCH  23  26
ATOM     26  O   UNL d   1       6.743  -4.096  -4.057  0.00  0.00    -0.255 OA
BRANCH  26  27
ATOM     27  C   UNL d   1       6.628  -3.234  -5.177  0.00  0.00     0.530 C 
ATOM     28  F   UNL d   1       6.115  -2.024  -4.873  0.00  0.00    -0.144 F 
ATOM     29  F   UNL d   1       7.866  -3.036  -5.685  0.00  0.00    -0.144 F 
ATOM     30  F   UNL d   1       5.869  -3.813  -6.132  0.00  0.00    -0.144 F 
ENDBRANCH  26  27
ENDBRANCH  23  26
ENDBRANCH   2  20
TORSDOF 7
