REMARK  4 active torsions:
REMARK  status: ('A' for Active; 'I' for Inactive)
REMARK       I    between atoms: C_2  and  N_6 
REMARK    1  A    between atoms: C_3  and  C_2 
REMARK    2  A    between atoms: N_6  and  C_18 
REMARK    3  A    between atoms: C_17  and  N_7 
REMARK    4  A    between atoms: C_19  and  C_17 
ROOT
ATOM      1  C   UNL d   1      -4.219  -3.642   3.186  0.00  0.00     0.035 A 
ATOM      2  C   UNL d   1      -3.074  -1.191   2.319  0.00  0.00    -0.030 A 
ATOM      3  C   UNL d   1      -3.154  -3.620   2.284  0.00  0.00     0.030 A 
ATOM      4  C   UNL d   1      -4.728  -2.415   3.631  0.00  0.00     0.030 A 
ATOM      5  C   UNL d   1      -4.162  -1.200   3.202  0.00  0.00     0.011 A 
ATOM      6  C   UNL d   1      -2.586  -2.418   1.859  0.00  0.00     0.011 A 
ENDROOT
BRANCH   1   7
ATOM      7  N   UNL d   1      -4.799  -4.842   3.666  0.00  0.00    -0.321 N 
ATOM      8  C   UNL d   1      -4.389  -6.136   3.368  0.00  0.00     0.279 C 
ATOM      9  O   UNL d   1      -3.446  -6.422   2.632  0.00  0.00    -0.265 OA
ATOM     10  H   UNL d   1      -5.580  -4.768   4.308  0.00  0.00     0.169 HD
BRANCH   8  11
ATOM     11  C   UNL d   1      -5.165  -7.190   3.992  0.00  0.00     0.142 A 
ATOM     12  O   UNL d   1      -6.169  -6.904   4.878  0.00  0.00    -0.317 OA
ATOM     13  C   UNL d   1      -6.690  -8.098   5.277  0.00  0.00     0.143 A 
ATOM     14  C   UNL d   1      -6.047  -9.145   4.657  0.00  0.00     0.027 A 
ATOM     15  C   UNL d   1      -5.059  -8.560   3.837  0.00  0.00     0.045 A 
ENDBRANCH   8  11
ENDBRANCH   1   7
BRANCH   2  16
ATOM     16  C   UNL d   1      -2.440   0.088   1.816  0.00  0.00     0.311 C 
BRANCH  16  17
ATOM     17  N   UNL d   1      -1.834   0.942   2.854  0.00  0.00     0.094 N 
ATOM     18  C   UNL d   1      -0.803   0.290   3.679  0.00  0.00     0.287 C 
ATOM     19  C   UNL d   1       0.466  -0.112   2.950  0.00  0.00     0.170 C 
ATOM     20  S   UNL d   1       1.219   1.295   2.173  0.00  0.00     0.147 S 
ATOM     21  C   UNL d   1      -0.143   2.085   1.356  0.00  0.00     0.170 C 
ATOM     22  O   UNL d   1       2.121   0.802   1.146  0.00  0.00    -0.228 OA
ATOM     23  O   UNL d   1       1.705   2.186   3.208  0.00  0.00    -0.228 OA
ATOM     24  C   UNL d   1      -1.332   2.212   2.296  0.00  0.00     0.287 C 
ENDBRANCH  16  17
ENDBRANCH   2  16
TORSDOF 4
