REMARK  8 active torsions:
REMARK  status: ('A' for Active; 'I' for Inactive)
REMARK    1  A    between atoms: C_6  and  C_1 
REMARK    2  A    between atoms: N_2  and  C_6 
REMARK    3  A    between atoms: O_16  and  C_3 
REMARK    4  A    between atoms: C_9  and  N_4 
REMARK    5  A    between atoms: O_10  and  C_8 
REMARK    6  A    between atoms: C_18  and  C_9 
REMARK    7  A    between atoms: C_17  and  O_10 
REMARK    8  A    between atoms: C_19  and  C_17 
ROOT
ATOM      1  C   UNL d   1       1.491  -0.127   0.578  0.00  0.00     0.003 C 
ATOM      2  C   UNL d   1       0.785  -0.037   1.784  0.00  0.00     0.078 C 
ATOM      3  C   UNL d   1      -0.617   0.040   1.787  0.00  0.00     0.074 C 
ATOM      4  C   UNL d   1       0.802   0.193  -0.602  0.00  0.00     0.014 C 
ATOM      5  C   UNL d   1      -1.312   0.176   0.581  0.00  0.00     0.071 C 
ATOM      6  C   UNL d   1      -0.586   0.379  -0.589  0.00  0.00     0.037 C 
ENDROOT
BRANCH   1   7
ATOM      7  C   UNL d   1       2.927  -0.649   0.491  0.00  0.00     0.314 C 
BRANCH   7   8
ATOM      8  N   UNL d   1       3.026  -1.817  -0.407  0.00  0.00     0.096 N 
ATOM      9  C   UNL d   1       2.307  -2.993   0.108  0.00  0.00     0.303 C 
ATOM     10  C   UNL d   1       3.132  -3.864   1.077  0.00  0.00     0.303 C 
ATOM     11  N   UNL d   1       4.337  -4.446   0.460  0.00  0.00     0.096 N 
ATOM     12  C   UNL d   1       5.140  -3.354  -0.122  0.00  0.00     0.303 C 
ATOM     13  C   UNL d   1       4.401  -2.165  -0.813  0.00  0.00     0.303 C 
BRANCH  11  14
ATOM     14  C   UNL d   1       3.972  -5.506  -0.499  0.00  0.00     0.311 C 
BRANCH  14  15
ATOM     15  C   UNL d   1       5.143  -6.305  -1.036  0.00  0.00    -0.030 A 
ATOM     16  C   UNL d   1       6.011  -6.996  -0.178  0.00  0.00     0.009 A 
ATOM     17  C   UNL d   1       7.088  -7.720  -0.694  0.00  0.00     0.001 A 
ATOM     18  C   UNL d   1       7.304  -7.770  -2.071  0.00  0.00     0.000 A 
ATOM     19  C   UNL d   1       6.432  -7.111  -2.934  0.00  0.00     0.001 A 
ATOM     20  C   UNL d   1       5.355  -6.388  -2.421  0.00  0.00     0.009 A 
ENDBRANCH  14  15
ENDBRANCH  11  14
ENDBRANCH   7   8
ENDBRANCH   1   7
BRANCH   2  21
ATOM     21  O   UNL d   1       1.417  -0.057   3.002  0.00  0.00    -0.355 OA
ATOM     22  C   UNL d   1       2.340   1.036   3.130  0.00  0.00     0.210 C 
ENDBRANCH   2  21
BRANCH   5  23
ATOM     23  O   UNL d   1      -2.685   0.094   0.642  0.00  0.00    -0.347 OA
BRANCH  23  24
ATOM     24  C   UNL d   1      -3.315  -0.246  -0.605  0.00  0.00     0.214 C 
BRANCH  24  25
ATOM     25  C   UNL d   1      -4.673  -0.903  -0.450  0.00  0.00    -0.034 A 
ATOM     26  C   UNL d   1      -5.608  -0.799  -1.499  0.00  0.00     0.009 A 
ATOM     27  C   UNL d   1      -6.828  -1.486  -1.442  0.00  0.00     0.001 A 
ATOM     28  C   UNL d   1      -7.127  -2.279  -0.346  0.00  0.00     0.000 A 
ATOM     29  C   UNL d   1      -6.210  -2.399   0.698  0.00  0.00     0.001 A 
ATOM     30  C   UNL d   1      -4.987  -1.714   0.644  0.00  0.00     0.009 A 
ENDBRANCH  24  25
ENDBRANCH  23  24
ENDBRANCH   5  23
TORSDOF 8
