REMARK  16 active torsions:
REMARK  status: ('A' for Active; 'I' for Inactive)
REMARK    1  A    between atoms: C_1  and  O_7 
REMARK    2  A    between atoms: C_2  and  N_8 
REMARK    3  A    between atoms: C_3  and  O_9 
REMARK    4  A    between atoms: C_4  and  O_10 
REMARK    5  A    between atoms: C_6  and  C_17 
REMARK    6  A    between atoms: C_12  and  O_7 
REMARK    7  A    between atoms: C_11  and  N_8 
REMARK    8  A    between atoms: C_13  and  O_9 
REMARK    9  A    between atoms: C_14  and  O_10 
REMARK   10  A    between atoms: C_23  and  C_12 
REMARK   11  A    between atoms: C_24  and  C_13 
REMARK   12  A    between atoms: C_22  and  C_14 
REMARK   13  A    between atoms: O_15  and  C_17 
REMARK   14  A    between atoms: C_27  and  O_15 
REMARK   15  A    between atoms: O_25  and  C_16 
REMARK   16  A    between atoms: C_26  and  C_27 
ROOT
ATOM      1  C   UNL d   1       0.712  -1.272  -0.284  0.00  0.00     0.202 C 
ATOM      2  C   UNL d   1      -0.767  -1.084   0.162  0.00  0.00     0.253 C 
ATOM      3  C   UNL d   1       1.514   0.057  -0.045  0.00  0.00     0.186 C 
ATOM      4  C   UNL d   1       0.721   1.356  -0.407  0.00  0.00     0.184 C 
ATOM      5  O   UNL d   1      -1.322   0.070  -0.434  0.00  0.00    -0.354 OA
ATOM      6  C   UNL d   1      -0.737   1.263   0.094  0.00  0.00     0.179 C 
ENDROOT
BRANCH   2   7
ATOM      7  N   UNL d   1      -1.606  -2.196  -0.252  0.00  0.00    -0.362 N 
ATOM      8  H   UNL d   1      -1.631  -2.401  -1.243  0.00  0.00     0.162 HD
BRANCH   7   9
ATOM      9  C   UNL d   1      -2.562  -2.794   0.551  0.00  0.00     0.030 A 
ATOM     10  C   UNL d   1      -2.945  -2.281   1.793  0.00  0.00     0.032 A 
ATOM     11  C   UNL d   1      -3.782  -2.994   2.658  0.00  0.00     0.039 A 
ATOM     12  C   UNL d   1      -4.272  -4.243   2.295  0.00  0.00     0.068 A 
ATOM     13  C   UNL d   1      -3.915  -4.768   1.053  0.00  0.00     0.039 A 
ATOM     14  C   UNL d   1      -3.067  -4.053   0.195  0.00  0.00     0.032 A 
BRANCH  12  15
ATOM     15  O   UNL d   1      -5.091  -5.029   3.057  0.00  0.00    -0.356 OA
ATOM     16  C   UNL d   1      -5.434  -4.520   4.343  0.00  0.00     0.210 C 
ENDBRANCH  12  15
ENDBRANCH   7   9
ENDBRANCH   2   7
BRANCH   1  17
ATOM     17  O   UNL d   1       1.355  -2.336   0.481  0.00  0.00    -0.374 OA
BRANCH  17  18
ATOM     18  C   UNL d   1       0.972  -3.651   0.071  0.00  0.00     0.207 C 
BRANCH  18  19
ATOM     19  C   UNL d   1       1.497  -4.722   0.998  0.00  0.00    -0.035 A 
ATOM     20  C   UNL d   1       0.608  -5.446   1.809  0.00  0.00     0.009 A 
ATOM     21  C   UNL d   1       1.060  -6.518   2.587  0.00  0.00     0.001 A 
ATOM     22  C   UNL d   1       2.408  -6.857   2.562  0.00  0.00     0.000 A 
ATOM     23  C   UNL d   1       3.303  -6.133   1.779  0.00  0.00     0.001 A 
ATOM     24  C   UNL d   1       2.851  -5.060   0.997  0.00  0.00     0.009 A 
ENDBRANCH  18  19
ENDBRANCH  17  18
ENDBRANCH   1  17
BRANCH   3  25
ATOM     25  O   UNL d   1       2.762   0.067  -0.823  0.00  0.00    -0.376 OA
BRANCH  25  26
ATOM     26  C   UNL d   1       3.706  -0.888  -0.336  0.00  0.00     0.207 C 
BRANCH  26  27
ATOM     27  C   UNL d   1       5.154  -0.728  -0.755  0.00  0.00    -0.035 A 
ATOM     28  C   UNL d   1       5.678   0.286  -1.566  0.00  0.00     0.009 A 
ATOM     29  C   UNL d   1       7.037   0.283  -1.910  0.00  0.00     0.001 A 
ATOM     30  C   UNL d   1       7.890  -0.728  -1.453  0.00  0.00     0.000 A 
ATOM     31  C   UNL d   1       7.381  -1.729  -0.631  0.00  0.00     0.001 A 
ATOM     32  C   UNL d   1       6.032  -1.723  -0.285  0.00  0.00     0.009 A 
ENDBRANCH  26  27
ENDBRANCH  25  26
ENDBRANCH   3  25
BRANCH   6  33
ATOM     33  C   UNL d   1      -1.603   2.451  -0.369  0.00  0.00     0.202 C 
BRANCH  33  34
ATOM     34  O   UNL d   1      -2.941   2.314   0.151  0.00  0.00    -0.384 OA
BRANCH  34  35
ATOM     35  C   UNL d   1      -3.808   3.333  -0.357  0.00  0.00     0.206 C 
BRANCH  35  36
ATOM     36  C   UNL d   1      -5.234   3.160   0.117  0.00  0.00    -0.035 A 
ATOM     37  C   UNL d   1      -6.037   4.292   0.338  0.00  0.00     0.009 A 
ATOM     38  C   UNL d   1      -7.373   4.160   0.726  0.00  0.00     0.001 A 
ATOM     39  C   UNL d   1      -7.930   2.893   0.886  0.00  0.00     0.000 A 
ATOM     40  C   UNL d   1      -7.153   1.761   0.652  0.00  0.00     0.001 A 
ATOM     41  C   UNL d   1      -5.814   1.892   0.265  0.00  0.00     0.009 A 
ENDBRANCH  35  36
ENDBRANCH  34  35
ENDBRANCH  33  34
ENDBRANCH   6  33
BRANCH   4  42
ATOM     42  O   UNL d   1       1.312   2.546   0.169  0.00  0.00    -0.376 OA
BRANCH  42  43
ATOM     43  C   UNL d   1       2.605   2.854  -0.362  0.00  0.00     0.207 C 
BRANCH  43  44
ATOM     44  C   UNL d   1       3.129   4.196   0.093  0.00  0.00    -0.035 A 
ATOM     45  C   UNL d   1       4.519   4.377   0.202  0.00  0.00     0.009 A 
ATOM     46  C   UNL d   1       5.054   5.608   0.583  0.00  0.00     0.001 A 
ATOM     47  C   UNL d   1       4.205   6.679   0.849  0.00  0.00     0.000 A 
ATOM     48  C   UNL d   1       2.825   6.517   0.728  0.00  0.00     0.001 A 
ATOM     49  C   UNL d   1       2.287   5.283   0.347  0.00  0.00     0.009 A 
ENDBRANCH  43  44
ENDBRANCH  42  43
ENDBRANCH   4  42
TORSDOF 16
