REMARK  5 active torsions:
REMARK  status: ('A' for Active; 'I' for Inactive)
REMARK    1  A    between atoms: C_6  and  N_1 
REMARK    2  A    between atoms: S_10  and  C_2 
REMARK    3  A    between atoms: C_17  and  S_10 
REMARK    4  A    between atoms: C_12  and  C_17 
REMARK    5  A    between atoms: C_15  and  C_12 
ROOT
ATOM      1  N   UNL d   1       1.000  -0.653   0.041  0.00  0.00    -0.241 N 
ATOM      2  C   UNL d   1       0.977   0.723   0.058  0.00  0.00     0.170 A 
ATOM      3  C   UNL d   1      -0.342  -1.001  -0.006  0.00  0.00     0.347 A 
ATOM      4  N   UNL d   1      -0.213   1.257   0.049  0.00  0.00    -0.275 N 
ATOM      5  HN  UNL d   1      -0.457   2.247   0.066  1.00  0.00     0.189 HD
ATOM      6  N   UNL d   1      -1.051   0.193   0.011  0.00  0.00    -0.249 N 
ATOM      7  O   UNL d   1      -0.888  -2.092  -0.029  0.00  0.00    -0.245 OA
ATOM      8  H   UNL d   1      -2.059   0.273  -0.030  0.00  0.00     0.192 HD
ENDROOT
BRANCH   2   9
ATOM      9  S   UNL d   1       2.388   1.732  -0.001  0.00  0.00    -0.084 SA
BRANCH   9  10
ATOM     10  C   UNL d   1       1.666   3.393   0.147  0.00  0.00     0.166 C 
BRANCH  10  11
ATOM     11  C   UNL d   1       2.731   4.486   0.198  0.00  0.00     0.169 C 
ATOM     12  O   UNL d   1       3.941   4.264   0.157  0.00  0.00    -0.291 OA
BRANCH  11  13
ATOM     13  C   UNL d   1       2.275   5.912   0.312  0.00  0.00     0.011 A 
ATOM     14  C   UNL d   1       0.922   6.263   0.392  0.00  0.00     0.015 A 
ATOM     15  C   UNL d   1       0.546   7.606   0.509  0.00  0.00     0.007 A 
ATOM     16  C   UNL d   1       1.509   8.620   0.550  0.00  0.00    -0.062 A 
ATOM     17  C   UNL d   1       2.860   8.274   0.462  0.00  0.00     0.007 A 
ATOM     18  C   UNL d   1       1.082  10.053   0.684  0.00  0.00     0.048 C 
ATOM     19  C   UNL d   1       3.240   6.931   0.345  0.00  0.00     0.015 A 
ENDBRANCH  11  13
ENDBRANCH  10  11
ENDBRANCH   9  10
ENDBRANCH   2   9
BRANCH   1  20
ATOM     20  C   UNL d   1       2.076  -1.596   0.038  0.00  0.00     0.049 A 
ATOM     21  C   UNL d   1       1.877  -2.915  -0.417  0.00  0.00     0.069 A 
ATOM     22  C   UNL d   1       2.929  -3.839  -0.480  0.00  0.00     0.104 A 
ATOM     23  O   UNL d   1       2.622  -5.099  -0.933  0.00  0.00    -0.346 OA
ATOM     24  C   UNL d   1       4.217  -3.459  -0.114  0.00  0.00     0.102 A 
ATOM     25  C   UNL d   1       3.691  -6.021  -0.682  0.00  0.00     0.202 C 
ATOM     26  C   UNL d   1       5.023  -5.401  -1.070  0.00  0.00     0.202 C 
ATOM     27  O   UNL d   1       5.308  -4.280  -0.225  0.00  0.00    -0.346 OA
ATOM     28  C   UNL d   1       4.429  -2.190   0.402  0.00  0.00     0.042 A 
ATOM     29  C   UNL d   1       3.367  -1.279   0.489  0.00  0.00     0.033 A 
ENDBRANCH   1  20
TORSDOF 5
