REMARK  6 active torsions:
REMARK  status: ('A' for Active; 'I' for Inactive)
REMARK    1  A    between atoms: C_5  and  C_1 
REMARK    2  A    between atoms: N_9  and  C_2 
REMARK    3  A    between atoms: N_6  and  C_11 
REMARK       I    between atoms: C_10  and  N_9 
REMARK    4  A    between atoms: O_20  and  C_10 
REMARK    5  A    between atoms: N_13  and  O_20 
REMARK    6  A    between atoms: C_22  and  C_21 
ROOT
ATOM      1  N   UNL d   1       0.583  -2.640  -0.168  0.00  0.00    -0.297 N 
ATOM      2  C   UNL d   1       1.886  -3.014  -0.366  0.00  0.00     0.387 C 
ATOM      3  O   UNL d   1       2.861  -2.275  -0.385  0.00  0.00    -0.236 OA
ATOM      4  H   UNL d   1       0.012  -3.371   0.235  0.00  0.00     0.171 HD
ENDROOT
BRANCH   1   5
ATOM      5  C   UNL d   1       0.145  -1.332  -0.038  0.00  0.00     0.098 A 
ATOM      6  C   UNL d   1      -0.746  -0.772   0.949  0.00  0.00     0.098 A 
ATOM      7  N   UNL d   1      -1.056   0.487   0.597  0.00  0.00    -0.258 N 
ATOM      8  O   UNL d   1      -0.313   0.793  -0.513  0.00  0.00    -0.240 OA
ATOM      9  HN  UNL d   1      -1.720   1.101   1.069  1.00  0.00     0.195 HD
ATOM     10  C   UNL d   1       0.399  -0.292  -0.907  0.00  0.00     0.101 A 
ATOM     11  C   UNL d   1       1.127  -0.115  -2.179  0.00  0.00     0.081 C 
BRANCH   6  12
ATOM     12  C   UNL d   1      -1.260  -1.327   2.219  0.00  0.00     0.038 A 
ATOM     13  C   UNL d   1      -1.282  -0.534   3.398  0.00  0.00     0.048 A 
ATOM     14 CL   UNL d   1      -0.670   1.090   3.495  0.00  0.00    -0.083 Cl
ATOM     15  C   UNL d   1      -1.782  -1.034   4.612  0.00  0.00     0.025 A 
ATOM     16  C   UNL d   1      -2.228  -2.344   4.705  0.00  0.00     0.003 A 
ATOM     17  C   UNL d   1      -2.201  -3.148   3.574  0.00  0.00     0.025 A 
ATOM     18  C   UNL d   1      -1.754  -2.643   2.339  0.00  0.00     0.048 A 
ATOM     19 CL   UNL d   1      -1.943  -3.735   1.007  0.00  0.00    -0.083 Cl
ENDBRANCH   6  12
ENDBRANCH   1   5
BRANCH   2  20
ATOM     20  O   UNL d   1       1.948  -4.385  -0.489  0.00  0.00    -0.181 OA
BRANCH  20  21
ATOM     21  N   UNL d   1       2.783  -4.908   0.515  0.00  0.00    -0.267 N 
ATOM     22  C   UNL d   1       3.344  -5.998   0.103  0.00  0.00     0.126 C 
ATOM     23  HN  UNL d   1       2.925  -4.489   1.434  1.00  0.00     0.194 HD
BRANCH  22  24
ATOM     24  C   UNL d   1       4.211  -6.788   1.005  0.00  0.00    -0.017 A 
ATOM     25  C   UNL d   1       4.220  -6.500   2.375  0.00  0.00     0.049 A 
ATOM     26  C   UNL d   1       5.037  -7.252   3.228  0.00  0.00     0.103 A 
ATOM     27  C   UNL d   1       5.840  -8.281   2.721  0.00  0.00     0.036 A 
ATOM     28  C   UNL d   1       5.820  -8.565   1.358  0.00  0.00     0.003 A 
ATOM     29  C   UNL d   1       5.001  -7.822   0.493  0.00  0.00     0.013 A 
BRANCH  26  30
ATOM     30  N   UNL d   1       5.036  -6.960   4.667  0.00  0.00    -0.116 N 
ATOM     31  O   UNL d   1       4.240  -6.108   5.083  0.00  0.00    -0.532 OA
ATOM     32  O   UNL d   1       5.825  -7.595   5.380  0.00  0.00    -0.532 OA
ENDBRANCH  26  30
ENDBRANCH  22  24
ENDBRANCH  20  21
ENDBRANCH   2  20
TORSDOF 6
