REMARK  3 active torsions:
REMARK  status: ('A' for Active; 'I' for Inactive)
REMARK    1  A    between atoms: C_2  and  S_1 
REMARK    2  A    between atoms: N_4  and  S_1 
REMARK    3  A    between atoms: C_12  and  N_11 
ROOT
ATOM      1  S   UNL d   1       1.261  -0.084   0.384  0.00  0.00     0.246 S 
ATOM      2  O   UNL d   1       1.378   0.329   1.765  0.00  0.00    -0.206 OA
ATOM      3  O   UNL d   1       0.705  -1.379   0.046  0.00  0.00    -0.206 OA
ENDROOT
BRANCH   1   4
ATOM      4  C   UNL d   1       2.893  -0.107  -0.246  0.00  0.00     0.105 A 
ATOM      5  C   UNL d   1       3.402   0.607  -1.340  0.00  0.00     0.108 A 
ATOM      6  C   UNL d   1       4.812   0.488  -1.729  0.00  0.00     0.086 A 
ATOM      7  N   UNL d   1       2.829   1.465  -2.195  0.00  0.00    -0.238 N 
ATOM      8  N   UNL d   1       5.034   1.286  -2.778  0.00  0.00    -0.239 N 
ATOM      9  C   UNL d   1       5.725  -0.346  -1.054  0.00  0.00     0.034 A 
ATOM     10  O   UNL d   1       3.819   1.876  -3.066  0.00  0.00    -0.156 OA
ATOM     11  HN  UNL d   1       5.918   1.430  -3.265  1.00  0.00     0.197 HD
ATOM     12  C   UNL d   1       5.184  -1.068   0.020  0.00  0.00     0.004 A 
ATOM     13  C   UNL d   1       3.829  -0.952   0.409  0.00  0.00     0.027 A 
ATOM     14  HN  UNL d   1       1.852   1.758  -2.202  1.00  0.00     0.197 HD
ENDBRANCH   1   4
BRANCH   1  15
ATOM     15  N   UNL d   1       0.361   1.092  -0.435  0.00  0.00    -0.204 NA
ATOM     16  C   UNL d   1       0.671   2.535  -0.141  0.00  0.00     0.122 C 
ATOM     17  C   UNL d   1       0.010   3.063   1.154  0.00  0.00     0.112 C 
ATOM     18  N   UNL d   1      -1.437   2.757   1.182  0.00  0.00    -0.267 NA
ATOM     19  C   UNL d   1      -1.712   1.317   0.983  0.00  0.00     0.112 C 
ATOM     20  C   UNL d   1      -1.130   0.876  -0.372  0.00  0.00     0.122 C 
BRANCH  18  21
ATOM     21  C   UNL d   1      -2.052   3.262   2.348  0.00  0.00     0.082 A 
ATOM     22  N   UNL d   1      -2.498   2.418   3.303  0.00  0.00    -0.357 N 
ATOM     23  C   UNL d   1      -3.107   2.943   4.390  0.00  0.00     0.089 A 
ATOM     24  HN  UNL d   1      -2.378   1.410   3.207  1.00  0.00     0.166 HD
ATOM     25  C   UNL d   1      -3.323   4.296   4.576  0.00  0.00     0.017 A 
ATOM     26  C   UNL d   1      -2.876   5.162   3.591  0.00  0.00     0.005 A 
ATOM     27  C   UNL d   1      -2.231   4.642   2.471  0.00  0.00     0.042 A 
ENDBRANCH  18  21
ENDBRANCH   1  15
TORSDOF 3
