REMARK  4 active torsions:
REMARK  status: ('A' for Active; 'I' for Inactive)
REMARK    1  A    between atoms: N_3  and  C_16 
REMARK    2  A    between atoms: C_17  and  N_4 
REMARK    3  A    between atoms: C_16  and  C_14 
REMARK    4  A    between atoms: C_15  and  C_17 
ROOT
ATOM      1  N   UNL d   1       5.370   0.162   0.464  0.00  0.00     0.096 N 
ATOM      2  N   UNL d   1       4.569   3.050   0.960  0.00  0.00     0.096 N 
ATOM      3  C   UNL d   1       4.667   0.628   1.676  0.00  0.00     0.303 C 
ATOM      4  C   UNL d   1       5.197   2.622  -0.311  0.00  0.00     0.303 C 
ATOM      5  C   UNL d   1       5.993   1.289  -0.257  0.00  0.00     0.303 C 
ATOM      6  C   UNL d   1       3.811   1.896   1.486  0.00  0.00     0.303 C 
ENDROOT
BRANCH   1   7
ATOM      7  C   UNL d   1       4.530  -0.680  -0.403  0.00  0.00     0.311 C 
BRANCH   7   8
ATOM      8  C   UNL d   1       4.109  -1.961   0.301  0.00  0.00    -0.029 A 
ATOM      9  C   UNL d   1       2.773  -2.160   0.669  0.00  0.00     0.012 A 
ATOM     10  C   UNL d   1       2.425  -3.225   1.501  0.00  0.00     0.038 A 
ATOM     11  C   UNL d   1       3.397  -4.119   1.948  0.00  0.00     0.076 A 
ATOM     12  O   UNL d   1       2.964  -5.072   2.829  0.00  0.00    -0.340 OA
ATOM     13  C   UNL d   1       4.714  -4.007   1.498  0.00  0.00    -0.024 A 
ATOM     14  C   UNL d   1       3.953  -5.941   3.409  0.00  0.00     0.061 C 
ATOM     15  C   UNL d   1       5.062  -6.285   2.404  0.00  0.00     0.042 C 
ATOM     16  C   UNL d   1       3.187  -7.218   3.788  0.00  0.00     0.046 C 
ATOM     17  C   UNL d   1       4.512  -5.318   4.698  0.00  0.00     0.046 C 
ATOM     18  C   UNL d   1       5.745  -5.019   1.900  0.00  0.00     0.044 C 
ATOM     19  C   UNL d   1       5.069  -2.910   0.696  0.00  0.00     0.019 A 
ENDBRANCH   7   8
ENDBRANCH   1   7
BRANCH   2  20
ATOM     20  C   UNL d   1       5.588   3.544   1.909  0.00  0.00     0.311 C 
BRANCH  20  21
ATOM     21  C   UNL d   1       5.026   4.031   3.234  0.00  0.00    -0.027 A 
ATOM     22  C   UNL d   1       5.333   3.354   4.428  0.00  0.00     0.048 A 
ATOM     23  C   UNL d   1       4.815   3.844   5.611  0.00  0.00     0.105 A 
ATOM     24  O   UNL d   1       5.016   3.314   6.844  0.00  0.00    -0.323 OA
ATOM     25  C   UNL d   1       4.019   4.960   5.646  0.00  0.00     0.105 A 
ATOM     26  C   UNL d   1       4.256   4.230   7.662  0.00  0.00     0.352 A 
ATOM     27  O   UNL d   1       3.619   5.279   6.906  0.00  0.00    -0.323 OA
ATOM     28  C   UNL d   1       3.689   5.650   4.498  0.00  0.00     0.040 A 
ATOM     29  C   UNL d   1       4.197   5.176   3.283  0.00  0.00     0.012 A 
ENDBRANCH  20  21
ENDBRANCH   2  20
TORSDOF 4
