REMARK  5 active torsions:
REMARK  status: ('A' for Active; 'I' for Inactive)
REMARK    1  A    between atoms: N_16  and  C_1 
REMARK    2  A    between atoms: C_2  and  C_7 
REMARK    3  A    between atoms: C_20  and  C_5 
REMARK    4  A    between atoms: C_8  and  C_15 
REMARK    5  A    between atoms: N_13  and  N_16 
ROOT
ATOM      1  N   UNL d   1       0.859   4.859  -1.145  0.00  0.00    -0.326 N 
ATOM      2  HN  UNL d   1       0.890   5.513  -1.927  1.00  0.00     0.180 HD
ATOM      3  C   UNL d   1       0.046   5.019  -0.147  0.00  0.00     0.120 C 
ENDROOT
BRANCH   3   4
ATOM      4  C   UNL d   1      -0.922   6.093  -0.123  0.00  0.00     0.022 A 
ATOM      5  S   UNL d   1      -0.744   7.444  -1.161  0.00  0.00    -0.099 SA
ATOM      6  C   UNL d   1      -2.203   8.141  -0.615  0.00  0.00     0.071 A 
ATOM      7  C   UNL d   1      -2.818   7.372   0.345  0.00  0.00     0.025 A 
ATOM      8  C   UNL d   1      -2.066   6.197   0.650  0.00  0.00     0.041 A 
BRANCH   7   9
ATOM      9  C   UNL d   1      -4.074   7.745   0.919  0.00  0.00    -0.061 C 
ATOM     10  C   UNL d   1      -5.140   8.116   1.337  0.00  0.00    -0.061 C 
BRANCH  10  11
ATOM     11  C   UNL d   1      -6.411   8.604   1.779  0.00  0.00     0.018 A 
ATOM     12  C   UNL d   1      -7.450   7.713   2.061  0.00  0.00     0.020 A 
ATOM     13  C   UNL d   1      -8.695   8.195   2.472  0.00  0.00     0.001 A 
ATOM     14  C   UNL d   1      -8.904   9.569   2.600  0.00  0.00     0.000 A 
ATOM     15  C   UNL d   1      -7.871  10.461   2.318  0.00  0.00     0.001 A 
ATOM     16  C   UNL d   1      -6.625   9.979   1.907  0.00  0.00     0.020 A 
ENDBRANCH  10  11
ENDBRANCH   7   9
ENDBRANCH   3   4
BRANCH   1  17
ATOM     17  N   UNL d   1       1.666   3.764  -1.085  0.00  0.00    -0.203 NA
ATOM     18  H   UNL d   1       2.212   3.657  -0.225  0.00  0.00     0.153 HD
BRANCH  17  19
ATOM     19  C   UNL d   1       2.487   3.529  -2.229  0.00  0.00     0.071 A 
ATOM     20  C   UNL d   1       3.827   3.119  -2.037  0.00  0.00     0.060 A 
ATOM     21  C   UNL d   1       4.673   2.825  -3.110  0.00  0.00     0.049 A 
ATOM     22 CL   UNL d   1       4.483   2.982  -0.437  0.00  0.00    -0.082 Cl
ATOM     23  C   UNL d   1       4.189   2.926  -4.407  0.00  0.00     0.037 A 
ATOM     24  C   UNL d   1       2.877   3.325  -4.640  0.00  0.00     0.049 A 
ATOM     25 CL   UNL d   1       5.211   2.534  -5.734  0.00  0.00    -0.084 Cl
ATOM     26  C   UNL d   1       2.028   3.619  -3.563  0.00  0.00     0.060 A 
ATOM     27 CL   UNL d   1       0.393   4.015  -3.984  0.00  0.00    -0.082 Cl
ENDBRANCH  17  19
ENDBRANCH   1  17
TORSDOF 5
