REMARK  4 active torsions:
REMARK  status: ('A' for Active; 'I' for Inactive)
REMARK    1  A    between atoms: S_12  and  C_2 
REMARK    2  A    between atoms: C_6  and  C_3 
REMARK    3  A    between atoms: O_13  and  C_6 
REMARK    4  A    between atoms: C_16  and  O_13 
ROOT
ATOM      1  C   UNL d   1       1.022  -0.124  -0.013  0.00  0.00     0.094 A 
ATOM      2  C   UNL d   1       0.280   1.062  -0.029  0.00  0.00     0.091 A 
ATOM      3  C   UNL d   1       0.303  -1.332  -0.023  0.00  0.00     0.064 A 
ATOM      4  N   UNL d   1      -1.076   1.071  -0.033  0.00  0.00    -0.353 N 
ATOM      5  HN  UNL d   1      -1.582   1.956  -0.052  1.00  0.00     0.166 HD
ATOM      6  C   UNL d   1       2.455  -0.097   0.063  0.00  0.00     0.103 C 
ATOM      7  N   UNL d   1       3.611  -0.096   0.141  0.00  0.00    -0.191 NA
ATOM      8  C   UNL d   1      -1.100  -1.312  -0.011  0.00  0.00     0.043 A 
ATOM      9  C   UNL d   1      -1.750  -0.094  -0.014  0.00  0.00     0.007 A 
ATOM     10  C   UNL d   1      -3.243   0.010   0.006  0.00  0.00     0.068 C 
ENDROOT
BRANCH   2  11
ATOM     11  S   UNL d   1       1.030   2.693  -0.030  0.00  0.00    -0.115 SA
ATOM     12  C   UNL d   1      -0.442   3.771  -0.061  0.00  0.00     0.097 C 
ENDBRANCH   2  11
BRANCH   3  13
ATOM     13  C   UNL d   1       0.914  -2.689  -0.007  0.00  0.00     0.295 C 
ATOM     14  O   UNL d   1       0.357  -3.650   0.498  0.00  0.00    -0.259 OA
BRANCH  13  15
ATOM     15  O   UNL d   1       2.083  -2.709  -0.683  0.00  0.00    -0.318 OA
BRANCH  15  16
ATOM     16  C   UNL d   1       2.758  -3.980  -0.744  0.00  0.00     0.174 C 
ATOM     17  C   UNL d   1       3.502  -4.261   0.550  0.00  0.00     0.034 C 
ENDBRANCH  15  16
ENDBRANCH  13  15
ENDBRANCH   3  13
TORSDOF 4
