REMARK  7 active torsions:
REMARK  status: ('A' for Active; 'I' for Inactive)
REMARK    1  A    between atoms: C_2  and  C_1 
REMARK    2  A    between atoms: O_9  and  C_2 
REMARK    3  A    between atoms: C_5  and  C_3 
REMARK    4  A    between atoms: O_6  and  C_7 
REMARK    5  A    between atoms: C_8  and  O_6 
REMARK    6  A    between atoms: C_14  and  C_8 
REMARK    7  A    between atoms: C_15  and  O_9 
ROOT
ATOM      1  C   UNL d   1       3.104   0.874  -0.954  0.00  0.00    -0.036 A 
ATOM      2  C   UNL d   1       4.458   2.293  -2.975  0.00  0.00     0.069 A 
ATOM      3  C   UNL d   1       2.735   2.186  -1.272  0.00  0.00     0.014 A 
ATOM      4  C   UNL d   1       4.202   0.308  -1.614  0.00  0.00     0.014 A 
ATOM      5  C   UNL d   1       4.879   1.014  -2.614  0.00  0.00     0.037 A 
ATOM      6  C   UNL d   1       3.408   2.888  -2.277  0.00  0.00     0.037 A 
ENDROOT
BRANCH   2   7
ATOM      7  O   UNL d   1       4.995   3.047  -3.983  0.00  0.00    -0.347 OA
BRANCH   7   8
ATOM      8  C   UNL d   1       5.697   2.314  -4.988  0.00  0.00     0.214 C 
BRANCH   8   9
ATOM      9  C   UNL d   1       5.793   3.143  -6.245  0.00  0.00    -0.034 A 
ATOM     10  C   UNL d   1       6.551   4.322  -6.268  0.00  0.00     0.009 A 
ATOM     11  C   UNL d   1       6.668   5.063  -7.445  0.00  0.00     0.001 A 
ATOM     12  C   UNL d   1       6.025   4.639  -8.607  0.00  0.00     0.000 A 
ATOM     13  C   UNL d   1       5.257   3.475  -8.592  0.00  0.00     0.001 A 
ATOM     14  C   UNL d   1       5.139   2.732  -7.416  0.00  0.00     0.009 A 
ENDBRANCH   8   9
ENDBRANCH   7   8
ENDBRANCH   2   7
BRANCH   1  15
ATOM     15  C   UNL d   1       2.396   0.057   0.041  0.00  0.00     0.017 C 
ATOM     16  C   UNL d   1       1.091   0.188   0.323  0.00  0.00     0.083 C 
BRANCH  16  17
ATOM     17  C   UNL d   1       0.432  -0.785   1.216  0.00  0.00     0.282 C 
ATOM     18  O   UNL d   1       0.980  -1.728   1.763  0.00  0.00    -0.260 OA
BRANCH  17  19
ATOM     19  O   UNL d   1      -0.891  -0.486   1.230  0.00  0.00    -0.319 OA
BRANCH  19  20
ATOM     20  C   UNL d   1      -1.740  -1.485   1.811  0.00  0.00     0.174 C 
ATOM     21  C   UNL d   1      -2.151  -2.463   0.726  0.00  0.00     0.034 C 
ENDBRANCH  19  20
ENDBRANCH  17  19
ENDBRANCH  16  17
ENDBRANCH   1  15
TORSDOF 7
