REMARK  5 active torsions:
REMARK  status: ('A' for Active; 'I' for Inactive)
REMARK    1  A    between atoms: O_7  and  C_1 
REMARK       I    between atoms: C_2  and  N_6 
REMARK    2  A    between atoms: C_3  and  C_2 
REMARK    3  A    between atoms: C_4  and  C_3 
REMARK    4  A    between atoms: N_6  and  C_15 
REMARK    5  A    between atoms: C_16  and  O_7 
ROOT
ATOM      1  C   UNL d   1       1.445  -5.045  -0.228  0.00  0.00     0.034 A 
ATOM      2  C   UNL d   1       0.201  -2.527  -0.164  0.00  0.00     0.078 A 
ATOM      3  C   UNL d   1       2.093  -3.918  -0.736  0.00  0.00     0.032 A 
ATOM      4  C   UNL d   1       0.139  -4.907   0.260  0.00  0.00     0.032 A 
ATOM      5  C   UNL d   1      -0.482  -3.652   0.293  0.00  0.00     0.039 A 
ATOM      6  C   UNL d   1       1.468  -2.668  -0.720  0.00  0.00     0.039 A 
ENDROOT
BRANCH   1   7
ATOM      7  N   UNL d   1       2.030  -6.330  -0.203  0.00  0.00    -0.327 N 
ATOM      8  C   UNL d   1       3.361  -6.637  -0.433  0.00  0.00     0.226 C 
ATOM      9  O   UNL d   1       4.273  -5.832  -0.614  0.00  0.00    -0.273 OA
ATOM     10  H   UNL d   1       1.441  -7.086   0.127  0.00  0.00     0.169 HD
BRANCH   8  11
ATOM     11  C   UNL d   1       3.640  -8.131  -0.454  0.00  0.00     0.149 C 
BRANCH  11  12
ATOM     12  C   UNL d   1       3.880  -8.634   0.933  0.00  0.00    -0.009 A 
ATOM     13  S   UNL d   1       2.660  -9.514   1.757  0.00  0.00    -0.106 SA
ATOM     14  C   UNL d   1       3.664  -9.756   3.119  0.00  0.00     0.050 A 
ATOM     15  C   UNL d   1       4.899  -9.168   2.963  0.00  0.00     0.008 A 
ATOM     16  C   UNL d   1       5.023  -8.517   1.702  0.00  0.00     0.015 A 
ENDBRANCH  11  12
ENDBRANCH   8  11
ENDBRANCH   1   7
BRANCH   2  17
ATOM     17  O   UNL d   1      -0.454  -1.331  -0.172  0.00  0.00    -0.255 OA
BRANCH  17  18
ATOM     18  C   UNL d   1       0.155  -0.319   0.626  0.00  0.00     0.530 C 
ATOM     19  F   UNL d   1       1.487  -0.471   0.789  0.00  0.00    -0.144 F 
ATOM     20  F   UNL d   1      -0.431  -0.291   1.842  0.00  0.00    -0.144 F 
ATOM     21  F   UNL d   1      -0.055   0.878   0.031  0.00  0.00    -0.144 F 
ENDBRANCH  17  18
ENDBRANCH   2  17
TORSDOF 5
