REMARK  5 active torsions:
REMARK  status: ('A' for Active; 'I' for Inactive)
REMARK    1  A    between atoms: C_10  and  N_1 
REMARK    2  A    between atoms: C_4  and  O_14 
REMARK       I    between atoms: N_13  and  C_4 
REMARK    3  A    between atoms: O_14  and  N_8 
REMARK    4  A    between atoms: C_11  and  C_10 
REMARK    5  A    between atoms: C_19  and  N_13 
ROOT
ATOM      1  N   UNL d   1      -0.029   0.037   1.342  0.00  0.00     0.103 N 
ATOM      2  C   UNL d   1      -0.029  -1.171   0.502  0.00  0.00     0.229 C 
ATOM      3  C   UNL d   1       0.028   1.231   0.483  0.00  0.00     0.229 C 
ATOM      4  C   UNL d   1      -1.659   0.065  -1.072  0.00  0.00     0.015 C 
ATOM      5  C   UNL d   1      -1.197  -1.254  -0.486  0.00  0.00     0.090 C 
ATOM      6  C   UNL d   1      -1.184   1.366  -0.446  0.00  0.00     0.090 C 
ATOM      7  N   UNL d   1      -2.571   0.015  -2.010  0.00  0.00    -0.264 N 
ATOM      8  HN  UNL d   1      -2.886  -0.834  -2.479  1.00  0.00     0.194 HD
ATOM      9  C   UNL d   1       1.343  -1.274  -0.190  0.00  0.00     0.036 C 
ATOM     10  C   UNL d   1       1.369   1.259  -0.278  0.00  0.00     0.036 C 
ATOM     11  C   UNL d   1       1.715  -0.039  -1.000  0.00  0.00     0.004 C 
ENDROOT
BRANCH   7  12
ATOM     12  O   UNL d   1      -3.054   1.321  -2.273  0.00  0.00    -0.181 OA
BRANCH  12  13
ATOM     13  C   UNL d   1      -4.128   1.363  -3.146  0.00  0.00     0.387 C 
ATOM     14  N   UNL d   1      -4.358   0.189  -3.824  0.00  0.00    -0.301 N 
ATOM     15  H   UNL d   1      -3.715  -0.544  -3.549  0.00  0.00     0.171 HD
ATOM     16  O   UNL d   1      -4.752   2.416  -3.273  0.00  0.00    -0.236 OA
BRANCH  14  17
ATOM     17  C   UNL d   1      -5.311  -0.062  -4.829  0.00  0.00     0.036 A 
ATOM     18  C   UNL d   1      -6.247   0.885  -5.267  0.00  0.00     0.029 A 
ATOM     19  C   UNL d   1      -7.163   0.574  -6.277  0.00  0.00     0.002 A 
ATOM     20  C   UNL d   1      -7.154  -0.686  -6.869  0.00  0.00     0.000 A 
ATOM     21  C   UNL d   1      -6.226  -1.637  -6.447  0.00  0.00     0.002 A 
ATOM     22  C   UNL d   1      -5.312  -1.325  -5.433  0.00  0.00     0.029 A 
ENDBRANCH  14  17
ENDBRANCH  12  13
ENDBRANCH   7  12
BRANCH   1  23
ATOM     23  C   UNL d   1      -1.136   0.111   2.316  0.00  0.00     0.319 C 
BRANCH  23  24
ATOM     24  C   UNL d   1      -1.131  -1.021   3.307  0.00  0.00     0.011 A 
ATOM     25  S   UNL d   1      -2.460  -2.106   3.373  0.00  0.00    -0.105 SA
ATOM     26  C   UNL d   1      -1.738  -3.016   4.624  0.00  0.00     0.050 A 
ATOM     27  C   UNL d   1      -0.520  -2.500   5.005  0.00  0.00     0.008 A 
ATOM     28  C   UNL d   1      -0.171  -1.343   4.248  0.00  0.00     0.017 A 
ENDBRANCH  23  24
ENDBRANCH   1  23
TORSDOF 5
