REMARK  5 active torsions:
REMARK  status: ('A' for Active; 'I' for Inactive)
REMARK    1  A    between atoms: C_9  and  C_1 
REMARK    2  A    between atoms: S_10  and  C_4 
REMARK    3  A    between atoms: C_11  and  C_5 
REMARK    4  A    between atoms: C_14  and  S_10 
REMARK    5  A    between atoms: C_16  and  C_14 
ROOT
ATOM      1  C   UNL d   1       1.051   1.147   0.132  0.00  0.00     0.117 C 
ATOM      2  N   UNL d   1       1.780   0.019   0.107  0.00  0.00    -0.335 N 
ATOM      3  HN  UNL d   1       2.764   0.020   0.375  1.00  0.00     0.168 HD
ATOM      4  C   UNL d   1       1.162  -1.115  -0.283  0.00  0.00     0.087 C 
ATOM      5  C   UNL d   1      -0.158  -1.130  -0.722  0.00  0.00     0.065 C 
ATOM      6  N   UNL d   1      -0.270   1.180  -0.092  0.00  0.00    -0.345 N 
ATOM      7  HN  UNL d   1      -0.802   2.042   0.024  1.00  0.00     0.167 HD
ATOM      8  C   UNL d   1      -0.877   0.030  -0.478  0.00  0.00     0.023 C 
ATOM      9  C   UNL d   1      -2.364   0.170  -0.649  0.00  0.00     0.069 C 
ENDROOT
BRANCH   4  10
ATOM     10  S   UNL d   1       2.179  -2.596  -0.136  0.00  0.00    -0.107 SA
BRANCH  10  11
ATOM     11  C   UNL d   1       3.112  -2.178   1.375  0.00  0.00     0.119 C 
BRANCH  11  12
ATOM     12  C   UNL d   1       3.996  -3.293   1.892  0.00  0.00    -0.049 A 
ATOM     13  C   UNL d   1       5.381  -3.094   2.009  0.00  0.00     0.008 A 
ATOM     14  C   UNL d   1       6.200  -4.063   2.591  0.00  0.00     0.001 A 
ATOM     15  C   UNL d   1       5.649  -5.251   3.065  0.00  0.00     0.000 A 
ATOM     16  C   UNL d   1       4.279  -5.473   2.943  0.00  0.00     0.001 A 
ATOM     17  C   UNL d   1       3.454  -4.503   2.360  0.00  0.00     0.008 A 
ENDBRANCH  11  12
ENDBRANCH  10  11
ENDBRANCH   4  10
BRANCH   5  18
ATOM     18  C   UNL d   1      -0.752  -2.260  -1.478  0.00  0.00     0.160 C 
ATOM     19  O   UNL d   1      -1.905  -2.621  -1.259  0.00  0.00    -0.293 OA
ATOM     20  C   UNL d   1       0.063  -2.893  -2.583  0.00  0.00     0.097 C 
ENDBRANCH   5  18
BRANCH   1  21
ATOM     21  C   UNL d   1       1.780   2.431   0.219  0.00  0.00     0.014 A 
ATOM     22  C   UNL d   1       1.261   3.605   0.823  0.00  0.00    -0.048 A 
ATOM     23  C   UNL d   1      -0.075   3.675   1.514  0.00  0.00     0.049 C 
ATOM     24  C   UNL d   1       1.996   4.809   0.744  0.00  0.00     0.007 A 
ATOM     25  C   UNL d   1       3.234   4.863   0.113  0.00  0.00     0.001 A 
ATOM     26  C   UNL d   1       3.770   3.712  -0.447  0.00  0.00     0.001 A 
ATOM     27  C   UNL d   1       3.052   2.517  -0.389  0.00  0.00     0.016 A 
ENDBRANCH   1  21
TORSDOF 5
