REMARK  4 active torsions:
REMARK  status: ('A' for Active; 'I' for Inactive)
REMARK    1  A    between atoms: N_10  and  C_3 
REMARK    2  A    between atoms: C_8  and  C_6 
REMARK    3  A    between atoms: O_13  and  C_8 
REMARK    4  A    between atoms: C_16  and  O_13 
ROOT
ATOM      1  C   UNL d   1       1.915   0.722  -0.057  0.00  0.00     0.086 A 
ATOM      2  C   UNL d   1       0.482   0.594   0.033  0.00  0.00    -0.008 A 
ATOM      3  C   UNL d   1       2.559  -0.504  -0.042  0.00  0.00     0.089 A 
ATOM      4  C   UNL d   1       0.112  -0.741   0.050  0.00  0.00    -0.007 A 
ATOM      5  S   UNL d   1       1.439  -1.796   0.057  0.00  0.00    -0.075 SA
ATOM      6  C   UNL d   1      -0.555   1.703   0.010  0.00  0.00     0.121 C 
ATOM      7  C   UNL d   1       2.624   1.967  -0.177  0.00  0.00     0.103 C 
ATOM      8  N   UNL d   1       3.178   2.977  -0.300  0.00  0.00    -0.191 NA
ATOM      9  C   UNL d   1      -1.293  -1.258   0.073  0.00  0.00     0.047 C 
ATOM     10  C   UNL d   1      -1.981   1.161   0.286  0.00  0.00     0.020 C 
ATOM     11  C   UNL d   1      -2.259  -0.171  -0.411  0.00  0.00     0.006 C 
ENDROOT
BRANCH   3  12
ATOM     12  N   UNL d   1       3.881  -0.778  -0.107  0.00  0.00    -0.392 N 
ATOM     13  H   UNL d   1       4.587  -0.066   0.056  0.00  0.00     0.156 HD
ATOM     14  H   UNL d   1       4.197  -1.724   0.089  0.00  0.00     0.156 HD
ENDBRANCH   3  12
BRANCH   6  15
ATOM     15  C   UNL d   1      -0.317   2.784   1.053  0.00  0.00     0.267 C 
ATOM     16  O   UNL d   1       0.229   2.617   2.135  0.00  0.00    -0.265 OA
BRANCH  15  17
ATOM     17  O   UNL d   1      -0.951   3.927   0.655  0.00  0.00    -0.321 OA
BRANCH  17  18
ATOM     18  C   UNL d   1      -1.238   4.876   1.691  0.00  0.00     0.174 C 
ATOM     19  C   UNL d   1      -2.613   4.553   2.250  0.00  0.00     0.034 C 
ENDBRANCH  17  18
ENDBRANCH  15  17
ENDBRANCH   6  15
TORSDOF 4
