REMARK  2 active torsions:
REMARK  status: ('A' for Active; 'I' for Inactive)
REMARK    1  A    between atoms: N_2  and  C_1 
REMARK    2  A    between atoms: C_13  and  C_8 
ROOT
ATOM      1  C   UNL d   1       0.229  -1.177   0.007  0.00  0.00     0.170 A 
ATOM      2  N   UNL d   1       1.406  -0.600   0.137  0.00  0.00    -0.334 N 
ATOM      3  HN  UNL d   1       2.281  -1.090   0.324  1.00  0.00     0.168 HD
ATOM      4  C   UNL d   1       1.278   0.772  -0.019  0.00  0.00     0.051 A 
ATOM      5  S   UNL d   1      -1.095  -0.125  -0.245  0.00  0.00    -0.062 SA
ATOM      6  C   UNL d   1      -0.022   1.213  -0.186  0.00  0.00     0.083 A 
ENDROOT
BRANCH   1   7
ATOM      7  N   UNL d   1       0.025  -2.568   0.056  0.00  0.00    -0.238 N 
ATOM      8  N   UNL d   1      -1.205  -3.070  -0.263  0.00  0.00    -0.296 N 
ATOM      9  C   UNL d   1      -1.065  -4.396  -0.240  0.00  0.00     0.024 A 
ATOM     10  HN  UNL d   1      -2.052  -2.542  -0.474  1.00  0.00     0.187 HD
ATOM     11  C   UNL d   1      -2.200  -5.284  -0.589  0.00  0.00     0.070 C 
ATOM     12  C   UNL d   1       0.232  -4.775   0.150  0.00  0.00     0.052 A 
ATOM     13  C   UNL d   1       0.915  -3.594   0.359  0.00  0.00     0.034 A 
ATOM     14  C   UNL d   1       2.314  -3.418   0.826  0.00  0.00     0.070 C 
ENDBRANCH   1   7
BRANCH   4  15
ATOM     15  C   UNL d   1       2.450   1.639   0.000  0.00  0.00    -0.009 A 
ATOM     16  C   UNL d   1       2.472   2.865  -0.683  0.00  0.00     0.015 A 
ATOM     17  C   UNL d   1       3.623   3.660  -0.684  0.00  0.00     0.020 A 
ATOM     18  C   UNL d   1       4.760   3.232  -0.003  0.00  0.00     0.011 A 
ATOM     19  C   UNL d   1       4.759   2.019   0.679  0.00  0.00     0.020 A 
ATOM     20 BR   UNL d   1       6.319   4.301  -0.019  0.00  0.00    -0.051 Br
ATOM     21  C   UNL d   1       3.608   1.225   0.677  0.00  0.00     0.015 A 
ENDBRANCH   4  15
TORSDOF 2
