REMARK  1 active torsions:
REMARK  status: ('A' for Active; 'I' for Inactive)
REMARK    1  A    between atoms: C_9  and  C_3 
ROOT
ATOM      1  C   UNL d   1      -0.377  -0.566  -0.096  0.00  0.00    -0.013 A 
ATOM      2  C   UNL d   1       0.466   0.577  -0.090  0.00  0.00    -0.014 A 
ATOM      3  C   UNL d   1       1.647  -1.973  -0.172  0.00  0.00     0.021 C 
ATOM      4  C   UNL d   1       0.251  -1.821  -0.176  0.00  0.00     0.029 C 
ATOM      5  C   UNL d   1       2.493  -0.862   0.018  0.00  0.00    -0.011 A 
ATOM      6  C   UNL d   1       1.901   0.431   0.025  0.00  0.00    -0.014 A 
ATOM      7  C   UNL d   1      -1.815  -0.421  -0.025  0.00  0.00    -0.015 A 
ATOM      8  C   UNL d   1      -0.169   1.836  -0.178  0.00  0.00     0.014 A 
ATOM      9  C   UNL d   1      -2.384   0.872  -0.081  0.00  0.00    -0.025 A 
ATOM     10  C   UNL d   1      -1.555   1.980  -0.194  0.00  0.00     0.013 A 
ATOM     11  C   UNL d   1       3.888  -0.981   0.243  0.00  0.00     0.013 A 
ATOM     12  C   UNL d   1       2.779   1.536   0.195  0.00  0.00     0.013 A 
ATOM     13  C   UNL d   1      -2.725  -1.500   0.135  0.00  0.00     0.013 A 
ATOM     14  C   UNL d   1      -3.776   1.055  -0.009  0.00  0.00     0.012 A 
ATOM     15  C   UNL d   1       4.153   1.391   0.389  0.00  0.00     0.001 A 
ATOM     16  C   UNL d   1       4.708   0.128   0.424  0.00  0.00     0.001 A 
ATOM     17  C   UNL d   1      -4.107  -1.307   0.233  0.00  0.00     0.001 A 
ATOM     18  C   UNL d   1      -4.634  -0.028   0.154  0.00  0.00     0.001 A 
ENDROOT
BRANCH   3  19
ATOM     19  C   UNL d   1       2.136  -3.367  -0.378  0.00  0.00     0.156 C 
ATOM     20  O   UNL d   1       1.582  -4.294   0.208  0.00  0.00    -0.293 OA
ATOM     21  C   UNL d   1       3.245  -3.619  -1.370  0.00  0.00     0.097 C 
ENDBRANCH   3  19
TORSDOF 1
