REMARK  2 active torsions:
REMARK  status: ('A' for Active; 'I' for Inactive)
REMARK    1  A    between atoms: C_5  and  C_1 
REMARK    2  A    between atoms: S_12  and  C_6 
ROOT
ATOM      1  C   UNL d   1      -0.010   1.084  -0.089  0.00  0.00     0.136 A 
ATOM      2  N   UNL d   1       0.832  -0.006   0.068  0.00  0.00    -0.315 N 
ATOM      3  N   UNL d   1      -1.245   0.623  -0.177  0.00  0.00    -0.283 N 
ATOM      4  HN  UNL d   1      -2.082   1.196  -0.282  1.00  0.00     0.188 HD
ATOM      5  C   UNL d   1       0.023  -1.113   0.024  0.00  0.00     0.162 A 
ATOM      6  N   UNL d   1      -1.225  -0.748  -0.104  0.00  0.00    -0.278 N 
ATOM      7  HN  UNL d   1      -2.034  -1.367  -0.143  1.00  0.00     0.189 HD
ATOM      8  C   UNL d   1       2.259  -0.022   0.252  0.00  0.00     0.160 C 
ENDROOT
BRANCH   1   9
ATOM      9  C   UNL d   1       0.364   2.506  -0.174  0.00  0.00     0.031 A 
ATOM     10  C   UNL d   1      -0.418   3.530   0.407  0.00  0.00     0.049 A 
ATOM     11  C   UNL d   1      -0.050   4.880   0.280  0.00  0.00     0.048 A 
ATOM     12 CL   UNL d   1      -1.848   3.221   1.332  0.00  0.00    -0.083 Cl
ATOM     13  C   UNL d   1       1.107   5.224  -0.407  0.00  0.00     0.035 A 
ATOM     14  C   UNL d   1       1.888   4.239  -0.998  0.00  0.00     0.025 A 
ATOM     15 CL   UNL d   1       1.569   6.874  -0.539  0.00  0.00    -0.084 Cl
ATOM     16  C   UNL d   1       1.503   2.896  -0.899  0.00  0.00     0.018 A 
ENDBRANCH   1   9
BRANCH   5  17
ATOM     17  S   UNL d   1       0.616  -2.738   0.104  0.00  0.00    -0.097 SA
ATOM     18  C   UNL d   1      -0.934  -3.667   0.048  0.00  0.00     0.099 C 
ENDBRANCH   5  17
TORSDOF 2
