REMARK  6 active torsions:
REMARK  status: ('A' for Active; 'I' for Inactive)
REMARK    1  A    between atoms: C_3  and  C_1 
REMARK    2  A    between atoms: S_13  and  C_6 
REMARK    3  A    between atoms: C_19  and  S_13 
REMARK    4  A    between atoms: C_15  and  C_19 
REMARK       I    between atoms: N_16  and  C_15 
REMARK    5  A    between atoms: C_23  and  N_16 
REMARK    6  A    between atoms: C_24  and  C_17 
ROOT
ATOM      1  C   UNL d   1      -0.458   1.106  -0.536  0.00  0.00     0.153 A 
ATOM      2  N   UNL d   1      -0.813  -0.192  -0.237  0.00  0.00    -0.314 N 
ATOM      3  N   UNL d   1       0.857   1.167  -0.652  0.00  0.00    -0.281 N 
ATOM      4  HN  UNL d   1       1.399   2.002  -0.875  1.00  0.00     0.188 HD
ATOM      5  C   UNL d   1       0.362  -0.899  -0.215  0.00  0.00     0.163 A 
ATOM      6  N   UNL d   1       1.371  -0.087  -0.422  0.00  0.00    -0.278 N 
ATOM      7  HN  UNL d   1       2.359  -0.340  -0.413  1.00  0.00     0.189 HD
ATOM      8  C   UNL d   1      -2.138  -0.737  -0.100  0.00  0.00     0.160 C 
ENDROOT
BRANCH   5   9
ATOM      9  S   UNL d   1       0.464  -2.626  -0.035  0.00  0.00    -0.083 SA
BRANCH   9  10
ATOM     10  C   UNL d   1       2.265  -2.825  -0.010  0.00  0.00     0.185 C 
BRANCH  10  11
ATOM     11  C   UNL d   1       2.791  -4.253  -0.044  0.00  0.00     0.231 C 
ATOM     12  N   UNL d   1       1.880  -5.275  -0.247  0.00  0.00    -0.327 N 
ATOM     13  H   UNL d   1       0.935  -5.002  -0.492  0.00  0.00     0.169 HD
ATOM     14  O   UNL d   1       4.006  -4.416   0.082  0.00  0.00    -0.272 OA
BRANCH  12  15
ATOM     15  C   UNL d   1       2.143  -6.663  -0.146  0.00  0.00     0.034 A 
ATOM     16  C   UNL d   1       3.342  -7.176   0.343  0.00  0.00     0.030 A 
ATOM     17  C   UNL d   1       3.527  -8.555   0.508  0.00  0.00     0.010 A 
ATOM     18  C   UNL d   1       2.518  -9.468   0.176  0.00  0.00    -0.055 A 
ATOM     19  C   UNL d   1       1.320  -8.956  -0.345  0.00  0.00     0.010 A 
ATOM     20  C   UNL d   1       1.135  -7.570  -0.500  0.00  0.00     0.030 A 
BRANCH  18  21
ATOM     21  C   UNL d   1       2.686 -10.955   0.440  0.00  0.00     0.010 C 
ATOM     22  C   UNL d   1       3.879 -11.548  -0.316  0.00  0.00     0.015 C 
ATOM     23  C   UNL d   1       2.819 -11.233   1.943  0.00  0.00     0.015 C 
ENDBRANCH  18  21
ENDBRANCH  12  15
ENDBRANCH  10  11
ENDBRANCH   9  10
ENDBRANCH   5   9
BRANCH   1  24
ATOM     24  C   UNL d   1      -1.350   2.284  -0.760  0.00  0.00     0.102 A 
ATOM     25  N   UNL d   1      -2.638   2.317  -0.399  0.00  0.00    -0.257 N 
ATOM     26  O   UNL d   1      -3.118   3.545  -0.818  0.00  0.00    -0.242 OA
ATOM     27  HN  UNL d   1      -3.159   1.587   0.086  1.00  0.00     0.195 HD
ATOM     28  C   UNL d   1      -2.123   4.232  -1.440  0.00  0.00     0.074 A 
ATOM     29  C   UNL d   1      -0.971   3.487  -1.403  0.00  0.00     0.070 A 
ATOM     30  C   UNL d   1      -2.492   5.545  -1.999  0.00  0.00     0.079 C 
ENDBRANCH   1  24
TORSDOF 6
