REMARK  6 active torsions:
REMARK  status: ('A' for Active; 'I' for Inactive)
REMARK    1  A    between atoms: C_5  and  N_1 
REMARK    2  A    between atoms: S_2  and  C_7 
REMARK    3  A    between atoms: N_15  and  S_2 
REMARK    4  A    between atoms: C_19  and  N_15 
REMARK    5  A    between atoms: C_23  and  C_19 
REMARK    6  A    between atoms: N_20  and  C_23 
ROOT
ATOM      1  C   UNL d   1       2.857  -1.640   0.115  0.00  0.00     0.067 A 
ATOM      2  C   UNL d   1       5.046  -3.383   0.337  0.00  0.00     0.081 A 
ATOM      3  C   UNL d   1       3.069  -2.651  -0.844  0.00  0.00     0.062 A 
ATOM      4  C   UNL d   1       4.165  -3.513  -0.739  0.00  0.00     0.051 A 
ATOM      5  C   UNL d   1       3.773  -1.504   1.171  0.00  0.00     0.033 A 
ATOM      6  C   UNL d   1       4.856  -2.382   1.293  0.00  0.00     0.027 A 
ATOM      7 CL   UNL d   1       2.096  -2.779  -2.271  0.00  0.00    -0.082 Cl
ENDROOT
BRANCH   1   8
ATOM      8  N   UNL d   1       1.752  -0.760   0.038  0.00  0.00    -0.250 N 
ATOM      9  C   UNL d   1       1.856   0.606   0.054  0.00  0.00     0.232 C 
ATOM     10  C   UNL d   1       0.484   1.200  -0.116  0.00  0.00     0.123 C 
ATOM     11  O   UNL d   1       2.874   1.280   0.135  0.00  0.00    -0.273 OA
ATOM     12  C   UNL d   1      -0.464   0.011   0.045  0.00  0.00     0.050 C 
ATOM     13  C   UNL d   1       0.450  -1.196   0.067  0.00  0.00     0.240 C 
ATOM     14  C   UNL d   1      -1.519  -0.104  -1.055  0.00  0.00     0.020 C 
ATOM     15  C   UNL d   1      -1.309   0.103   1.320  0.00  0.00     0.020 C 
ATOM     16  O   UNL d   1       0.058  -2.349   0.201  0.00  0.00    -0.272 OA
ATOM     17  C   UNL d   1      -2.677   0.773  -0.595  0.00  0.00     0.001 C 
ATOM     18  C   UNL d   1      -2.551   0.896   0.921  0.00  0.00     0.001 C 
ENDBRANCH   1   8
BRANCH   2  19
ATOM     19  S   UNL d   1       6.476  -4.436   0.414  0.00  0.00     0.258 S 
ATOM     20  O   UNL d   1       7.097  -4.394  -0.889  0.00  0.00    -0.201 OA
ATOM     21  O   UNL d   1       7.210  -4.124   1.622  0.00  0.00    -0.201 OA
BRANCH  19  22
ATOM     22  N   UNL d   1       5.810  -5.965   0.586  0.00  0.00    -0.314 N 
ATOM     23  H   UNL d   1       6.222  -6.658  -0.045  0.00  0.00     0.172 HD
BRANCH  22  24
ATOM     24  C   UNL d   1       5.531  -6.450   1.946  0.00  0.00     0.162 C 
BRANCH  24  25
ATOM     25  C   UNL d   1       4.939  -7.871   1.887  0.00  0.00     0.289 C 
BRANCH  25  26
ATOM     26  N   UNL d   1       5.854  -8.821   1.228  0.00  0.00     0.080 N 
ATOM     27  C   UNL d   1       5.298 -10.172   1.267  0.00  0.00     0.306 C 
ATOM     28  H   UNL d   1       6.749  -8.825   1.720  0.00  0.00     0.315 HD
ENDBRANCH  25  26
ENDBRANCH  24  25
ENDBRANCH  22  24
ENDBRANCH  19  22
ENDBRANCH   2  19
TORSDOF 6
