REMARK  6 active torsions:
REMARK  status: ('A' for Active; 'I' for Inactive)
REMARK    1  A    between atoms: N_10  and  C_3 
REMARK    2  A    between atoms: N_11  and  C_4 
REMARK    3  A    between atoms: C_9  and  C_5 
REMARK    4  A    between atoms: C_8  and  C_6 
REMARK    5  A    between atoms: C_12  and  C_8 
REMARK    6  A    between atoms: C_13  and  C_9 
ROOT
ATOM      1  N   UNL d   1       0.116  -1.008  -0.018  0.00  0.00    -0.337 N 
ATOM      2  HN  UNL d   1       0.160  -2.027   0.004  1.00  0.00     0.168 HD
ATOM      3  C   UNL d   1      -1.070  -0.371  -0.068  0.00  0.00     0.085 A 
ATOM      4  C   UNL d   1       1.240  -0.269   0.003  0.00  0.00     0.085 A 
ATOM      5  C   UNL d   1       1.236   1.122  -0.020  0.00  0.00    -0.015 A 
ATOM      6  C   UNL d   1      -1.196   1.014  -0.073  0.00  0.00    -0.015 A 
ATOM      7  C   UNL d   1      -0.011   1.760  -0.066  0.00  0.00     0.021 A 
ENDROOT
BRANCH   5   8
ATOM      8  C   UNL d   1       2.503   1.940   0.024  0.00  0.00     0.080 C 
BRANCH   8   9
ATOM      9  C   UNL d   1       3.156   2.166  -1.323  0.00  0.00    -0.054 A 
ATOM     10  C   UNL d   1       2.503   2.896  -2.326  0.00  0.00     0.007 A 
ATOM     11  C   UNL d   1       3.118   3.124  -3.558  0.00  0.00     0.001 A 
ATOM     12  C   UNL d   1       4.398   2.628  -3.800  0.00  0.00     0.000 A 
ATOM     13  C   UNL d   1       5.062   1.907  -2.812  0.00  0.00     0.001 A 
ATOM     14  C   UNL d   1       4.447   1.678  -1.578  0.00  0.00     0.007 A 
ENDBRANCH   8   9
ENDBRANCH   5   8
BRANCH   4  15
ATOM     15  N   UNL d   1       2.425  -1.001   0.092  0.00  0.00    -0.288 NA
ATOM     16  H   UNL d   1       2.156  -1.982   0.062  0.00  0.00     0.125 HD
ATOM     17  H   UNL d   1       3.049  -0.764  -0.671  0.00  0.00     0.125 HD
ENDBRANCH   4  15
BRANCH   6  18
ATOM     18  C   UNL d   1      -2.531   1.720  -0.033  0.00  0.00     0.080 C 
BRANCH  18  19
ATOM     19  C   UNL d   1      -3.114   2.055  -1.387  0.00  0.00    -0.054 A 
ATOM     20  C   UNL d   1      -4.078   1.224  -1.974  0.00  0.00     0.007 A 
ATOM     21  C   UNL d   1      -4.610   1.526  -3.229  0.00  0.00     0.001 A 
ATOM     22  C   UNL d   1      -4.194   2.671  -3.905  0.00  0.00     0.000 A 
ATOM     23  C   UNL d   1      -3.250   3.516  -3.326  0.00  0.00     0.001 A 
ATOM     24  C   UNL d   1      -2.711   3.210  -2.075  0.00  0.00     0.007 A 
ENDBRANCH  18  19
ENDBRANCH   6  18
BRANCH   3  25
ATOM     25  N   UNL d   1      -2.181  -1.217  -0.102  0.00  0.00    -0.288 NA
ATOM     26  H   UNL d   1      -1.805  -2.164  -0.107  0.00  0.00     0.125 HD
ATOM     27  H   UNL d   1      -2.717  -1.044  -0.945  0.00  0.00     0.125 HD
ENDBRANCH   3  25
TORSDOF 6
