REMARK  5 active torsions:
REMARK  status: ('A' for Active; 'I' for Inactive)
REMARK    1  A    between atoms: C_9  and  N_1 
REMARK    2  A    between atoms: C_8  and  N_3 
REMARK    3  A    between atoms: N_16  and  C_4 
REMARK    4  A    between atoms: N_7  and  C_11 
REMARK    5  A    between atoms: C_10  and  C_8 
ROOT
ATOM      1  N   UNL d   1      -0.595   1.254   0.094  0.00  0.00    -0.254 N 
ATOM      2  C   UNL d   1      -1.371   0.075   0.121  0.00  0.00     0.338 A 
ATOM      3  N   UNL d   1      -0.666  -1.126   0.066  0.00  0.00    -0.261 N 
ATOM      4  C   UNL d   1       0.795   1.229  -0.050  0.00  0.00     0.094 A 
ATOM      5  C   UNL d   1       0.705  -1.215   0.014  0.00  0.00     0.254 A 
ATOM      6  C   UNL d   1       1.431   0.052  -0.078  0.00  0.00     0.117 A 
ATOM      7  O   UNL d   1      -2.605   0.077   0.156  0.00  0.00    -0.246 OA
ATOM      8  O   UNL d   1       1.346  -2.263   0.010  0.00  0.00    -0.268 OA
ENDROOT
BRANCH   3   9
ATOM      9  C   UNL d   1      -1.430  -2.375   0.046  0.00  0.00     0.178 C 
BRANCH   9  10
ATOM     10  C   UNL d   1      -1.721  -2.944  -1.343  0.00  0.00    -0.007 A 
ATOM     11  C   UNL d   1      -2.408  -4.170  -1.543  0.00  0.00     0.110 A 
ATOM     12  C   UNL d   1      -2.588  -4.688  -2.845  0.00  0.00     0.037 A 
ATOM     13  C   UNL d   1      -2.105  -4.002  -3.956  0.00  0.00     0.002 A 
ATOM     14  C   UNL d   1      -1.460  -2.786  -3.783  0.00  0.00     0.001 A 
ATOM     15  C   UNL d   1      -1.278  -2.263  -2.500  0.00  0.00     0.011 A 
BRANCH  11  16
ATOM     16  N   UNL d   1      -2.974  -4.971  -0.433  0.00  0.00    -0.115 N 
ATOM     17  O   UNL d   1      -2.802  -4.585   0.730  0.00  0.00    -0.532 OA
ATOM     18  O   UNL d   1      -3.600  -5.999  -0.727  0.00  0.00    -0.532 OA
ENDBRANCH  11  16
ENDBRANCH   9  10
ENDBRANCH   3   9
BRANCH   1  19
ATOM     19  C   UNL d   1      -1.322   2.498   0.095  0.00  0.00     0.051 A 
ATOM     20  C   UNL d   1      -2.152   2.890   1.166  0.00  0.00    -0.035 A 
ATOM     21  C   UNL d   1      -2.328   2.093   2.430  0.00  0.00     0.050 C 
ATOM     22  C   UNL d   1      -2.852   4.108   1.075  0.00  0.00     0.009 A 
ATOM     23  C   UNL d   1      -2.718   4.936  -0.040  0.00  0.00     0.001 A 
ATOM     24  C   UNL d   1      -1.882   4.560  -1.084  0.00  0.00     0.002 A 
ATOM     25  C   UNL d   1      -1.189   3.351  -1.017  0.00  0.00     0.031 A 
ENDBRANCH   1  19
BRANCH   4  26
ATOM     26  N   UNL d   1       1.556   2.388  -0.126  0.00  0.00    -0.288 NA
ATOM     27  H   UNL d   1       1.114   3.175   0.345  0.00  0.00     0.125 HD
ATOM     28  H   UNL d   1       2.529   2.277   0.145  0.00  0.00     0.125 HD
ENDBRANCH   4  26
TORSDOF 5
