REMARK  4 active torsions:
REMARK  status: ('A' for Active; 'I' for Inactive)
REMARK    1  A    between atoms: C_2  and  C_1 
REMARK    2  A    between atoms: C_5  and  C_2 
REMARK    3  A    between atoms: S_6  and  C_3 
REMARK    4  A    between atoms: C_7  and  S_6 
ROOT
ATOM      1  C   UNL d   1       0.981   0.003   0.028  0.00  0.00     0.062 C 
ATOM      2  C   UNL d   1       2.320  -0.013  -0.017  0.00  0.00     0.054 C 
ENDROOT
BRANCH   1   3
ATOM      3  C   UNL d   1       0.296   1.051   0.830  0.00  0.00     0.182 C 
ATOM      4  O   UNL d   1       0.885   2.055   1.216  0.00  0.00    -0.288 OA
BRANCH   3   5
ATOM      5  C   UNL d   1      -1.149   0.862   1.128  0.00  0.00     0.014 A 
ATOM      6  C   UNL d   1      -1.727  -0.408   1.258  0.00  0.00     0.015 A 
ATOM      7  C   UNL d   1      -3.085  -0.531   1.566  0.00  0.00     0.001 A 
ATOM      8  C   UNL d   1      -3.867   0.609   1.752  0.00  0.00     0.000 A 
ATOM      9  C   UNL d   1      -3.294   1.875   1.635  0.00  0.00     0.001 A 
ATOM     10  C   UNL d   1      -1.938   2.002   1.329  0.00  0.00     0.015 A 
ENDBRANCH   3   5
ENDBRANCH   1   3
BRANCH   2  11
ATOM     11  S   UNL d   1       3.173  -1.226  -0.909  0.00  0.00    -0.102 SA
BRANCH  11  12
ATOM     12  C   UNL d   1       4.127  -0.178  -1.992  0.00  0.00     0.004 A 
ATOM     13  C   UNL d   1       5.134   0.662  -1.501  0.00  0.00     0.020 A 
ATOM     14  C   UNL d   1       5.881   1.455  -2.377  0.00  0.00     0.025 A 
ATOM     15  C   UNL d   1       5.630   1.400  -3.747  0.00  0.00     0.034 A 
ATOM     16  C   UNL d   1       4.639   0.559  -4.248  0.00  0.00     0.025 A 
ATOM     17 CL   UNL d   1       6.556   2.369  -4.826  0.00  0.00    -0.084 Cl
ATOM     18  C   UNL d   1       3.890  -0.230  -3.371  0.00  0.00     0.020 A 
ENDBRANCH  11  12
ENDBRANCH   2  11
TORSDOF 4
