REMARK  5 active torsions:
REMARK  status: ('A' for Active; 'I' for Inactive)
REMARK    1  A    between atoms: C_1  and  C_4 
REMARK    2  A    between atoms: C_2  and  C_3 
REMARK    3  A    between atoms: C_3  and  C_4 
REMARK    4  A    between atoms: C_3  and  O_14 
REMARK    5  A    between atoms: C_4  and  O_13 
ROOT
ATOM      1  C   UNL d   1      -3.953   0.881   0.974  0.00  0.00     0.180 C 
ENDROOT
BRANCH   1   2
ATOM      2  C   UNL d   1      -4.297   1.564  -0.365  0.00  0.00     0.180 C 
ATOM      3  O   UNL d   1      -5.699   1.384  -0.640  0.00  0.00    -0.346 OA
ATOM      4  C   UNL d   1      -5.798   1.070  -2.032  0.00  0.00     0.157 C 
ATOM      5  C   UNL d   1      -6.212  -0.395  -2.176  0.00  0.00     0.078 C 
ATOM      6  C   UNL d   1      -6.825   1.986  -2.679  0.00  0.00     0.078 C 
ATOM      7  O   UNL d   1      -4.525   1.280  -2.652  0.00  0.00    -0.353 OA
ATOM      8  C   UNL d   1      -3.583   1.062  -1.602  0.00  0.00     0.206 C 
ENDBRANCH   1   2
BRANCH   1   9
ATOM      9  C   UNL d   1      -2.477   1.009   1.379  0.00  0.00     0.180 C 
BRANCH   9  10
ATOM     10  O   UNL d   1      -1.668   0.281   0.434  0.00  0.00    -0.390 OA
ATOM     11  H   UNL d   1      -0.785   0.205   0.853  0.00  0.00     0.210 HD
ENDBRANCH   9  10
BRANCH   9  12
ATOM     12  C   UNL d   1      -2.199   0.430   2.776  0.00  0.00     0.180 C 
ATOM     13  O   UNL d   1      -0.802   0.588   3.077  0.00  0.00    -0.346 OA
ATOM     14  C   UNL d   1      -0.746   0.739   4.499  0.00  0.00     0.157 C 
ATOM     15  C   UNL d   1      -0.552  -0.621   5.170  0.00  0.00     0.078 C 
ATOM     16  C   UNL d   1       0.398   1.679   4.844  0.00  0.00     0.078 C 
ATOM     17  O   UNL d   1      -1.979   1.290   4.963  0.00  0.00    -0.353 OA
ATOM     18  C   UNL d   1      -2.920   1.142   3.901  0.00  0.00     0.206 C 
ENDBRANCH   9  12
ENDBRANCH   1   9
BRANCH   1  19
ATOM     19  O   UNL d   1      -4.307  -0.511   0.953  0.00  0.00    -0.390 OA
ATOM     20  H   UNL d   1      -3.673  -0.949   0.353  0.00  0.00     0.210 HD
ENDBRANCH   1  19
TORSDOF 5
