REMARK  4 active torsions:
REMARK  status: ('A' for Active; 'I' for Inactive)
REMARK    1  A    between atoms: C_2  and  S_1 
REMARK    2  A    between atoms: N_5  and  S_1 
REMARK    3  A    between atoms: C_14  and  C_4 
REMARK    4  A    between atoms: C_12  and  N_5 
ROOT
ATOM      1  S   UNL d   1       0.922   0.077  -0.080  0.00  0.00     0.252 S 
ATOM      2  O   UNL d   1       0.214  -1.015   0.554  0.00  0.00    -0.205 OA
ATOM      3  O   UNL d   1       2.364   0.158  -0.003  0.00  0.00    -0.205 OA
ENDROOT
BRANCH   1   4
ATOM      4  C   UNL d   1       0.277   1.549   0.686  0.00  0.00     0.116 A 
ATOM      5  S   UNL d   1       1.226   2.966   0.571  0.00  0.00    -0.075 SA
ATOM      6  C   UNL d   1       0.156   3.868   1.569  0.00  0.00     0.033 A 
ATOM      7  C   UNL d   1      -0.965   3.117   1.880  0.00  0.00     0.023 A 
ATOM      8  C   UNL d   1      -0.888   1.782   1.389  0.00  0.00     0.034 A 
BRANCH   6   9
ATOM      9  C   UNL d   1       0.461   5.246   1.982  0.00  0.00     0.049 A 
ATOM     10  N   UNL d   1      -0.632   6.028   2.171  0.00  0.00    -0.365 N 
ATOM     11  C   UNL d   1      -0.426   7.287   2.617  0.00  0.00     0.088 A 
ATOM     12  HN  UNL d   1      -1.572   5.679   1.983  1.00  0.00     0.165 HD
ATOM     13  C   UNL d   1       0.823   7.810   2.905  0.00  0.00     0.017 A 
ATOM     14  C   UNL d   1       1.932   6.996   2.715  0.00  0.00     0.004 A 
ATOM     15  C   UNL d   1       1.753   5.696   2.243  0.00  0.00     0.031 A 
ENDBRANCH   6   9
ENDBRANCH   1   4
BRANCH   1  16
ATOM     16  N   UNL d   1       0.524   0.080  -1.734  0.00  0.00    -0.181 NA
ATOM     17  H   UNL d   1       1.093  -0.638  -2.184  0.00  0.00     0.146 HD
BRANCH  16  18
ATOM     18  C   UNL d   1      -0.866  -0.019  -2.046  0.00  0.00     0.025 A 
ATOM     19  C   UNL d   1      -1.590   1.152  -2.259  0.00  0.00     0.064 A 
ATOM     20  C   UNL d   1      -2.958   1.079  -2.509  0.00  0.00     0.103 A 
ATOM     21  O   UNL d   1      -3.611   2.271  -2.690  0.00  0.00    -0.346 OA
ATOM     22  C   UNL d   1      -3.601  -0.162  -2.566  0.00  0.00     0.102 A 
ATOM     23  C   UNL d   1      -5.024   2.111  -2.530  0.00  0.00     0.202 C 
ATOM     24  C   UNL d   1      -5.518   0.910  -3.320  0.00  0.00     0.202 C 
ATOM     25  O   UNL d   1      -4.941  -0.303  -2.822  0.00  0.00    -0.346 OA
ATOM     26  C   UNL d   1      -2.878  -1.331  -2.335  0.00  0.00     0.041 A 
ATOM     27  C   UNL d   1      -1.507  -1.261  -2.072  0.00  0.00     0.027 A 
ENDBRANCH  16  18
ENDBRANCH   1  16
TORSDOF 4
