REMARK  8 active torsions:
REMARK  status: ('A' for Active; 'I' for Inactive)
REMARK    1  A    between atoms: N_4  and  C_1 
REMARK    2  A    between atoms: N_11  and  C_1 
REMARK    3  A    between atoms: C_7  and  N_4 
REMARK    4  A    between atoms: O_19  and  C_5 
REMARK    5  A    between atoms: O_20  and  C_9 
REMARK    6  A    between atoms: C_21  and  N_11 
REMARK    7  A    between atoms: C_15  and  C_22 
REMARK    8  A    between atoms: C_22  and  C_21 
ROOT
ATOM      1  N   UNL d   1       2.497   0.177   0.103  0.00  0.00    -0.367 N 
ATOM      2  H   UNL d   1       2.932   0.536  -0.742  0.00  0.00     0.161 HD
ENDROOT
BRANCH   1   3
ATOM      3  C   UNL d   1       1.132   0.097   0.028  0.00  0.00     0.172 C 
ATOM      4  S   UNL d   1       0.421   0.675  -1.368  0.00  0.00    -0.041 SA
BRANCH   3   5
ATOM      5  N   UNL d   1       0.516  -0.423   1.140  0.00  0.00    -0.333 N 
ATOM      6  H   UNL d   1       0.943  -0.138   2.015  0.00  0.00     0.168 HD
BRANCH   5   7
ATOM      7  C   UNL d   1      -0.783  -0.967   1.243  0.00  0.00     0.035 A 
ATOM      8  C   UNL d   1      -1.375  -1.686   0.202  0.00  0.00     0.055 A 
ATOM      9  C   UNL d   1      -2.672  -2.194   0.337  0.00  0.00     0.058 A 
ATOM     10 CL   UNL d   1      -3.333  -3.068  -1.001  0.00  0.00    -0.082 Cl
ATOM     11  C   UNL d   1      -3.380  -1.994   1.522  0.00  0.00     0.055 A 
ATOM     12  C   UNL d   1      -2.771  -1.324   2.586  0.00  0.00     0.028 A 
ATOM     13 CL   UNL d   1      -5.000  -2.551   1.744  0.00  0.00    -0.083 Cl
ATOM     14  C   UNL d   1      -1.468  -0.829   2.457  0.00  0.00     0.031 A 
ENDBRANCH   5   7
ENDBRANCH   3   5
ENDBRANCH   1   3
BRANCH   1  15
ATOM     15  C   UNL d   1       3.340  -0.480   1.085  0.00  0.00     0.126 C 
BRANCH  15  16
ATOM     16  C   UNL d   1       4.827  -0.421   0.737  0.00  0.00     0.058 C 
BRANCH  16  17
ATOM     17  C   UNL d   1       5.605  -1.141   1.812  0.00  0.00    -0.054 A 
ATOM     18  C   UNL d   1       5.857  -2.518   1.700  0.00  0.00     0.046 A 
ATOM     19  C   UNL d   1       6.398  -3.248   2.768  0.00  0.00     0.102 A 
ATOM     20  C   UNL d   1       6.721  -2.568   3.956  0.00  0.00     0.101 A 
ATOM     21  C   UNL d   1       6.490  -1.189   4.053  0.00  0.00     0.040 A 
ATOM     22  C   UNL d   1       5.943  -0.476   2.991  0.00  0.00     0.010 A 
BRANCH  19  23
ATOM     23  O   UNL d   1       6.578  -4.606   2.732  0.00  0.00    -0.353 OA
ATOM     24  C   UNL d   1       6.202  -5.306   1.554  0.00  0.00     0.210 C 
ENDBRANCH  19  23
BRANCH  20  25
ATOM     25  O   UNL d   1       7.197  -3.101   5.126  0.00  0.00    -0.353 OA
ATOM     26  C   UNL d   1       7.969  -4.289   5.035  0.00  0.00     0.210 C 
ENDBRANCH  20  25
ENDBRANCH  16  17
ENDBRANCH  15  16
ENDBRANCH   1  15
TORSDOF 8
