REMARK  7 active torsions:
REMARK  status: ('A' for Active; 'I' for Inactive)
REMARK    1  A    between atoms: O_17  and  C_1 
REMARK    2  A    between atoms: C_2  and  N_11 
REMARK    3  A    between atoms: N_8  and  C_2 
REMARK    4  A    between atoms: N_11  and  N_5 
REMARK    5  A    between atoms: C_18  and  N_8 
REMARK    6  A    between atoms: C_14  and  C_12 
REMARK    7  A    between atoms: C_19  and  C_18 
ROOT
ATOM      1  N   UNL d   1      -1.199  -4.968  -0.436  0.00  0.00    -0.309 N 
ATOM      2  HN  UNL d   1      -2.006  -4.344  -0.431  1.00  0.00     0.186 HD
ATOM      3  C   UNL d   1      -0.054  -4.594  -0.903  0.00  0.00     0.118 C 
ENDROOT
BRANCH   1   4
ATOM      4  N   UNL d   1      -1.276  -6.240   0.048  0.00  0.00    -0.277 N 
ATOM      5  H   UNL d   1      -0.453  -6.827  -0.020  0.00  0.00     0.189 HD
BRANCH   4   6
ATOM      6  C   UNL d   1      -2.514  -6.882   0.071  0.00  0.00     0.186 C 
ATOM      7  S   UNL d   1      -3.998  -6.111  -0.046  0.00  0.00    -0.040 SA
BRANCH   6   8
ATOM      8  N   UNL d   1      -2.344  -8.255   0.098  0.00  0.00    -0.364 N 
ATOM      9  H   UNL d   1      -1.539  -8.617   0.594  0.00  0.00     0.162 HD
BRANCH   8  10
ATOM     10  C   UNL d   1      -3.363  -9.252  -0.224  0.00  0.00     0.154 C 
BRANCH  10  11
ATOM     11  C   UNL d   1      -2.706 -10.494  -0.819  0.00  0.00     0.139 C 
ATOM     12  O   UNL d   1      -1.913 -11.177   0.172  0.00  0.00    -0.384 OA
ATOM     13  C   UNL d   1      -2.018 -12.590  -0.075  0.00  0.00     0.168 C 
ATOM     14  C   UNL d   1      -2.856 -12.769  -1.325  0.00  0.00     0.029 C 
ATOM     15  C   UNL d   1      -3.698 -11.518  -1.334  0.00  0.00     0.035 C 
ENDBRANCH  10  11
ENDBRANCH   8  10
ENDBRANCH   6   8
ENDBRANCH   4   6
ENDBRANCH   1   4
BRANCH   3  16
ATOM     16  C   UNL d   1       0.081  -3.285  -1.572  0.00  0.00    -0.017 A 
ATOM     17  C   UNL d   1      -1.022  -2.427  -1.667  0.00  0.00     0.034 A 
ATOM     18  C   UNL d   1      -0.904  -1.218  -2.352  0.00  0.00     0.046 A 
ATOM     19  C   UNL d   1       0.312  -0.865  -2.942  0.00  0.00     0.100 A 
ATOM     20 BR   UNL d   1      -2.429  -0.097  -2.467  0.00  0.00    -0.048 Br
ATOM     21  C   UNL d   1       1.409  -1.730  -2.843  0.00  0.00     0.046 A 
ATOM     22  C   UNL d   1       1.301  -2.943  -2.160  0.00  0.00     0.034 A 
ATOM     23 BR   UNL d   1       3.065  -1.287  -3.654  0.00  0.00    -0.048 Br
BRANCH  19  24
ATOM     24  O   UNL d   1       0.413   0.324  -3.615  0.00  0.00    -0.358 OA
ATOM     25  H   UNL d   1       1.318   0.403  -3.960  0.00  0.00     0.217 HD
ENDBRANCH  19  24
ENDBRANCH   3  16
TORSDOF 7
