REMARK  5 active torsions:
REMARK  status: ('A' for Active; 'I' for Inactive)
REMARK    1  A    between atoms: C_4  and  C_1 
REMARK    2  A    between atoms: C_9  and  C_1 
REMARK    3  A    between atoms: C_2  and  C_8 
REMARK    4  A    between atoms: N_11  and  C_3 
REMARK    5  A    between atoms: N_5  and  C_4 
ROOT
ATOM      1  C   UNL d   1      -1.737  -2.613  -0.603  0.00  0.00     0.048 A 
ATOM      2  C   UNL d   1       0.263  -1.344   0.045  0.00  0.00    -0.015 A 
ATOM      3  C   UNL d   1      -0.985  -1.424  -0.597  0.00  0.00     0.029 A 
ATOM      4  C   UNL d   1      -1.210  -3.746   0.032  0.00  0.00     0.016 A 
ATOM      5  C   UNL d   1       0.766  -2.496   0.668  0.00  0.00     0.013 A 
ATOM      6  C   UNL d   1       0.033  -3.690   0.660  0.00  0.00     0.002 A 
ENDROOT
BRANCH   2   7
ATOM      7  C   UNL d   1       1.037  -0.081   0.045  0.00  0.00     0.052 C 
ATOM      8  C   UNL d   1       0.444   1.136   0.094  0.00  0.00     0.107 C 
BRANCH   8   9
ATOM      9  N   UNL d   1       0.942   2.444   0.040  0.00  0.00    -0.397 N 
ATOM     10  C   UNL d   1       2.217   2.859  -0.561  0.00  0.00     0.148 C 
ATOM     11  C   UNL d   1       0.196   3.572   0.607  0.00  0.00     0.148 C 
ENDBRANCH   8   9
BRANCH   7  12
ATOM     12  C   UNL d   1       2.557  -0.081   0.045  0.00  0.00    -0.035 C 
BRANCH  12  13
ATOM     13  N   UNL d   1       3.818  -0.081   0.045  0.00  0.00    -0.365 N 
ATOM     14  HN2 UNL d   1       2.798  -0.081   0.045  1.00  0.00     0.165 HD
ATOM     15  HN1 UNL d   1       4.838  -0.081   0.045  1.00  0.00     0.165 HD
ENDBRANCH  12  13
ENDBRANCH   7  12
ENDBRANCH   2   7
BRANCH   1  16
ATOM     16  C   UNL d   1      -3.084  -2.678  -1.278  0.00  0.00     0.417 C 
ATOM     17  F   UNL d   1      -3.474  -1.497  -1.827  0.00  0.00    -0.166 F 
ATOM     18  F   UNL d   1      -3.119  -3.591  -2.287  0.00  0.00    -0.166 F 
ATOM     19  F   UNL d   1      -4.080  -3.033  -0.416  0.00  0.00    -0.166 F 
ENDBRANCH   1  16
TORSDOF 5
