REMARK  4 active torsions:
REMARK  status: ('A' for Active; 'I' for Inactive)
REMARK    1  A    between atoms: C_8  and  N_2 
REMARK    2  A    between atoms: C_5  and  N_3 
REMARK    3  A    between atoms: C_13  and  C_8 
REMARK    4  A    between atoms: C_16  and  C_13 
ROOT
ATOM      1  C   UNL d   1       1.086   0.483   0.224  0.00  0.00     0.150 A 
ATOM      2  N   UNL d   1       1.043  -0.867  -0.018  0.00  0.00    -0.297 N 
ATOM      3  N   UNL d   1       2.044   1.325   0.418  0.00  0.00    -0.334 N 
ATOM      4  HN  UNL d   1       1.788   2.265   0.723  1.00  0.00     0.168 HD
ATOM      5  C   UNL d   1      -0.200  -1.397  -0.322  0.00  0.00     0.235 A 
ATOM      6  S   UNL d   1      -0.532   1.161   0.236  0.00  0.00    -0.084 SA
ATOM      7  C   UNL d   1      -1.302  -0.376  -0.270  0.00  0.00     0.185 A 
ATOM      8  O   UNL d   1      -0.413  -2.578  -0.585  0.00  0.00    -0.272 OA
ENDROOT
BRANCH   2   9
ATOM      9  C   UNL d   1       2.108  -1.819   0.264  0.00  0.00     0.138 C 
BRANCH   9  10
ATOM     10  C   UNL d   1       2.929  -2.269  -0.949  0.00  0.00     0.059 C 
BRANCH  10  11
ATOM     11  C   UNL d   1       4.203  -3.003  -0.572  0.00  0.00    -0.057 A 
ATOM     12  C   UNL d   1       4.312  -3.775   0.597  0.00  0.00     0.007 A 
ATOM     13  C   UNL d   1       5.504  -4.421   0.922  0.00  0.00     0.001 A 
ATOM     14  C   UNL d   1       6.605  -4.328   0.078  0.00  0.00     0.000 A 
ATOM     15  C   UNL d   1       6.505  -3.592  -1.099  0.00  0.00     0.001 A 
ATOM     16  C   UNL d   1       5.315  -2.937  -1.425  0.00  0.00     0.007 A 
ENDBRANCH  10  11
ENDBRANCH   9  10
ENDBRANCH   2   9
BRANCH   3  17
ATOM     17  C   UNL d   1       3.412   1.054   0.244  0.00  0.00     0.078 A 
ATOM     18  C   UNL d   1       4.026   1.308  -1.000  0.00  0.00     0.062 A 
ATOM     19 CL   UNL d   1       3.109   1.888  -2.350  0.00  0.00    -0.082 Cl
ATOM     20  C   UNL d   1       5.399   1.113  -1.190  0.00  0.00     0.026 A 
ATOM     21  C   UNL d   1       6.187   0.656  -0.138  0.00  0.00     0.003 A 
ATOM     22  C   UNL d   1       5.611   0.436   1.113  0.00  0.00     0.026 A 
ATOM     23  C   UNL d   1       4.244   0.668   1.311  0.00  0.00     0.062 A 
ATOM     24 CL   UNL d   1       3.616   0.457   2.911  0.00  0.00    -0.082 Cl
ENDBRANCH   3  17
TORSDOF 4
