REMARK  3 active torsions:
REMARK  status: ('A' for Active; 'I' for Inactive)
REMARK    1  A    between atoms: N_2  and  C_1 
REMARK    2  A    between atoms: N_6  and  N_2 
REMARK       I    between atoms: C_3  and  N_6 
REMARK       I    between atoms: N_7  and  C_3 
REMARK    3  A    between atoms: C_15  and  N_7 
ROOT
ATOM      1  C   UNL d   1      -1.214  -4.180  -0.221  0.00  0.00     0.312 C 
ATOM      2  N   UNL d   1      -1.026  -2.831   0.084  0.00  0.00    -0.172 NA
ATOM      3  N   UNL d   1      -0.004  -4.843  -0.283  0.00  0.00    -0.313 N 
ATOM      4  O   UNL d   1      -2.332  -4.644  -0.415  0.00  0.00    -0.252 OA
ATOM      5  H   UNL d   1      -0.279  -2.626   0.742  0.00  0.00     0.152 HD
ATOM      6  H   UNL d   1       0.817  -4.258  -0.264  0.00  0.00     0.170 HD
ENDROOT
BRANCH   2   7
ATOM      7  N   UNL d   1      -2.205  -2.094   0.363  0.00  0.00    -0.215 NA
ATOM      8  H   UNL d   1      -3.026  -2.609   0.002  0.00  0.00     0.147 HD
BRANCH   7   9
ATOM      9  C   UNL d   1      -2.184  -0.756  -0.137  0.00  0.00     0.069 A 
ATOM     10  C   UNL d   1      -3.374  -0.200  -0.652  0.00  0.00     0.073 A 
ATOM     11 CL   UNL d   1      -4.824  -1.131  -0.783  0.00  0.00    -0.081 Cl
ATOM     12  C   UNL d   1      -3.393   1.126  -1.070  0.00  0.00     0.113 A 
ATOM     13  N   UNL d   1      -2.328   1.953  -1.002  0.00  0.00    -0.372 N 
ATOM     14  C   UNL d   1      -1.202   1.427  -0.468  0.00  0.00     0.113 A 
ATOM     15  HN  UNL d   1      -2.369   2.917  -1.334  1.00  0.00     0.164 HD
ATOM     16  C   UNL d   1      -1.082   0.115  -0.014  0.00  0.00     0.073 A 
ATOM     17 CL   UNL d   1       0.418  -0.326   0.731  0.00  0.00    -0.081 Cl
ENDBRANCH   7   9
ENDBRANCH   2   7
BRANCH   3  18
ATOM     18  C   UNL d   1       0.213  -6.226  -0.453  0.00  0.00     0.035 A 
ATOM     19  C   UNL d   1      -0.813  -7.168  -0.526  0.00  0.00     0.029 A 
ATOM     20  C   UNL d   1      -0.519  -8.530  -0.649  0.00  0.00     0.002 A 
ATOM     21  C   UNL d   1       0.803  -8.961  -0.702  0.00  0.00     0.000 A 
ATOM     22  C   UNL d   1       1.836  -8.028  -0.643  0.00  0.00     0.002 A 
ATOM     23  C   UNL d   1       1.542  -6.667  -0.521  0.00  0.00     0.029 A 
ENDBRANCH   3  18
TORSDOF 3
