REMARK  5 active torsions:
REMARK  status: ('A' for Active; 'I' for Inactive)
REMARK    1  A    between atoms: C_2  and  C_1 
REMARK       I    between atoms: N_7  and  C_2 
REMARK    2  A    between atoms: C_13  and  C_5 
REMARK    3  A    between atoms: C_9  and  N_7 
REMARK    4  A    between atoms: O_12  and  C_10 
REMARK    5  A    between atoms: C_14  and  O_12 
ROOT
ATOM      1  C   UNL d   1       0.446  -2.542   0.427  0.00  0.00     0.261 C 
ATOM      2  N   UNL d   1      -0.559  -3.490   0.496  0.00  0.00    -0.320 N 
ATOM      3  O   UNL d   1       0.447  -1.558  -0.302  0.00  0.00    -0.267 OA
ATOM      4  H   UNL d   1      -0.572  -4.066   1.330  0.00  0.00     0.169 HD
ENDROOT
BRANCH   1   5
ATOM      5  C   UNL d   1       1.547  -2.829   1.321  0.00  0.00     0.093 A 
ATOM      6  C   UNL d   1       2.181  -2.071   2.361  0.00  0.00     0.083 A 
ATOM      7  N   UNL d   1       3.200  -2.789   2.877  0.00  0.00    -0.259 N 
ATOM      8  O   UNL d   1       3.236  -3.985   2.212  0.00  0.00    -0.241 OA
ATOM      9  HN  UNL d   1       3.828  -2.495   3.624  1.00  0.00     0.195 HD
ATOM     10  C   UNL d   1       2.251  -4.014   1.289  0.00  0.00     0.090 A 
ATOM     11  C   UNL d   1       2.160  -5.248   0.480  0.00  0.00     0.080 C 
BRANCH   6  12
ATOM     12  C   UNL d   1       1.876  -0.755   2.956  0.00  0.00    -0.006 A 
ATOM     13  C   UNL d   1       1.136   0.235   2.301  0.00  0.00     0.014 A 
ATOM     14  C   UNL d   1       0.880   1.469   2.916  0.00  0.00     0.001 A 
ATOM     15  C   UNL d   1       1.364   1.737   4.194  0.00  0.00     0.000 A 
ATOM     16  C   UNL d   1       2.106   0.772   4.861  0.00  0.00     0.001 A 
ATOM     17  C   UNL d   1       2.357  -0.459   4.249  0.00  0.00     0.014 A 
ENDBRANCH   6  12
ENDBRANCH   1   5
BRANCH   2  18
ATOM     18  C   UNL d   1      -1.705  -3.551  -0.328  0.00  0.00     0.069 A 
ATOM     19  C   UNL d   1      -2.902  -4.132   0.139  0.00  0.00     0.102 A 
ATOM     20  C   UNL d   1      -3.986  -4.295  -0.736  0.00  0.00     0.039 A 
ATOM     21  C   UNL d   1      -3.902  -3.868  -2.060  0.00  0.00     0.003 A 
ATOM     22  C   UNL d   1      -2.733  -3.271  -2.518  0.00  0.00     0.002 A 
ATOM     23  C   UNL d   1      -1.645  -3.108  -1.656  0.00  0.00     0.032 A 
BRANCH  19  24
ATOM     24  O   UNL d   1      -3.133  -4.636   1.403  0.00  0.00    -0.309 OA
BRANCH  24  25
ATOM     25  C   UNL d   1      -2.653  -3.992   2.519  0.00  0.00     0.076 A 
ATOM     26  C   UNL d   1      -2.500  -2.609   2.639  0.00  0.00     0.037 A 
ATOM     27  C   UNL d   1      -1.869  -2.078   3.766  0.00  0.00     0.003 A 
ATOM     28  C   UNL d   1      -1.448  -2.921   4.795  0.00  0.00     0.000 A 
ATOM     29  C   UNL d   1      -1.676  -4.293   4.711  0.00  0.00     0.003 A 
ATOM     30  C   UNL d   1      -2.282  -4.828   3.575  0.00  0.00     0.037 A 
ENDBRANCH  24  25
ENDBRANCH  19  24
ENDBRANCH   2  18
TORSDOF 5
