REMARK  2 active torsions:
REMARK  status: ('A' for Active; 'I' for Inactive)
REMARK    1  A    between atoms: C_8  and  N_3 
REMARK    2  A    between atoms: C_7  and  C_11 
ROOT
ATOM      1  C   UNL d   1      -1.396  -0.067  -0.225  0.00  0.00     0.334 A 
ATOM      2  N   UNL d   1      -0.716   1.122  -0.112  0.00  0.00    -0.274 N 
ATOM      3  N   UNL d   1      -0.610  -1.219  -0.065  0.00  0.00    -0.273 N 
ATOM      4  C   UNL d   1       1.420   0.038   0.161  0.00  0.00     0.128 A 
ATOM      5  C   UNL d   1       0.760  -1.127   0.137  0.00  0.00     0.130 A 
ATOM      6  C   UNL d   1       0.637   1.282   0.026  0.00  0.00     0.271 A 
ATOM      7  C   UNL d   1       2.833   0.090   0.253  0.00  0.00     0.106 C 
ATOM      8  N   UNL d   1       3.992   0.062   0.311  0.00  0.00    -0.191 NA
ATOM      9  O   UNL d   1      -2.608  -0.050  -0.428  0.00  0.00    -0.246 OA
ATOM     10  O   UNL d   1       1.153   2.390   0.025  0.00  0.00    -0.266 OA
ATOM     11  H   UNL d   1      -1.269   1.960  -0.214  0.00  0.00     0.173 HD
ENDROOT
BRANCH   3  12
ATOM     12  C   UNL d   1      -1.220  -2.499  -0.220  0.00  0.00     0.044 A 
ATOM     13  C   UNL d   1      -1.916  -2.804  -1.397  0.00  0.00     0.046 A 
ATOM     14  C   UNL d   1      -2.406  -4.100  -1.624  0.00  0.00     0.050 A 
ATOM     15  C   UNL d   1      -2.256  -5.068  -0.620  0.00  0.00     0.016 A 
ATOM     16  C   UNL d   1      -1.592  -4.760   0.569  0.00  0.00     0.003 A 
ATOM     17  C   UNL d   1      -1.051  -3.489   0.756  0.00  0.00     0.030 A 
BRANCH  14  18
ATOM     18  C   UNL d   1      -3.045  -4.470  -2.940  0.00  0.00     0.417 C 
ATOM     19  F   UNL d   1      -3.054  -3.453  -3.848  0.00  0.00    -0.166 F 
ATOM     20  F   UNL d   1      -2.395  -5.500  -3.551  0.00  0.00    -0.166 F 
ATOM     21  F   UNL d   1      -4.337  -4.869  -2.807  0.00  0.00    -0.166 F 
ENDBRANCH  14  18
ENDBRANCH   3  12
TORSDOF 2
