REMARK  5 active torsions:
REMARK  status: ('A' for Active; 'I' for Inactive)
REMARK    1  A    between atoms: C_19  and  N_1 
REMARK    2  A    between atoms: C_6  and  C_3 
REMARK    3  A    between atoms: C_11  and  C_18 
REMARK    4  A    between atoms: C_14  and  C_20 
REMARK    5  A    between atoms: C_20  and  C_19 
ROOT
ATOM      1  C   UNL d   1       5.774  -5.240   0.378  0.00  0.00     0.183 A 
ATOM      2  N   UNL d   1       5.454  -3.995   0.637  0.00  0.00    -0.323 N 
ATOM      3  HN  UNL d   1       5.973  -3.309   1.185  1.00  0.00     0.169 HD
ATOM      4  N   UNL d   1       3.823  -4.933  -0.643  0.00  0.00    -0.247 N 
ATOM      5  HN  UNL d   1       2.967  -5.051  -1.186  1.00  0.00     0.196 HD
ATOM      6  C   UNL d   1       4.258  -3.840  -0.002  0.00  0.00     0.105 A 
ATOM      7  O   UNL d   1       4.838  -5.880  -0.386  0.00  0.00    -0.217 OA
ENDROOT
BRANCH   6   8
ATOM      8  C   UNL d   1       3.620  -2.501  -0.048  0.00  0.00     0.099 C 
BRANCH   8   9
ATOM      9  C   UNL d   1       2.098  -2.495  -0.024  0.00  0.00     0.142 C 
BRANCH   9  10
ATOM     10  N   UNL d   1       1.573  -1.144  -0.012  0.00  0.00    -0.290 N 
ATOM     11  C   UNL d   1       1.347  -0.374   1.111  0.00  0.00     0.372 A 
ATOM     12  O   UNL d   1       0.900   0.908   0.768  0.00  0.00    -0.259 OA
ATOM     13  O   UNL d   1       1.518  -0.734   2.271  0.00  0.00    -0.237 OA
ATOM     14  C   UNL d   1       0.909   0.865  -0.619  0.00  0.00     0.107 A 
ATOM     15  C   UNL d   1       1.324  -0.355  -1.113  0.00  0.00     0.073 A 
ATOM     16  C   UNL d   1       0.555   1.903  -1.453  0.00  0.00     0.040 A 
ATOM     17  C   UNL d   1       1.426  -0.606  -2.464  0.00  0.00     0.039 A 
ATOM     18  C   UNL d   1       1.070   0.429  -3.343  0.00  0.00    -0.060 A 
ATOM     19  C   UNL d   1       0.634   1.675  -2.831  0.00  0.00     0.009 A 
ATOM     20  C   UNL d   1       1.136   0.224  -4.830  0.00  0.00     0.048 C 
ENDBRANCH   9  10
ENDBRANCH   8   9
ENDBRANCH   6   8
BRANCH   1  21
ATOM     21  C   UNL d   1       6.970  -5.964   0.784  0.00  0.00     0.040 A 
ATOM     22  C   UNL d   1       7.632  -5.643   1.980  0.00  0.00     0.020 A 
ATOM     23  N   UNL d   1       8.811  -6.213   2.350  0.00  0.00    -0.355 N 
ATOM     24  C   UNL d   1       7.093  -4.628   2.949  0.00  0.00     0.069 C 
ATOM     25  C   UNL d   1       9.389  -7.130   1.530  0.00  0.00     0.117 A 
ATOM     26  HN  UNL d   1       9.255  -5.956   3.231  1.00  0.00     0.166 HD
ATOM     27  C   UNL d   1       8.781  -7.519   0.337  0.00  0.00     0.035 A 
ATOM     28  C   UNL d   1       7.562  -6.937  -0.031  0.00  0.00     0.020 A 
BRANCH  25  29
ATOM     29  C   UNL d   1      10.741  -7.720   1.917  0.00  0.00     0.432 C 
ATOM     30  F   UNL d   1      11.231  -7.271   3.107  0.00  0.00    -0.165 F 
ATOM     31  F   UNL d   1      10.707  -9.081   2.019  0.00  0.00    -0.165 F 
ATOM     32  F   UNL d   1      11.709  -7.448   0.993  0.00  0.00    -0.165 F 
ENDBRANCH  25  29
ENDBRANCH   1  21
TORSDOF 5
