REMARK  7 active torsions:
REMARK  status: ('A' for Active; 'I' for Inactive)
REMARK    1  A    between atoms: C_10  and  C_3 
REMARK    2  A    between atoms: C_16  and  N_4 
REMARK    3  A    between atoms: C_18  and  C_5 
REMARK    4  A    between atoms: N_11  and  C_7 
REMARK    5  A    between atoms: C_12  and  C_7 
REMARK    6  A    between atoms: C_8  and  C_9 
REMARK       I    between atoms: C_9  and  N_11 
REMARK       I    between atoms: N_20  and  C_12 
REMARK    7  A    between atoms: N_24  and  N_20 
ROOT
ATOM      1  C   UNL d   1      -1.536   2.256   0.463  0.00  0.00     0.105 C 
ATOM      2  C   UNL d   1      -0.792   2.894  -0.465  0.00  0.00     0.050 C 
ENDROOT
BRANCH   1   3
ATOM      3  N   UNL d   1      -2.484   1.282   0.132  0.00  0.00    -0.318 N 
ATOM      4  C   UNL d   1      -2.745   0.702  -1.093  0.00  0.00     0.258 C 
ATOM      5  O   UNL d   1      -2.196   1.003  -2.152  0.00  0.00    -0.267 OA
ATOM      6  H   UNL d   1      -2.989   0.928   0.947  0.00  0.00     0.169 HD
BRANCH   4   7
ATOM      7  C   UNL d   1      -3.805  -0.343  -1.159  0.00  0.00     0.054 A 
ATOM      8  C   UNL d   1      -4.066  -1.297  -0.166  0.00  0.00     0.051 A 
ATOM      9  C   UNL d   1      -5.093  -2.235  -0.344  0.00  0.00     0.048 A 
ATOM     10 CL   UNL d   1      -3.144  -1.426   1.289  0.00  0.00    -0.083 Cl
ATOM     11  C   UNL d   1      -5.856  -2.227  -1.511  0.00  0.00     0.035 A 
ATOM     12  C   UNL d   1      -5.586  -1.311  -2.521  0.00  0.00     0.025 A 
ATOM     13 CL   UNL d   1      -7.141  -3.353  -1.702  0.00  0.00    -0.084 Cl
ATOM     14  C   UNL d   1      -4.561  -0.379  -2.348  0.00  0.00     0.020 A 
ENDBRANCH   4   7
ENDBRANCH   1   3
BRANCH   1  15
ATOM     15  C   UNL d   1      -1.508   2.536   1.958  0.00  0.00     0.282 C 
ATOM     16  O   UNL d   1      -2.483   2.200   2.639  0.00  0.00    -0.265 OA
ATOM     17  N   UNL d   1      -0.379   3.100   2.518  0.00  0.00    -0.288 N 
ATOM     18  H   UNL d   1       0.485   3.200   1.995  0.00  0.00     0.183 HD
BRANCH  17  19
ATOM     19  N   UNL d   1      -0.337   3.361   3.910  0.00  0.00    -0.247 NA
ATOM     20  H   UNL d   1      -0.954   2.675   4.364  0.00  0.00     0.143 HD
ATOM     21  H   UNL d   1      -0.807   4.256   4.070  0.00  0.00     0.143 HD
ENDBRANCH  17  19
ENDBRANCH   1  15
BRANCH   2  22
ATOM     22  C   UNL d   1       0.271   3.822  -0.311  0.00  0.00     0.013 A 
ATOM     23  C   UNL d   1       1.671   3.574  -0.251  0.00  0.00     0.070 A 
ATOM     24  N   UNL d   1       2.337   4.734  -0.139  0.00  0.00    -0.293 N 
ATOM     25  N   UNL d   1       1.394   5.705  -0.101  0.00  0.00    -0.266 N 
ATOM     26  HN  UNL d   1       3.348   4.859  -0.092  1.00  0.00     0.187 HD
ATOM     27  C   UNL d   1       0.126   5.183  -0.234  0.00  0.00     0.130 A 
BRANCH  23  28
ATOM     28  C   UNL d   1       2.381   2.288  -0.203  0.00  0.00    -0.007 A 
ATOM     29  C   UNL d   1       1.873   1.137  -0.822  0.00  0.00     0.014 A 
ATOM     30  C   UNL d   1       2.520  -0.094  -0.679  0.00  0.00     0.001 A 
ATOM     31  C   UNL d   1       3.692  -0.186   0.066  0.00  0.00     0.000 A 
ATOM     32  C   UNL d   1       4.226   0.954   0.662  0.00  0.00     0.001 A 
ATOM     33  C   UNL d   1       3.574   2.182   0.529  0.00  0.00     0.014 A 
ENDBRANCH  23  28
BRANCH  25  34
ATOM     34  C   UNL d   1       1.756   7.064   0.109  0.00  0.00     0.056 A 
ATOM     35  C   UNL d   1       3.108   7.441   0.056  0.00  0.00     0.031 A 
ATOM     36  C   UNL d   1       3.475   8.768   0.290  0.00  0.00     0.002 A 
ATOM     37  C   UNL d   1       2.503   9.720   0.588  0.00  0.00     0.000 A 
ATOM     38  C   UNL d   1       1.159   9.351   0.644  0.00  0.00     0.002 A 
ATOM     39  C   UNL d   1       0.782   8.029   0.397  0.00  0.00     0.031 A 
ENDBRANCH  25  34
ENDBRANCH   2  22
TORSDOF 7
