REMARK  6 active torsions:
REMARK  status: ('A' for Active; 'I' for Inactive)
REMARK    1  A    between atoms: N_2  and  C_1 
REMARK    2  A    between atoms: N_3  and  C_1 
REMARK    3  A    between atoms: C_4  and  C_1 
REMARK    4  A    between atoms: C_5  and  C_1 
REMARK       I    between atoms: C_6  and  N_2 
REMARK    5  A    between atoms: C_7  and  N_3 
REMARK    6  A    between atoms: C_8  and  C_6 
ROOT
ATOM      1  C   UNL d   1       0.997  -0.104  -0.200  0.00  0.00     0.319 C 
ENDROOT
BRANCH   1   2
ATOM      2  N   UNL d   1       0.918  -1.365  -0.969  0.00  0.00    -0.315 N 
ATOM      3  C   UNL d   1       1.716  -2.450  -0.779  0.00  0.00     0.254 C 
ATOM      4  O   UNL d   1       2.763  -2.450  -0.152  0.00  0.00    -0.268 OA
ATOM      5  H   UNL d   1       0.005  -1.510  -1.389  0.00  0.00     0.165 HD
BRANCH   3   6
ATOM      6  C   UNL d   1       1.228  -3.671  -1.469  0.00  0.00     0.032 A 
ATOM      7  C   UNL d   1       2.061  -4.314  -2.385  0.00  0.00     0.017 A 
ATOM      8  C   UNL d   1       1.576  -5.400  -3.113  0.00  0.00     0.007 A 
ATOM      9  C   UNL d   1       0.267  -5.868  -2.914  0.00  0.00    -0.062 A 
ATOM     10  C   UNL d   1      -0.554  -5.224  -1.978  0.00  0.00     0.007 A 
ATOM     11  C   UNL d   1      -0.258  -7.009  -3.736  0.00  0.00     0.048 C 
ATOM     12  C   UNL d   1      -0.078  -4.130  -1.255  0.00  0.00     0.017 A 
ENDBRANCH   3   6
ENDBRANCH   1   2
BRANCH   1  13
ATOM     13  N   UNL d   1       0.252  -0.421   1.039  0.00  0.00    -0.181 N 
ATOM     14  H   UNL d   1       0.676  -0.177   1.924  0.00  0.00     0.181 HD
BRANCH  13  15
ATOM     15  C   UNL d   1      -1.106  -0.484   1.095  0.00  0.00     0.680 A 
ATOM     16  N   UNL d   1      -1.806  -0.668  -0.024  0.00  0.00    -0.202 N 
ATOM     17  C   UNL d   1      -3.149  -0.722   0.097  0.00  0.00     0.107 A 
ATOM     18  HN  UNL d   1      -1.348  -0.764  -0.930  1.00  0.00     0.183 HD
ATOM     19  C   UNL d   1      -3.804  -0.639   1.295  0.00  0.00     0.035 A 
ATOM     20  C   UNL d   1      -2.993  -0.487   2.392  0.00  0.00     0.107 A 
ATOM     21  N   UNL d   1      -1.642  -0.401   2.317  0.00  0.00    -0.202 N 
ATOM     22  HN  UNL d   1      -1.065  -0.280   3.149  1.00  0.00     0.183 HD
ENDBRANCH  13  15
ENDBRANCH   1  13
BRANCH   1  23
ATOM     23  C   UNL d   1       0.431   1.068  -1.066  0.00  0.00     0.441 C 
ATOM     24  F   UNL d   1      -0.624   0.681  -1.834  0.00  0.00    -0.166 F 
ATOM     25  F   UNL d   1       0.008   2.113  -0.316  0.00  0.00    -0.166 F 
ATOM     26  F   UNL d   1       1.346   1.546  -1.945  0.00  0.00    -0.166 F 
ENDBRANCH   1  23
BRANCH   1  27
ATOM     27  C   UNL d   1       2.426   0.434   0.159  0.00  0.00     0.441 C 
ATOM     28  F   UNL d   1       3.349   0.170  -0.793  0.00  0.00    -0.166 F 
ATOM     29  F   UNL d   1       2.428   1.778   0.344  0.00  0.00    -0.166 F 
ATOM     30  F   UNL d   1       2.871  -0.085   1.332  0.00  0.00    -0.166 F 
ENDBRANCH   1  27
TORSDOF 6
