REMARK  4 active torsions:
REMARK  status: ('A' for Active; 'I' for Inactive)
REMARK    1  A    between atoms: N_10  and  C_3 
REMARK    2  A    between atoms: C_12  and  C_4 
REMARK    3  A    between atoms: C_5  and  C_13 
REMARK    4  A    between atoms: O_23  and  C_9 
ROOT
ATOM      1  N   UNL d   1       1.479  -0.655  -0.127  0.00  0.00    -0.335 N 
ATOM      2  HN  UNL d   1       2.374  -1.139  -0.204  1.00  0.00     0.168 HD
ATOM      3  C   UNL d   1       0.305  -1.254  -0.121  0.00  0.00     0.148 A 
ATOM      4  C   UNL d   1       1.337   0.719  -0.014  0.00  0.00     0.051 A 
ATOM      5  S   UNL d   1      -1.039  -0.171   0.003  0.00  0.00    -0.064 SA
ATOM      6  C   UNL d   1       0.033   1.161   0.050  0.00  0.00     0.083 A 
ENDROOT
BRANCH   3   7
ATOM      7  N   UNL d   1       0.030  -2.583  -0.205  0.00  0.00    -0.346 N 
ATOM      8  C   UNL d   1       1.058  -3.360  -0.315  0.00  0.00     0.104 C 
ATOM      9  HN  UNL d   1      -0.924  -2.943  -0.184  1.00  0.00     0.167 HD
BRANCH   8  10
ATOM     10  C   UNL d   1       0.899  -4.829  -0.411  0.00  0.00     0.016 A 
ATOM     11  C   UNL d   1       2.024  -5.651  -0.519  0.00  0.00     0.099 A 
ATOM     12  C   UNL d   1       1.864  -7.040  -0.599  0.00  0.00     0.069 A 
ATOM     13 CL   UNL d   1       3.245  -8.068  -0.722  0.00  0.00    -0.081 Cl
ATOM     14  C   UNL d   1       0.593  -7.610  -0.576  0.00  0.00     0.050 A 
ATOM     15  C   UNL d   1      -0.523  -6.784  -0.472  0.00  0.00     0.036 A 
ATOM     16  C   UNL d   1      -0.381  -5.399  -0.387  0.00  0.00     0.039 A 
ATOM     17 CL   UNL d   1      -2.096  -7.483  -0.446  0.00  0.00    -0.084 Cl
BRANCH  11  18
ATOM     18  O   UNL d   1       3.275  -5.092  -0.544  0.00  0.00    -0.358 OA
ATOM     19  H   UNL d   1       3.929  -5.815  -0.599  0.00  0.00     0.217 HD
ENDBRANCH  11  18
ENDBRANCH   8  10
ENDBRANCH   3   7
BRANCH   4  20
ATOM     20  C   UNL d   1       2.495   1.605  -0.017  0.00  0.00    -0.008 A 
ATOM     21  C   UNL d   1       2.492   2.823   0.680  0.00  0.00     0.026 A 
ATOM     22  C   UNL d   1       3.603   3.685   0.646  0.00  0.00    -0.025 A 
ATOM     23  C   UNL d   1       3.604   4.907   1.339  0.00  0.00     0.012 A 
ATOM     24  C   UNL d   1       4.743   3.315  -0.103  0.00  0.00    -0.026 A 
ATOM     25  C   UNL d   1       4.711   5.755   1.288  0.00  0.00     0.001 A 
ATOM     26  C   UNL d   1       5.831   5.394   0.544  0.00  0.00     0.001 A 
ATOM     27  C   UNL d   1       5.847   4.181  -0.147  0.00  0.00     0.012 A 
ATOM     28  C   UNL d   1       4.748   2.089  -0.785  0.00  0.00     0.013 A 
ATOM     29  C   UNL d   1       3.639   1.241  -0.736  0.00  0.00     0.014 A 
ENDBRANCH   4  20
TORSDOF 4
