REMARK  4 active torsions:
REMARK  status: ('A' for Active; 'I' for Inactive)
REMARK    1  A    between atoms: S_11  and  C_2 
REMARK    2  A    between atoms: C_8  and  C_3 
REMARK    3  A    between atoms: C_16  and  S_11 
REMARK    4  A    between atoms: C_18  and  C_16 
ROOT
ATOM      1  C   UNL d   1       2.493   0.761   0.173  0.00  0.00     0.090 A 
ATOM      2  C   UNL d   1       2.481  -0.637   0.073  0.00  0.00     0.092 A 
ATOM      3  C   UNL d   1       1.274   1.486   0.111  0.00  0.00     0.013 A 
ATOM      4  N   UNL d   1       1.335  -1.340  -0.037  0.00  0.00    -0.352 N 
ATOM      5  HN  UNL d   1       1.352  -2.357  -0.118  1.00  0.00     0.166 HD
ATOM      6  C   UNL d   1       0.068   0.742  -0.007  0.00  0.00    -0.022 A 
ATOM      7  C   UNL d   1       0.156  -0.663  -0.038  0.00  0.00     0.017 A 
ATOM      8  C   UNL d   1       3.744   1.428   0.365  0.00  0.00     0.103 C 
ATOM      9  N   UNL d   1       4.759   1.983   0.493  0.00  0.00    -0.191 NA
ATOM     10  C   UNL d   1      -1.299   1.401  -0.032  0.00  0.00     0.041 C 
ATOM     11  C   UNL d   1      -1.075  -1.538  -0.101  0.00  0.00     0.057 C 
ATOM     12  C   UNL d   1      -2.458   0.493  -0.436  0.00  0.00     0.005 C 
ATOM     13  C   UNL d   1      -2.359  -0.826   0.309  0.00  0.00     0.006 C 
ENDROOT
BRANCH   2  14
ATOM     14  S   UNL d   1       3.996  -1.591   0.233  0.00  0.00    -0.106 SA
BRANCH  14  15
ATOM     15  C   UNL d   1       3.716  -3.005  -0.888  0.00  0.00     0.119 C 
BRANCH  15  16
ATOM     16  C   UNL d   1       4.983  -3.839  -0.995  0.00  0.00    -0.048 A 
ATOM     17  C   UNL d   1       5.294  -4.789  -0.007  0.00  0.00     0.009 A 
ATOM     18  C   UNL d   1       6.486  -5.520  -0.063  0.00  0.00     0.024 A 
ATOM     19  C   UNL d   1       7.380  -5.308  -1.109  0.00  0.00     0.034 A 
ATOM     20  C   UNL d   1       7.091  -4.371  -2.098  0.00  0.00     0.024 A 
ATOM     21 CL   UNL d   1       8.852  -6.198  -1.173  0.00  0.00    -0.084 Cl
ATOM     22  C   UNL d   1       5.900  -3.638  -2.041  0.00  0.00     0.009 A 
ENDBRANCH  15  16
ENDBRANCH  14  15
ENDBRANCH   2  14
BRANCH   3  23
ATOM     23  C   UNL d   1       1.301   2.984   0.147  0.00  0.00     0.017 C 
ATOM     24  S   UNL d   1       0.284   3.884   1.211  0.00  0.00    -0.101 SA
ATOM     25  C   UNL d   1       0.828   5.386   0.612  0.00  0.00     0.050 C 
ATOM     26  C   UNL d   1       1.881   5.232  -0.256  0.00  0.00     0.008 C 
ATOM     27  C   UNL d   1       2.136   3.858  -0.538  0.00  0.00     0.020 C 
ENDBRANCH   3  23
TORSDOF 4
