REMARK  9 active torsions:
REMARK  status: ('A' for Active; 'I' for Inactive)
REMARK    1  A    between atoms: C_2  and  C_1 
REMARK    2  A    between atoms: C_7  and  C_1 
REMARK    3  A    between atoms: O_3  and  C_2 
REMARK    4  A    between atoms: C_8  and  C_2 
REMARK    5  A    between atoms: C_4  and  O_3 
REMARK    6  A    between atoms: C_11  and  C_4 
REMARK    7  A    between atoms: C_5  and  C_12 
REMARK    8  A    between atoms: O_13  and  C_5 
REMARK    9  A    between atoms: C_12  and  C_11 
ROOT
ATOM      1  C   UNL d   1       0.361  -1.051  -0.066  0.00  0.00     0.239 C 
ENDROOT
BRANCH   1   2
ATOM      2  C   UNL d   1       1.219   0.157  -0.471  0.00  0.00     0.193 C 
ATOM      3  O   UNL d   1       1.410   0.461  -1.654  0.00  0.00    -0.289 OA
BRANCH   2   4
ATOM      4  C   UNL d   1       1.815   1.020   0.589  0.00  0.00     0.013 A 
ATOM      5  C   UNL d   1       2.146   0.535   1.859  0.00  0.00     0.015 A 
ATOM      6  C   UNL d   1       2.767   1.378   2.787  0.00  0.00     0.001 A 
ATOM      7  C   UNL d   1       3.047   2.704   2.456  0.00  0.00     0.000 A 
ATOM      8  C   UNL d   1       2.694   3.199   1.203  0.00  0.00     0.001 A 
ATOM      9  C   UNL d   1       2.082   2.360   0.272  0.00  0.00     0.015 A 
ENDBRANCH   2   4
ENDBRANCH   1   2
BRANCH   1  10
ATOM     10  O   UNL d   1      -0.561  -1.357  -1.123  0.00  0.00    -0.303 OA
BRANCH  10  11
ATOM     11  C   UNL d   1      -1.593  -0.478  -1.216  0.00  0.00     0.260 C 
ATOM     12  O   UNL d   1      -1.766   0.475  -0.466  0.00  0.00    -0.265 OA
BRANCH  11  13
ATOM     13  C   UNL d   1      -2.472  -0.749  -2.414  0.00  0.00     0.121 C 
BRANCH  13  14
ATOM     14  C   UNL d   1      -2.389  -2.172  -2.957  0.00  0.00     0.119 C 
BRANCH  14  15
ATOM     15  C   UNL d   1      -2.832  -3.188  -1.932  0.00  0.00     0.139 C 
ATOM     16  O   UNL d   1      -3.294  -2.921  -0.834  0.00  0.00    -0.650 OA
BRANCH  15  17
ATOM     17  O   UNL d   1      -2.684  -4.459  -2.365  0.00  0.00    -0.776 OA
ATOM     18  H   UNL d   1      -2.283  -4.531  -3.253  0.00  0.00     0.167 HD
ENDBRANCH  15  17
ENDBRANCH  14  15
ENDBRANCH  13  14
ENDBRANCH  11  13
ENDBRANCH  10  11
ENDBRANCH   1  10
BRANCH   1  19
ATOM     19  C   UNL d   1       1.151  -2.320   0.213  0.00  0.00    -0.021 A 
ATOM     20  C   UNL d   1       0.624  -3.254   1.123  0.00  0.00     0.010 A 
ATOM     21  C   UNL d   1       1.338  -4.404   1.466  0.00  0.00     0.001 A 
ATOM     22  C   UNL d   1       2.580  -4.649   0.887  0.00  0.00     0.000 A 
ATOM     23  C   UNL d   1       3.092  -3.763  -0.058  0.00  0.00     0.001 A 
ATOM     24  C   UNL d   1       2.377  -2.610  -0.404  0.00  0.00     0.010 A 
ENDBRANCH   1  19
TORSDOF 9
