REMARK  4 active torsions:
REMARK  status: ('A' for Active; 'I' for Inactive)
REMARK       I    between atoms: N_9  and  C_1 
REMARK    1  A    between atoms: C_14  and  C_1 
REMARK    2  A    between atoms: C_2  and  C_13 
REMARK       I    between atoms: N_10  and  C_2 
REMARK    3  A    between atoms: C_3  and  N_10 
REMARK    4  A    between atoms: C_4  and  N_9 
ROOT
ATOM      1  C   UNL d   1       0.411   0.983  -2.272  0.00  0.00     0.048 A 
ATOM      2  C   UNL d   1       0.200   0.998  -0.881  0.00  0.00     0.048 A 
ATOM      3  C   UNL d   1      -0.590   1.514  -3.113  0.00  0.00     0.018 A 
ATOM      4  C   UNL d   1      -0.945   1.652  -0.372  0.00  0.00     0.018 A 
ATOM      5  C   UNL d   1      -1.704   2.172  -2.591  0.00  0.00     0.001 A 
ATOM      6  C   UNL d   1      -1.873   2.256  -1.219  0.00  0.00     0.001 A 
ENDROOT
BRANCH   1   7
ATOM      7  C   UNL d   1       1.573   0.318  -2.923  0.00  0.00     0.258 C 
ATOM      8  N   UNL d   1       2.192   0.820  -4.047  0.00  0.00    -0.307 N 
ATOM      9  H   UNL d   1       2.837   0.167  -4.473  0.00  0.00     0.170 HD
ATOM     10  O   UNL d   1       1.989  -0.746  -2.473  0.00  0.00    -0.267 OA
BRANCH   8  11
ATOM     11  C   UNL d   1       2.159   2.086  -4.596  0.00  0.00     0.130 A 
ATOM     12  N   UNL d   1       1.598   3.165  -4.045  0.00  0.00    -0.245 N 
ATOM     13  O   UNL d   1       1.779   4.201  -4.939  0.00  0.00    -0.241 OA
ATOM     14  HN  UNL d   1       1.129   3.215  -3.142  1.00  0.00     0.196 HD
ATOM     15  C   UNL d   1       2.487   3.755  -6.008  0.00  0.00     0.076 A 
ATOM     16  C   UNL d   1       2.762   2.421  -5.835  0.00  0.00     0.084 A 
ATOM     17  C   UNL d   1       2.792   4.750  -7.051  0.00  0.00     0.079 C 
ENDBRANCH   8  11
ENDBRANCH   1   7
BRANCH   2  18
ATOM     18  C   UNL d   1       1.013   0.293   0.160  0.00  0.00     0.258 C 
ATOM     19  N   UNL d   1       2.382   0.313   0.012  0.00  0.00    -0.307 N 
ATOM     20  H   UNL d   1       2.790   0.742  -0.803  0.00  0.00     0.170 HD
ATOM     21  O   UNL d   1       0.398  -0.212   1.093  0.00  0.00    -0.267 OA
BRANCH  19  22
ATOM     22  C   UNL d   1       3.248  -0.445   0.782  0.00  0.00     0.130 A 
ATOM     23  N   UNL d   1       2.927  -1.172   1.857  0.00  0.00    -0.245 N 
ATOM     24  O   UNL d   1       4.079  -1.823   2.249  0.00  0.00    -0.241 OA
ATOM     25  HN  UNL d   1       2.011  -1.233   2.301  1.00  0.00     0.196 HD
ATOM     26  C   UNL d   1       5.096  -1.475   1.420  0.00  0.00     0.076 A 
ATOM     27  C   UNL d   1       4.629  -0.577   0.493  0.00  0.00     0.084 A 
ATOM     28  C   UNL d   1       6.392  -2.127   1.667  0.00  0.00     0.079 C 
ENDBRANCH  19  22
ENDBRANCH   2  18
TORSDOF 4
