REMARK  2 active torsions:
REMARK  status: ('A' for Active; 'I' for Inactive)
REMARK       I    between atoms: N_2  and  C_1 
REMARK    1  A    between atoms: C_5  and  C_1 
REMARK    2  A    between atoms: C_11  and  N_2 
ROOT
ATOM      1  C   UNL d   1       1.118  -0.021  -0.051  0.00  0.00     0.256 C 
ATOM      2  N   UNL d   1       0.463  -1.161  -0.475  0.00  0.00    -0.322 N 
ATOM      3  O   UNL d   1       2.325   0.084   0.149  0.00  0.00    -0.267 OA
ATOM      4  H   UNL d   1      -0.421  -1.032  -0.950  0.00  0.00     0.169 HD
ENDROOT
BRANCH   1   5
ATOM      5  C   UNL d   1       0.273   1.194   0.086  0.00  0.00     0.033 A 
ATOM      6  C   UNL d   1      -1.007   1.114   0.656  0.00  0.00     0.038 A 
ATOM      7  C   UNL d   1      -1.716   2.314   0.852  0.00  0.00     0.033 A 
ATOM      8  S   UNL d   1      -3.269   2.553   1.561  0.00  0.00    -0.083 SA
ATOM      9  C   UNL d   1      -1.194   3.556   0.480  0.00  0.00     0.049 A 
ATOM     10  C   UNL d   1      -3.109   4.241   1.324  0.00  0.00     0.139 A 
ATOM     11  N   UNL d   1      -2.002   4.648   0.748  0.00  0.00    -0.359 N 
ATOM     12  HN  UNL d   1      -1.773   5.618   0.531  1.00  0.00     0.166 HD
ATOM     13  C   UNL d   1       0.088   3.608  -0.109  0.00  0.00     0.032 A 
ATOM     14  C   UNL d   1       0.813   2.425  -0.292  0.00  0.00     0.019 A 
ENDBRANCH   1   5
BRANCH   2  15
ATOM     15  C   UNL d   1       1.115  -2.402  -0.647  0.00  0.00     0.041 A 
ATOM     16  C   UNL d   1       0.838  -3.206  -1.767  0.00  0.00    -0.035 A 
ATOM     17  C   UNL d   1      -0.041  -2.773  -2.907  0.00  0.00     0.050 C 
ATOM     18  C   UNL d   1       1.476  -4.456  -1.877  0.00  0.00     0.009 A 
ATOM     19  C   UNL d   1       2.369  -4.899  -0.901  0.00  0.00     0.001 A 
ATOM     20  C   UNL d   1       2.642  -4.096   0.200  0.00  0.00     0.002 A 
ATOM     21  C   UNL d   1       2.023  -2.852   0.323  0.00  0.00     0.030 A 
ENDBRANCH   2  15
TORSDOF 2
