REMARK  8 active torsions:
REMARK  status: ('A' for Active; 'I' for Inactive)
REMARK    1  A    between atoms: C_3  and  N_1 
REMARK       I    between atoms: C_2  and  N_4 
REMARK    2  A    between atoms: C_8  and  C_2 
REMARK    3  A    between atoms: N_4  and  C_12 
REMARK    4  A    between atoms: O_11  and  C_14 
REMARK    5  A    between atoms: C_15  and  O_11 
REMARK    6  A    between atoms: C_12  and  C_13 
REMARK    7  A    between atoms: C_13  and  C_15 
REMARK    8  A    between atoms: O_18  and  C_13 
ROOT
ATOM      1  C   UNL d   1      -2.428  -1.647   6.751  0.00  0.00     0.160 C 
ENDROOT
BRANCH   1   2
ATOM      2  C   UNL d   1      -2.555  -3.172   6.614  0.00  0.00     0.156 C 
BRANCH   2   3
ATOM      3  N   UNL d   1      -3.068  -3.608   5.332  0.00  0.00    -0.354 N 
ATOM      4  C   UNL d   1      -2.222  -3.916   4.286  0.00  0.00     0.251 C 
ATOM      5  O   UNL d   1      -1.003  -3.838   4.370  0.00  0.00    -0.268 OA
ATOM      6  H   UNL d   1      -4.058  -3.792   5.256  0.00  0.00     0.162 HD
BRANCH   4   7
ATOM      7  C   UNL d   1      -2.867  -4.359   3.021  0.00  0.00     0.032 A 
ATOM      8  C   UNL d   1      -4.155  -3.942   2.659  0.00  0.00     0.017 A 
ATOM      9  C   UNL d   1      -4.721  -4.388   1.464  0.00  0.00     0.001 A 
ATOM     10  C   UNL d   1      -4.002  -5.237   0.624  0.00  0.00     0.000 A 
ATOM     11  C   UNL d   1      -2.711  -5.636   0.968  0.00  0.00     0.001 A 
ATOM     12  C   UNL d   1      -2.141  -5.193   2.163  0.00  0.00     0.017 A 
ENDBRANCH   4   7
ENDBRANCH   2   3
ENDBRANCH   1   2
BRANCH   1  13
ATOM     13  C   UNL d   1      -1.422  -1.042   5.757  0.00  0.00     0.209 C 
BRANCH  13  14
ATOM     14  O   UNL d   1      -1.408   0.384   5.914  0.00  0.00    -0.349 OA
BRANCH  14  15
ATOM     15  C   UNL d   1      -0.609   1.072   5.041  0.00  0.00     0.069 A 
ATOM     16  C   UNL d   1      -1.004   2.390   4.788  0.00  0.00     0.039 A 
ATOM     17  C   UNL d   1      -0.255   3.208   3.939  0.00  0.00     0.039 A 
ATOM     18  C   UNL d   1       0.912   2.703   3.355  0.00  0.00     0.103 A 
ATOM     19  C   UNL d   1       1.321   1.388   3.608  0.00  0.00     0.039 A 
ATOM     20  C   UNL d   1       0.555   0.574   4.451  0.00  0.00     0.039 A 
BRANCH  18  21
ATOM     21  N   UNL d   1       1.721   3.560   2.479  0.00  0.00    -0.116 N 
ATOM     22  O   UNL d   1       2.773   3.092   2.023  0.00  0.00    -0.532 OA
ATOM     23  O   UNL d   1       1.303   4.704   2.247  0.00  0.00    -0.532 OA
ENDBRANCH  18  21
ENDBRANCH  14  15
ENDBRANCH  13  14
ENDBRANCH   1  13
BRANCH   1  24
ATOM     24  O   UNL d   1      -2.035  -1.360   8.105  0.00  0.00    -0.392 OA
ATOM     25  H   UNL d   1      -1.103  -1.620   8.205  0.00  0.00     0.210 HD
ENDBRANCH   1  24
TORSDOF 8
