REMARK  10 active torsions:
REMARK  status: ('A' for Active; 'I' for Inactive)
REMARK    1  A    between atoms: C_8  and  C_2 
REMARK    2  A    between atoms: S_9  and  C_5 
REMARK    3  A    between atoms: C_18  and  S_9 
REMARK    4  A    between atoms: C_10  and  C_15 
REMARK    5  A    between atoms: C_21  and  C_11 
REMARK    6  A    between atoms: C_19  and  C_18 
REMARK    7  A    between atoms: C_24  and  C_21 
REMARK    8  A    between atoms: C_27  and  C_24 
REMARK    9  A    between atoms: C_25  and  C_26 
REMARK   10  A    between atoms: C_26  and  C_27 
ROOT
ATOM      1  N   UNL d   1       0.655   0.022  -0.619  0.00  0.00    -0.315 N 
ATOM      2  C   UNL d   1      -0.058   1.097  -0.118  0.00  0.00     0.135 A 
ATOM      3  N   UNL d   1      -1.172   0.621   0.417  0.00  0.00    -0.283 N 
ATOM      4  HN  UNL d   1      -1.876   1.174   0.905  1.00  0.00     0.188 HD
ATOM      5  C   UNL d   1      -0.131  -1.087  -0.418  0.00  0.00     0.162 A 
ATOM      6  N   UNL d   1      -1.227  -0.740   0.209  0.00  0.00    -0.278 N 
ATOM      7  HN  UNL d   1      -1.983  -1.363   0.492  1.00  0.00     0.189 HD
ATOM      8  C   UNL d   1       1.978   0.006  -1.190  0.00  0.00     0.160 C 
ENDROOT
BRANCH   2   9
ATOM      9  C   UNL d   1       0.334   2.511  -0.108  0.00  0.00     0.026 A 
ATOM     10  C   UNL d   1       1.020   3.129  -1.161  0.00  0.00     0.038 A 
ATOM     11  C   UNL d   1       1.423   4.464  -1.056  0.00  0.00     0.034 A 
ATOM     12  C   UNL d   1       1.072   5.166   0.087  0.00  0.00     0.108 A 
ATOM     13  N   UNL d   1       0.362   4.630   1.106  0.00  0.00    -0.373 N 
ATOM     14  C   UNL d   1       0.009   3.322   0.980  0.00  0.00     0.102 A 
ATOM     15  HN  UNL d   1       0.105   5.178   1.927  1.00  0.00     0.164 HD
BRANCH  11  16
ATOM     16  C   UNL d   1       2.213   5.076  -2.075  0.00  0.00    -0.066 C 
ATOM     17  C   UNL d   1       2.916   5.587  -2.910  0.00  0.00    -0.101 C 
BRANCH  17  18
ATOM     18  C   UNL d   1       3.792   6.215  -3.901  0.00  0.00     0.094 C 
BRANCH  18  19
ATOM     19  C   UNL d   1       4.584   5.162  -4.678  0.00  0.00     0.012 C 
BRANCH  19  20
ATOM     20  C   UNL d   1       5.489   5.813  -5.724  0.00  0.00     0.001 C 
BRANCH  20  21
ATOM     21  C   UNL d   1       6.272   4.760  -6.507  0.00  0.00    -0.000 C 
BRANCH  21  22
ATOM     22  C   UNL d   1       7.174   5.408  -7.556  0.00  0.00    -0.005 C 
ATOM     23  C   UNL d   1       7.951   4.361  -8.335  0.00  0.00     0.005 C 
ENDBRANCH  21  22
ENDBRANCH  20  21
ENDBRANCH  19  20
ENDBRANCH  18  19
ENDBRANCH  17  18
ENDBRANCH  11  16
ENDBRANCH   2   9
BRANCH   5  24
ATOM     24  S   UNL d   1       0.338  -2.685  -0.903  0.00  0.00    -0.088 SA
BRANCH  24  25
ATOM     25  C   UNL d   1      -1.271  -3.506  -1.085  0.00  0.00     0.121 C 
BRANCH  25  26
ATOM     26  C   UNL d   1      -1.132  -4.959  -1.492  0.00  0.00    -0.049 A 
ATOM     27  C   UNL d   1      -1.030  -5.967  -0.520  0.00  0.00     0.008 A 
ATOM     28  C   UNL d   1      -0.955  -7.313  -0.891  0.00  0.00     0.001 A 
ATOM     29  C   UNL d   1      -0.973  -7.670  -2.237  0.00  0.00     0.000 A 
ATOM     30  C   UNL d   1      -1.048  -6.680  -3.215  0.00  0.00     0.001 A 
ATOM     31  C   UNL d   1      -1.119  -5.332  -2.846  0.00  0.00     0.008 A 
ENDBRANCH  25  26
ENDBRANCH  24  25
ENDBRANCH   5  24
TORSDOF 10
