REMARK  3 active torsions:
REMARK  status: ('A' for Active; 'I' for Inactive)
REMARK    1  A    between atoms: C_7  and  C_4 
REMARK    2  A    between atoms: C_8  and  C_7 
REMARK    3  A    between atoms: C_18  and  C_11 
ROOT
ATOM      1  C   UNL d   1       0.293  -3.533   0.206  0.00  0.00     0.183 C 
ATOM      2  O   UNL d   1       0.307  -4.697  -0.152  0.00  0.00    -0.288 OA
ENDROOT
BRANCH   1   3
ATOM      3  C   UNL d   1      -0.950  -2.761   0.480  0.00  0.00     0.073 C 
ATOM      4  C   UNL d   1      -2.178  -3.239   0.720  0.00  0.00     0.048 C 
ATOM      5  C   UNL d   1      -2.670  -4.658   0.820  0.00  0.00     0.257 C 
ATOM      6  C   UNL d   1      -3.354  -2.368   0.872  0.00  0.00     0.008 A 
ATOM      7  N   UNL d   1      -4.056  -4.545   0.856  0.00  0.00    -0.322 N 
ATOM      8  O   UNL d   1      -2.042  -5.689   0.921  0.00  0.00    -0.267 OA
ATOM      9  C   UNL d   1      -4.462  -3.216   0.913  0.00  0.00     0.046 A 
ATOM     10  H   UNL d   1      -4.653  -5.353   0.942  0.00  0.00     0.169 HD
ATOM     11  C   UNL d   1      -5.753  -2.746   1.047  0.00  0.00     0.032 A 
ATOM     12  C   UNL d   1      -5.922  -1.364   1.181  0.00  0.00     0.021 A 
ATOM     13  C   UNL d   1      -4.809  -0.506   1.176  0.00  0.00     0.011 A 
ATOM     14  C   UNL d   1      -3.511  -0.998   1.011  0.00  0.00     0.033 A 
ATOM     15 BR   UNL d   1      -5.066   1.352   1.430  0.00  0.00    -0.051 Br
ENDBRANCH   1   3
BRANCH   1  16
ATOM     16  C   UNL d   1       1.550  -2.731   0.213  0.00  0.00     0.014 A 
ATOM     17  C   UNL d   1       1.725  -1.635   1.063  0.00  0.00     0.016 A 
ATOM     18  C   UNL d   1       2.824  -0.786   0.898  0.00  0.00     0.013 A 
ATOM     19  C   UNL d   1       3.791  -1.024  -0.095  0.00  0.00    -0.026 A 
ATOM     20  C   UNL d   1       3.648  -2.196  -0.864  0.00  0.00     0.013 A 
ATOM     21  C   UNL d   1       2.540  -3.038  -0.720  0.00  0.00     0.016 A 
BRANCH  19  22
ATOM     22  C   UNL d   1       4.890  -0.064  -0.356  0.00  0.00    -0.026 A 
ATOM     23  C   UNL d   1       5.367   0.150  -1.665  0.00  0.00     0.012 A 
ATOM     24  C   UNL d   1       6.398   1.053  -1.932  0.00  0.00     0.001 A 
ATOM     25  C   UNL d   1       6.969   1.783  -0.895  0.00  0.00     0.000 A 
ATOM     26  C   UNL d   1       6.506   1.608   0.405  0.00  0.00     0.001 A 
ATOM     27  C   UNL d   1       5.482   0.692   0.671  0.00  0.00     0.012 A 
ENDBRANCH  19  22
ENDBRANCH   1  16
TORSDOF 3
