REMARK  5 active torsions:
REMARK  status: ('A' for Active; 'I' for Inactive)
REMARK    1  A    between atoms: C_7  and  N_1 
REMARK    2  A    between atoms: C_15  and  N_2 
REMARK    3  A    between atoms: C_14  and  C_12 
REMARK    4  A    between atoms: O_20  and  C_14 
REMARK    5  A    between atoms: C_21  and  C_15 
ROOT
ATOM      1  N   UNL d   1       0.926  -1.412   0.077  0.00  0.00    -0.246 N 
ATOM      2  N   UNL d   1       2.109   0.673  -0.040  0.00  0.00    -0.260 N 
ATOM      3  C   UNL d   1       2.158  -0.736   0.057  0.00  0.00     0.338 A 
ATOM      4  C   UNL d   1      -0.254  -0.704  -0.016  0.00  0.00     0.150 A 
ATOM      5  C   UNL d   1      -0.238   0.656  -0.080  0.00  0.00     0.147 A 
ATOM      6  C   UNL d   1       0.943   1.440  -0.103  0.00  0.00     0.282 A 
ATOM      7  N   UNL d   1      -1.534  -1.179  -0.011  0.00  0.00    -0.336 N 
ATOM      8  HN  UNL d   1      -1.837  -2.153   0.022  1.00  0.00     0.168 HD
ATOM      9  N   UNL d   1      -1.546   1.044  -0.098  0.00  0.00    -0.345 N 
ATOM     10  C   UNL d   1      -2.295  -0.102  -0.058  0.00  0.00     0.182 A 
ATOM     11  O   UNL d   1       3.237  -1.337   0.082  0.00  0.00    -0.246 OA
ATOM     12  O   UNL d   1       0.906   2.663  -0.191  0.00  0.00    -0.265 OA
ATOM     13  H   UNL d   1      -1.887   1.997  -0.123  0.00  0.00     0.167 HD
ENDROOT
BRANCH   1  14
ATOM     14  C   UNL d   1       0.858  -2.828   0.157  0.00  0.00     0.052 A 
ATOM     15  C   UNL d   1       1.369  -3.535   1.275  0.00  0.00    -0.018 A 
ATOM     16  C   UNL d   1       1.438  -4.949   1.206  0.00  0.00     0.047 A 
ATOM     17  C   UNL d   1       1.800  -2.802   2.522  0.00  0.00     0.052 C 
ATOM     18  C   UNL d   1       0.971  -5.622   0.061  0.00  0.00     0.018 A 
ATOM     19  C   UNL d   1       0.430  -4.917  -1.010  0.00  0.00     0.003 A 
ATOM     20  C   UNL d   1       0.368  -3.528  -0.959  0.00  0.00     0.031 A 
BRANCH  16  21
ATOM     21  C   UNL d   1       1.982  -5.770   2.334  0.00  0.00     0.293 C 
ATOM     22  O   UNL d   1       1.939  -5.464   3.514  0.00  0.00    -0.259 OA
BRANCH  21  23
ATOM     23  O   UNL d   1       2.540  -6.908   1.839  0.00  0.00    -0.323 OA
ATOM     24  C   UNL d   1       3.067  -7.785   2.834  0.00  0.00     0.213 C 
ENDBRANCH  21  23
ENDBRANCH  16  21
ENDBRANCH   1  14
BRANCH   2  25
ATOM     25  C   UNL d   1       3.379   1.388  -0.084  0.00  0.00     0.175 C 
BRANCH  25  26
ATOM     26  C   UNL d   1       3.855   1.787   1.296  0.00  0.00    -0.040 A 
ATOM     27  C   UNL d   1       4.706   0.946   2.027  0.00  0.00     0.009 A 
ATOM     28  C   UNL d   1       5.085   1.280   3.328  0.00  0.00     0.001 A 
ATOM     29  C   UNL d   1       4.617   2.456   3.912  0.00  0.00     0.000 A 
ATOM     30  C   UNL d   1       3.787   3.309   3.188  0.00  0.00     0.001 A 
ATOM     31  C   UNL d   1       3.411   2.979   1.886  0.00  0.00     0.009 A 
ENDBRANCH  25  26
ENDBRANCH   2  25
TORSDOF 5
