REMARK  1 active torsions:
REMARK  status: ('A' for Active; 'I' for Inactive)
REMARK    1  A    between atoms: C_8  and  N_4 
ROOT
ATOM      1  C   UNL d   1      -3.259  -1.019  -0.289  0.00  0.00     0.170 C 
ATOM      2  N   UNL d   1      -2.513   0.101  -0.139  0.00  0.00    -0.342 N 
ATOM      3  N   UNL d   1      -2.587  -2.193  -0.248  0.00  0.00    -0.342 N 
ATOM      4  N   UNL d   1      -0.551  -1.134   0.333  0.00  0.00     0.127 N 
ATOM      5  C   UNL d   1      -1.086   0.085  -0.248  0.00  0.00     0.399 C 
ATOM      6  C   UNL d   1      -1.161  -2.263  -0.350  0.00  0.00     0.399 C 
ATOM      7  S   UNL d   1      -4.907  -0.956  -0.460  0.00  0.00    -0.041 SA
ATOM      8  H   UNL d   1      -3.000   0.980  -0.245  0.00  0.00     0.163 HD
ATOM      9  H   UNL d   1      -3.132  -3.026  -0.427  0.00  0.00     0.163 HD
ENDROOT
BRANCH   4  10
ATOM     10  C   UNL d   1      -0.638  -1.205   1.798  0.00  0.00     0.227 C 
ATOM     11  C   UNL d   1       0.033  -0.027   2.522  0.00  0.00     0.036 C 
ATOM     12  C   UNL d   1       0.330  -0.530   3.933  0.00  0.00     0.002 C 
ATOM     13  C   UNL d   1       0.256  -2.052   3.867  0.00  0.00     0.002 C 
ATOM     14  C   UNL d   1       0.138  -2.391   2.388  0.00  0.00     0.036 C 
ENDBRANCH   4  10
TORSDOF 1
