REMARK  4 active torsions:
REMARK  status: ('A' for Active; 'I' for Inactive)
REMARK    1  A    between atoms: C_2  and  C_1 
REMARK       I    between atoms: C_3  and  N_4 
REMARK    2  A    between atoms: C_10  and  C_3 
REMARK    3  A    between atoms: N_4  and  C_5 
REMARK    4  A    between atoms: N_6  and  C_10 
ROOT
ATOM      1  C   UNL d   1      -0.021   6.365   1.533  0.00  0.00     0.250 C 
ATOM      2  N   UNL d   1      -1.295   6.804   1.219  0.00  0.00    -0.324 N 
ATOM      3  O   UNL d   1       0.336   5.915   2.620  0.00  0.00    -0.271 OA
ATOM      4  H   UNL d   1      -1.439   7.100   0.257  0.00  0.00     0.169 HD
ENDROOT
BRANCH   2   5
ATOM      5  C   UNL d   1      -2.406   6.900   2.098  0.00  0.00     0.056 A 
ATOM      6  C   UNL d   1      -2.310   6.634   3.468  0.00  0.00     0.032 A 
ATOM      7  C   UNL d   1      -3.421   6.746   4.311  0.00  0.00     0.018 A 
ATOM      8  C   UNL d   1      -4.668   7.129   3.807  0.00  0.00     0.049 A 
ATOM      9  C   UNL d   1      -4.779   7.398   2.436  0.00  0.00     0.042 A 
ATOM     10  C   UNL d   1      -3.660   7.289   1.593  0.00  0.00     0.061 A 
ATOM     11 CL   UNL d   1      -3.877   7.636  -0.088  0.00  0.00    -0.082 Cl
BRANCH   8  12
ATOM     12  C   UNL d   1      -5.849   7.237   4.743  0.00  0.00     0.417 C 
ATOM     13  F   UNL d   1      -6.981   7.692   4.140  0.00  0.00    -0.166 F 
ATOM     14  F   UNL d   1      -5.612   8.084   5.781  0.00  0.00    -0.166 F 
ATOM     15  F   UNL d   1      -6.177   6.041   5.303  0.00  0.00    -0.166 F 
ENDBRANCH   8  12
ENDBRANCH   2   5
BRANCH   1  16
ATOM     16  C   UNL d   1       0.974   6.383   0.370  0.00  0.00     0.375 C 
BRANCH  16  17
ATOM     17  N   UNL d   1       0.919   7.595  -0.485  0.00  0.00     0.100 N 
ATOM     18  C   UNL d   1       1.123   8.838   0.294  0.00  0.00     0.303 C 
ATOM     19  C   UNL d   1       1.239  10.086  -0.618  0.00  0.00     0.302 C 
ATOM     20  N   UNL d   1       2.303  10.016  -1.637  0.00  0.00     0.087 N 
ATOM     21  C   UNL d   1       2.185   8.744  -2.372  0.00  0.00     0.302 C 
ATOM     22  C   UNL d   1       3.628  10.191  -1.048  0.00  0.00     0.310 C 
ATOM     23  C   UNL d   1       2.017   7.488  -1.486  0.00  0.00     0.303 C 
ENDBRANCH  16  17
ENDBRANCH   1  16
TORSDOF 4
