REMARK  3 active torsions:
REMARK  status: ('A' for Active; 'I' for Inactive)
REMARK    1  A    between atoms: C_3  and  C_1 
REMARK       I    between atoms: N_8  and  C_3 
REMARK    2  A    between atoms: C_5  and  C_7 
REMARK    3  A    between atoms: C_9  and  N_8 
ROOT
ATOM      1  C   UNL d   1      -2.827  -2.250  -0.781  0.00  0.00     0.262 C 
ATOM      2  N   UNL d   1      -2.576  -3.514  -0.283  0.00  0.00    -0.322 N 
ATOM      3  O   UNL d   1      -3.887  -1.936  -1.321  0.00  0.00    -0.267 OA
ATOM      4  H   UNL d   1      -1.847  -3.588   0.427  0.00  0.00     0.169 HD
ENDROOT
BRANCH   1   5
ATOM      5  C   UNL d   1      -1.733  -1.245  -0.593  0.00  0.00     0.108 A 
ATOM      6  C   UNL d   1      -0.470  -1.546   0.111  0.00  0.00     0.304 A 
ATOM      7  O   UNL d   1       0.512  -0.561   0.118  0.00  0.00    -0.274 OA
ATOM      8  O   UNL d   1      -0.299  -2.614   0.693  0.00  0.00    -0.259 OA
ATOM      9  C   UNL d   1       0.313   0.678  -0.516  0.00  0.00     0.089 A 
ATOM     10  C   UNL d   1      -0.901   0.973  -1.126  0.00  0.00    -0.001 A 
ATOM     11  C   UNL d   1       1.373   1.580  -0.525  0.00  0.00     0.038 A 
ATOM     12  C   UNL d   1      -1.944  -0.035  -1.136  0.00  0.00     0.037 A 
ATOM     13  C   UNL d   1      -1.060   2.207  -1.759  0.00  0.00     0.014 A 
ATOM     14  C   UNL d   1      -0.001   3.119  -1.786  0.00  0.00     0.001 A 
ATOM     15  C   UNL d   1       1.213   2.805  -1.172  0.00  0.00     0.003 A 
ENDBRANCH   1   5
BRANCH   2  16
ATOM     16  C   UNL d   1      -3.514  -4.564  -0.368  0.00  0.00     0.050 A 
ATOM     17  C   UNL d   1      -4.199  -4.919  -1.542  0.00  0.00     0.074 A 
ATOM     18  C   UNL d   1      -5.216  -5.896  -1.454  0.00  0.00     0.018 A 
ATOM     19  C   UNL d   1      -5.506  -6.532  -0.247  0.00  0.00     0.001 A 
ATOM     20  C   UNL d   1      -4.766  -6.228   0.887  0.00  0.00     0.002 A 
ATOM     21  C   UNL d   1      -3.762  -5.259   0.822  0.00  0.00     0.030 A 
BRANCH  17  22
ATOM     22  C   UNL d   1      -3.851  -4.426  -2.929  0.00  0.00     0.419 C 
ATOM     23  F   UNL d   1      -2.719  -3.676  -3.037  0.00  0.00    -0.166 F 
ATOM     24  F   UNL d   1      -3.636  -5.479  -3.780  0.00  0.00    -0.166 F 
ATOM     25  F   UNL d   1      -4.852  -3.708  -3.512  0.00  0.00    -0.166 F 
ENDBRANCH  17  22
ENDBRANCH   2  16
TORSDOF 3
