REMARK  3 active torsions:
REMARK  status: ('A' for Active; 'I' for Inactive)
REMARK    1  A    between atoms: C_2  and  N_1 
REMARK    2  A    between atoms: N_3  and  C_2 
REMARK    3  A    between atoms: C_8  and  N_3 
ROOT
ATOM      1  C   UNL d   1       1.122   2.361  -1.011  0.00  0.00     0.174 C 
ATOM      2  S   UNL d   1       0.198   3.725  -1.380  0.00  0.00    -0.041 SA
ENDROOT
BRANCH   1   3
ATOM      3  N   UNL d   1       0.605   1.199  -0.410  0.00  0.00    -0.353 N 
ATOM      4  C   UNL d   1       1.422   0.049   0.036  0.00  0.00     0.157 C 
ATOM      5  C   UNL d   1       0.749  -1.299  -0.296  0.00  0.00     0.136 C 
ATOM      6  C   UNL d   1       1.512  -2.470   0.309  0.00  0.00     0.041 C 
ATOM      7  O   UNL d   1      -0.589  -1.347   0.229  0.00  0.00    -0.378 OA
ATOM      8  C   UNL d   1      -1.391  -0.303  -0.347  0.00  0.00     0.136 C 
ATOM      9  C   UNL d   1      -0.811   1.078  -0.002  0.00  0.00     0.157 C 
ATOM     10  C   UNL d   1      -2.805  -0.442   0.198  0.00  0.00     0.041 C 
ENDBRANCH   1   3
BRANCH   1  11
ATOM     11  N   UNL d   1       2.491   2.327  -1.220  0.00  0.00    -0.333 N 
ATOM     12  H   UNL d   1       3.036   2.059  -0.413  0.00  0.00     0.168 HD
BRANCH  11  13
ATOM     13  C   UNL d   1       3.223   2.849  -2.313  0.00  0.00     0.034 A 
ATOM     14  C   UNL d   1       2.666   2.983  -3.592  0.00  0.00     0.036 A 
ATOM     15  C   UNL d   1       3.463   3.360  -4.684  0.00  0.00    -0.060 A 
ATOM     16  C   UNL d   1       2.890   3.393  -6.072  0.00  0.00     0.048 C 
ATOM     17  C   UNL d   1       4.812   3.651  -4.477  0.00  0.00     0.007 A 
ATOM     18  C   UNL d   1       5.370   3.542  -3.201  0.00  0.00     0.003 A 
ATOM     19  C   UNL d   1       4.580   3.126  -2.125  0.00  0.00     0.029 A 
ENDBRANCH  11  13
ENDBRANCH   1  11
TORSDOF 3
