REMARK  3 active torsions:
REMARK  status: ('A' for Active; 'I' for Inactive)
REMARK    1  A    between atoms: C_4  and  C_1 
REMARK    2  A    between atoms: O_9  and  C_4 
REMARK    3  A    between atoms: N_10  and  O_9 
ROOT
ATOM      1  N   UNL d   1       1.995  -2.970  -0.086  0.00  0.00    -0.266 N 
ATOM      2  HN  UNL d   1       2.071  -1.969   0.096  1.00  0.00     0.194 HD
ATOM      3  C   UNL d   1       3.038  -3.734  -0.213  0.00  0.00     0.010 C 
ATOM      4  C   UNL d   1       4.386  -3.049  -0.014  0.00  0.00     0.054 C 
ATOM      5  C   UNL d   1       3.023  -5.221  -0.523  0.00  0.00     0.054 C 
ATOM      6  C   UNL d   1       4.436  -2.301   1.322  0.00  0.00     0.006 C 
ATOM      7  C   UNL d   1       2.800  -6.062   0.737  0.00  0.00     0.006 C 
ATOM      8  C   UNL d   1       5.810  -2.360   2.002  0.00  0.00     0.000 C 
ATOM      9  C   UNL d   1       4.047  -6.863   1.151  0.00  0.00     0.000 C 
ATOM     10  C   UNL d   1       5.745  -2.927   3.432  0.00  0.00     0.000 C 
ATOM     11  C   UNL d   1       4.183  -7.033   2.673  0.00  0.00     0.000 C 
ATOM     12  C   UNL d   1       6.477  -4.270   3.588  0.00  0.00     0.000 C 
ATOM     13  C   UNL d   1       5.581  -6.653   3.195  0.00  0.00     0.000 C 
ATOM     14  C   UNL d   1       5.577  -5.406   4.097  0.00  0.00     0.000 C 
ENDROOT
BRANCH   1  15
ATOM     15  O   UNL d   1       0.748  -3.621  -0.215  0.00  0.00    -0.195 OA
BRANCH  15  16
ATOM     16  C   UNL d   1      -0.237  -2.692   0.074  0.00  0.00     0.325 C 
ATOM     17  O   UNL d   1      -0.015  -1.531   0.429  0.00  0.00    -0.257 OA
BRANCH  16  18
ATOM     18  C   UNL d   1      -1.570  -3.217  -0.090  0.00  0.00     0.123 A 
ATOM     19  C   UNL d   1      -2.792  -2.572   0.075  0.00  0.00     0.047 A 
ATOM     20  N   UNL d   1      -3.903  -3.378  -0.162  0.00  0.00    -0.298 N 
ATOM     21  C   UNL d   1      -3.060  -1.159   0.462  0.00  0.00     0.071 C 
ATOM     22  N   UNL d   1      -3.559  -4.606  -0.501  0.00  0.00    -0.269 N 
ATOM     23  HN  UNL d   1      -4.868  -3.058  -0.083  1.00  0.00     0.187 HD
ATOM     24  S   UNL d   1      -1.907  -4.828  -0.544  0.00  0.00     0.010 SA
ATOM     25  HN  UNL d   1      -4.233  -5.342  -0.714  1.00  0.00     0.195 HD
ENDBRANCH  16  18
ENDBRANCH  15  16
ENDBRANCH   1  15
TORSDOF 3
