REMARK  8 active torsions:
REMARK  status: ('A' for Active; 'I' for Inactive)
REMARK    1  A    between atoms: N_2  and  C_1 
REMARK    2  A    between atoms: N_5  and  C_1 
REMARK    3  A    between atoms: C_3  and  N_2 
REMARK    4  A    between atoms: C_9  and  N_2 
REMARK    5  A    between atoms: C_4  and  C_3 
REMARK    6  A    between atoms: C_10  and  N_5 
REMARK    7  A    between atoms: C_17  and  C_9 
REMARK    8  A    between atoms: O_18  and  C_11 
ROOT
ATOM      1  N   UNL d   1       0.275   0.904  -0.788  0.00  0.00    -0.345 N 
ENDROOT
BRANCH   1   2
ATOM      2  C   UNL d   1       0.716  -0.150   0.048  0.00  0.00     0.175 C 
ATOM      3  S   UNL d   1      -0.233  -1.486   0.439  0.00  0.00    -0.041 SA
BRANCH   2   4
ATOM      4  N   UNL d   1       2.023   0.027   0.505  0.00  0.00    -0.333 N 
ATOM      5  H   UNL d   1       2.186   0.977   0.828  0.00  0.00     0.168 HD
BRANCH   4   6
ATOM      6  C   UNL d   1       2.857  -0.965   1.078  0.00  0.00     0.035 A 
ATOM      7  C   UNL d   1       2.997  -2.236   0.507  0.00  0.00     0.055 A 
ATOM      8  C   UNL d   1       3.792  -3.208   1.126  0.00  0.00     0.058 A 
ATOM      9 CL   UNL d   1       3.911  -4.756   0.364  0.00  0.00    -0.082 Cl
ATOM     10  C   UNL d   1       4.455  -2.909   2.319  0.00  0.00     0.055 A 
ATOM     11  C   UNL d   1       4.356  -1.624   2.862  0.00  0.00     0.028 A 
ATOM     12 CL   UNL d   1       5.406  -4.072   3.171  0.00  0.00    -0.083 Cl
ATOM     13  C   UNL d   1       3.579  -0.648   2.229  0.00  0.00     0.031 A 
ENDBRANCH   4   6
ENDBRANCH   2   4
ENDBRANCH   1   2
BRANCH   1  14
ATOM     14  C   UNL d   1      -1.164   1.205  -1.070  0.00  0.00     0.118 C 
ATOM     15  C   UNL d   1      -1.972   1.379   0.233  0.00  0.00     0.037 C 
BRANCH  14  16
ATOM     16  C   UNL d   1      -1.876   0.451  -2.198  0.00  0.00    -0.003 A 
ATOM     17  C   UNL d   1      -1.294  -0.460  -3.090  0.00  0.00     0.074 A 
ATOM     18  C   UNL d   1      -1.999  -0.981  -4.179  0.00  0.00     0.037 A 
ATOM     19  C   UNL d   1      -3.311  -0.592  -4.423  0.00  0.00     0.003 A 
ATOM     20  C   UNL d   1      -3.918   0.321  -3.572  0.00  0.00     0.001 A 
ATOM     21  C   UNL d   1      -3.211   0.832  -2.480  0.00  0.00     0.012 A 
BRANCH  17  22
ATOM     22  O   UNL d   1      -0.005  -0.897  -2.990  0.00  0.00    -0.360 OA
ATOM     23  H   UNL d   1       0.207  -0.883  -2.043  0.00  0.00     0.217 HD
ENDBRANCH  17  22
ENDBRANCH  14  16
ENDBRANCH   1  14
BRANCH   1  24
ATOM     24  C   UNL d   1       1.239   1.740  -1.538  0.00  0.00     0.164 C 
BRANCH  24  25
ATOM     25  C   UNL d   1       1.617   3.067  -0.900  0.00  0.00    -0.040 A 
ATOM     26  C   UNL d   1       2.976   3.390  -0.739  0.00  0.00     0.009 A 
ATOM     27  C   UNL d   1       3.366   4.655  -0.287  0.00  0.00     0.001 A 
ATOM     28  C   UNL d   1       2.411   5.621   0.010  0.00  0.00     0.000 A 
ATOM     29  C   UNL d   1       1.061   5.319  -0.134  0.00  0.00     0.001 A 
ATOM     30  C   UNL d   1       0.671   4.055  -0.584  0.00  0.00     0.009 A 
ENDBRANCH  24  25
ENDBRANCH   1  24
TORSDOF 8
