REMARK  4 active torsions:
REMARK  status: ('A' for Active; 'I' for Inactive)
REMARK    1  A    between atoms: N_4  and  S_1 
REMARK    2  A    between atoms: C_7  and  S_1 
REMARK    3  A    between atoms: C_3  and  C_9 
REMARK    4  A    between atoms: C_8  and  N_4 
ROOT
ATOM      1  S   UNL d   1       0.878  -0.045   0.260  0.00  0.00     0.259 S 
ATOM      2  O   UNL d   1       1.905  -0.942   0.716  0.00  0.00    -0.201 OA
ATOM      3  O   UNL d   1      -0.318   0.182   1.043  0.00  0.00    -0.201 OA
ENDROOT
BRANCH   1   4
ATOM      4  N   UNL d   1       0.325  -0.543  -1.266  0.00  0.00    -0.310 N 
ATOM      5  H   UNL d   1      -0.672  -0.337  -1.359  0.00  0.00     0.172 HD
BRANCH   4   6
ATOM      6  C   UNL d   1       1.155  -0.420  -2.483  0.00  0.00     0.097 C 
ATOM      7  C   UNL d   1       2.459  -1.239  -2.402  0.00  0.00     0.061 C 
ATOM      8  C   UNL d   1       2.381  -2.585  -3.121  0.00  0.00     0.225 C 
ATOM      9  C   UNL d   1       1.288  -3.485  -2.532  0.00  0.00     0.038 C 
ATOM     10  N   UNL d   1       1.939  -2.207  -4.464  0.00  0.00     0.093 N 
ATOM     11  C   UNL d   1       0.076  -3.259  -3.423  0.00  0.00     0.038 C 
ATOM     12  C   UNL d   1       0.490  -2.123  -4.350  0.00  0.00     0.225 C 
ATOM     13  C   UNL d   1       0.272  -0.731  -3.729  0.00  0.00     0.061 C 
ATOM     14  C   UNL d   1       2.502  -2.965  -5.555  0.00  0.00     0.310 C 
ENDBRANCH   4   6
ENDBRANCH   1   4
BRANCH   1  15
ATOM     15  C   UNL d   1       1.607   1.547  -0.048  0.00  0.00     0.080 A 
ATOM     16  C   UNL d   1       0.777   2.638  -0.334  0.00  0.00     0.041 A 
ATOM     17  C   UNL d   1       1.329   3.910  -0.557  0.00  0.00     0.049 A 
ATOM     18  C   UNL d   1       2.721   4.068  -0.469  0.00  0.00     0.016 A 
ATOM     19  C   UNL d   1       3.546   2.978  -0.172  0.00  0.00     0.002 A 
ATOM     20  C   UNL d   1       2.995   1.716   0.038  0.00  0.00     0.025 A 
BRANCH  17  21
ATOM     21  C   UNL d   1       0.451   5.099  -0.869  0.00  0.00     0.417 C 
ATOM     22  F   UNL d   1      -0.868   4.782  -0.989  0.00  0.00    -0.166 F 
ATOM     23  F   UNL d   1       0.521   6.063   0.089  0.00  0.00    -0.166 F 
ATOM     24  F   UNL d   1       0.795   5.705  -2.039  0.00  0.00    -0.166 F 
ENDBRANCH  17  21
ENDBRANCH   1  15
TORSDOF 4
