REMARK  10 active torsions:
REMARK  status: ('A' for Active; 'I' for Inactive)
REMARK    1  A    between atoms: C_2  and  C_1 
REMARK    2  A    between atoms: O_6  and  C_1 
REMARK    3  A    between atoms: O_18  and  C_3 
REMARK    4  A    between atoms: O_20  and  C_4 
REMARK    5  A    between atoms: O_19  and  C_5 
REMARK    6  A    between atoms: C_7  and  O_6 
REMARK    7  A    between atoms: O_22  and  C_10 
REMARK    8  A    between atoms: C_23  and  N_11 
REMARK    9  A    between atoms: C_16  and  C_17 
REMARK   10  A    between atoms: C_24  and  C_23 
ROOT
ATOM      1  C   UNL d   1      -1.009  -1.079   0.131  0.00  0.00     0.112 A 
ATOM      2  C   UNL d   1      -1.653  -0.409  -0.927  0.00  0.00     0.102 A 
ATOM      3  C   UNL d   1      -3.030  -0.604  -1.101  0.00  0.00     0.052 A 
ATOM      4  C   UNL d   1      -1.730  -1.963   0.945  0.00  0.00     0.041 A 
ATOM      5  C   UNL d   1      -3.763  -1.398  -0.215  0.00  0.00    -0.018 A 
ATOM      6  C   UNL d   1      -3.112  -2.103   0.792  0.00  0.00     0.016 A 
ENDROOT
BRANCH   1   7
ATOM      7  O   UNL d   1       0.389  -0.887   0.331  0.00  0.00    -0.272 OA
BRANCH   7   8
ATOM      8  C   UNL d   1       0.920  -0.860   1.623  0.00  0.00     0.298 C 
ATOM      9  O   UNL d   1       0.272  -0.869   2.674  0.00  0.00    -0.259 OA
BRANCH   8  10
ATOM     10  C   UNL d   1       2.411  -0.893   1.637  0.00  0.00     0.045 A 
ATOM     11  C   UNL d   1       3.074  -1.121   2.858  0.00  0.00     0.057 A 
ATOM     12  C   UNL d   1       4.477  -1.236   2.921  0.00  0.00     0.105 A 
ATOM     13  C   UNL d   1       5.247  -1.073   1.746  0.00  0.00     0.135 A 
ATOM     14  C   UNL d   1       4.574  -0.840   0.521  0.00  0.00     0.105 A 
ATOM     15  C   UNL d   1       3.170  -0.746   0.482  0.00  0.00     0.057 A 
BRANCH  12  16
ATOM     16  O   UNL d   1       5.146  -1.531   4.079  0.00  0.00    -0.353 OA
ATOM     17  C   UNL d   1       4.436  -1.697   5.297  0.00  0.00     0.210 C 
ENDBRANCH  12  16
BRANCH  13  18
ATOM     18  O   UNL d   1       6.617  -1.079   1.683  0.00  0.00    -0.351 OA
ATOM     19  C   UNL d   1       7.423  -1.404   2.805  0.00  0.00     0.210 C 
ENDBRANCH  13  18
BRANCH  14  20
ATOM     20  O   UNL d   1       5.115  -0.688  -0.733  0.00  0.00    -0.353 OA
ATOM     21  C   UNL d   1       6.495  -0.949  -0.939  0.00  0.00     0.210 C 
ENDBRANCH  14  20
ENDBRANCH   8  10
ENDBRANCH   7   8
ENDBRANCH   1   7
BRANCH   2  22
ATOM     22  O   UNL d   1      -0.910   0.410  -1.738  0.00  0.00    -0.353 OA
ATOM     23  C   UNL d   1      -1.663   1.319  -2.549  0.00  0.00     0.210 C 
ENDBRANCH   2  22
BRANCH   5  24
ATOM     24  C   UNL d   1      -5.238  -1.419  -0.312  0.00  0.00     0.094 C 
ATOM     25  N   UNL d   1      -5.842  -0.718  -1.208  0.00  0.00    -0.394 N 
ATOM     26  HN  UNL d   1      -5.332  -0.191  -1.917  1.00  0.00     0.159 HD
BRANCH  25  27
ATOM     27  C   UNL d   1      -7.301  -0.726  -1.146  0.00  0.00     0.157 C 
BRANCH  27  28
ATOM     28  C   UNL d   1      -7.864   0.105  -2.273  0.00  0.00    -0.041 A 
ATOM     29  C   UNL d   1      -8.171  -0.481  -3.509  0.00  0.00     0.009 A 
ATOM     30  C   UNL d   1      -8.631   0.299  -4.572  0.00  0.00     0.001 A 
ATOM     31  C   UNL d   1      -8.781   1.677  -4.413  0.00  0.00     0.000 A 
ATOM     32  C   UNL d   1      -8.470   2.273  -3.192  0.00  0.00     0.001 A 
ATOM     33  C   UNL d   1      -8.009   1.494  -2.129  0.00  0.00     0.009 A 
ENDBRANCH  27  28
ENDBRANCH  25  27
ENDBRANCH   5  24
TORSDOF 10
