REMARK  6 active torsions:
REMARK  status: ('A' for Active; 'I' for Inactive)
REMARK    1  A    between atoms: N_3  and  C_1 
REMARK    2  A    between atoms: N_9  and  C_1 
REMARK    3  A    between atoms: C_2  and  N_3 
REMARK    4  A    between atoms: O_20  and  C_6 
REMARK    5  A    between atoms: O_21  and  C_8 
REMARK    6  A    between atoms: C_13  and  N_9 
ROOT
ATOM      1  N   UNL d   1       0.433   1.107   0.895  0.00  0.00    -0.331 N 
ATOM      2  H   UNL d   1       0.881   0.935  -0.001  0.00  0.00     0.168 HD
ENDROOT
BRANCH   1   3
ATOM      3  C   UNL d   1       1.097   2.046   1.718  0.00  0.00     0.070 A 
ATOM      4  C   UNL d   1       0.774   2.174   3.073  0.00  0.00     0.071 A 
ATOM      5  C   UNL d   1       1.488   3.021   3.934  0.00  0.00     0.092 A 
ATOM      6  C   UNL d   1       2.549   3.761   3.399  0.00  0.00     0.070 A 
ATOM      7  C   UNL d   1       2.877   3.639   2.035  0.00  0.00     0.065 A 
ATOM      8 CL   UNL d   1       3.564   4.840   4.292  0.00  0.00    -0.081 Cl
ATOM      9  C   UNL d   1       2.168   2.780   1.192  0.00  0.00     0.096 A 
BRANCH   5  10
ATOM     10  O   UNL d   1       1.003   2.941   5.208  0.00  0.00    -0.354 OA
ATOM     11  C   UNL d   1       1.540   3.737   6.246  0.00  0.00     0.210 C 
ENDBRANCH   5  10
BRANCH   9  12
ATOM     12  O   UNL d   1       2.438   2.589  -0.142  0.00  0.00    -0.354 OA
ATOM     13  C   UNL d   1       3.363   3.492  -0.744  0.00  0.00     0.210 C 
ENDBRANCH   9  12
ENDBRANCH   1   3
BRANCH   1  14
ATOM     14  C   UNL d   1      -0.857   0.670   0.996  0.00  0.00     0.176 C 
ATOM     15  S   UNL d   1      -2.177   1.632   1.376  0.00  0.00    -0.041 SA
BRANCH  14  16
ATOM     16  N   UNL d   1      -1.119  -0.625   0.644  0.00  0.00    -0.333 N 
ATOM     17  H   UNL d   1      -2.115  -0.794   0.540  0.00  0.00     0.168 HD
BRANCH  16  18
ATOM     18  C   UNL d   1      -0.299  -1.772   0.613  0.00  0.00     0.035 A 
ATOM     19  C   UNL d   1       1.026  -1.813   1.053  0.00  0.00     0.055 A 
ATOM     20  C   UNL d   1       1.749  -3.015   1.031  0.00  0.00     0.058 A 
ATOM     21 CL   UNL d   1       3.382  -2.978   1.598  0.00  0.00    -0.082 Cl
ATOM     22  C   UNL d   1       1.145  -4.191   0.577  0.00  0.00     0.055 A 
ATOM     23  C   UNL d   1      -0.184  -4.161   0.154  0.00  0.00     0.028 A 
ATOM     24 CL   UNL d   1       1.974  -5.704   0.523  0.00  0.00    -0.083 Cl
ATOM     25  C   UNL d   1      -0.900  -2.960   0.176  0.00  0.00     0.031 A 
ENDBRANCH  16  18
ENDBRANCH  14  16
ENDBRANCH   1  14
TORSDOF 6
