REMARK  5 active torsions:
REMARK  status: ('A' for Active; 'I' for Inactive)
REMARK    1  A    between atoms: C_8  and  C_2 
REMARK    2  A    between atoms: S_9  and  C_5 
REMARK    3  A    between atoms: C_20  and  S_9 
REMARK    4  A    between atoms: C_11  and  C_20 
REMARK       I    between atoms: N_13  and  C_11 
REMARK    5  A    between atoms: C_22  and  N_13 
ROOT
ATOM      1  N   UNL d   1       1.009   0.069   0.229  0.00  0.00    -0.315 N 
ATOM      2  C   UNL d   1       0.106   1.104   0.083  0.00  0.00     0.134 C 
ATOM      3  N   UNL d   1      -1.110   0.589   0.132  0.00  0.00    -0.283 N 
ATOM      4  HN  UNL d   1      -1.979   1.099  -0.028  1.00  0.00     0.188 HD
ATOM      5  C   UNL d   1       0.264  -1.039   0.526  0.00  0.00     0.163 C 
ATOM      6  N   UNL d   1      -1.010  -0.751   0.436  0.00  0.00    -0.278 N 
ATOM      7  HN  UNL d   1      -1.787  -1.399   0.566  1.00  0.00     0.189 HD
ATOM      8  C   UNL d   1       2.438   0.105   0.050  0.00  0.00     0.160 C 
ENDROOT
BRANCH   2   9
ATOM      9  C   UNL d   1       0.430   2.521  -0.098  0.00  0.00     0.010 A 
ATOM     10  C   UNL d   1       1.439   3.133   0.656  0.00  0.00     0.029 A 
ATOM     11  C   UNL d   1       1.803   4.471   0.431  0.00  0.00    -0.009 A 
ATOM     12  C   UNL d   1       2.865   5.061   1.129  0.00  0.00     0.015 A 
ATOM     13  C   UNL d   1       1.116   5.247  -0.523  0.00  0.00     0.042 A 
ATOM     14  C   UNL d   1       3.219   6.375   0.858  0.00  0.00     0.018 A 
ATOM     15  C   UNL d   1       2.487   7.059  -0.093  0.00  0.00     0.088 A 
ATOM     16  N   UNL d   1       1.451   6.524  -0.778  0.00  0.00    -0.365 N 
ATOM     17  HN  UNL d   1       0.937   7.074  -1.467  1.00  0.00     0.165 HD
ATOM     18  C   UNL d   1       0.071   4.648  -1.215  0.00  0.00     0.031 A 
ATOM     19  C   UNL d   1      -0.276   3.303  -1.015  0.00  0.00     0.017 A 
ENDBRANCH   2   9
BRANCH   5  20
ATOM     20  S   UNL d   1       0.963  -2.548   1.003  0.00  0.00    -0.083 SA
BRANCH  20  21
ATOM     21  C   UNL d   1      -0.530  -3.558   1.233  0.00  0.00     0.185 C 
BRANCH  21  22
ATOM     22  C   UNL d   1      -0.215  -4.930   1.817  0.00  0.00     0.227 C 
ATOM     23  N   UNL d   1       0.764  -4.974   2.787  0.00  0.00    -0.357 N 
ATOM     24  H   UNL d   1       1.177  -4.099   3.086  0.00  0.00     0.162 HD
ATOM     25  O   UNL d   1      -0.862  -5.922   1.489  0.00  0.00    -0.273 OA
BRANCH  23  26
ATOM     26  C   UNL d   1       1.069  -6.191   3.529  0.00  0.00     0.076 C 
ATOM     27  C   UNL d   1       2.540  -6.220   3.929  0.00  0.00     0.032 C 
ATOM     28  C   UNL d   1       0.172  -6.303   4.761  0.00  0.00     0.032 C 
ENDBRANCH  23  26
ENDBRANCH  21  22
ENDBRANCH  20  21
ENDBRANCH   5  20
TORSDOF 5
