REMARK  2 active torsions:
REMARK  status: ('A' for Active; 'I' for Inactive)
REMARK    1  A    between atoms: C_11  and  C_1 
REMARK    2  A    between atoms: C_12  and  C_9 
ROOT
ATOM      1  C   UNL d   1      -1.633  -0.911  -0.028  0.00  0.00     0.177 A 
ATOM      2  C   UNL d   1       0.268   0.552   0.060  0.00  0.00     0.172 A 
ATOM      3  S   UNL d   1      -1.413   0.865   0.082  0.00  0.00    -0.028 SA
ATOM      4  N   UNL d   1       0.488  -0.782  -0.018  0.00  0.00    -0.242 N 
ATOM      5  N   UNL d   1      -0.548  -1.649  -0.066  0.00  0.00    -0.282 N 
ATOM      6  HN  UNL d   1      -0.497  -2.666  -0.121  1.00  0.00     0.188 HD
ATOM      7  N   UNL d   1       1.355   1.267   0.080  0.00  0.00    -0.333 N 
ATOM      8  HN  UNL d   1       1.448   2.281   0.148  1.00  0.00     0.168 HD
ATOM      9  C   UNL d   1       2.359   0.311  -0.015  0.00  0.00     0.062 A 
ATOM     10  C   UNL d   1       1.831  -0.972  -0.053  0.00  0.00     0.149 A 
ENDROOT
BRANCH   9  11
ATOM     11  C   UNL d   1       3.772   0.644  -0.065  0.00  0.00    -0.008 A 
ATOM     12  C   UNL d   1       4.698  -0.197  -0.701  0.00  0.00     0.015 A 
ATOM     13  C   UNL d   1       6.053   0.145  -0.750  0.00  0.00     0.024 A 
ATOM     14  C   UNL d   1       6.490   1.329  -0.162  0.00  0.00     0.034 A 
ATOM     15  C   UNL d   1       5.584   2.177   0.470  0.00  0.00     0.024 A 
ATOM     16 CL   UNL d   1       8.158   1.747  -0.222  0.00  0.00    -0.084 Cl
ATOM     17  C   UNL d   1       4.228   1.837   0.513  0.00  0.00     0.015 A 
ENDBRANCH   9  11
BRANCH   1  18
ATOM     18  C   UNL d   1      -3.047  -1.451  -0.074  0.00  0.00     0.440 C 
ATOM     19  F   UNL d   1      -4.008  -0.486  -0.060  0.00  0.00    -0.164 F 
ATOM     20  F   UNL d   1      -3.272  -2.192  -1.194  0.00  0.00    -0.164 F 
ATOM     21  F   UNL d   1      -3.314  -2.267   0.984  0.00  0.00    -0.164 F 
ENDBRANCH   1  18
TORSDOF 2
