REMARK  2 active torsions:
REMARK  status: ('A' for Active; 'I' for Inactive)
REMARK    1  A    between atoms: C_2  and  N_1 
REMARK    2  A    between atoms: N_4  and  C_3 
REMARK       I    between atoms: C_6  and  N_4 
ROOT
ATOM      1  C   UNL d   1       0.334   1.106  -0.639  0.00  0.00     0.130 A 
ATOM      2  C   UNL d   1      -0.676   1.512   0.250  0.00  0.00     0.068 A 
ATOM      3  C   UNL d   1       0.619   1.835  -1.812  0.00  0.00     0.045 A 
ATOM      4  C   UNL d   1      -1.423   2.648  -0.107  0.00  0.00     0.032 A 
ATOM      5  C   UNL d   1      -0.119   2.977  -2.133  0.00  0.00    -0.059 A 
ATOM      6  C   UNL d   1      -1.146   3.374  -1.274  0.00  0.00     0.009 A 
ATOM      7  C   UNL d   1       0.162   3.748  -3.389  0.00  0.00     0.048 C 
ENDROOT
BRANCH   2   8
ATOM      8  N   UNL d   1      -1.050   0.911   1.479  0.00  0.00    -0.325 N 
ATOM      9  C   UNL d   1      -0.240   0.156   2.305  0.00  0.00     0.218 C 
ATOM     10  O   UNL d   1       0.958  -0.039   2.143  0.00  0.00    -0.274 OA
ATOM     11  C   UNL d   1      -0.973  -0.404   3.498  0.00  0.00     0.117 C 
ATOM     12  H   UNL d   1      -1.915   1.236   1.894  0.00  0.00     0.169 HD
ENDBRANCH   2   8
BRANCH   1  13
ATOM     13  N   UNL d   1       1.000  -0.185  -0.544  0.00  0.00    -0.113 N 
ATOM     14  O   UNL d   1       0.269  -1.189  -0.527  0.00  0.00    -0.532 OA
ATOM     15  O   UNL d   1       2.235  -0.193  -0.633  0.00  0.00    -0.532 OA
ENDBRANCH   1  13
TORSDOF 2
