REMARK  4 active torsions:
REMARK  status: ('A' for Active; 'I' for Inactive)
REMARK    1  A    between atoms: C_5  and  C_1 
REMARK    2  A    between atoms: C_11  and  N_2 
REMARK    3  A    between atoms: S_14  and  C_6 
REMARK    4  A    between atoms: C_9  and  C_10 
ROOT
ATOM      1  C   UNL d   1      -0.102  -1.287   0.081  0.00  0.00     0.141 A 
ATOM      2  N   UNL d   1       1.188  -0.742  -0.017  0.00  0.00    -0.275 N 
ATOM      3  N   UNL d   1      -0.980  -0.302   0.145  0.00  0.00    -0.282 N 
ATOM      4  HN  UNL d   1      -1.990  -0.413   0.229  1.00  0.00     0.188 HD
ATOM      5  C   UNL d   1       0.968   0.629  -0.020  0.00  0.00     0.167 A 
ATOM      6  N   UNL d   1      -0.314   0.887   0.081  0.00  0.00    -0.278 N 
ATOM      7  HN  UNL d   1      -0.738   1.814   0.107  1.00  0.00     0.189 HD
ENDROOT
BRANCH   1   8
ATOM      8  C   UNL d   1      -0.473  -2.704   0.224  0.00  0.00     0.040 A 
ATOM      9  C   UNL d   1      -1.500  -3.308  -0.518  0.00  0.00     0.064 A 
ATOM     10  C   UNL d   1      -1.780  -4.669  -0.289  0.00  0.00     0.034 A 
ATOM     11  C   UNL d   1      -1.046  -5.371   0.646  0.00  0.00     0.088 A 
ATOM     12  N   UNL d   1      -0.074  -4.809   1.387  0.00  0.00    -0.374 N 
ATOM     13  C   UNL d   1       0.170  -3.497   1.178  0.00  0.00     0.103 A 
ATOM     14  HN  UNL d   1       0.453  -5.347   2.074  1.00  0.00     0.164 HD
BRANCH   9  15
ATOM     15  C   UNL d   1      -2.358  -2.583  -1.528  0.00  0.00     0.418 C 
ATOM     16  F   UNL d   1      -1.782  -1.504  -2.117  0.00  0.00    -0.166 F 
ATOM     17  F   UNL d   1      -2.700  -3.401  -2.570  0.00  0.00    -0.166 F 
ATOM     18  F   UNL d   1      -3.542  -2.166  -1.000  0.00  0.00    -0.166 F 
ENDBRANCH   9  15
ENDBRANCH   1   8
BRANCH   2  19
ATOM     19  C   UNL d   1       2.428  -1.448  -0.053  0.00  0.00     0.043 A 
ATOM     20  C   UNL d   1       2.543  -2.646  -0.776  0.00  0.00     0.032 A 
ATOM     21  C   UNL d   1       3.725  -3.392  -0.716  0.00  0.00     0.026 A 
ATOM     22  C   UNL d   1       4.798  -2.939   0.048  0.00  0.00     0.034 A 
ATOM     23  C   UNL d   1       4.705  -1.738   0.744  0.00  0.00     0.026 A 
ATOM     24 CL   UNL d   1       6.237  -3.875   0.147  0.00  0.00    -0.084 Cl
ATOM     25  C   UNL d   1       3.522  -0.992   0.697  0.00  0.00     0.032 A 
ENDBRANCH   2  19
BRANCH   5  26
ATOM     26  S   UNL d   1       2.187   1.838  -0.296  0.00  0.00    -0.096 SA
ATOM     27  C   UNL d   1       1.217   3.356  -0.151  0.00  0.00     0.099 C 
ENDBRANCH   5  26
TORSDOF 4
