REMARK  5 active torsions:
REMARK  status: ('A' for Active; 'I' for Inactive)
REMARK    1  A    between atoms: C_2  and  N_1 
REMARK    2  A    between atoms: N_10  and  C_3 
REMARK    3  A    between atoms: N_17  and  C_4 
REMARK       I    between atoms: C_5  and  N_11 
REMARK       I    between atoms: N_14  and  C_5 
REMARK    4  A    between atoms: N_11  and  N_10 
REMARK    5  A    between atoms: C_18  and  N_14 
ROOT
ATOM      1  N   UNL d   1       1.147   2.587  -0.569  0.00  0.00    -0.184 NA
ATOM      2  H   UNL d   1       1.425   3.578  -0.454  0.00  0.00     0.154 HD
ENDROOT
BRANCH   1   3
ATOM      3  C   UNL d   1       0.609   2.074   0.646  0.00  0.00     0.136 A 
ATOM      4  C   UNL d   1      -0.237   2.839   1.446  0.00  0.00     0.180 A 
ATOM      5  C   UNL d   1      -0.771   2.292   2.597  0.00  0.00     0.117 A 
ATOM      6  N   UNL d   1      -0.528   1.000   2.894  0.00  0.00    -0.341 N 
ATOM      7  C   UNL d   1       0.244   0.301   2.048  0.00  0.00     0.183 A 
ATOM      8  HN  UNL d   1      -0.917   0.569   3.732  1.00  0.00     0.167 HD
ATOM      9  N   UNL d   1       0.834   0.774   0.944  0.00  0.00    -0.340 N 
ATOM     10  HN  UNL d   1       1.424   0.184   0.357  1.00  0.00     0.167 HD
BRANCH   4  11
ATOM     11  N   UNL d   1      -0.550   4.169   1.041  0.00  0.00    -0.109 N 
ATOM     12  O   UNL d   1       0.383   4.985   1.049  0.00  0.00    -0.532 OA
ATOM     13  O   UNL d   1      -1.711   4.412   0.687  0.00  0.00    -0.532 OA
ENDBRANCH   4  11
BRANCH   5  14
ATOM     14  N   UNL d   1      -1.617   2.889   3.516  0.00  0.00    -0.281 NA
ATOM     15  C   UNL d   1      -1.341   4.206   4.061  0.00  0.00     0.114 C 
ATOM     16  H   UNL d   1      -1.769   2.195   4.250  0.00  0.00     0.128 HD
ENDBRANCH   5  14
ENDBRANCH   1   3
BRANCH   1  17
ATOM     17  N   UNL d   1       2.308   1.872  -0.997  0.00  0.00    -0.267 N 
ATOM     18  C   UNL d   1       3.368   2.675  -1.387  0.00  0.00     0.335 C 
ATOM     19  N   UNL d   1       4.450   1.967  -1.857  0.00  0.00    -0.308 N 
ATOM     20  O   UNL d   1       3.293   3.894  -1.238  0.00  0.00    -0.246 OA
ATOM     21  H   UNL d   1       4.337   0.967  -1.932  0.00  0.00     0.170 HD
ATOM     22  H   UNL d   1       2.123   0.962  -1.405  0.00  0.00     0.186 HD
BRANCH  19  23
ATOM     23  C   UNL d   1       5.724   2.494  -2.172  0.00  0.00     0.036 A 
ATOM     24  C   UNL d   1       6.059   3.845  -2.029  0.00  0.00     0.031 A 
ATOM     25  C   UNL d   1       7.357   4.297  -2.288  0.00  0.00     0.026 A 
ATOM     26  C   UNL d   1       8.332   3.399  -2.702  0.00  0.00     0.034 A 
ATOM     27  C   UNL d   1       8.013   2.054  -2.877  0.00  0.00     0.026 A 
ATOM     28 CL   UNL d   1       9.936   3.949  -2.986  0.00  0.00    -0.084 Cl
ATOM     29  C   UNL d   1       6.713   1.603  -2.613  0.00  0.00     0.031 A 
ENDBRANCH  19  23
ENDBRANCH   1  17
TORSDOF 5
