REMARK  6 active torsions:
REMARK  status: ('A' for Active; 'I' for Inactive)
REMARK    1  A    between atoms: C_7  and  C_1 
REMARK    2  A    between atoms: N_13  and  N_3 
REMARK       I    between atoms: N_8  and  C_7 
REMARK       I    between atoms: C_12  and  N_8 
REMARK    3  A    between atoms: C_9  and  C_14 
REMARK    4  A    between atoms: O_23  and  C_12 
REMARK    5  A    between atoms: C_15  and  N_13 
REMARK    6  A    between atoms: C_27  and  O_23 
ROOT
ATOM      1  C   UNL d   1      -0.633  -1.303  -0.002  0.00  0.00     0.117 A 
ATOM      2  N   UNL d   1      -0.729   1.092  -0.379  0.00  0.00    -0.273 N 
ATOM      3  N   UNL d   1       1.335   0.052  -0.036  0.00  0.00    -0.232 N 
ATOM      4  C   UNL d   1       0.638   1.233  -0.299  0.00  0.00     0.344 A 
ATOM      5  C   UNL d   1      -1.423  -0.086  -0.274  0.00  0.00     0.266 A 
ATOM      6  C   UNL d   1       0.689  -1.147   0.168  0.00  0.00     0.139 A 
ATOM      7  O   UNL d   1       1.175   2.333  -0.432  0.00  0.00    -0.245 OA
ATOM      8  O   UNL d   1      -2.648  -0.137  -0.382  0.00  0.00    -0.267 OA
ATOM      9  H   UNL d   1      -1.257   1.937  -0.536  0.00  0.00     0.173 HD
ENDROOT
BRANCH   3  10
ATOM     10  N   UNL d   1       2.712   0.208   0.265  0.00  0.00    -0.180 NA
ATOM     11  H   UNL d   1       3.083   1.069  -0.148  0.00  0.00     0.155 HD
BRANCH  10  12
ATOM     12  C   UNL d   1       3.601  -0.867  -0.011  0.00  0.00     0.099 A 
ATOM     13  N   UNL d   1       3.268  -1.869  -0.853  0.00  0.00    -0.342 N 
ATOM     14  C   UNL d   1       4.045  -2.991  -0.893  0.00  0.00     0.117 A 
ATOM     15  HN  UNL d   1       2.446  -1.789  -1.451  1.00  0.00     0.167 HD
ATOM     16  C   UNL d   1       5.198  -3.111  -0.118  0.00  0.00     0.034 A 
ATOM     17  C   UNL d   1       5.578  -2.045   0.687  0.00  0.00     0.005 A 
ATOM     18  C   UNL d   1       4.782  -0.904   0.727  0.00  0.00     0.044 A 
BRANCH  14  19
ATOM     19  C   UNL d   1       3.627  -4.165  -1.770  0.00  0.00     0.432 C 
ATOM     20  F   UNL d   1       2.475  -3.964  -2.469  0.00  0.00    -0.165 F 
ATOM     21  F   UNL d   1       4.576  -4.475  -2.702  0.00  0.00    -0.165 F 
ATOM     22  F   UNL d   1       3.439  -5.311  -1.052  0.00  0.00    -0.165 F 
ENDBRANCH  14  19
ENDBRANCH  10  12
ENDBRANCH   3  10
BRANCH   1  23
ATOM     23  C   UNL d   1      -1.175  -2.690   0.103  0.00  0.00     0.267 C 
ATOM     24  N   UNL d   1      -2.542  -2.800   0.027  0.00  0.00    -0.269 N 
ATOM     25  C   UNL d   1      -3.222  -3.983   0.150  0.00  0.00     0.367 C 
ATOM     26  H   UNL d   1      -3.111  -1.979  -0.147  0.00  0.00     0.174 HD
ATOM     27  O   UNL d   1      -2.763  -5.067   0.459  0.00  0.00    -0.238 OA
ATOM     28  O   UNL d   1      -0.404  -3.637   0.214  0.00  0.00    -0.267 OA
BRANCH  25  29
ATOM     29  O   UNL d   1      -4.545  -3.761  -0.087  0.00  0.00    -0.304 OA
BRANCH  29  30
ATOM     30  C   UNL d   1      -5.398  -4.907   0.095  0.00  0.00     0.176 C 
ATOM     31  C   UNL d   1      -5.447  -5.761  -1.159  0.00  0.00     0.034 C 
ENDBRANCH  29  30
ENDBRANCH  25  29
ENDBRANCH   1  23
TORSDOF 6
