REMARK  5 active torsions:
REMARK  status: ('A' for Active; 'I' for Inactive)
REMARK    1  A    between atoms: C_3  and  S_1 
REMARK    2  A    between atoms: C_5  and  S_1 
REMARK    3  A    between atoms: N_2  and  C_6 
REMARK    4  A    between atoms: C_13  and  C_3 
REMARK    5  A    between atoms: N_4  and  C_13 
ROOT
ATOM      1  C   UNL d   1       0.974   0.020   2.598  0.00  0.00     0.287 C 
ENDROOT
BRANCH   1   2
ATOM      2  N   UNL d   1       0.589   0.601   3.912  0.00  0.00     0.089 N 
ATOM      3  C   UNL d   1      -0.736   0.064   4.285  0.00  0.00     0.274 C 
ATOM      4  C   UNL d   1      -1.319   0.683   5.554  0.00  0.00     0.056 C 
ATOM      5  C   UNL d   1      -1.309   2.211   5.528  0.00  0.00     0.092 C 
ATOM      6  C   UNL d   1       0.081   2.723   5.150  0.00  0.00     0.056 C 
ATOM      7  C   UNL d   1       0.633   2.069   3.888  0.00  0.00     0.274 C 
BRANCH   5   8
ATOM      8  N   UNL d   1      -2.394   2.810   4.751  0.00  0.00    -0.362 N 
ATOM      9  C   UNL d   1      -2.610   2.728   3.399  0.00  0.00     0.091 A 
ATOM     10  C   UNL d   1      -3.727   3.468   3.085  0.00  0.00     0.019 A 
ATOM     11  C   UNL d   1      -4.219   4.013   4.288  0.00  0.00     0.019 A 
ATOM     12  C   UNL d   1      -3.384   3.594   5.298  0.00  0.00     0.091 A 
ENDBRANCH   5   8
ENDBRANCH   1   2
BRANCH   1  13
ATOM     13  C   UNL d   1       2.325   0.488   2.063  0.00  0.00     0.176 C 
BRANCH  13  14
ATOM     14  S   UNL d   1       2.670  -0.302   0.506  0.00  0.00     0.177 S 
ATOM     15  O   UNL d   1       1.675   0.138  -0.455  0.00  0.00    -0.223 OA
ATOM     16  O   UNL d   1       2.894  -1.715   0.744  0.00  0.00    -0.223 OA
BRANCH  14  17
ATOM     17  C   UNL d   1       4.225   0.408   0.016  0.00  0.00     0.059 A 
ATOM     18  C   UNL d   1       5.415  -0.201   0.421  0.00  0.00     0.024 A 
ATOM     19  C   UNL d   1       6.633   0.300  -0.041  0.00  0.00     0.008 A 
ATOM     20  C   UNL d   1       6.668   1.398  -0.912  0.00  0.00    -0.062 A 
ATOM     21  C   UNL d   1       5.467   2.008  -1.297  0.00  0.00     0.008 A 
ATOM     22  C   UNL d   1       7.984   1.879  -1.454  0.00  0.00     0.048 C 
ATOM     23  C   UNL d   1       4.244   1.513  -0.838  0.00  0.00     0.024 A 
ENDBRANCH  14  17
ENDBRANCH  13  14
ENDBRANCH   1  13
TORSDOF 5
