REMARK  6 active torsions:
REMARK  status: ('A' for Active; 'I' for Inactive)
REMARK       I    between atoms: N_3  and  C_1 
REMARK       I    between atoms: N_5  and  C_1 
REMARK    1  A    between atoms: C_2  and  C_4 
REMARK    2  A    between atoms: O_14  and  C_2 
REMARK    3  A    between atoms: C_7  and  N_3 
REMARK    4  A    between atoms: C_13  and  N_5 
REMARK    5  A    between atoms: S_16  and  C_12 
REMARK    6  A    between atoms: C_15  and  C_13 
ROOT
ATOM      1  C   UNL d   1       0.890   0.029   0.097  0.00  0.00     0.320 C 
ATOM      2  N   UNL d   1       0.317   0.878  -0.811  0.00  0.00    -0.309 N 
ATOM      3  N   UNL d   1       0.053  -0.715   0.860  0.00  0.00    -0.339 N 
ATOM      4  O   UNL d   1       2.094  -0.119   0.295  0.00  0.00    -0.247 OA
ATOM      5  H   UNL d   1      -0.656   1.097  -0.678  0.00  0.00     0.170 HD
ATOM      6  H   UNL d   1       0.566  -1.290   1.517  0.00  0.00     0.164 HD
ENDROOT
BRANCH   3   7
ATOM      7  C   UNL d   1      -1.386  -0.834   0.883  0.00  0.00     0.162 C 
BRANCH   7   8
ATOM      8  C   UNL d   1      -1.937  -0.393   2.216  0.00  0.00    -0.040 A 
ATOM      9  C   UNL d   1      -1.742   0.921   2.668  0.00  0.00     0.010 A 
ATOM     10  C   UNL d   1      -2.268   1.337   3.893  0.00  0.00     0.018 A 
ATOM     11  C   UNL d   1      -3.011   0.448   4.676  0.00  0.00     0.039 A 
ATOM     12  C   UNL d   1      -3.197  -0.869   4.242  0.00  0.00     0.018 A 
ATOM     13  C   UNL d   1      -2.660  -1.286   3.020  0.00  0.00     0.010 A 
BRANCH  11  14
ATOM     14  C   UNL d   1      -3.577   0.941   5.955  0.00  0.00     0.292 C 
ATOM     15  O   UNL d   1      -3.124   1.898   6.565  0.00  0.00    -0.259 OA
BRANCH  14  16
ATOM     16  O   UNL d   1      -4.684   0.234   6.285  0.00  0.00    -0.323 OA
ATOM     17  C   UNL d   1      -5.346   0.717   7.454  0.00  0.00     0.213 C 
ENDBRANCH  14  16
ENDBRANCH  11  14
ENDBRANCH   7   8
ENDBRANCH   3   7
BRANCH   2  18
ATOM     18  C   UNL d   1       1.008   1.685  -1.745  0.00  0.00     0.037 A 
ATOM     19  C   UNL d   1       2.356   1.492  -2.058  0.00  0.00     0.048 A 
ATOM     20  C   UNL d   1       3.033   2.352  -2.933  0.00  0.00     0.002 A 
ATOM     21  C   UNL d   1       2.320   3.391  -3.539  0.00  0.00     0.018 A 
ATOM     22  C   UNL d   1       0.960   3.565  -3.273  0.00  0.00     0.004 A 
ATOM     23  C   UNL d   1       0.305   2.712  -2.381  0.00  0.00     0.029 A 
BRANCH  20  24
ATOM     24  S   UNL d   1       4.761   2.149  -3.349  0.00  0.00    -0.134 SA
ATOM     25  C   UNL d   1       5.438   1.415  -1.828  0.00  0.00     0.095 C 
ENDBRANCH  20  24
ENDBRANCH   2  18
TORSDOF 6
