REMARK  9 active torsions:
REMARK  status: ('A' for Active; 'I' for Inactive)
REMARK    1  A    between atoms: N_2  and  S_1 
REMARK    2  A    between atoms: C_4  and  S_1 
REMARK    3  A    between atoms: C_5  and  N_2 
REMARK    4  A    between atoms: C_13  and  N_2 
REMARK       I    between atoms: C_3  and  N_11 
REMARK       I    between atoms: N_12  and  C_3 
REMARK    5  A    between atoms: C_7  and  C_5 
REMARK    6  A    between atoms: C_6  and  C_10 
REMARK       I    between atoms: N_14  and  C_6 
REMARK    7  A    between atoms: C_10  and  C_13 
REMARK    8  A    between atoms: N_11  and  N_14 
REMARK    9  A    between atoms: C_24  and  N_12 
ROOT
ATOM      1  C   UNL d   1       0.740   2.531  -0.358  0.00  0.00     0.116 C 
ENDROOT
BRANCH   1   2
ATOM      2  C   UNL d   1       0.331   3.857  -0.992  0.00  0.00     0.113 C 
BRANCH   2   3
ATOM      3  C   UNL d   1      -1.153   4.101  -0.865  0.00  0.00     0.216 C 
ATOM      4  N   UNL d   1      -1.810   4.358  -2.064  0.00  0.00    -0.170 NA
ATOM      5  H   UNL d   1      -1.447   3.850  -2.877  0.00  0.00     0.156 HD
ATOM      6  O   UNL d   1      -1.727   4.098   0.223  0.00  0.00    -0.278 OA
BRANCH   4   7
ATOM      7  N   UNL d   1      -3.219   4.387  -1.951  0.00  0.00    -0.266 N 
ATOM      8  C   UNL d   1      -4.051   5.243  -2.639  0.00  0.00     0.335 C 
ATOM      9  N   UNL d   1      -3.455   5.926  -3.669  0.00  0.00    -0.308 N 
ATOM     10  O   UNL d   1      -5.229   5.306  -2.302  0.00  0.00    -0.246 OA
ATOM     11  H   UNL d   1      -2.452   5.827  -3.711  0.00  0.00     0.170 HD
ATOM     12  H   UNL d   1      -3.598   4.058  -1.062  0.00  0.00     0.186 HD
BRANCH   9  13
ATOM     13  C   UNL d   1      -4.079   6.780  -4.604  0.00  0.00     0.036 A 
ATOM     14  C   UNL d   1      -5.452   7.031  -4.643  0.00  0.00     0.029 A 
ATOM     15  C   UNL d   1      -6.007   7.864  -5.620  0.00  0.00     0.002 A 
ATOM     16  C   UNL d   1      -5.190   8.460  -6.574  0.00  0.00     0.000 A 
ATOM     17  C   UNL d   1      -3.816   8.232  -6.545  0.00  0.00     0.002 A 
ATOM     18  C   UNL d   1      -3.263   7.400  -5.566  0.00  0.00     0.029 A 
ENDBRANCH   9  13
ENDBRANCH   4   7
ENDBRANCH   2   3
ENDBRANCH   1   2
BRANCH   1  19
ATOM     19  N   UNL d   1       0.281   1.265  -1.083  0.00  0.00    -0.200 NA
BRANCH  19  20
ATOM     20  S   UNL d   1       0.750   1.265  -2.735  0.00  0.00     0.244 S 
ATOM     21  O   UNL d   1       2.194   1.378  -2.754  0.00  0.00    -0.206 OA
ATOM     22  O   UNL d   1      -0.080   2.249  -3.409  0.00  0.00    -0.206 OA
BRANCH  20  23
ATOM     23  C   UNL d   1       0.324  -0.305  -3.446  0.00  0.00     0.074 A 
ATOM     24  C   UNL d   1      -1.014  -0.703  -3.514  0.00  0.00     0.026 A 
ATOM     25  C   UNL d   1      -1.358  -1.834  -4.264  0.00  0.00     0.025 A 
ATOM     26  C   UNL d   1      -0.370  -2.552  -4.943  0.00  0.00     0.034 A 
ATOM     27  C   UNL d   1       0.968  -2.170  -4.855  0.00  0.00     0.025 A 
ATOM     28 CL   UNL d   1      -0.808  -3.891  -5.930  0.00  0.00    -0.084 Cl
ATOM     29  C   UNL d   1       1.319  -1.048  -4.101  0.00  0.00     0.026 A 
ENDBRANCH  20  23
ENDBRANCH  19  20
BRANCH  19  30
ATOM     30  C   UNL d   1       0.752   0.048  -0.329  0.00  0.00     0.172 C 
BRANCH  30  31
ATOM     31  C   UNL d   1       0.253   0.054   1.080  0.00  0.00     0.066 A 
ATOM     32  O   UNL d   1       1.208   0.074   2.058  0.00  0.00    -0.326 OA
ATOM     33  C   UNL d   1       0.561   0.134   3.251  0.00  0.00     0.142 A 
ATOM     34  C   UNL d   1      -0.800   0.147   3.059  0.00  0.00     0.027 A 
ATOM     35  C   UNL d   1      -1.002   0.088   1.657  0.00  0.00     0.036 A 
ENDBRANCH  30  31
ENDBRANCH  19  30
ENDBRANCH   1  19
TORSDOF 9
