REMARK  4 active torsions:
REMARK  status: ('A' for Active; 'I' for Inactive)
REMARK    1  A    between atoms: N_2  and  S_1 
REMARK    2  A    between atoms: C_3  and  S_1 
REMARK    3  A    between atoms: C_4  and  N_2 
REMARK    4  A    between atoms: C_21  and  C_18 
ROOT
ATOM      1  S   UNL d   1       0.999   0.026  -0.120  0.00  0.00     0.247 S 
ATOM      2  O   UNL d   1       0.312  -0.259   1.122  0.00  0.00    -0.205 OA
ATOM      3  O   UNL d   1       2.438  -0.056  -0.244  0.00  0.00    -0.205 OA
ENDROOT
BRANCH   1   4
ATOM      4  N   UNL d   1       0.406   1.523  -0.651  0.00  0.00    -0.166 NA
ATOM      5  H   UNL d   1      -0.187   1.873   0.103  0.00  0.00     0.147 HD
BRANCH   4   6
ATOM      6  C   UNL d   1       1.397   2.491  -0.919  0.00  0.00     0.094 A 
ATOM      7  N   UNL d   1       1.738   3.214   0.157  0.00  0.00    -0.356 N 
ATOM      8  C   UNL d   1       2.693   4.150  -0.037  0.00  0.00     0.090 A 
ATOM      9  HN  UNL d   1       1.303   3.065   1.068  1.00  0.00     0.166 HD
ATOM     10  C   UNL d   1       3.292   4.406  -1.263  0.00  0.00     0.024 A 
ATOM     11  C   UNL d   1       2.905   3.647  -2.370  0.00  0.00    -0.054 A 
ATOM     12  C   UNL d   1       1.933   2.659  -2.187  0.00  0.00     0.050 A 
BRANCH  11  13
ATOM     13  C   UNL d   1       3.497   3.908  -3.731  0.00  0.00     0.034 C 
ATOM     14  C   UNL d   1       2.700   4.942  -4.512  0.00  0.00     0.010 C 
ENDBRANCH  11  13
ENDBRANCH   4   6
ENDBRANCH   1   4
BRANCH   1  15
ATOM     15  C   UNL d   1       0.322  -1.064  -1.357  0.00  0.00     0.075 A 
ATOM     16  C   UNL d   1       0.810  -0.962  -2.666  0.00  0.00     0.034 A 
ATOM     17  C   UNL d   1       0.246  -1.773  -3.629  0.00  0.00    -0.021 A 
ATOM     18  C   UNL d   1       0.564  -1.887  -5.069  0.00  0.00     0.068 C 
ATOM     19  C   UNL d   1      -0.732  -2.699  -3.298  0.00  0.00     0.075 A 
ATOM     20  C   UNL d   1      -0.651  -2.704  -5.510  0.00  0.00     0.180 C 
ATOM     21  O   UNL d   1      -1.171  -3.432  -4.371  0.00  0.00    -0.350 OA
ATOM     22  C   UNL d   1      -1.186  -2.856  -2.003  0.00  0.00     0.039 A 
ATOM     23  C   UNL d   1      -0.659  -2.017  -1.016  0.00  0.00     0.027 A 
ENDBRANCH   1  15
TORSDOF 4
