REMARK  0 active torsions:
REMARK  status: ('A' for Active; 'I' for Inactive)
ROOT
ATOM      1  C   UNL d   1      -0.116  -0.844  -0.047  0.00  0.00     0.061 A 
ATOM      2  N   UNL d   1       0.897   1.288   0.832  0.00  0.00    -0.331 N 
ATOM      3  C   UNL d   1      -0.227   0.472   0.439  0.00  0.00     0.051 A 
ATOM      4  C   UNL d   1       2.031   1.413   0.023  0.00  0.00     0.171 C 
ATOM      5  C   UNL d   1       1.160  -1.588  -0.103  0.00  0.00     0.268 C 
ATOM      6  N   UNL d   1       2.299   0.403  -0.866  0.00  0.00    -0.177 NA
ATOM      7  N   UNL d   1       2.312  -0.897  -0.356  0.00  0.00    -0.281 N 
ATOM      8  C   UNL d   1      -1.524   1.016   0.552  0.00  0.00     0.032 A 
ATOM      9  S   UNL d   1       3.077   2.729  -0.017  0.00  0.00    -0.045 SA
ATOM     10  C   UNL d   1      -1.266  -1.583  -0.390  0.00  0.00     0.043 A 
ATOM     11  O   UNL d   1       1.184  -2.804   0.063  0.00  0.00    -0.266 OA
ATOM     12  C   UNL d   1      -2.527  -1.013  -0.277  0.00  0.00     0.035 A 
ATOM     13  C   UNL d   1      -2.662   0.286   0.190  0.00  0.00     0.026 A 
ATOM     14  C   UNL d   1       0.674   2.240   1.927  0.00  0.00     0.158 C 
ATOM     15 CL   UNL d   1      -3.924  -1.918  -0.708  0.00  0.00    -0.084 Cl
ATOM     16  H   UNL d   1       3.106   0.611  -1.453  0.00  0.00     0.155 HD
ATOM     17  H   UNL d   1       3.159  -1.447  -0.451  0.00  0.00     0.184 HD
ENDROOT
TORSDOF 0
