REMARK  4 active torsions:
REMARK  status: ('A' for Active; 'I' for Inactive)
REMARK    1  A    between atoms: C_3  and  C_1 
REMARK    2  A    between atoms: C_8  and  C_1 
REMARK    3  A    between atoms: C_7  and  C_2 
REMARK    4  A    between atoms: N_4  and  C_3 
ROOT
ATOM      1  C   UNL d   1       1.042   0.017  -0.089  0.00  0.00     0.072 C 
ATOM      2  C   UNL d   1       0.388   0.603  -1.115  0.00  0.00     0.038 C 
ENDROOT
BRANCH   1   3
ATOM      3  C   UNL d   1       2.562   0.017  -0.089  0.00  0.00    -0.033 C 
BRANCH   3   4
ATOM      4  N   UNL d   1       3.823   0.017  -0.089  0.00  0.00    -0.365 N 
ATOM      5  HN2 UNL d   1       2.803   0.017  -0.089  1.00  0.00     0.165 HD
ATOM      6  HN1 UNL d   1       4.843   0.017  -0.089  1.00  0.00     0.165 HD
ENDBRANCH   3   4
ENDBRANCH   1   3
BRANCH   1   7
ATOM      7  C   UNL d   1       0.276  -0.599   1.036  0.00  0.00     0.165 C 
ATOM      8  O   UNL d   1      -0.954  -0.558   1.042  0.00  0.00    -0.292 OA
ATOM      9  C   UNL d   1       1.014  -1.284   2.158  0.00  0.00     0.097 C 
ENDBRANCH   1   7
BRANCH   2  10
ATOM     10  C   UNL d   1       0.966   1.242  -2.266  0.00  0.00    -0.011 A 
ATOM     11  C   UNL d   1       2.140   0.923  -2.920  0.00  0.00     0.152 A 
ATOM     12  O   UNL d   1       2.365   1.778  -3.951  0.00  0.00    -0.334 OA
ATOM     13  C   UNL d   1       1.320   2.640  -3.981  0.00  0.00     0.142 A 
ATOM     14  C   UNL d   1       0.420   2.340  -2.983  0.00  0.00     0.038 A 
ENDBRANCH   2  10
TORSDOF 4
