REMARK  8 active torsions:
REMARK  status: ('A' for Active; 'I' for Inactive)
REMARK    1  A    between atoms: S_8  and  C_2 
REMARK    2  A    between atoms: C_14  and  C_7 
REMARK    3  A    between atoms: C_15  and  S_8 
REMARK    4  A    between atoms: C_9  and  C_24 
REMARK       I    between atoms: N_10  and  C_9 
REMARK    5  A    between atoms: C_18  and  N_10 
REMARK    6  A    between atoms: S_12  and  C_14 
REMARK    7  A    between atoms: C_24  and  S_12 
REMARK    8  A    between atoms: C_17  and  C_15 
ROOT
ATOM      1  N   UNL d   1       0.461   0.072  -0.273  0.00  0.00    -0.319 N 
ATOM      2  C   UNL d   1      -0.397   1.134  -0.163  0.00  0.00     0.162 A 
ATOM      3  N   UNL d   1      -1.602   0.696   0.117  0.00  0.00    -0.278 N 
ATOM      4  HN  UNL d   1      -2.432   1.272   0.259  1.00  0.00     0.189 HD
ATOM      5  N   UNL d   1      -1.547  -0.676   0.183  0.00  0.00    -0.286 N 
ATOM      6  HN  UNL d   1      -2.333  -1.296   0.381  1.00  0.00     0.188 HD
ATOM      7  C   UNL d   1      -0.305  -1.054  -0.052  0.00  0.00     0.109 A 
ATOM      8  C   UNL d   1       1.867   0.092  -0.582  0.00  0.00     0.159 C 
ENDROOT
BRANCH   7   9
ATOM      9  C   UNL d   1       0.183  -2.461  -0.121  0.00  0.00     0.152 C 
BRANCH   9  10
ATOM     10  S   UNL d   1       0.979  -3.012   1.433  0.00  0.00    -0.152 SA
BRANCH  10  11
ATOM     11  C   UNL d   1      -0.514  -3.125   2.471  0.00  0.00     0.177 C 
BRANCH  11  12
ATOM     12  C   UNL d   1      -0.280  -3.574   3.909  0.00  0.00     0.231 C 
ATOM     13  N   UNL d   1       0.956  -4.119   4.197  0.00  0.00    -0.327 N 
ATOM     14  H   UNL d   1       1.621  -4.123   3.429  0.00  0.00     0.169 HD
ATOM     15  O   UNL d   1      -1.210  -3.465   4.711  0.00  0.00    -0.272 OA
BRANCH  13  16
ATOM     16  C   UNL d   1       1.406  -4.628   5.438  0.00  0.00     0.034 A 
ATOM     17  C   UNL d   1       0.617  -4.676   6.591  0.00  0.00     0.029 A 
ATOM     18  C   UNL d   1       1.126  -5.187   7.790  0.00  0.00     0.002 A 
ATOM     19  C   UNL d   1       2.433  -5.659   7.851  0.00  0.00     0.000 A 
ATOM     20  C   UNL d   1       3.230  -5.621   6.711  0.00  0.00     0.002 A 
ATOM     21  C   UNL d   1       2.720  -5.109   5.511  0.00  0.00     0.029 A 
ENDBRANCH  13  16
ENDBRANCH  11  12
ENDBRANCH  10  11
ENDBRANCH   9  10
ENDBRANCH   7   9
BRANCH   2  22
ATOM     22  S   UNL d   1       0.070   2.784  -0.399  0.00  0.00    -0.088 SA
BRANCH  22  23
ATOM     23  C   UNL d   1      -1.429   3.659   0.155  0.00  0.00     0.121 C 
BRANCH  23  24
ATOM     24  C   UNL d   1      -1.266   5.167   0.136  0.00  0.00    -0.048 A 
ATOM     25  C   UNL d   1      -2.078   5.959  -0.694  0.00  0.00     0.009 A 
ATOM     26  C   UNL d   1      -1.967   7.353  -0.680  0.00  0.00     0.024 A 
ATOM     27  C   UNL d   1      -1.044   7.969   0.160  0.00  0.00     0.034 A 
ATOM     28  C   UNL d   1      -0.229   7.200   0.988  0.00  0.00     0.024 A 
ATOM     29 CL   UNL d   1      -0.914   9.684   0.183  0.00  0.00    -0.084 Cl
ATOM     30  C   UNL d   1      -0.344   5.807   0.980  0.00  0.00     0.009 A 
ENDBRANCH  23  24
ENDBRANCH  22  23
ENDBRANCH   2  22
TORSDOF 8
