REMARK  3 active torsions:
REMARK  status: ('A' for Active; 'I' for Inactive)
REMARK    1  A    between atoms: N_2  and  C_1 
REMARK    2  A    between atoms: N_4  and  C_3 
REMARK    3  A    between atoms: N_13  and  C_5 
ROOT
ATOM      1  C   UNL d   1       0.904   0.170   0.971  0.00  0.00     0.184 A 
ATOM      2  C   UNL d   1       1.208  -0.966   0.221  0.00  0.00     0.141 A 
ATOM      3  C   UNL d   1      -0.420   0.478   1.251  0.00  0.00     0.118 A 
ATOM      4  N   UNL d   1       0.198  -1.724  -0.255  0.00  0.00    -0.337 N 
ATOM      5  HN  UNL d   1       0.383  -2.563  -0.806  1.00  0.00     0.168 HD
ATOM      6  N   UNL d   1      -1.411  -0.290   0.767  0.00  0.00    -0.341 N 
ATOM      7  HN  UNL d   1      -2.390  -0.081   0.962  1.00  0.00     0.167 HD
ATOM      8  C   UNL d   1      -1.056  -1.340   0.020  0.00  0.00     0.183 A 
ENDROOT
BRANCH   2   9
ATOM      9  N   UNL d   1       2.509  -1.332  -0.145  0.00  0.00    -0.365 N 
ATOM     10  C   UNL d   1       3.454  -1.658   0.933  0.00  0.00     0.124 C 
ATOM     11  C   UNL d   1       4.865  -1.428   0.390  0.00  0.00     0.020 C 
ATOM     12  C   UNL d   1       5.122  -2.308  -0.832  0.00  0.00     0.003 C 
ATOM     13  C   UNL d   1       4.016  -2.160  -1.879  0.00  0.00     0.020 C 
ATOM     14  C   UNL d   1       2.615  -2.277  -1.272  0.00  0.00     0.124 C 
ENDBRANCH   2   9
BRANCH   1  15
ATOM     15  N   UNL d   1       1.927   1.107   1.299  0.00  0.00    -0.108 N 
ATOM     16  O   UNL d   1       2.282   1.908   0.420  0.00  0.00    -0.532 OA
ATOM     17  O   UNL d   1       2.394   1.064   2.452  0.00  0.00    -0.532 OA
ENDBRANCH   1  15
BRANCH   3  18
ATOM     18  N   UNL d   1      -0.906   1.577   1.948  0.00  0.00    -0.281 NA
ATOM     19  C   UNL d   1      -0.358   1.903   3.254  0.00  0.00     0.114 C 
ATOM     20  H   UNL d   1      -1.919   1.453   1.977  0.00  0.00     0.128 HD
ENDBRANCH   3  18
TORSDOF 3
