REMARK  6 active torsions:
REMARK  status: ('A' for Active; 'I' for Inactive)
REMARK    1  A    between atoms: S_7  and  C_2 
REMARK    2  A    between atoms: S_8  and  C_2 
REMARK    3  A    between atoms: C_3  and  C_10 
REMARK    4  A    between atoms: C_4  and  C_9 
REMARK    5  A    between atoms: C_9  and  S_7 
REMARK    6  A    between atoms: C_10  and  S_8 
ROOT
ATOM      1  C   UNL d   1       0.007  -0.663   0.021  0.00  0.00     0.147 C 
ATOM      2  C   UNL d   1       0.046  -2.023   0.026  0.00  0.00     0.069 C 
ATOM      3  C   UNL d   1       1.186   0.137   0.113  0.00  0.00     0.112 C 
ATOM      4  C   UNL d   1      -1.216   0.067  -0.081  0.00  0.00     0.112 C 
ATOM      5  N   UNL d   1       2.137   0.803   0.177  0.00  0.00    -0.191 NA
ATOM      6  N   UNL d   1      -2.197   0.681  -0.155  0.00  0.00    -0.191 NA
ENDROOT
BRANCH   2   7
ATOM      7  S   UNL d   1      -1.450  -2.951  -0.142  0.00  0.00    -0.116 SA
BRANCH   7   8
ATOM      8  C   UNL d   1      -1.287  -4.283   1.088  0.00  0.00     0.122 C 
BRANCH   8   9
ATOM      9  C   UNL d   1      -2.437  -5.271   1.049  0.00  0.00    -0.005 A 
ATOM     10  C   UNL d   1      -2.597  -6.184  -0.019  0.00  0.00     0.042 A 
ATOM     11 CL   UNL d   1      -1.544  -6.225  -1.391  0.00  0.00    -0.084 Cl
ATOM     12  C   UNL d   1      -3.621  -7.137  -0.021  0.00  0.00     0.024 A 
ATOM     13  C   UNL d   1      -4.509  -7.215   1.044  0.00  0.00     0.003 A 
ATOM     14  C   UNL d   1      -4.380  -6.326   2.105  0.00  0.00     0.024 A 
ATOM     15  C   UNL d   1      -3.362  -5.361   2.107  0.00  0.00     0.042 A 
ATOM     16 CL   UNL d   1      -3.304  -4.313   3.483  0.00  0.00    -0.084 Cl
ENDBRANCH   8   9
ENDBRANCH   7   8
ENDBRANCH   2   7
BRANCH   2  17
ATOM     17  S   UNL d   1       1.599  -2.850   0.175  0.00  0.00    -0.116 SA
BRANCH  17  18
ATOM     18  C   UNL d   1       1.515  -4.135  -1.109  0.00  0.00     0.122 C 
BRANCH  18  19
ATOM     19  C   UNL d   1       2.811  -4.894  -1.265  0.00  0.00    -0.005 A 
ATOM     20  C   UNL d   1       3.214  -5.861  -0.317  0.00  0.00     0.042 A 
ATOM     21 CL   UNL d   1       2.268  -6.239   1.084  0.00  0.00    -0.084 Cl
ATOM     22  C   UNL d   1       4.400  -6.586  -0.477  0.00  0.00     0.024 A 
ATOM     23  C   UNL d   1       5.205  -6.375  -1.590  0.00  0.00     0.003 A 
ATOM     24  C   UNL d   1       4.828  -5.431  -2.539  0.00  0.00     0.024 A 
ATOM     25  C   UNL d   1       3.649  -4.692  -2.377  0.00  0.00     0.042 A 
ATOM     26 CL   UNL d   1       3.279  -3.542  -3.616  0.00  0.00    -0.084 Cl
ENDBRANCH  18  19
ENDBRANCH  17  18
ENDBRANCH   2  17
TORSDOF 6
