REMARK  6 active torsions:
REMARK  status: ('A' for Active; 'I' for Inactive)
REMARK       I    between atoms: N_5  and  C_1 
REMARK       I    between atoms: N_7  and  C_1 
REMARK    1  A    between atoms: C_2  and  C_3 
REMARK    2  A    between atoms: C_3  and  N_5 
REMARK    3  A    between atoms: C_4  and  C_3 
REMARK    4  A    between atoms: C_6  and  C_4 
REMARK    5  A    between atoms: O_15  and  C_6 
REMARK    6  A    between atoms: C_14  and  N_7 
ROOT
ATOM      1  C   UNL d   1       0.118   0.105   1.264  0.00  0.00     0.321 C 
ATOM      2  N   UNL d   1       0.379   1.178   0.473  0.00  0.00    -0.334 N 
ATOM      3  N   UNL d   1      -0.679  -0.875   0.748  0.00  0.00    -0.309 N 
ATOM      4  O   UNL d   1       0.523   0.020   2.421  0.00  0.00    -0.247 OA
ATOM      5  H   UNL d   1      -0.371   1.405  -0.174  0.00  0.00     0.165 HD
ATOM      6  H   UNL d   1      -0.968  -1.525   1.466  0.00  0.00     0.170 HD
ENDROOT
BRANCH   2   7
ATOM      7  C   UNL d   1       1.100   2.347   0.949  0.00  0.00     0.129 C 
BRANCH   7   8
ATOM      8  C   UNL d   1       1.902   2.928  -0.209  0.00  0.00    -0.028 A 
ATOM      9  C   UNL d   1       2.406   2.193  -1.273  0.00  0.00     0.058 A 
ATOM     10  S   UNL d   1       3.260   3.134  -2.413  0.00  0.00    -0.113 SA
ATOM     11  C   UNL d   1       3.037   4.546  -1.486  0.00  0.00     0.050 A 
ATOM     12  C   UNL d   1       2.313   4.303  -0.340  0.00  0.00     0.017 A 
ENDBRANCH   7   8
BRANCH   7  13
ATOM     13  C   UNL d   1       0.138   3.335   1.625  0.00  0.00     0.140 C 
BRANCH  13  14
ATOM     14  C   UNL d   1      -0.929   3.831   0.673  0.00  0.00     0.141 C 
ATOM     15  O   UNL d   1      -1.391   3.181  -0.254  0.00  0.00    -0.650 OA
BRANCH  14  16
ATOM     16  O   UNL d   1      -1.383   5.067   0.975  0.00  0.00    -0.776 OA
ATOM     17  H   UNL d   1      -0.975   5.475   1.762  0.00  0.00     0.167 HD
ENDBRANCH  14  16
ENDBRANCH  13  14
ENDBRANCH   7  13
ENDBRANCH   2   7
BRANCH   3  18
ATOM     18  C   UNL d   1      -1.215  -1.075  -0.541  0.00  0.00     0.036 A 
ATOM     19  C   UNL d   1      -0.730  -0.470  -1.702  0.00  0.00     0.029 A 
ATOM     20  C   UNL d   1      -1.381  -0.640  -2.927  0.00  0.00     0.002 A 
ATOM     21  C   UNL d   1      -2.503  -1.455  -3.010  0.00  0.00     0.000 A 
ATOM     22  C   UNL d   1      -2.954  -2.127  -1.875  0.00  0.00     0.002 A 
ATOM     23  C   UNL d   1      -2.306  -1.946  -0.650  0.00  0.00     0.029 A 
ENDBRANCH   3  18
TORSDOF 6
