REMARK  6 active torsions:
REMARK  status: ('A' for Active; 'I' for Inactive)
REMARK    1  A    between atoms: N_2  and  S_1 
REMARK    2  A    between atoms: C_3  and  S_1 
REMARK    3  A    between atoms: C_11  and  N_2 
REMARK    4  A    between atoms: C_4  and  C_7 
REMARK    5  A    between atoms: O_15  and  C_4 
REMARK    6  A    between atoms: C_21  and  O_15 
ROOT
ATOM      1  N   UNL d   1       0.571  -1.400   0.623  0.00  0.00    -0.281 N 
ATOM      2  H   UNL d   1       0.740  -0.612   0.002  0.00  0.00     0.179 HD
ENDROOT
BRANCH   1   3
ATOM      3  S   UNL d   1       0.696  -1.025   2.260  0.00  0.00     0.263 S 
ATOM      4  O   UNL d   1      -0.042  -2.002   3.034  0.00  0.00    -0.200 OA
ATOM      5  O   UNL d   1       0.416   0.390   2.372  0.00  0.00    -0.200 OA
BRANCH   3   6
ATOM      6  C   UNL d   1       2.431  -1.249   2.604  0.00  0.00     0.080 A 
ATOM      7  C   UNL d   1       3.310  -0.173   2.427  0.00  0.00     0.027 A 
ATOM      8  C   UNL d   1       4.663  -0.331   2.736  0.00  0.00     0.025 A 
ATOM      9  C   UNL d   1       5.126  -1.554   3.225  0.00  0.00     0.034 A 
ATOM     10  C   UNL d   1       4.248  -2.623   3.409  0.00  0.00     0.025 A 
ATOM     11 CL   UNL d   1       6.791  -1.740   3.613  0.00  0.00    -0.084 Cl
ATOM     12  C   UNL d   1       2.892  -2.470   3.107  0.00  0.00     0.027 A 
ENDBRANCH   3   6
ENDBRANCH   1   3
BRANCH   1  13
ATOM     13  C   UNL d   1       0.899  -2.703   0.184  0.00  0.00     0.042 A 
ATOM     14  C   UNL d   1      -0.053  -3.716   0.284  0.00  0.00     0.031 A 
ATOM     15  C   UNL d   1       0.261  -5.013  -0.126  0.00  0.00     0.020 A 
ATOM     16  C   UNL d   1       1.539  -5.304  -0.618  0.00  0.00     0.039 A 
ATOM     17  C   UNL d   1       2.498  -4.284  -0.698  0.00  0.00     0.020 A 
ATOM     18  C   UNL d   1       2.176  -2.982  -0.306  0.00  0.00     0.031 A 
BRANCH  16  19
ATOM     19  C   UNL d   1       1.906  -6.654  -1.127  0.00  0.00     0.293 C 
ATOM     20  O   UNL d   1       2.996  -6.918  -1.606  0.00  0.00    -0.259 OA
BRANCH  19  21
ATOM     21  O   UNL d   1       0.833  -7.477  -1.064  0.00  0.00    -0.318 OA
BRANCH  21  22
ATOM     22  C   UNL d   1       0.921  -8.674  -1.848  0.00  0.00     0.174 C 
ATOM     23  C   UNL d   1       0.417  -8.364  -3.246  0.00  0.00     0.034 C 
ENDBRANCH  21  22
ENDBRANCH  19  21
ENDBRANCH  16  19
ENDBRANCH   1  13
TORSDOF 6
