REMARK  5 active torsions:
REMARK  status: ('A' for Active; 'I' for Inactive)
REMARK    1  A    between atoms: C_9  and  C_1 
REMARK    2  A    between atoms: O_8  and  C_2 
REMARK    3  A    between atoms: C_10  and  C_6 
REMARK    4  A    between atoms: O_11  and  C_9 
REMARK    5  A    between atoms: O_12  and  C_10 
ROOT
ATOM      1  C   UNL d   1      -0.632  -1.302   0.049  0.00  0.00     0.113 A 
ATOM      2  C   UNL d   1       0.596  -0.744   0.041  0.00  0.00     0.148 A 
ATOM      3  C   UNL d   1       0.701   0.740   0.027  0.00  0.00     0.209 A 
ATOM      4  O   UNL d   1      -1.803  -0.552   0.041  0.00  0.00    -0.312 OA
ATOM      5  C   UNL d   1      -0.563   1.494   0.001  0.00  0.00     0.092 A 
ATOM      6  C   UNL d   1      -1.727   0.831   0.007  0.00  0.00     0.080 A 
ATOM      7  O   UNL d   1       1.770   1.340   0.014  0.00  0.00    -0.285 OA
ENDROOT
BRANCH   1   8
ATOM      8  C   UNL d   1      -0.881  -2.784   0.033  0.00  0.00     0.232 C 
BRANCH   8   9
ATOM      9  O   UNL d   1       0.208  -3.467  -0.590  0.00  0.00    -0.394 OA
ATOM     10  H   UNL d   1       0.142  -3.274  -1.545  0.00  0.00     0.209 HD
ENDBRANCH   8   9
ENDBRANCH   1   8
BRANCH   2  11
ATOM     11  O   UNL d   1       1.770  -1.481   0.038  0.00  0.00    -0.355 OA
ATOM     12  H   UNL d   1       1.534  -2.431   0.004  0.00  0.00     0.218 HD
ENDBRANCH   2  11
BRANCH   6  13
ATOM     13  C   UNL d   1      -3.051   1.535  -0.052  0.00  0.00     0.229 C 
BRANCH  13  14
ATOM     14  O   UNL d   1      -3.821   1.223   1.100  0.00  0.00    -0.394 OA
ATOM     15  H   UNL d   1      -3.959   0.260   1.096  0.00  0.00     0.209 HD
ENDBRANCH  13  14
ENDBRANCH   6  13
TORSDOF 5
