REMARK  2 active torsions:
REMARK  status: ('A' for Active; 'I' for Inactive)
REMARK       I    between atoms: N_2  and  C_1 
REMARK    1  A    between atoms: C_5  and  C_1 
REMARK    2  A    between atoms: C_3  and  N_2 
ROOT
ATOM      1  C   UNL d   1       0.976  -0.489   0.101  0.00  0.00     0.252 C 
ATOM      2  N   UNL d   1       0.395   0.340   1.036  0.00  0.00    -0.350 N 
ATOM      3  O   UNL d   1       2.065  -1.028   0.252  0.00  0.00    -0.268 OA
ATOM      4  H   UNL d   1      -0.596   0.516   0.952  0.00  0.00     0.163 HD
ENDROOT
BRANCH   2   5
ATOM      5  C   UNL d   1       1.027   0.627   2.320  0.00  0.00     0.117 C 
ATOM      6  C   UNL d   1       0.685  -0.424   3.411  0.00  0.00     0.297 C 
ATOM      7  N   UNL d   1       0.076   0.198   4.619  0.00  0.00     0.090 N 
ATOM      8  C   UNL d   1      -1.167   0.892   4.221  0.00  0.00     0.273 C 
ATOM      9  C   UNL d   1       1.020   1.194   5.171  0.00  0.00     0.273 C 
ATOM     10  C   UNL d   1      -0.897   2.002   3.194  0.00  0.00     0.037 C 
ATOM     11  C   UNL d   1       0.601   2.021   2.837  0.00  0.00     0.013 C 
ATOM     12  C   UNL d   1       1.369   2.284   4.143  0.00  0.00     0.037 C 
ENDBRANCH   2   5
BRANCH   1  13
ATOM     13  C   UNL d   1       0.177  -0.730  -1.134  0.00  0.00     0.033 A 
ATOM     14  C   UNL d   1       0.358  -1.935  -1.822  0.00  0.00     0.041 A 
ATOM     15  C   UNL d   1      -0.378  -2.186  -2.978  0.00  0.00     0.035 A 
ATOM     16 CL   UNL d   1      -0.169  -3.672  -3.819  0.00  0.00    -0.084 Cl
ATOM     17  C   UNL d   1      -1.285  -1.244  -3.463  0.00  0.00     0.024 A 
ATOM     18  C   UNL d   1      -1.454  -0.033  -2.791  0.00  0.00     0.003 A 
ATOM     19  C   UNL d   1      -0.722   0.227  -1.630  0.00  0.00     0.017 A 
ENDBRANCH   1  13
TORSDOF 2
