REMARK  2 active torsions:
REMARK  status: ('A' for Active; 'I' for Inactive)
REMARK    1  A    between atoms: N_9  and  C_2 
REMARK    2  A    between atoms: N_6  and  C_3 
ROOT
ATOM      1  C   UNL d   1       0.862   0.174  -0.005  0.00  0.00     0.097 A 
ATOM      2  C   UNL d   1       0.090   1.351  -0.032  0.00  0.00     0.125 A 
ATOM      3  C   UNL d   1      -1.173  -1.105   0.072  0.00  0.00     0.132 A 
ATOM      4  N   UNL d   1      -1.264   1.286   0.009  0.00  0.00    -0.343 N 
ATOM      5  HN  UNL d   1      -1.813   2.146  -0.002  1.00  0.00     0.167 HD
ATOM      6  C   UNL d   1       0.231  -1.091   0.042  0.00  0.00    -0.003 A 
ATOM      7  C   UNL d   1      -1.895   0.082   0.066  0.00  0.00     0.040 A 
ATOM      8  C   UNL d   1       2.293   0.238  -0.119  0.00  0.00     0.104 C 
ATOM      9  N   UNL d   1       3.454   0.242  -0.188  0.00  0.00    -0.191 NA
ATOM     10  C   UNL d   1       1.068  -2.346   0.017  0.00  0.00     0.052 C 
ATOM     11  C   UNL d   1      -3.395   0.167   0.080  0.00  0.00     0.071 C 
ENDROOT
BRANCH   2  12
ATOM     12  N   UNL d   1       0.663   2.595  -0.238  0.00  0.00    -0.366 N 
ATOM     13  C   UNL d   1      -0.139   3.618  -0.910  0.00  0.00     0.124 C 
ATOM     14  C   UNL d   1       0.822   4.456  -1.759  0.00  0.00     0.020 C 
ATOM     15  C   UNL d   1       1.980   5.019  -0.928  0.00  0.00     0.003 C 
ATOM     16  C   UNL d   1       2.650   3.945  -0.064  0.00  0.00     0.020 C 
ATOM     17  C   UNL d   1       1.615   3.146   0.730  0.00  0.00     0.124 C 
ENDBRANCH   2  12
BRANCH   3  18
ATOM     18  N   UNL d   1      -1.887  -2.359   0.077  0.00  0.00    -0.113 N 
ATOM     19  O   UNL d   1      -1.856  -3.018   1.123  0.00  0.00    -0.532 OA
ATOM     20  O   UNL d   1      -2.469  -2.679  -0.968  0.00  0.00    -0.532 OA
ENDBRANCH   3  18
TORSDOF 2
