REMARK  3 active torsions:
REMARK  status: ('A' for Active; 'I' for Inactive)
REMARK    1  A    between atoms: C_2  and  C_1 
REMARK       I    between atoms: N_3  and  C_2 
REMARK    2  A    between atoms: N_6  and  N_3 
REMARK    3  A    between atoms: C_8  and  N_6 
ROOT
ATOM      1  C   UNL d   1       0.238   2.070   0.403  0.00  0.00     0.271 C 
ATOM      2  N   UNL d   1       1.442   2.767   0.470  0.00  0.00    -0.282 N 
ATOM      3  O   UNL d   1       0.124   1.077  -0.311  0.00  0.00    -0.266 OA
ATOM      4  H   UNL d   1       1.453   3.749   0.733  0.00  0.00     0.184 HD
ENDROOT
BRANCH   2   5
ATOM      5  N   UNL d   1       2.423   2.371  -0.465  0.00  0.00    -0.203 NA
ATOM      6  H   UNL d   1       2.149   1.470  -0.882  0.00  0.00     0.153 HD
BRANCH   5   7
ATOM      7  C   UNL d   1       3.741   2.319   0.052  0.00  0.00     0.027 A 
ATOM      8  C   UNL d   1       4.642   1.382  -0.483  0.00  0.00     0.027 A 
ATOM      9  C   UNL d   1       5.989   1.369  -0.101  0.00  0.00     0.026 A 
ATOM     10  C   UNL d   1       6.456   2.317   0.802  0.00  0.00     0.034 A 
ATOM     11  C   UNL d   1       5.589   3.272   1.327  0.00  0.00     0.026 A 
ATOM     12 CL   UNL d   1       8.117   2.329   1.250  0.00  0.00    -0.084 Cl
ATOM     13  C   UNL d   1       4.242   3.276   0.947  0.00  0.00     0.027 A 
ENDBRANCH   5   7
ENDBRANCH   2   5
BRANCH   1  14
ATOM     14  C   UNL d   1      -0.896   2.590   1.222  0.00  0.00     0.093 A 
ATOM     15  C   UNL d   1      -0.923   3.937   1.610  0.00  0.00     0.133 A 
ATOM     16  F   UNL d   1       0.059   4.777   1.248  0.00  0.00    -0.205 F 
ATOM     17  C   UNL d   1      -1.962   4.463   2.379  0.00  0.00     0.043 A 
ATOM     18  C   UNL d   1      -3.011   3.643   2.778  0.00  0.00     0.005 A 
ATOM     19  C   UNL d   1      -3.011   2.303   2.401  0.00  0.00     0.025 A 
ATOM     20  C   UNL d   1      -1.963   1.771   1.629  0.00  0.00     0.052 A 
ATOM     21 CL   UNL d   1      -2.075   0.079   1.288  0.00  0.00    -0.083 Cl
ENDBRANCH   1  14
TORSDOF 3
