REMARK  3 active torsions:
REMARK  status: ('A' for Active; 'I' for Inactive)
REMARK    1  A    between atoms: N_6  and  C_1 
REMARK       I    between atoms: C_7  and  N_6 
REMARK       I    between atoms: N_10  and  C_7 
REMARK    2  A    between atoms: N_14  and  C_9 
REMARK    3  A    between atoms: C_11  and  N_10 
ROOT
ATOM      1  C   UNL d   1      -0.822   1.634  -0.428  0.00  0.00     0.139 C 
ATOM      2  C   UNL d   1       0.453   0.998  -0.302  0.00  0.00     0.064 A 
ATOM      3  N   UNL d   1      -1.753   0.808  -0.916  0.00  0.00    -0.282 N 
ATOM      4  HN  UNL d   1      -2.699   1.032  -1.225  1.00  0.00     0.189 HD
ATOM      5  N   UNL d   1      -1.140  -0.392  -0.901  0.00  0.00    -0.294 N 
ATOM      6  C   UNL d   1       0.185  -0.348  -0.548  0.00  0.00     0.066 A 
ATOM      7  C   UNL d   1       1.769   1.428   0.051  0.00  0.00     0.045 A 
ATOM      8  C   UNL d   1      -1.909  -1.585  -1.172  0.00  0.00     0.178 C 
ATOM      9  C   UNL d   1       1.143  -1.354  -0.396  0.00  0.00     0.032 A 
ATOM     10  C   UNL d   1       2.722   0.393   0.198  0.00  0.00     0.030 A 
ATOM     11  C   UNL d   1       2.419  -0.956  -0.008  0.00  0.00     0.005 A 
ENDROOT
BRANCH   1  12
ATOM     12  N   UNL d   1      -1.054   2.932  -0.028  0.00  0.00    -0.293 N 
ATOM     13  C   UNL d   1      -2.171   3.696  -0.134  0.00  0.00     0.326 C 
ATOM     14  N   UNL d   1      -3.102   3.321  -1.068  0.00  0.00    -0.307 N 
ATOM     15  O   UNL d   1      -2.229   4.730   0.536  0.00  0.00    -0.247 OA
ATOM     16  H   UNL d   1      -2.744   2.686  -1.774  0.00  0.00     0.170 HD
ATOM     17  H   UNL d   1      -0.315   3.332   0.536  0.00  0.00     0.172 HD
BRANCH  14  18
ATOM     18  C   UNL d   1      -4.221   4.123  -1.397  0.00  0.00     0.058 A 
ATOM     19  C   UNL d   1      -4.595   4.312  -2.737  0.00  0.00     0.062 A 
ATOM     20  C   UNL d   1      -5.644   5.177  -3.064  0.00  0.00     0.050 A 
ATOM     21 CL   UNL d   1      -3.718   3.566  -4.027  0.00  0.00    -0.082 Cl
ATOM     22  C   UNL d   1      -6.352   5.817  -2.049  0.00  0.00     0.035 A 
ATOM     23  C   UNL d   1      -6.029   5.594  -0.714  0.00  0.00     0.026 A 
ATOM     24 CL   UNL d   1      -7.629   6.900  -2.445  0.00  0.00    -0.084 Cl
ATOM     25  C   UNL d   1      -4.961   4.754  -0.391  0.00  0.00     0.033 A 
ENDBRANCH  14  18
ENDBRANCH   1  12
BRANCH   7  26
ATOM     26  N   UNL d   1       2.083   2.783   0.271  0.00  0.00    -0.389 N 
ATOM     27  C   UNL d   1       1.922   3.644  -0.912  0.00  0.00     0.149 C 
ATOM     28  C   UNL d   1       3.294   3.087   1.039  0.00  0.00     0.149 C 
ENDBRANCH   7  26
TORSDOF 3
