REMARK  6 active torsions:
REMARK  status: ('A' for Active; 'I' for Inactive)
REMARK    1  A    between atoms: C_2  and  C_1 
REMARK    2  A    between atoms: S_13  and  C_5 
REMARK    3  A    between atoms: C_10  and  C_8 
REMARK    4  A    between atoms: C_12  and  C_10 
REMARK    5  A    between atoms: C_11  and  S_13 
REMARK    6  A    between atoms: O_24  and  C_21 
ROOT
ATOM      1  S   UNL d   1      -0.913   5.583   0.773  0.00  0.00    -0.082 SA
ENDROOT
BRANCH   1   2
ATOM      2  C   UNL d   1       0.324   6.767   0.494  0.00  0.00     0.056 C 
ATOM      3  C   UNL d   1       0.028   8.075   0.413  0.00  0.00     0.063 C 
BRANCH   3   4
ATOM      4  C   UNL d   1       1.112   9.054   0.131  0.00  0.00     0.182 C 
ATOM      5  O   UNL d   1       2.210   8.698  -0.288  0.00  0.00    -0.288 OA
BRANCH   4   6
ATOM      6  C   UNL d   1       0.821  10.503   0.313  0.00  0.00     0.014 A 
ATOM      7  C   UNL d   1      -0.057  10.975   1.298  0.00  0.00     0.018 A 
ATOM      8  C   UNL d   1      -0.287  12.351   1.438  0.00  0.00     0.037 A 
ATOM      9  C   UNL d   1       0.357  13.263   0.600  0.00  0.00     0.068 A 
ATOM     10  C   UNL d   1       1.263  12.794  -0.353  0.00  0.00     0.037 A 
ATOM     11  C   UNL d   1       1.494  11.424  -0.499  0.00  0.00     0.018 A 
BRANCH   9  12
ATOM     12  O   UNL d   1       0.220  14.622   0.660  0.00  0.00    -0.356 OA
ATOM     13  C   UNL d   1      -1.045  15.096   1.109  0.00  0.00     0.210 C 
ENDBRANCH   9  12
ENDBRANCH   4   6
ENDBRANCH   3   4
ENDBRANCH   1   2
BRANCH   1  14
ATOM     14  C   UNL d   1       0.041   4.075   0.997  0.00  0.00     0.095 A 
ATOM     15  N   UNL d   1       1.277   4.217   1.545  0.00  0.00    -0.358 N 
ATOM     16  C   UNL d   1       2.012   3.101   1.769  0.00  0.00     0.105 A 
ATOM     17  HN  UNL d   1       1.641   5.139   1.782  1.00  0.00     0.166 HD
ATOM     18  C   UNL d   1       1.578   1.817   1.485  0.00  0.00     0.065 A 
ATOM     19  C   UNL d   1       0.304   1.679   0.928  0.00  0.00     0.044 A 
ATOM     20  C   UNL d   1      -0.479   2.813   0.681  0.00  0.00     0.068 A 
ATOM     21 CL   UNL d   1      -2.048   2.564   0.003  0.00  0.00    -0.081 Cl
BRANCH  18  22
ATOM     22  C   UNL d   1       2.471   0.650   1.781  0.00  0.00     0.418 C 
ATOM     23  F   UNL d   1       1.902  -0.553   1.494  0.00  0.00    -0.166 F 
ATOM     24  F   UNL d   1       2.830   0.590   3.092  0.00  0.00    -0.166 F 
ATOM     25  F   UNL d   1       3.633   0.693   1.075  0.00  0.00    -0.166 F 
ENDBRANCH  18  22
ENDBRANCH   1  14
TORSDOF 6
