REMARK  5 active torsions:
REMARK  status: ('A' for Active; 'I' for Inactive)
REMARK    1  A    between atoms: S_3  and  C_1 
REMARK    2  A    between atoms: C_15  and  N_2 
REMARK    3  A    between atoms: C_8  and  S_3 
REMARK    4  A    between atoms: N_7  and  C_4 
REMARK    5  A    between atoms: O_21  and  C_9 
ROOT
ATOM      1  C   UNL d   1      -0.094  -1.305  -0.319  0.00  0.00     0.175 A 
ATOM      2  N   UNL d   1       1.160  -0.714  -0.134  0.00  0.00    -0.255 N 
ATOM      3  N   UNL d   1      -1.044  -0.395  -0.268  0.00  0.00    -0.276 N 
ATOM      4  HN  UNL d   1      -2.044  -0.570  -0.369  1.00  0.00     0.189 HD
ATOM      5  C   UNL d   1       0.833   0.638  -0.006  0.00  0.00     0.245 A 
ATOM      6  N   UNL d   1      -0.463   0.821  -0.057  0.00  0.00    -0.263 N 
ATOM      7  HN  UNL d   1      -0.950   1.711   0.043  1.00  0.00     0.190 HD
ENDROOT
BRANCH   1   8
ATOM      8  S   UNL d   1      -0.470  -2.995  -0.297  0.00  0.00    -0.032 SA
BRANCH   8   9
ATOM      9  C   UNL d   1      -0.535  -3.345  -2.051  0.00  0.00     0.110 A 
ATOM     10  C   UNL d   1      -1.262  -4.388  -2.614  0.00  0.00     0.138 A 
ATOM     11  C   UNL d   1      -1.073  -4.760  -3.953  0.00  0.00     0.059 A 
ATOM     12  C   UNL d   1      -0.143  -4.059  -4.707  0.00  0.00     0.028 A 
ATOM     13  C   UNL d   1       0.516  -2.998  -4.114  0.00  0.00     0.108 A 
ATOM     14 BR   UNL d   1       0.237  -4.557  -6.481  0.00  0.00    -0.050 Br
ATOM     15  N   UNL d   1       0.333  -2.631  -2.821  0.00  0.00    -0.357 N 
ATOM     16  HN  UNL d   1       0.837  -1.833  -2.431  1.00  0.00     0.166 HD
BRANCH  10  17
ATOM     17  N   UNL d   1      -2.216  -5.142  -1.845  0.00  0.00    -0.113 N 
ATOM     18  O   UNL d   1      -1.780  -5.850  -0.931  0.00  0.00    -0.532 OA
ATOM     19  O   UNL d   1      -3.396  -5.086  -2.219  0.00  0.00    -0.532 OA
ENDBRANCH  10  17
ENDBRANCH   8   9
ENDBRANCH   1   8
BRANCH   2  20
ATOM     20  C   UNL d   1       2.483  -1.267  -0.113  0.00  0.00     0.045 A 
ATOM     21  C   UNL d   1       2.812  -2.419  -0.834  0.00  0.00     0.032 A 
ATOM     22  C   UNL d   1       4.136  -2.859  -0.938  0.00  0.00     0.026 A 
ATOM     23  C   UNL d   1       5.149  -2.170  -0.288  0.00  0.00     0.034 A 
ATOM     24  C   UNL d   1       4.840  -1.058   0.488  0.00  0.00     0.026 A 
ATOM     25 CL   UNL d   1       6.778  -2.691  -0.450  0.00  0.00    -0.084 Cl
ATOM     26  C   UNL d   1       3.514  -0.611   0.581  0.00  0.00     0.032 A 
ENDBRANCH   2  20
BRANCH   5  27
ATOM     27  O   UNL d   1       1.676   1.662   0.059  0.00  0.00    -0.331 OA
ATOM     28  H   UNL d   1       2.476   1.428  -0.438  0.00  0.00     0.221 HD
ENDBRANCH   5  27
TORSDOF 5
