REMARK  5 active torsions:
REMARK  status: ('A' for Active; 'I' for Inactive)
REMARK    1  A    between atoms: C_9  and  C_1 
REMARK    2  A    between atoms: C_12  and  C_4 
REMARK    3  A    between atoms: C_5  and  C_8 
REMARK    4  A    between atoms: O_20  and  C_9 
REMARK    5  A    between atoms: C_21  and  O_20 
ROOT
ATOM      1  C   UNL d   1       1.329   0.803   0.040  0.00  0.00     0.115 A 
ATOM      2  N   UNL d   1       1.449  -0.587   0.081  0.00  0.00    -0.344 N 
ATOM      3  HN  UNL d   1       2.335  -1.090   0.139  1.00  0.00     0.167 HD
ATOM      4  C   UNL d   1       0.260  -1.164   0.034  0.00  0.00     0.101 A 
ATOM      5  S   UNL d   1      -1.065  -0.060  -0.020  0.00  0.00    -0.080 SA
ATOM      6  C   UNL d   1       0.023   1.256  -0.001  0.00  0.00     0.087 A 
ENDROOT
BRANCH   4   7
ATOM      7  C   UNL d   1       0.038  -2.623   0.011  0.00  0.00     0.066 A 
ATOM      8  N   UNL d   1      -1.242  -3.053  -0.117  0.00  0.00    -0.363 N 
ATOM      9  C   UNL d   1      -1.460  -4.389  -0.165  0.00  0.00     0.104 A 
ATOM     10  HN  UNL d   1      -2.017  -2.391  -0.175  1.00  0.00     0.165 HD
ATOM     11  C   UNL d   1      -0.454  -5.340  -0.091  0.00  0.00     0.063 A 
ATOM     12  C   UNL d   1       0.857  -4.880   0.046  0.00  0.00     0.020 A 
ATOM     13  C   UNL d   1       1.110  -3.508   0.096  0.00  0.00     0.033 A 
BRANCH  11  14
ATOM     14  C   UNL d   1      -0.777  -6.801  -0.160  0.00  0.00     0.418 C 
ATOM     15  F   UNL d   1      -2.105  -7.061  -0.307  0.00  0.00    -0.166 F 
ATOM     16  F   UNL d   1      -0.158  -7.420  -1.203  0.00  0.00    -0.166 F 
ATOM     17  F   UNL d   1      -0.387  -7.473   0.958  0.00  0.00    -0.166 F 
ENDBRANCH  11  14
ENDBRANCH   4   7
BRANCH   1  18
ATOM     18  C   UNL d   1       2.485   1.694  -0.035  0.00  0.00     0.310 C 
ATOM     19  O   UNL d   1       2.387   2.913  -0.145  0.00  0.00    -0.258 OA
BRANCH  18  20
ATOM     20  O   UNL d   1       3.663   1.007  -0.071  0.00  0.00    -0.317 OA
BRANCH  20  21
ATOM     21  C   UNL d   1       4.772   1.722  -0.625  0.00  0.00     0.175 C 
ATOM     22  C   UNL d   1       4.751   1.526  -2.131  0.00  0.00     0.034 C 
ENDBRANCH  20  21
ENDBRANCH  18  20
ENDBRANCH   1  18
TORSDOF 5
