REMARK  8 active torsions:
REMARK  status: ('A' for Active; 'I' for Inactive)
REMARK    1  A    between atoms: C_3  and  C_1 
REMARK    2  A    between atoms: C_12  and  N_4 
REMARK    3  A    between atoms: C_11  and  C_5 
REMARK    4  A    between atoms: N_22  and  C_5 
REMARK    5  A    between atoms: N_6  and  O_16 
REMARK    6  A    between atoms: C_9  and  C_10 
REMARK    7  A    between atoms: O_16  and  C_9 
REMARK    8  A    between atoms: C_10  and  C_12 
ROOT
ATOM      1  C   UNL d   1       2.528   1.527  -0.232  0.00  0.00     0.282 C 
ATOM      2  O   UNL d   1       2.502   2.604  -0.815  0.00  0.00    -0.263 OA
ENDROOT
BRANCH   1   3
ATOM      3  C   UNL d   1       3.645   0.515  -0.359  0.00  0.00     0.133 C 
BRANCH   3   4
ATOM      4  C   UNL d   1       4.955   1.241  -0.655  0.00  0.00     0.141 C 
BRANCH   4   5
ATOM      5  N   UNL d   1       6.117   0.344  -0.764  0.00  0.00    -0.324 N 
ATOM      6  C   UNL d   1       6.914   0.123   0.372  0.00  0.00     0.262 A 
ATOM      7  C   UNL d   1       8.172  -0.638   0.155  0.00  0.00     0.115 A 
ATOM      8  O   UNL d   1       6.603   0.543   1.482  0.00  0.00    -0.267 OA
ATOM      9  C   UNL d   1       8.425  -1.152  -1.067  0.00  0.00     0.023 A 
ATOM     10  C   UNL d   1       7.508  -0.971  -2.159  0.00  0.00     0.018 A 
ATOM     11  C   UNL d   1       6.412  -0.226  -1.991  0.00  0.00     0.094 A 
BRANCH   7  12
ATOM     12  C   UNL d   1       9.131  -0.773   1.281  0.00  0.00     0.422 C 
ATOM     13  F   UNL d   1       8.812  -0.143   2.435  0.00  0.00    -0.166 F 
ATOM     14  F   UNL d   1       9.325  -2.085   1.600  0.00  0.00    -0.166 F 
ATOM     15  F   UNL d   1      10.360  -0.302   0.923  0.00  0.00    -0.166 F 
ENDBRANCH   7  12
ENDBRANCH   4   5
ENDBRANCH   3   4
ENDBRANCH   1   3
BRANCH   1  16
ATOM     16  O   UNL d   1       1.539   1.033   0.583  0.00  0.00    -0.198 OA
BRANCH  16  17
ATOM     17  N   UNL d   1       1.099   2.064   1.442  0.00  0.00    -0.246 N 
ATOM     18  C   UNL d   1       0.041   1.712   2.111  0.00  0.00     0.109 C 
ATOM     19  HN  UNL d   1       1.554   2.972   1.528  1.00  0.00     0.196 HD
BRANCH  18  20
ATOM     20  C   UNL d   1      -0.422   2.611   3.216  0.00  0.00     0.005 A 
ATOM     21  C   UNL d   1      -1.052   2.060   4.339  0.00  0.00     0.038 A 
ATOM     22  C   UNL d   1      -1.461   2.894   5.379  0.00  0.00     0.035 A 
ATOM     23 CL   UNL d   1      -2.229   2.217   6.762  0.00  0.00    -0.084 Cl
ATOM     24  C   UNL d   1      -1.249   4.270   5.309  0.00  0.00     0.024 A 
ATOM     25  C   UNL d   1      -0.612   4.819   4.196  0.00  0.00     0.003 A 
ATOM     26  C   UNL d   1      -0.192   3.990   3.152  0.00  0.00     0.015 A 
ENDBRANCH  18  20
BRANCH  18  27
ATOM     27  N   UNL d   1      -0.681   0.566   1.863  0.00  0.00    -0.286 NA
ATOM     28  H   UNL d   1      -0.498   0.192   0.937  0.00  0.00     0.125 HD
ATOM     29  H   UNL d   1      -1.677   0.636   2.047  0.00  0.00     0.125 HD
ENDBRANCH  18  27
ENDBRANCH  16  17
ENDBRANCH   1  16
TORSDOF 8
