REMARK  4 active torsions:
REMARK  status: ('A' for Active; 'I' for Inactive)
REMARK       I    between atoms: N_2  and  C_1 
REMARK    1  A    between atoms: C_3  and  C_1 
REMARK    2  A    between atoms: C_4  and  N_2 
REMARK    3  A    between atoms: C_9  and  C_5 
REMARK    4  A    between atoms: N_16  and  C_6 
ROOT
ATOM      1  C   UNL d   1       0.688   2.247  -0.085  0.00  0.00     0.056 A 
ATOM      2  C   UNL d   1       1.535   4.862  -0.821  0.00  0.00    -0.049 A 
ATOM      3  C   UNL d   1       1.806   2.410  -0.924  0.00  0.00     0.033 A 
ATOM      4  C   UNL d   1       2.180   3.709  -1.310  0.00  0.00     0.033 A 
ATOM      5  C   UNL d   1       0.011   3.376   0.386  0.00  0.00     0.032 A 
ATOM      6  C   UNL d   1       0.459   4.662   0.058  0.00  0.00     0.010 A 
ENDROOT
BRANCH   1   7
ATOM      7  N   UNL d   1       0.172   0.987   0.291  0.00  0.00    -0.320 N 
ATOM      8  C   UNL d   1       0.950  -0.103   0.641  0.00  0.00     0.280 C 
ATOM      9  O   UNL d   1       2.166  -0.057   0.788  0.00  0.00    -0.265 OA
ATOM     10  H   UNL d   1      -0.815   0.910   0.487  0.00  0.00     0.169 HD
BRANCH   8  11
ATOM     11  C   UNL d   1       0.207  -1.330   0.836  0.00  0.00     0.142 A 
ATOM     12  O   UNL d   1      -1.113  -1.403   0.484  0.00  0.00    -0.317 OA
ATOM     13  C   UNL d   1      -1.498  -2.696   0.653  0.00  0.00     0.143 A 
ATOM     14  C   UNL d   1      -0.459  -3.450   1.146  0.00  0.00     0.027 A 
ATOM     15  C   UNL d   1       0.637  -2.569   1.282  0.00  0.00     0.045 A 
ENDBRANCH   8  11
ENDBRANCH   1   7
BRANCH   3  16
ATOM     16  N   UNL d   1       2.393   1.326  -1.622  0.00  0.00    -0.301 NA
ATOM     17  H   UNL d   1       2.427   0.501  -1.022  0.00  0.00     0.124 HD
ATOM     18  H   UNL d   1       3.326   1.536  -1.960  0.00  0.00     0.124 HD
ENDBRANCH   3  16
BRANCH   2  19
ATOM     19  C   UNL d   1       2.019   6.270  -1.213  0.00  0.00    -0.024 C 
ATOM     20  C   UNL d   1       3.132   6.698  -0.236  0.00  0.00     0.019 C 
ATOM     21  C   UNL d   1       2.586   6.312  -2.653  0.00  0.00     0.019 C 
ATOM     22  C   UNL d   1       0.889   7.324  -1.162  0.00  0.00     0.019 C 
ENDBRANCH   2  19
TORSDOF 4
