REMARK  4 active torsions:
REMARK  status: ('A' for Active; 'I' for Inactive)
REMARK    1  A    between atoms: C_9  and  N_1 
REMARK    2  A    between atoms: N_3  and  C_2 
REMARK    3  A    between atoms: C_7  and  N_3 
REMARK    4  A    between atoms: C_10  and  C_9 
ROOT
ATOM      1  N   UNL d   1      -0.448   1.032   0.050  0.00  0.00    -0.291 N 
ATOM      2  C   UNL d   1       0.823   0.585   0.272  0.00  0.00     0.150 C 
ATOM      3  C   UNL d   1      -1.435   0.073   0.055  0.00  0.00     0.235 C 
ATOM      4  S   UNL d   1       0.744  -0.941   1.113  0.00  0.00    -0.084 SA
ATOM      5  C   UNL d   1      -0.856  -1.290   0.347  0.00  0.00     0.185 C 
ATOM      6  O   UNL d   1      -2.610   0.247  -0.247  0.00  0.00    -0.272 OA
ENDROOT
BRANCH   2   7
ATOM      7  N   UNL d   1       1.854   1.235  -0.151  0.00  0.00    -0.336 N 
ATOM      8  HN  UNL d   1       1.697   2.142  -0.590  1.00  0.00     0.168 HD
BRANCH   7   9
ATOM      9  C   UNL d   1       3.179   0.777  -0.048  0.00  0.00     0.041 A 
ATOM     10  C   UNL d   1       3.668  -0.431  -0.597  0.00  0.00    -0.013 A 
ATOM     11  C   UNL d   1       5.034  -0.745  -0.431  0.00  0.00     0.042 A 
ATOM     12  C   UNL d   1       2.790  -1.382  -1.370  0.00  0.00     0.052 C 
ATOM     13 CL   UNL d   1       5.687  -2.267  -0.941  0.00  0.00    -0.084 Cl
ATOM     14  C   UNL d   1       5.922   0.166   0.141  0.00  0.00     0.024 A 
ATOM     15  C   UNL d   1       5.459   1.397   0.585  0.00  0.00     0.004 A 
ATOM     16  C   UNL d   1       4.097   1.687   0.505  0.00  0.00     0.030 A 
ENDBRANCH   7   9
ENDBRANCH   2   7
BRANCH   1  17
ATOM     17  C   UNL d   1      -0.761   2.432  -0.177  0.00  0.00     0.199 C 
BRANCH  17  18
ATOM     18  C   UNL d   1      -0.935   3.079   1.158  0.00  0.00     0.070 A 
ATOM     19  O   UNL d   1      -2.199   3.088   1.675  0.00  0.00    -0.325 OA
ATOM     20  C   UNL d   1      -2.121   3.666   2.901  0.00  0.00     0.142 A 
ATOM     21  C   UNL d   1      -0.829   4.033   3.181  0.00  0.00     0.027 A 
ATOM     22  C   UNL d   1      -0.059   3.659   2.051  0.00  0.00     0.036 A 
ENDBRANCH  17  18
ENDBRANCH   1  17
TORSDOF 4
