REMARK  4 active torsions:
REMARK  status: ('A' for Active; 'I' for Inactive)
REMARK    1  A    between atoms: C_12  and  N_1 
REMARK    2  A    between atoms: C_11  and  N_3 
REMARK    3  A    between atoms: C_19  and  C_12 
REMARK    4  A    between atoms: S_18  and  C_17 
ROOT
ATOM      1  N   UNL d   1       2.113   0.663   0.033  0.00  0.00    -0.260 N 
ATOM      2  C   UNL d   1       2.142  -0.741   0.171  0.00  0.00     0.338 A 
ATOM      3  N   UNL d   1       0.910  -1.418   0.143  0.00  0.00    -0.247 N 
ATOM      4  C   UNL d   1      -0.261  -0.689   0.060  0.00  0.00     0.150 A 
ATOM      5  C   UNL d   1      -0.229   0.670  -0.047  0.00  0.00     0.147 A 
ATOM      6  C   UNL d   1       0.961   1.441  -0.075  0.00  0.00     0.282 A 
ATOM      7  N   UNL d   1      -1.552  -1.142   0.012  0.00  0.00    -0.336 N 
ATOM      8  HN  UNL d   1      -1.870  -2.110   0.057  1.00  0.00     0.168 HD
ATOM      9  N   UNL d   1      -1.530   1.073  -0.139  0.00  0.00    -0.345 N 
ATOM     10  C   UNL d   1      -2.295  -0.061  -0.104  0.00  0.00     0.182 A 
ATOM     11  O   UNL d   1       3.216  -1.327   0.364  0.00  0.00    -0.246 OA
ATOM     12  O   UNL d   1       0.943   2.665  -0.172  0.00  0.00    -0.265 OA
ATOM     13  H   UNL d   1      -1.857   2.026  -0.234  0.00  0.00     0.167 HD
ENDROOT
BRANCH   3  14
ATOM     14  C   UNL d   1       0.839  -2.843   0.198  0.00  0.00     0.045 A 
ATOM     15  C   UNL d   1      -0.107  -3.506   0.990  0.00  0.00     0.031 A 
ATOM     16  C   UNL d   1      -0.119  -4.905   1.080  0.00  0.00     0.021 A 
ATOM     17  C   UNL d   1       0.804  -5.674   0.368  0.00  0.00    -0.000 A 
ATOM     18  C   UNL d   1       1.725  -5.021  -0.454  0.00  0.00     0.021 A 
ATOM     19  C   UNL d   1       1.752  -3.624  -0.526  0.00  0.00     0.031 A 
BRANCH  17  20
ATOM     20  S   UNL d   1       0.829  -7.459   0.412  0.00  0.00    -0.134 SA
ATOM     21  C   UNL d   1       0.508  -7.784   2.166  0.00  0.00     0.095 C 
ENDBRANCH  17  20
ENDBRANCH   3  14
BRANCH   1  22
ATOM     22  C   UNL d   1       3.393   1.359   0.046  0.00  0.00     0.175 C 
BRANCH  22  23
ATOM     23  C   UNL d   1       4.050   1.371  -1.318  0.00  0.00    -0.040 A 
ATOM     24  C   UNL d   1       3.778   2.395  -2.234  0.00  0.00     0.009 A 
ATOM     25  C   UNL d   1       4.364   2.383  -3.501  0.00  0.00     0.001 A 
ATOM     26  C   UNL d   1       5.219   1.344  -3.869  0.00  0.00     0.000 A 
ATOM     27  C   UNL d   1       5.495   0.320  -2.967  0.00  0.00     0.001 A 
ATOM     28  C   UNL d   1       4.917   0.334  -1.698  0.00  0.00     0.009 A 
ENDBRANCH  22  23
ENDBRANCH   1  22
TORSDOF 4
