REMARK  7 active torsions:
REMARK  status: ('A' for Active; 'I' for Inactive)
REMARK    1  A    between atoms: N_6  and  C_1 
REMARK    2  A    between atoms: C_4  and  C_2 
REMARK    3  A    between atoms: O_17  and  C_4 
REMARK    4  A    between atoms: C_5  and  O_9 
REMARK    5  A    between atoms: C_12  and  N_6 
REMARK    6  A    between atoms: O_9  and  C_16 
REMARK    7  A    between atoms: C_22  and  O_17 
ROOT
ATOM      1  N   UNL d   1       2.400  -1.548  -0.123  0.00  0.00    -0.336 N 
ATOM      2  H   UNL d   1       2.240  -2.546  -0.275  0.00  0.00     0.168 HD
ENDROOT
BRANCH   1   3
ATOM      3  C   UNL d   1       1.262  -0.784   0.003  0.00  0.00     0.163 A 
ATOM      4  C   UNL d   1      -0.002  -1.229   0.022  0.00  0.00     0.138 A 
ATOM      5  C   UNL d   1      -0.785  -0.010   0.096  0.00  0.00     0.193 A 
ATOM      6  O   UNL d   1      -2.005   0.054   0.165  0.00  0.00    -0.290 OA
ATOM      7  C   UNL d   1       0.110   1.178   0.050  0.00  0.00     0.261 A 
ATOM      8  O   UNL d   1       1.417   0.604   0.049  0.00  0.00    -0.327 OA
BRANCH   4   9
ATOM      9  C   UNL d   1      -0.448  -2.611  -0.122  0.00  0.00     0.301 C 
ATOM     10  O   UNL d   1       0.315  -3.552  -0.295  0.00  0.00    -0.259 OA
BRANCH   9  11
ATOM     11  O   UNL d   1      -1.797  -2.660  -0.147  0.00  0.00    -0.318 OA
BRANCH  11  12
ATOM     12  C   UNL d   1      -2.389  -3.838  -0.709  0.00  0.00     0.174 C 
ATOM     13  C   UNL d   1      -2.496  -3.642  -2.211  0.00  0.00     0.034 C 
ENDBRANCH  11  12
ENDBRANCH   9  11
ENDBRANCH   4   9
ENDBRANCH   1   3
BRANCH   1  14
ATOM     14  C   UNL d   1       3.748  -1.156  -0.073  0.00  0.00     0.034 A 
ATOM     15  C   UNL d   1       4.191   0.019   0.548  0.00  0.00     0.032 A 
ATOM     16  C   UNL d   1       5.535   0.418   0.507  0.00  0.00     0.039 A 
ATOM     17  C   UNL d   1       6.475  -0.376  -0.138  0.00  0.00     0.078 A 
ATOM     18  C   UNL d   1       6.045  -1.530  -0.794  0.00  0.00     0.039 A 
ATOM     19  C   UNL d   1       4.701  -1.919  -0.758  0.00  0.00     0.032 A 
BRANCH  17  20
ATOM     20  O   UNL d   1       7.813  -0.138  -0.222  0.00  0.00    -0.255 OA
BRANCH  20  21
ATOM     21  C   UNL d   1       8.431   0.689   0.752  0.00  0.00     0.530 C 
ATOM     22  F   UNL d   1       7.773   0.722   1.931  0.00  0.00    -0.144 F 
ATOM     23  F   UNL d   1       9.671   0.205   0.992  0.00  0.00    -0.144 F 
ATOM     24  F   UNL d   1       8.555   1.947   0.279  0.00  0.00    -0.144 F 
ENDBRANCH  20  21
ENDBRANCH  17  20
ENDBRANCH   1  14
TORSDOF 7
