REMARK  4 active torsions:
REMARK  status: ('A' for Active; 'I' for Inactive)
REMARK    1  A    between atoms: C_2  and  S_1 
REMARK    2  A    between atoms: C_6  and  S_1 
REMARK    3  A    between atoms: N_9  and  C_3 
REMARK    4  A    between atoms: C_13  and  N_9 
ROOT
ATOM      1  C   UNL d   1       0.480  -1.673   0.092  0.00  0.00     0.159 C 
ATOM      2  C   UNL d   1      -0.238  -2.132   1.137  0.00  0.00     0.123 C 
ATOM      3  C   UNL d   1       0.932  -0.332   0.010  0.00  0.00     0.113 C 
ATOM      4  N   UNL d   1       1.285   0.772  -0.005  0.00  0.00    -0.191 NA
ENDROOT
BRANCH   1   5
ATOM      5  S   UNL d   1       0.822  -2.783  -1.196  0.00  0.00     0.218 S 
ATOM      6  O   UNL d   1      -0.296  -2.801  -2.124  0.00  0.00    -0.216 OA
ATOM      7  O   UNL d   1       1.303  -4.037  -0.640  0.00  0.00    -0.216 OA
BRANCH   5   8
ATOM      8  C   UNL d   1       2.200  -2.085  -2.092  0.00  0.00     0.065 A 
ATOM      9  C   UNL d   1       3.504  -2.456  -1.750  0.00  0.00     0.025 A 
ATOM     10  C   UNL d   1       4.577  -1.956  -2.492  0.00  0.00     0.025 A 
ATOM     11  C   UNL d   1       4.340  -1.103  -3.571  0.00  0.00     0.034 A 
ATOM     12  C   UNL d   1       3.036  -0.753  -3.925  0.00  0.00     0.025 A 
ATOM     13 CL   UNL d   1       5.664  -0.496  -4.485  0.00  0.00    -0.084 Cl
ATOM     14  C   UNL d   1       1.958  -1.251  -3.190  0.00  0.00     0.025 A 
ENDBRANCH   5   8
ENDBRANCH   1   5
BRANCH   2  15
ATOM     15  N   UNL d   1      -0.725  -1.411   2.202  0.00  0.00    -0.364 N 
ATOM     16  H   UNL d   1      -0.681  -0.397   2.138  0.00  0.00     0.165 HD
BRANCH  15  17
ATOM     17  C   UNL d   1      -1.293  -1.873   3.400  0.00  0.00     0.031 A 
ATOM     18  C   UNL d   1      -0.982  -3.106   3.981  0.00  0.00     0.029 A 
ATOM     19  C   UNL d   1      -1.595  -3.506   5.174  0.00  0.00     0.002 A 
ATOM     20  C   UNL d   1      -2.551  -2.693   5.780  0.00  0.00     0.000 A 
ATOM     21  C   UNL d   1      -2.888  -1.473   5.203  0.00  0.00     0.002 A 
ATOM     22  C   UNL d   1      -2.263  -1.070   4.021  0.00  0.00     0.029 A 
ENDBRANCH  15  17
ENDBRANCH   2  15
TORSDOF 4
