REMARK  11 active torsions:
REMARK  status: ('A' for Active; 'I' for Inactive)
REMARK       I    between atoms: N_2  and  C_1 
REMARK       I    between atoms: N_3  and  C_1 
REMARK    1  A    between atoms: C_5  and  N_2 
REMARK    2  A    between atoms: C_11  and  N_3 
REMARK    3  A    between atoms: O_6  and  C_12 
REMARK    4  A    between atoms: C_10  and  O_6 
REMARK    5  A    between atoms: O_7  and  C_9 
REMARK    6  A    between atoms: C_14  and  O_7 
REMARK    7  A    between atoms: C_8  and  C_11 
REMARK    8  A    between atoms: C_12  and  C_8 
REMARK    9  A    between atoms: O_24  and  C_8 
REMARK   10  A    between atoms: O_25  and  C_13 
REMARK   11  A    between atoms: C_23  and  C_14 
ROOT
ATOM      1  C   UNL d   1       1.079  -0.010  -0.080  0.00  0.00     0.320 C 
ATOM      2  N   UNL d   1       0.486   1.189  -0.403  0.00  0.00    -0.309 N 
ATOM      3  N   UNL d   1       0.150  -0.915   0.395  0.00  0.00    -0.340 N 
ATOM      4  O   UNL d   1       2.271  -0.276  -0.131  0.00  0.00    -0.247 OA
ATOM      5  H   UNL d   1      -0.454   1.320  -0.067  0.00  0.00     0.170 HD
ATOM      6  H   UNL d   1      -0.773  -0.837  -0.006  0.00  0.00     0.164 HD
ENDROOT
BRANCH   2   7
ATOM      7  C   UNL d   1       1.157   2.336  -0.877  0.00  0.00     0.036 A 
ATOM      8  C   UNL d   1       2.466   2.317  -1.362  0.00  0.00     0.032 A 
ATOM      9  C   UNL d   1       3.103   3.502  -1.730  0.00  0.00     0.039 A 
ATOM     10  C   UNL d   1       2.435   4.720  -1.617  0.00  0.00     0.069 A 
ATOM     11  C   UNL d   1       1.099   4.737  -1.212  0.00  0.00     0.039 A 
ATOM     12  C   UNL d   1       0.465   3.550  -0.839  0.00  0.00     0.032 A 
BRANCH  10  13
ATOM     13  O   UNL d   1       3.174   5.832  -1.918  0.00  0.00    -0.347 OA
BRANCH  13  14
ATOM     14  C   UNL d   1       2.727   7.029  -1.280  0.00  0.00     0.214 C 
BRANCH  14  15
ATOM     15  C   UNL d   1       3.860   8.017  -1.190  0.00  0.00    -0.034 A 
ATOM     16  C   UNL d   1       3.725   9.307  -1.709  0.00  0.00     0.009 A 
ATOM     17  C   UNL d   1       4.751  10.239  -1.558  0.00  0.00     0.001 A 
ATOM     18  C   UNL d   1       5.922   9.885  -0.886  0.00  0.00     0.000 A 
ATOM     19  C   UNL d   1       6.069   8.601  -0.367  0.00  0.00     0.001 A 
ATOM     20  C   UNL d   1       5.043   7.669  -0.517  0.00  0.00     0.009 A 
ENDBRANCH  14  15
ENDBRANCH  13  14
ENDBRANCH  10  13
ENDBRANCH   2   7
BRANCH   3  21
ATOM     21  C   UNL d   1       0.596  -2.247   0.767  0.00  0.00     0.158 C 
BRANCH  21  22
ATOM     22  C   UNL d   1       1.509  -2.301   2.008  0.00  0.00     0.160 C 
BRANCH  22  23
ATOM     23  C   UNL d   1       0.833  -1.621   3.210  0.00  0.00     0.209 C 
BRANCH  23  24
ATOM     24  O   UNL d   1       1.703  -1.645   4.344  0.00  0.00    -0.349 OA
BRANCH  24  25
ATOM     25  C   UNL d   1       1.211  -1.097   5.497  0.00  0.00     0.069 A 
ATOM     26  C   UNL d   1      -0.022  -0.459   5.640  0.00  0.00     0.039 A 
ATOM     27  C   UNL d   1      -0.420   0.048   6.884  0.00  0.00     0.039 A 
ATOM     28  C   UNL d   1       0.416  -0.076   7.992  0.00  0.00     0.068 A 
ATOM     29  C   UNL d   1       1.645  -0.721   7.852  0.00  0.00     0.039 A 
ATOM     30  C   UNL d   1       2.045  -1.217   6.609  0.00  0.00     0.039 A 
BRANCH  28  31
ATOM     31  O   UNL d   1       0.116   0.351   9.256  0.00  0.00    -0.356 OA
ATOM     32  C   UNL d   1      -0.756   1.473   9.334  0.00  0.00     0.210 C 
ENDBRANCH  28  31
ENDBRANCH  24  25
ENDBRANCH  23  24
ENDBRANCH  22  23
BRANCH  22  33
ATOM     33  O   UNL d   1       1.799  -3.681   2.288  0.00  0.00    -0.392 OA
ATOM     34  H   UNL d   1       1.021  -4.081   2.708  0.00  0.00     0.210 HD
ENDBRANCH  22  33
ENDBRANCH  21  22
ENDBRANCH   3  21
TORSDOF 11
