REMARK  4 active torsions:
REMARK  status: ('A' for Active; 'I' for Inactive)
REMARK    1  A    between atoms: C_7  and  C_1 
REMARK    2  A    between atoms: C_22  and  C_5 
REMARK    3  A    between atoms: C_11  and  O_21 
REMARK    4  A    between atoms: O_21  and  C_22 
ROOT
ATOM      1  C   UNL d   1       0.056   1.282   0.024  0.00  0.00     0.032 A 
ATOM      2  S   UNL d   1      -1.043  -0.038   0.126  0.00  0.00    -0.073 SA
ATOM      3  N   UNL d   1       1.462  -0.602  -0.035  0.00  0.00    -0.360 N 
ATOM      4  HN  UNL d   1       2.341  -1.117  -0.088  1.00  0.00     0.165 HD
ATOM      5  C   UNL d   1       0.265  -1.149   0.032  0.00  0.00     0.075 A 
ATOM      6  C   UNL d   1       1.343   0.774  -0.022  0.00  0.00     0.108 A 
ENDROOT
BRANCH   1   7
ATOM      7  C   UNL d   1      -0.403   2.678   0.004  0.00  0.00    -0.015 A 
ATOM      8  C   UNL d   1       0.382   3.689   0.583  0.00  0.00     0.052 A 
ATOM      9  C   UNL d   1      -0.026   5.029   0.555  0.00  0.00     0.102 A 
ATOM     10  O   UNL d   1       0.817   5.904   1.198  0.00  0.00    -0.348 OA
ATOM     11  C   UNL d   1      -1.207   5.386  -0.106  0.00  0.00     0.102 A 
ATOM     12  C   UNL d   1       0.125   6.954   1.876  0.00  0.00     0.178 C 
ATOM     13  C   UNL d   1      -0.162   8.118   0.942  0.00  0.00     0.053 C 
ATOM     14  C   UNL d   1      -0.661   7.646  -0.412  0.00  0.00     0.178 C 
ATOM     15  O   UNL d   1      -1.685   6.661  -0.266  0.00  0.00    -0.348 OA
ATOM     16  C   UNL d   1      -2.009   4.388  -0.657  0.00  0.00     0.040 A 
ATOM     17  C   UNL d   1      -1.610   3.049  -0.607  0.00  0.00     0.016 A 
ENDBRANCH   1   7
BRANCH   5  18
ATOM     18  C   UNL d   1      -0.001  -2.623  -0.020  0.00  0.00     0.240 C 
BRANCH  18  19
ATOM     19  O   UNL d   1      -0.057  -3.098   1.327  0.00  0.00    -0.345 OA
BRANCH  19  20
ATOM     20  C   UNL d   1      -0.223  -4.445   1.500  0.00  0.00     0.072 A 
ATOM     21  C   UNL d   1      -0.436  -5.381   0.486  0.00  0.00     0.060 A 
ATOM     22  C   UNL d   1      -0.598  -6.731   0.810  0.00  0.00     0.038 A 
ATOM     23 CL   UNL d   1      -0.862  -7.877  -0.448  0.00  0.00    -0.084 Cl
ATOM     24  C   UNL d   1      -0.551  -7.161   2.132  0.00  0.00     0.048 A 
ATOM     25  C   UNL d   1      -0.338  -6.224   3.139  0.00  0.00     0.038 A 
ATOM     26  C   UNL d   1      -0.177  -4.874   2.829  0.00  0.00     0.060 A 
ATOM     27 CL   UNL d   1      -0.275  -6.738   4.779  0.00  0.00    -0.084 Cl
ENDBRANCH  19  20
ENDBRANCH  18  19
ENDBRANCH   5  18
TORSDOF 4
