REMARK  4 active torsions:
REMARK  status: ('A' for Active; 'I' for Inactive)
REMARK    1  A    between atoms: O_5  and  C_1 
REMARK    2  A    between atoms: C_7  and  O_5 
REMARK    3  A    between atoms: C_10  and  C_7 
REMARK    4  A    between atoms: C_12  and  C_10 
ROOT
ATOM      1  C   UNL d   1      -1.339  -1.318  -0.136  0.00  0.00     0.107 A 
ATOM      2  N   UNL d   1      -1.577   0.879  -0.053  0.00  0.00    -0.362 N 
ATOM      3  C   UNL d   1      -0.037  -0.740  -0.128  0.00  0.00     0.026 A 
ATOM      4  C   UNL d   1      -2.265  -0.305  -0.058  0.00  0.00     0.126 A 
ATOM      5  C   UNL d   1      -0.219   0.646  -0.071  0.00  0.00     0.045 A 
ATOM      6  C   UNL d   1       1.281  -1.242  -0.134  0.00  0.00     0.016 A 
ATOM      7  C   UNL d   1       0.852   1.546  -0.029  0.00  0.00     0.030 A 
ATOM      8  C   UNL d   1       2.361  -0.356  -0.098  0.00  0.00     0.001 A 
ATOM      9  C   UNL d   1       2.147   1.018  -0.045  0.00  0.00     0.002 A 
ATOM     10  H   UNL d   1      -1.997   1.798  -0.008  0.00  0.00     0.165 HD
ENDROOT
BRANCH   1  11
ATOM     11  O   UNL d   1      -1.698  -2.618  -0.080  0.00  0.00    -0.277 OA
BRANCH  11  12
ATOM     12  C   UNL d   1      -1.047  -3.508  -0.883  0.00  0.00     0.264 C 
ATOM     13  O   UNL d   1      -0.371  -3.258  -1.875  0.00  0.00    -0.265 OA
BRANCH  12  14
ATOM     14  C   UNL d   1      -1.236  -4.910  -0.351  0.00  0.00     0.111 C 
BRANCH  14  15
ATOM     15  C   UNL d   1      -2.692  -5.356  -0.320  0.00  0.00     0.005 C 
ATOM     16  C   UNL d   1      -3.309  -5.434  -1.708  0.00  0.00     0.005 C 
ENDBRANCH  14  15
ENDBRANCH  12  14
ENDBRANCH  11  12
ENDBRANCH   1  11
TORSDOF 4
