REMARK  2 active torsions:
REMARK  status: ('A' for Active; 'I' for Inactive)
REMARK       I    between atoms: N_2  and  C_1 
REMARK    1  A    between atoms: C_4  and  C_1 
REMARK    2  A    between atoms: C_5  and  N_3 
ROOT
ATOM      1  C   UNL d   1      -1.407   4.202   2.768  0.00  0.00     0.082 A 
ATOM      2  N   UNL d   1      -1.845   4.008   4.030  0.00  0.00    -0.355 N 
ATOM      3  HN  UNL d   1      -1.731   3.105   4.489  1.00  0.00     0.166 HD
ATOM      4  N   UNL d   1      -3.878   8.159   5.408  0.00  0.00    -0.191 NA
ATOM      5  C   UNL d   1      -3.321   7.322   4.830  0.00  0.00     0.101 C 
ATOM      6  C   UNL d   1      -2.643   6.293   4.109  0.00  0.00     0.060 A 
ATOM      7  C   UNL d   1      -1.564   5.444   2.141  0.00  0.00     0.044 A 
ATOM      8  C   UNL d   1      -2.439   5.044   4.673  0.00  0.00     0.112 A 
ATOM      9  C   UNL d   1      -2.189   6.493   2.813  0.00  0.00     0.027 A 
ENDROOT
BRANCH   1  10
ATOM     10  N   UNL d   1      -0.899   3.137   2.029  0.00  0.00    -0.266 NA
ATOM     11  C   UNL d   1      -1.134   1.798   2.595  0.00  0.00     0.117 C 
ATOM     12  C   UNL d   1      -0.924   0.749   1.483  0.00  0.00     0.140 C 
ATOM     13  N   UNL d   1       0.372   0.889   0.798  0.00  0.00    -0.350 N 
ATOM     14  C   UNL d   1       0.965  -0.131   0.056  0.00  0.00     0.224 C 
ATOM     15  C   UNL d   1       0.744   2.264   0.429  0.00  0.00     0.140 C 
ATOM     16  O   UNL d   1       1.896   0.068  -0.719  0.00  0.00    -0.273 OA
ATOM     17  C   UNL d   1       0.485   3.292   1.546  0.00  0.00     0.117 C 
BRANCH  14  18
ATOM     18  C   UNL d   1       0.416  -1.513   0.198  0.00  0.00     0.078 A 
ATOM     19  C   UNL d   1       1.014  -2.664  -0.582  0.00  0.00     0.015 A 
ATOM     20  C   UNL d   1      -0.334  -2.128  -0.963  0.00  0.00     0.015 A 
ENDBRANCH  14  18
ENDBRANCH   1  10
TORSDOF 2
