REMARK  9 active torsions:
REMARK  status: ('A' for Active; 'I' for Inactive)
REMARK    1  A    between atoms: C_8  and  C_1 
REMARK    2  A    between atoms: C_10  and  C_2 
REMARK    3  A    between atoms: N_6  and  C_3 
REMARK       I    between atoms: N_17  and  C_10 
REMARK    4  A    between atoms: O_26  and  C_12 
REMARK    5  A    between atoms: C_14  and  S_19 
REMARK       I    between atoms: C_15  and  N_20 
REMARK    6  A    between atoms: C_25  and  C_15 
REMARK    7  A    between atoms: O_28  and  C_16 
REMARK    8  A    between atoms: N_20  and  N_17 
REMARK    9  A    between atoms: S_19  and  C_25 
ROOT
ATOM      1  C   UNL d   1      -2.977  -4.914  -0.255  0.00  0.00     0.245 C 
ATOM      2  N   UNL d   1      -2.180  -3.786  -0.255  0.00  0.00    -0.267 N 
ATOM      3  O   UNL d   1      -2.475  -6.042  -0.283  0.00  0.00    -0.271 OA
ATOM      4  H   UNL d   1      -2.554  -2.840  -0.333  0.00  0.00     0.190 HD
ENDROOT
BRANCH   2   5
ATOM      5  N   UNL d   1      -0.779  -3.952  -0.380  0.00  0.00    -0.263 N 
ATOM      6  C   UNL d   1       0.058  -2.930   0.035  0.00  0.00     0.275 C 
ATOM      7  O   UNL d   1      -0.387  -1.840   0.389  0.00  0.00    -0.266 OA
ATOM      8  H   UNL d   1      -0.464  -4.919  -0.431  0.00  0.00     0.190 HD
BRANCH   6   9
ATOM      9  C   UNL d   1       1.486  -3.227   0.056  0.00  0.00     0.094 A 
ATOM     10  C   UNL d   1       2.499  -2.653   0.908  0.00  0.00     0.085 A 
ATOM     11  N   UNL d   1       3.703  -3.164   0.607  0.00  0.00    -0.259 N 
ATOM     12  O   UNL d   1       3.515  -4.043  -0.420  0.00  0.00    -0.241 OA
ATOM     13  HN  UNL d   1       4.589  -2.938   1.058  1.00  0.00     0.195 HD
ATOM     14  C   UNL d   1       2.199  -4.107  -0.743  0.00  0.00     0.090 A 
ATOM     15  C   UNL d   1       1.914  -5.066  -1.828  0.00  0.00     0.080 C 
BRANCH  10  16
ATOM     16  C   UNL d   1       2.380  -1.780   2.083  0.00  0.00     0.015 A 
ATOM     17  C   UNL d   1       3.273  -0.723   2.349  0.00  0.00     0.046 A 
ATOM     18 CL   UNL d   1       4.446  -0.160   1.206  0.00  0.00    -0.083 Cl
ATOM     19  C   UNL d   1       3.235  -0.057   3.583  0.00  0.00     0.025 A 
ATOM     20  C   UNL d   1       2.299  -0.416   4.551  0.00  0.00     0.002 A 
ATOM     21  C   UNL d   1       1.383  -1.427   4.283  0.00  0.00     0.001 A 
ATOM     22  C   UNL d   1       1.425  -2.105   3.061  0.00  0.00     0.015 A 
ENDBRANCH  10  16
ENDBRANCH   6   9
ENDBRANCH   2   5
BRANCH   1  23
ATOM     23  C   UNL d   1      -4.487  -4.710  -0.099  0.00  0.00     0.184 C 
BRANCH  23  24
ATOM     24  S   UNL d   1      -5.092  -3.304  -1.088  0.00  0.00    -0.118 SA
BRANCH  24  25
ATOM     25  C   UNL d   1      -6.876  -3.188  -0.793  0.00  0.00     0.037 A 
ATOM     26  C   UNL d   1      -7.457  -2.079  -1.457  0.00  0.00     0.060 A 
ATOM     27  C   UNL d   1      -8.823  -1.787  -1.374  0.00  0.00     0.102 A 
ATOM     28  C   UNL d   1      -9.608  -2.607  -0.572  0.00  0.00     0.138 A 
ATOM     29  C   UNL d   1      -9.076  -3.717   0.097  0.00  0.00     0.077 A 
ATOM     30  C   UNL d   1      -7.713  -4.034  -0.030  0.00  0.00     0.087 A 
BRANCH  27  31
ATOM     31  O   UNL d   1      -9.410  -0.713  -1.981  0.00  0.00    -0.353 OA
ATOM     32  C   UNL d   1      -8.804  -0.263  -3.190  0.00  0.00     0.210 C 
ENDBRANCH  27  31
BRANCH  28  33
ATOM     33  N   UNL d   1     -11.025  -2.340  -0.415  0.00  0.00    -0.113 N 
ATOM     34  O   UNL d   1     -11.435  -2.169   0.744  0.00  0.00    -0.532 OA
ATOM     35  O   UNL d   1     -11.736  -2.380  -1.434  0.00  0.00    -0.532 OA
ENDBRANCH  28  33
BRANCH  30  36
ATOM     36  O   UNL d   1      -7.163  -5.132   0.579  0.00  0.00    -0.355 OA
ATOM     37  C   UNL d   1      -8.062  -6.134   1.055  0.00  0.00     0.210 C 
ENDBRANCH  30  36
ENDBRANCH  24  25
ENDBRANCH  23  24
ENDBRANCH   1  23
TORSDOF 9
