REMARK  5 active torsions:
REMARK  status: ('A' for Active; 'I' for Inactive)
REMARK    1  A    between atoms: C_5  and  C_1 
REMARK    2  A    between atoms: C_11  and  C_3 
REMARK    3  A    between atoms: C_6  and  C_5 
REMARK    4  A    between atoms: N_12  and  C_8 
REMARK    5  A    between atoms: C_17  and  N_12 
ROOT
ATOM      1  C   UNL d   1      -1.050  -3.726   0.564  0.00  0.00     0.110 C 
ATOM      2  C   UNL d   1      -0.607  -4.971   0.238  0.00  0.00     0.115 C 
ATOM      3  C   UNL d   1      -0.318  -2.872   1.509  0.00  0.00     0.105 C 
ATOM      4  N   UNL d   1       0.273  -2.200   2.249  0.00  0.00    -0.191 NA
ENDROOT
BRANCH   1   5
ATOM      5  C   UNL d   1      -2.370  -3.287  -0.059  0.00  0.00     0.206 C 
ATOM      6  O   UNL d   1      -3.171  -4.095  -0.527  0.00  0.00    -0.286 OA
BRANCH   5   7
ATOM      7  C   UNL d   1      -2.642  -1.848  -0.050  0.00  0.00     0.048 A 
ATOM      8  C   UNL d   1      -1.742  -0.736  -0.090  0.00  0.00     0.056 A 
ATOM      9  C   UNL d   1      -2.497   0.418  -0.034  0.00  0.00     0.086 A 
ATOM     10  O   UNL d   1      -3.817   0.091  -0.029  0.00  0.00    -0.314 OA
ATOM     11  C   UNL d   1      -3.906  -1.271  -0.038  0.00  0.00     0.064 A 
ATOM     12  C   UNL d   1      -5.291  -1.796  -0.000  0.00  0.00     0.077 C 
BRANCH   9  13
ATOM     13  C   UNL d   1      -2.165   1.835   0.059  0.00  0.00    -0.002 A 
ATOM     14  C   UNL d   1      -2.982   2.825  -0.506  0.00  0.00     0.016 A 
ATOM     15  C   UNL d   1      -2.644   4.180  -0.394  0.00  0.00     0.024 A 
ATOM     16  C   UNL d   1      -1.492   4.553   0.294  0.00  0.00     0.034 A 
ATOM     17  C   UNL d   1      -0.668   3.585   0.861  0.00  0.00     0.024 A 
ATOM     18 CL   UNL d   1      -1.085   6.217   0.454  0.00  0.00    -0.084 Cl
ATOM     19  C   UNL d   1      -1.003   2.233   0.739  0.00  0.00     0.016 A 
ENDBRANCH   9  13
ENDBRANCH   5   7
ENDBRANCH   1   5
BRANCH   2  20
ATOM     20  N   UNL d   1       0.543  -5.581   0.700  0.00  0.00    -0.364 N 
ATOM     21  H   UNL d   1       1.101  -5.056   1.369  0.00  0.00     0.165 HD
BRANCH  20  22
ATOM     22  C   UNL d   1       1.072  -6.848   0.394  0.00  0.00     0.031 A 
ATOM     23  C   UNL d   1       0.520  -7.711  -0.559  0.00  0.00     0.029 A 
ATOM     24  C   UNL d   1       1.082  -8.969  -0.802  0.00  0.00     0.002 A 
ATOM     25  C   UNL d   1       2.205  -9.384  -0.092  0.00  0.00     0.000 A 
ATOM     26  C   UNL d   1       2.768  -8.543   0.860  0.00  0.00     0.002 A 
ATOM     27  C   UNL d   1       2.206  -7.286   1.100  0.00  0.00     0.029 A 
ENDBRANCH  20  22
ENDBRANCH   2  20
TORSDOF 5
