REMARK  4 active torsions:
REMARK  status: ('A' for Active; 'I' for Inactive)
REMARK    1  A    between atoms: C_3  and  C_1 
REMARK    2  A    between atoms: C_5  and  C_2 
REMARK       I    between atoms: N_4  and  C_3 
REMARK    3  A    between atoms: C_8  and  N_4 
REMARK    4  A    between atoms: O_13  and  C_5 
ROOT
ATOM      1  C   UNL d   1      -1.794  -3.288  -1.261  0.00  0.00     0.260 C 
ATOM      2  N   UNL d   1      -2.226  -2.459  -0.257  0.00  0.00    -0.348 N 
ATOM      3  O   UNL d   1      -2.504  -3.568  -2.225  0.00  0.00    -0.267 OA
ATOM      4  H   UNL d   1      -1.651  -2.354   0.571  0.00  0.00     0.163 HD
ENDROOT
BRANCH   1   5
ATOM      5  C   UNL d   1      -0.440  -3.934  -1.081  0.00  0.00     0.091 C 
ATOM      6  C   UNL d   1       0.218  -4.367  -2.174  0.00  0.00     0.096 C 
ATOM      7  S   UNL d   1       1.502  -5.543  -2.124  0.00  0.00    -0.121 SA
ATOM      8  C   UNL d   1       2.565  -4.813  -0.859  0.00  0.00     0.090 C 
ATOM      9  C   UNL d   1       1.895  -4.092   0.317  0.00  0.00     0.090 C 
ATOM     10  S   UNL d   1       0.088  -4.295   0.543  0.00  0.00    -0.122 SA
BRANCH   6  11
ATOM     11  C   UNL d   1      -0.109  -3.855  -3.523  0.00  0.00     0.184 C 
ATOM     12  O   UNL d   1      -0.153  -4.479  -4.571  0.00  0.00    -0.646 OA
BRANCH  11  13
ATOM     13  O   UNL d   1      -0.190  -2.506  -3.509  0.00  0.00    -0.772 OA
ATOM     14  H   UNL d   1      -0.419  -2.286  -4.437  0.00  0.00     0.167 HD
ENDBRANCH  11  13
ENDBRANCH   6  11
ENDBRANCH   1   5
BRANCH   2  15
ATOM     15  C   UNL d   1      -3.636  -2.080  -0.171  0.00  0.00     0.118 C 
ATOM     16  C   UNL d   1      -4.015  -1.892   1.284  0.00  0.00    -0.029 A 
ATOM     17  C   UNL d   1      -4.340  -0.633   1.815  0.00  0.00    -0.050 A 
ATOM     18  C   UNL d   1      -3.999  -3.014   2.133  0.00  0.00     0.010 A 
ATOM     19  C   UNL d   1      -4.617  -0.516   3.186  0.00  0.00     0.007 A 
ATOM     20  C   UNL d   1      -4.484   0.578   0.931  0.00  0.00     0.039 C 
ATOM     21  C   UNL d   1      -4.573  -1.634   4.020  0.00  0.00     0.001 A 
ATOM     22  C   UNL d   1      -4.275  -2.885   3.493  0.00  0.00     0.001 A 
ATOM     23  C   UNL d   1      -3.708   0.463  -0.378  0.00  0.00     0.007 C 
ATOM     24  C   UNL d   1      -3.974  -0.874  -1.063  0.00  0.00     0.030 C 
ENDBRANCH   2  15
TORSDOF 4
