REMARK  4 active torsions:
REMARK  status: ('A' for Active; 'I' for Inactive)
REMARK       I    between atoms: N_3  and  C_1 
REMARK    1  A    between atoms: C_4  and  C_1 
REMARK    2  A    between atoms: C_2  and  N_3 
REMARK       I    between atoms: C_8  and  N_9 
REMARK    3  A    between atoms: C_16  and  C_8 
REMARK    4  A    between atoms: N_9  and  C_12 
ROOT
ATOM      1  C   UNL d   1       0.283   1.060  -0.347  0.00  0.00     0.059 A 
ATOM      2  C   UNL d   1       0.745   1.611  -1.557  0.00  0.00     0.050 A 
ATOM      3  C   UNL d   1      -0.907   1.531   0.232  0.00  0.00     0.019 A 
ATOM      4  C   UNL d   1      -0.002   2.631  -2.162  0.00  0.00     0.030 A 
ATOM      5  C   UNL d   1      -1.638   2.546  -0.384  0.00  0.00     0.001 A 
ATOM      6  C   UNL d   1      -1.186   3.094  -1.581  0.00  0.00     0.002 A 
ENDROOT
BRANCH   1   7
ATOM      7  C   UNL d   1       1.061   0.065   0.439  0.00  0.00     0.259 C 
ATOM      8  N   UNL d   1       2.414   0.303   0.472  0.00  0.00    -0.302 N 
ATOM      9  H   UNL d   1       2.775   1.168   0.084  0.00  0.00     0.171 HD
ATOM     10  O   UNL d   1       0.449  -0.832   1.009  0.00  0.00    -0.267 OA
BRANCH   8  11
ATOM     11  C   UNL d   1       3.370  -0.458   1.093  0.00  0.00     0.167 A 
ATOM     12  S   UNL d   1       3.048  -1.969   1.813  0.00  0.00    -0.046 SA
ATOM     13  C   UNL d   1       4.707  -2.039   2.227  0.00  0.00     0.160 A 
ATOM     14  N   UNL d   1       5.416  -1.009   1.817  0.00  0.00    -0.303 N 
ATOM     15  N   UNL d   1       4.632  -0.091   1.144  0.00  0.00    -0.279 N 
ATOM     16  HN  UNL d   1       6.418  -0.901   1.976  1.00  0.00     0.186 HD
ATOM     17  HN  UNL d   1       4.991   0.771   0.735  1.00  0.00     0.189 HD
ENDBRANCH   8  11
ENDBRANCH   1   7
BRANCH   2  18
ATOM     18  N   UNL d   1       1.927   1.137  -2.188  0.00  0.00    -0.322 N 
ATOM     19  C   UNL d   1       2.892   2.012  -2.668  0.00  0.00     0.256 C 
ATOM     20  O   UNL d   1       2.834   3.233  -2.553  0.00  0.00    -0.267 OA
ATOM     21  H   UNL d   1       2.232   0.193  -1.977  0.00  0.00     0.169 HD
BRANCH  19  22
ATOM     22  C   UNL d   1       4.129   1.407  -3.216  0.00  0.00     0.032 A 
ATOM     23  C   UNL d   1       4.100   0.244  -3.993  0.00  0.00     0.017 A 
ATOM     24  C   UNL d   1       5.287  -0.246  -4.547  0.00  0.00     0.001 A 
ATOM     25  C   UNL d   1       6.496   0.415  -4.321  0.00  0.00     0.000 A 
ATOM     26  C   UNL d   1       6.527   1.570  -3.541  0.00  0.00     0.001 A 
ATOM     27  C   UNL d   1       5.345   2.068  -2.995  0.00  0.00     0.017 A 
ENDBRANCH  19  22
ENDBRANCH   2  18
TORSDOF 4
