REMARK  6 active torsions:
REMARK  status: ('A' for Active; 'I' for Inactive)
REMARK    1  A    between atoms: N_2  and  C_1 
REMARK    2  A    between atoms: N_11  and  C_1 
REMARK    3  A    between atoms: C_3  and  N_2 
REMARK    4  A    between atoms: C_16  and  N_11 
REMARK    5  A    between atoms: C_13  and  C_15 
REMARK    6  A    between atoms: C_15  and  C_16 
ROOT
ATOM      1  C   UNL d   1       1.359   0.094  -0.414  0.00  0.00     0.167 C 
ATOM      2  S   UNL d   1       2.981  -0.106  -0.098  0.00  0.00    -0.041 SA
ENDROOT
BRANCH   1   3
ATOM      3  N   UNL d   1       0.476   0.858   0.286  0.00  0.00    -0.362 N 
ATOM      4  H   UNL d   1      -0.435   0.397   0.315  0.00  0.00     0.162 HD
BRANCH   3   5
ATOM      5  C   UNL d   1       0.734   1.767   1.396  0.00  0.00     0.088 C 
ATOM      6  C   UNL d   1       1.629   2.991   1.047  0.00  0.00     0.009 C 
ATOM      7  C   UNL d   1       1.133   4.054   2.034  0.00  0.00     0.011 C 
ATOM      8  C   UNL d   1       1.189   3.627  -0.282  0.00  0.00     0.007 C 
ATOM      9  C   UNL d   1      -0.317   3.935   1.574  0.00  0.00    -0.012 C 
ATOM     10  C   UNL d   1      -0.582   2.446   1.847  0.00  0.00     0.030 C 
ATOM     11  C   UNL d   1      -0.209   4.163   0.052  0.00  0.00     0.005 C 
ENDBRANCH   3   5
ENDBRANCH   1   3
BRANCH   1  12
ATOM     12  N   UNL d   1       0.825  -0.531  -1.506  0.00  0.00    -0.367 N 
ATOM     13  H   UNL d   1       1.495  -1.086  -2.026  0.00  0.00     0.161 HD
BRANCH  12  14
ATOM     14  C   UNL d   1      -0.460  -0.248  -2.147  0.00  0.00     0.128 C 
BRANCH  14  15
ATOM     15  C   UNL d   1      -1.462  -1.402  -2.057  0.00  0.00     0.076 C 
BRANCH  15  16
ATOM     16  C   UNL d   1      -2.234  -1.526  -0.761  0.00  0.00     0.010 A 
ATOM     17  N   UNL d   1      -1.725  -0.977   0.368  0.00  0.00    -0.369 N 
ATOM     18  C   UNL d   1      -2.389  -1.196   1.527  0.00  0.00     0.088 A 
ATOM     19  HN  UNL d   1      -0.872  -0.419   0.346  1.00  0.00     0.165 HD
ATOM     20  C   UNL d   1      -3.565  -1.917   1.617  0.00  0.00     0.017 A 
ATOM     21  C   UNL d   1      -4.092  -2.456   0.454  0.00  0.00     0.003 A 
ATOM     22  C   UNL d   1      -3.416  -2.268  -0.750  0.00  0.00     0.025 A 
ENDBRANCH  15  16
ENDBRANCH  14  15
ENDBRANCH  12  14
ENDBRANCH   1  12
TORSDOF 6
