REMARK  5 active torsions:
REMARK  status: ('A' for Active; 'I' for Inactive)
REMARK    1  A    between atoms: C_2  and  S_1 
REMARK    2  A    between atoms: N_3  and  S_1 
REMARK    3  A    between atoms: C_6  and  N_5 
REMARK    4  A    between atoms: C_7  and  O_10 
REMARK    5  A    between atoms: O_10  and  C_8 
ROOT
ATOM      1  N   UNL d   1       0.349  -2.846  -0.069  0.00  0.00    -0.304 N 
ATOM      2  N   UNL d   1      -0.656  -5.590  -0.119  0.00  0.00    -0.280 NA
ATOM      3  C   UNL d   1      -0.316  -3.399   1.127  0.00  0.00     0.150 C 
ATOM      4  C   UNL d   1      -0.256  -3.371  -1.305  0.00  0.00     0.150 C 
ATOM      5  C   UNL d   1      -0.136  -4.941   1.137  0.00  0.00     0.116 C 
ATOM      6  C   UNL d   1      -0.108  -4.901  -1.337  0.00  0.00     0.116 C 
ENDROOT
BRANCH   1   7
ATOM      7  S   UNL d   1       1.052  -1.327  -0.039  0.00  0.00     0.263 S 
ATOM      8  O   UNL d   1       1.704  -1.185   1.247  0.00  0.00    -0.200 OA
ATOM      9  O   UNL d   1       1.817  -1.169  -1.261  0.00  0.00    -0.200 OA
BRANCH   7  10
ATOM     10  C   UNL d   1      -0.299  -0.164  -0.077  0.00  0.00     0.113 A 
ATOM     11  C   UNL d   1      -0.850   0.299  -1.278  0.00  0.00     0.101 A 
ATOM     12  C   UNL d   1      -1.718   1.401  -1.260  0.00  0.00     0.039 A 
ATOM     13  C   UNL d   1      -2.089   1.991  -0.052  0.00  0.00     0.003 A 
ATOM     14  C   UNL d   1      -1.588   1.492   1.147  0.00  0.00     0.002 A 
ATOM     15  C   UNL d   1      -0.685   0.428   1.137  0.00  0.00     0.028 A 
BRANCH  11  16
ATOM     16  O   UNL d   1      -0.505  -0.275  -2.469  0.00  0.00    -0.254 OA
BRANCH  16  17
ATOM     17  C   UNL d   1      -1.625  -0.760  -3.202  0.00  0.00     0.530 C 
ATOM     18  F   UNL d   1      -2.540  -1.328  -2.384  0.00  0.00    -0.144 F 
ATOM     19  F   UNL d   1      -2.207   0.226  -3.911  0.00  0.00    -0.144 F 
ATOM     20  F   UNL d   1      -1.197  -1.714  -4.059  0.00  0.00    -0.144 F 
ENDBRANCH  16  17
ENDBRANCH  11  16
ENDBRANCH   7  10
ENDBRANCH   1   7
BRANCH   2  21
ATOM     21  C   UNL d   1      -0.464  -7.023  -0.128  0.00  0.00     0.024 C 
ATOM     22  C   UNL d   1      -0.882  -7.884   0.942  0.00  0.00     0.012 C 
ATOM     23  C   UNL d   1      -0.405  -9.224   0.939  0.00  0.00     0.045 C 
ATOM     24  C   UNL d   1      -1.774  -7.530   1.988  0.00  0.00     0.017 C 
ATOM     25  C   UNL d   1      -0.672 -10.067   2.003  0.00  0.00     0.054 C 
ATOM     26  N   UNL d   1       0.292  -9.757  -0.067  0.00  0.00    -0.365 N 
ATOM     27  C   UNL d   1      -1.484  -9.664   3.054  0.00  0.00     0.036 C 
ATOM     28  C   UNL d   1      -2.065  -8.406   3.038  0.00  0.00     0.025 C 
ATOM     29 CL   UNL d   1      -1.800 -10.744   4.354  0.00  0.00    -0.084 Cl
ATOM     30  C   UNL d   1       0.510  -8.992  -1.143  0.00  0.00     0.090 C 
ATOM     31  HN  UNL d   1       0.646 -10.713  -0.017  1.00  0.00     0.165 HD
ATOM     32  C   UNL d   1       0.160  -7.658  -1.218  0.00  0.00     0.041 C 
ENDBRANCH   2  21
TORSDOF 5
