REMARK  5 active torsions:
REMARK  status: ('A' for Active; 'I' for Inactive)
REMARK    1  A    between atoms: N_8  and  S_1 
REMARK    2  A    between atoms: C_10  and  S_1 
REMARK    3  A    between atoms: C_2  and  C_9 
REMARK    4  A    between atoms: C_13  and  C_5 
REMARK    5  A    between atoms: C_9  and  N_8 
ROOT
ATOM      1  C   UNL d   1       0.551  -2.525   2.939  0.00  0.00     0.017 A 
ATOM      2  N   UNL d   1       0.293  -4.057   4.614  0.00  0.00    -0.260 N 
ATOM      3  HN  UNL d   1       0.346  -4.908   5.174  1.00  0.00     0.195 HD
ATOM      4  C   UNL d   1       0.906  -3.829   3.442  0.00  0.00     0.075 A 
ATOM      5  O   UNL d   1      -0.419  -2.921   4.912  0.00  0.00    -0.242 OA
ATOM      6  C   UNL d   1      -0.265  -2.004   3.925  0.00  0.00     0.082 A 
ATOM      7  C   UNL d   1      -0.982  -0.729   4.130  0.00  0.00     0.079 C 
ENDROOT
BRANCH   1   8
ATOM      8  C   UNL d   1       1.001  -1.954   1.641  0.00  0.00     0.148 C 
BRANCH   8   9
ATOM      9  N   UNL d   1       0.397  -0.654   1.341  0.00  0.00    -0.211 NA
ATOM     10  H   UNL d   1      -0.621  -0.647   1.341  0.00  0.00     0.140 HD
BRANCH   9  11
ATOM     11  S   UNL d   1       1.000   0.089  -0.060  0.00  0.00     0.241 S 
ATOM     12  O   UNL d   1       2.424  -0.136  -0.129  0.00  0.00    -0.206 OA
ATOM     13  O   UNL d   1       0.426   1.416  -0.101  0.00  0.00    -0.206 OA
BRANCH  11  14
ATOM     14  C   UNL d   1       0.219  -0.870  -1.339  0.00  0.00     0.074 A 
ATOM     15  C   UNL d   1      -1.038  -0.479  -1.808  0.00  0.00     0.025 A 
ATOM     16  C   UNL d   1      -1.646  -1.206  -2.830  0.00  0.00     0.008 A 
ATOM     17  C   UNL d   1      -1.005  -2.320  -3.390  0.00  0.00    -0.062 A 
ATOM     18  C   UNL d   1       0.256  -2.701  -2.911  0.00  0.00     0.008 A 
ATOM     19  C   UNL d   1      -1.661  -3.063  -4.517  0.00  0.00     0.048 C 
ATOM     20  C   UNL d   1       0.876  -1.972  -1.893  0.00  0.00     0.025 A 
ENDBRANCH  11  14
ENDBRANCH   9  11
ENDBRANCH   8   9
ENDBRANCH   1   8
BRANCH   4  21
ATOM     21  C   UNL d   1       1.766  -4.857   2.837  0.00  0.00    -0.007 A 
ATOM     22  C   UNL d   1       1.458  -6.217   3.001  0.00  0.00     0.014 A 
ATOM     23  C   UNL d   1       2.253  -7.207   2.415  0.00  0.00     0.001 A 
ATOM     24  C   UNL d   1       3.361  -6.854   1.650  0.00  0.00     0.000 A 
ATOM     25  C   UNL d   1       3.691  -5.512   1.491  0.00  0.00     0.001 A 
ATOM     26  C   UNL d   1       2.910  -4.524   2.096  0.00  0.00     0.014 A 
ENDBRANCH   4  21
TORSDOF 5
