REMARK  7 active torsions:
REMARK  status: ('A' for Active; 'I' for Inactive)
REMARK    1  A    between atoms: S_13  and  C_5 
REMARK    2  A    between atoms: C_12  and  C_11 
REMARK    3  A    between atoms: C_17  and  S_13 
REMARK    4  A    between atoms: C_25  and  C_14 
REMARK    5  A    between atoms: C_19  and  C_17 
REMARK    6  A    between atoms: C_26  and  C_25 
REMARK    7  A    between atoms: C_27  and  C_26 
ROOT
ATOM      1  C   UNL d   1       0.034   1.143  -0.077  0.00  0.00     0.158 A 
ATOM      2  N   UNL d   1       0.873   0.054  -0.028  0.00  0.00    -0.314 N 
ATOM      3  N   UNL d   1      -1.214   0.707  -0.126  0.00  0.00    -0.281 N 
ATOM      4  HN  UNL d   1      -2.048   1.293  -0.146  1.00  0.00     0.188 HD
ATOM      5  C   UNL d   1       0.055  -1.049  -0.093  0.00  0.00     0.163 A 
ATOM      6  N   UNL d   1      -1.198  -0.670  -0.145  0.00  0.00    -0.278 N 
ATOM      7  HN  UNL d   1      -2.013  -1.282  -0.192  1.00  0.00     0.189 HD
ATOM      8  C   UNL d   1       0.385   2.537  -0.096  0.00  0.00     0.122 A 
ATOM      9  O   UNL d   1       1.670   3.024  -0.194  0.00  0.00    -0.298 OA
ATOM     10  C   UNL d   1      -0.481   3.623  -0.048  0.00  0.00     0.044 A 
ATOM     11  C   UNL d   1       1.601   4.380  -0.209  0.00  0.00     0.129 A 
ATOM     12  C   UNL d   1       0.300   4.803  -0.121  0.00  0.00     0.049 A 
ATOM     13  C   UNL d   1       2.308   0.026   0.070  0.00  0.00     0.160 C 
ENDROOT
BRANCH   5  14
ATOM     14  S   UNL d   1       0.645  -2.678  -0.075  0.00  0.00    -0.088 SA
BRANCH  14  15
ATOM     15  C   UNL d   1      -0.722  -3.570  -0.878  0.00  0.00     0.121 C 
BRANCH  15  16
ATOM     16  C   UNL d   1      -0.441  -5.057  -0.971  0.00  0.00    -0.048 A 
ATOM     17  C   UNL d   1      -0.892  -5.932   0.030  0.00  0.00     0.009 A 
ATOM     18  C   UNL d   1      -0.640  -7.305  -0.054  0.00  0.00     0.024 A 
ATOM     19  C   UNL d   1       0.075  -7.812  -1.138  0.00  0.00     0.034 A 
ATOM     20  C   UNL d   1       0.540  -6.958  -2.135  0.00  0.00     0.024 A 
ATOM     21 CL   UNL d   1       0.380  -9.502  -1.245  0.00  0.00    -0.084 Cl
ATOM     22  C   UNL d   1       0.286  -5.585  -2.051  0.00  0.00     0.009 A 
ENDBRANCH  15  16
ENDBRANCH  14  15
ENDBRANCH   5  14
BRANCH  11  23
ATOM     23  C   UNL d   1       2.814   5.108  -0.319  0.00  0.00    -0.041 C 
ATOM     24  C   UNL d   1       3.811   5.771  -0.422  0.00  0.00    -0.099 C 
BRANCH  24  25
ATOM     25  C   UNL d   1       5.008   6.617  -0.570  0.00  0.00     0.094 C 
BRANCH  25  26
ATOM     26  C   UNL d   1       5.840   6.641   0.713  0.00  0.00     0.012 C 
BRANCH  26  27
ATOM     27  C   UNL d   1       7.085   7.518   0.563  0.00  0.00    -0.004 C 
ATOM     28  C   UNL d   1       7.916   7.527   1.838  0.00  0.00     0.005 C 
ENDBRANCH  26  27
ENDBRANCH  25  26
ENDBRANCH  24  25
ENDBRANCH  11  23
TORSDOF 7
