REMARK  5 active torsions:
REMARK  status: ('A' for Active; 'I' for Inactive)
REMARK    1  A    between atoms: C_3  and  C_1 
REMARK    2  A    between atoms: C_4  and  C_2 
REMARK    3  A    between atoms: C_5  and  C_3 
REMARK    4  A    between atoms: N_12  and  C_9 
REMARK    5  A    between atoms: C_17  and  N_12 
ROOT
ATOM      1  C   UNL d   1      -0.891  -3.693  -0.013  0.00  0.00     0.110 C 
ATOM      2  C   UNL d   1      -0.589  -5.013  -0.018  0.00  0.00     0.115 C 
ATOM      3  C   UNL d   1       0.173  -2.670  -0.012  0.00  0.00     0.105 C 
ATOM      4  N   UNL d   1       1.031  -1.888  -0.002  0.00  0.00    -0.191 NA
ENDROOT
BRANCH   1   5
ATOM      5  C   UNL d   1      -2.353  -3.250  -0.064  0.00  0.00     0.207 C 
ATOM      6  O   UNL d   1      -2.628  -2.104  -0.409  0.00  0.00    -0.286 OA
BRANCH   5   7
ATOM      7  C   UNL d   1      -3.416  -4.189   0.353  0.00  0.00     0.057 A 
ATOM      8  C   UNL d   1      -4.727  -4.201  -0.130  0.00  0.00     0.173 A 
ATOM      9  O   UNL d   1      -5.444  -5.202   0.482  0.00  0.00    -0.310 OA
ATOM     10  C   UNL d   1      -4.629  -5.818   1.372  0.00  0.00     0.051 A 
ATOM     11  C   UNL d   1      -3.388  -5.224   1.351  0.00  0.00     0.050 A 
ATOM     12  C   UNL d   1      -5.208  -6.936   2.151  0.00  0.00     0.076 C 
BRANCH   8  13
ATOM     13  C   UNL d   1      -5.487  -3.423  -1.151  0.00  0.00     0.440 C 
ATOM     14  F   UNL d   1      -4.758  -2.466  -1.770  0.00  0.00    -0.164 F 
ATOM     15  F   UNL d   1      -5.951  -4.237  -2.139  0.00  0.00    -0.164 F 
ATOM     16  F   UNL d   1      -6.575  -2.808  -0.615  0.00  0.00    -0.164 F 
ENDBRANCH   8  13
ENDBRANCH   5   7
ENDBRANCH   1   5
BRANCH   2  17
ATOM     17  N   UNL d   1       0.626  -5.652   0.124  0.00  0.00    -0.364 N 
ATOM     18  H   UNL d   1       1.092  -5.510   1.019  0.00  0.00     0.165 HD
BRANCH  17  19
ATOM     19  C   UNL d   1       1.541  -5.899  -0.923  0.00  0.00     0.031 A 
ATOM     20  C   UNL d   1       1.228  -5.697  -2.273  0.00  0.00     0.029 A 
ATOM     21  C   UNL d   1       2.126  -6.064  -3.280  0.00  0.00     0.002 A 
ATOM     22  C   UNL d   1       3.341  -6.659  -2.952  0.00  0.00     0.000 A 
ATOM     23  C   UNL d   1       3.663  -6.882  -1.616  0.00  0.00     0.002 A 
ATOM     24  C   UNL d   1       2.767  -6.508  -0.612  0.00  0.00     0.029 A 
ENDBRANCH  17  19
ENDBRANCH   2  17
TORSDOF 5
