REMARK  3 active torsions:
REMARK  status: ('A' for Active; 'I' for Inactive)
REMARK    1  A    between atoms: N_17  and  C_11 
REMARK    2  A    between atoms: C_21  and  N_17 
REMARK    3  A    between atoms: C_20  and  C_21 
ROOT
ATOM      1  C   UNL d   1       0.016  -0.741  -0.063  0.00  0.00     0.135 C 
ATOM      2  C   UNL d   1      -0.005   0.616   0.017  0.00  0.00     0.128 C 
ATOM      3  N   UNL d   1       1.267  -1.389  -0.002  0.00  0.00    -0.288 N 
ATOM      4  N   UNL d   1       2.433   0.661  -0.001  0.00  0.00    -0.270 N 
ATOM      5  N   UNL d   1      -1.194  -1.457  -0.167  0.00  0.00    -0.303 N 
ATOM      6  C   UNL d   1       2.487  -0.714  -0.058  0.00  0.00     0.332 C 
ATOM      7  C   UNL d   1       1.266   1.377   0.116  0.00  0.00     0.269 C 
ATOM      8  C   UNL d   1      -2.459   0.552  -0.357  0.00  0.00     0.093 C 
ATOM      9  C   UNL d   1      -2.444  -0.863  -0.004  0.00  0.00     0.264 C 
ATOM     10  C   UNL d   1      -1.288   1.375  -0.062  0.00  0.00     0.208 C 
ATOM     11  C   UNL d   1      -3.452   1.027  -1.124  0.00  0.00     0.078 C 
ATOM     12  O   UNL d   1       3.560  -1.313  -0.140  0.00  0.00    -0.246 OA
ATOM     13  O   UNL d   1       1.278   2.596   0.276  0.00  0.00    -0.267 OA
ATOM     14  O   UNL d   1      -3.466  -1.480   0.278  0.00  0.00    -0.267 OA
ATOM     15  O   UNL d   1      -1.387   2.592   0.048  0.00  0.00    -0.286 OA
ATOM     16  C   UNL d   1       1.428  -2.829   0.172  0.00  0.00     0.163 C 
ATOM     17  C   UNL d   1       3.677   1.413   0.031  0.00  0.00     0.164 C 
ATOM     18  C   UNL d   1      -1.335  -2.838  -0.597  0.00  0.00     0.161 C 
ENDROOT
BRANCH  11  19
ATOM     19  N   UNL d   1      -4.463   0.317  -1.763  0.00  0.00    -0.297 NA
ATOM     20  H   UNL d   1      -4.160  -0.637  -1.965  0.00  0.00     0.127 HD
BRANCH  19  21
ATOM     21  C   UNL d   1      -5.779   0.175  -1.128  0.00  0.00     0.130 C 
BRANCH  21  22
ATOM     22  C   UNL d   1      -6.841   0.521  -2.133  0.00  0.00    -0.045 A 
ATOM     23  C   UNL d   1      -7.779  -0.428  -2.562  0.00  0.00     0.008 A 
ATOM     24  C   UNL d   1      -8.746  -0.083  -3.505  0.00  0.00     0.001 A 
ATOM     25  C   UNL d   1      -8.785   1.210  -4.029  0.00  0.00     0.000 A 
ATOM     26  C   UNL d   1      -7.858   2.161  -3.607  0.00  0.00     0.001 A 
ATOM     27  C   UNL d   1      -6.894   1.818  -2.662  0.00  0.00     0.008 A 
ENDBRANCH  21  22
ENDBRANCH  19  21
ENDBRANCH  11  19
TORSDOF 3
