REMARK  5 active torsions:
REMARK  status: ('A' for Active; 'I' for Inactive)
REMARK    1  A    between atoms: C_12  and  C_3 
REMARK    2  A    between atoms: C_10  and  C_4 
REMARK    3  A    between atoms: C_7  and  C_11 
REMARK    4  A    between atoms: C_9  and  C_7 
REMARK    5  A    between atoms: N_8  and  C_10 
ROOT
ATOM      1  N   UNL d   1      -2.371  -2.462   0.095  0.00  0.00     0.094 N 
ATOM      2  C   UNL d   1      -5.054  -1.203  -0.102  0.00  0.00     0.064 C 
ATOM      3  C   UNL d   1      -4.486  -1.749   1.208  0.00  0.00     0.043 C 
ATOM      4  C   UNL d   1      -4.377  -1.902  -1.286  0.00  0.00     0.043 C 
ATOM      5  C   UNL d   1      -2.953  -1.731   1.235  0.00  0.00     0.273 C 
ATOM      6  C   UNL d   1      -2.849  -1.915  -1.186  0.00  0.00     0.273 C 
ENDROOT
BRANCH   1   7
ATOM      7  C   UNL d   1      -0.891  -2.351   0.120  0.00  0.00     0.330 C 
BRANCH   7   8
ATOM      8  C   UNL d   1      -0.289  -3.107   1.265  0.00  0.00     0.054 A 
ATOM      9  N   UNL d   1       0.564  -2.492   2.159  0.00  0.00    -0.343 N 
ATOM     10  C   UNL d   1       0.990  -3.432   2.989  0.00  0.00     0.115 A 
ATOM     11  HN  UNL d   1       0.817  -1.504   2.177  1.00  0.00     0.167 HD
ATOM     12  N   UNL d   1       0.374  -4.621   2.684  0.00  0.00    -0.350 N 
ATOM     13  C   UNL d   1      -0.409  -4.443   1.579  0.00  0.00     0.116 A 
ATOM     14  H   UNL d   1       0.516  -5.498   3.166  0.00  0.00     0.166 HD
BRANCH  10  15
ATOM     15  C   UNL d   1       2.005  -3.266   4.040  0.00  0.00     0.008 A 
ATOM     16  C   UNL d   1       2.546  -1.993   4.286  0.00  0.00     0.015 A 
ATOM     17  C   UNL d   1       3.575  -1.812   5.215  0.00  0.00     0.001 A 
ATOM     18  C   UNL d   1       4.077  -2.902   5.919  0.00  0.00     0.000 A 
ATOM     19  C   UNL d   1       3.537  -4.168   5.710  0.00  0.00     0.001 A 
ATOM     20  C   UNL d   1       2.505  -4.348   4.782  0.00  0.00     0.015 A 
ENDBRANCH  10  15
ENDBRANCH   7   8
ENDBRANCH   1   7
BRANCH   2  21
ATOM     21  C   UNL d   1      -4.891   0.318  -0.174  0.00  0.00     0.163 C 
ATOM     22  O   UNL d   1      -3.905   0.856  -0.679  0.00  0.00    -0.292 OA
BRANCH  21  23
ATOM     23  C   UNL d   1      -5.922   1.222   0.411  0.00  0.00     0.010 A 
ATOM     24  C   UNL d   1      -5.489   2.463   0.912  0.00  0.00     0.018 A 
ATOM     25  C   UNL d   1      -6.410   3.397   1.387  0.00  0.00     0.043 A 
ATOM     26  C   UNL d   1      -7.765   3.091   1.355  0.00  0.00     0.116 A 
ATOM     27  C   UNL d   1      -8.210   1.866   0.872  0.00  0.00     0.043 A 
ATOM     28  F   UNL d   1      -8.655   3.998   1.780  0.00  0.00    -0.206 F 
ATOM     29  C   UNL d   1      -7.290   0.924   0.399  0.00  0.00     0.018 A 
ENDBRANCH  21  23
ENDBRANCH   2  21
TORSDOF 5
