REMARK  2 active torsions:
REMARK  status: ('A' for Active; 'I' for Inactive)
REMARK    1  A    between atoms: N_3  and  C_1 
REMARK       I    between atoms: C_5  and  N_3 
REMARK    2  A    between atoms: C_8  and  C_5 
ROOT
ATOM      1  N   UNL d   1      -1.194  -1.152  -2.003  0.00  0.00    -0.351 N 
ATOM      2  C   UNL d   1      -1.933  -2.270  -2.338  0.00  0.00     0.252 C 
ATOM      3  O   UNL d   1      -2.502  -2.978  -1.520  0.00  0.00    -0.268 OA
ATOM      4  H   UNL d   1      -0.572  -0.766  -2.701  0.00  0.00     0.163 HD
ENDROOT
BRANCH   1   5
ATOM      5  C   UNL d   1      -1.113  -0.648  -0.637  0.00  0.00     0.101 C 
ATOM      6  C   UNL d   1       0.099  -1.177   0.194  0.00  0.00    -0.022 C 
ATOM      7  C   UNL d   1       0.138  -0.158   1.345  0.00  0.00     0.016 C 
ATOM      8  C   UNL d   1       1.431  -0.868  -0.525  0.00  0.00     0.011 C 
ATOM      9  C   UNL d   1      -0.025  -2.610   0.673  0.00  0.00     0.017 C 
ATOM     10  C   UNL d   1       0.295   1.045   0.405  0.00  0.00    -0.004 C 
ATOM     11  C   UNL d   1      -0.955   0.914  -0.526  0.00  0.00    -0.023 C 
ATOM     12  C   UNL d   1       1.599   0.644  -0.309  0.00  0.00     0.006 C 
ATOM     13  C   UNL d   1      -0.794   1.648  -1.867  0.00  0.00     0.017 C 
ATOM     14  C   UNL d   1      -2.197   1.522   0.169  0.00  0.00     0.017 C 
ENDBRANCH   1   5
BRANCH   2  15
ATOM     15  C   UNL d   1      -2.027  -2.599  -3.792  0.00  0.00     0.032 A 
ATOM     16  C   UNL d   1      -2.220  -3.938  -4.161  0.00  0.00     0.018 A 
ATOM     17  C   UNL d   1      -2.405  -4.285  -5.504  0.00  0.00     0.025 A 
ATOM     18  C   UNL d   1      -2.409  -3.292  -6.483  0.00  0.00     0.034 A 
ATOM     19  C   UNL d   1      -2.218  -1.958  -6.128  0.00  0.00     0.025 A 
ATOM     20 CL   UNL d   1      -2.680  -3.716  -8.127  0.00  0.00    -0.084 Cl
ATOM     21  C   UNL d   1      -2.026  -1.609  -4.784  0.00  0.00     0.018 A 
ENDBRANCH   2  15
TORSDOF 2
