REMARK  3 active torsions:
REMARK  status: ('A' for Active; 'I' for Inactive)
REMARK    1  A    between atoms: C_12  and  C_5 
REMARK    2  A    between atoms: N_7  and  C_13 
REMARK    3  A    between atoms: C_17  and  C_8 
ROOT
ATOM      1  N   UNL d   1      -2.522   0.933   0.163  0.00  0.00    -0.188 NA
ATOM      2  N   UNL d   1      -3.429   1.600   0.976  0.00  0.00    -0.319 N 
ATOM      3  HN  UNL d   1      -4.446   1.539   0.930  1.00  0.00     0.181 HD
ATOM      4  C   UNL d   1      -1.209   1.602   0.240  0.00  0.00     0.124 C 
ATOM      5  C   UNL d   1      -2.404  -0.524   0.431  0.00  0.00     0.256 C 
ATOM      6  O   UNL d   1      -1.340  -1.212  -0.256  0.00  0.00    -0.324 OA
ATOM      7  C   UNL d   1      -2.733   2.317   1.807  0.00  0.00     0.033 C 
ATOM      8  C   UNL d   1      -1.250   2.223   1.628  0.00  0.00     0.085 C 
ATOM      9  C   UNL d   1       0.006   0.754   0.050  0.00  0.00    -0.005 A 
ATOM     10  C   UNL d   1      -0.123  -0.614  -0.145  0.00  0.00     0.079 A 
ATOM     11  C   UNL d   1       1.290   1.323   0.082  0.00  0.00     0.012 A 
ATOM     12  C   UNL d   1       1.005  -1.422  -0.277  0.00  0.00     0.037 A 
ATOM     13  C   UNL d   1       2.422   0.518  -0.041  0.00  0.00     0.001 A 
ATOM     14  C   UNL d   1       2.279  -0.857  -0.209  0.00  0.00     0.003 A 
ENDROOT
BRANCH   5  15
ATOM     15  C   UNL d   1      -3.698  -1.253   0.060  0.00  0.00    -0.011 A 
ATOM     16  C   UNL d   1      -4.721  -1.408   1.013  0.00  0.00     0.047 A 
ATOM     17  C   UNL d   1      -5.910  -2.067   0.665  0.00  0.00     0.103 A 
ATOM     18  C   UNL d   1      -6.096  -2.575  -0.626  0.00  0.00     0.036 A 
ATOM     19  C   UNL d   1      -5.092  -2.411  -1.578  0.00  0.00     0.003 A 
ATOM     20  C   UNL d   1      -3.909  -1.748  -1.240  0.00  0.00     0.011 A 
BRANCH  17  21
ATOM     21  N   UNL d   1      -6.973  -2.227   1.666  0.00  0.00    -0.116 N 
ATOM     22  O   UNL d   1      -6.752  -1.819   2.816  0.00  0.00    -0.532 OA
ATOM     23  O   UNL d   1      -8.027  -2.772   1.308  0.00  0.00    -0.532 OA
ENDBRANCH  17  21
ENDBRANCH   5  15
BRANCH   7  24
ATOM     24  C   UNL d   1      -3.310   3.106   2.912  0.00  0.00    -0.013 A 
ATOM     25  C   UNL d   1      -2.554   3.355   4.065  0.00  0.00     0.013 A 
ATOM     26  C   UNL d   1      -3.120   4.046   5.134  0.00  0.00     0.001 A 
ATOM     27  C   UNL d   1      -4.436   4.502   5.048  0.00  0.00     0.000 A 
ATOM     28  C   UNL d   1      -5.185   4.267   3.893  0.00  0.00     0.001 A 
ATOM     29  C   UNL d   1      -4.626   3.561   2.826  0.00  0.00     0.013 A 
ENDBRANCH   7  24
TORSDOF 3
