REMARK  3 active torsions:
REMARK  status: ('A' for Active; 'I' for Inactive)
REMARK    1  A    between atoms: N_2  and  C_1 
REMARK    2  A    between atoms: C_5  and  C_4 
REMARK       I    between atoms: N_8  and  C_5 
REMARK    3  A    between atoms: N_12  and  N_8 
ROOT
ATOM      1  C   UNL d   1       0.328   1.220  -0.013  0.00  0.00     0.144 A 
ATOM      2  S   UNL d   1      -0.868   0.021  -0.186  0.00  0.00    -0.061 SA
ATOM      3  C   UNL d   1       0.230  -1.226   0.237  0.00  0.00     0.076 A 
ATOM      4  C   UNL d   1       1.535   0.711   0.410  0.00  0.00     0.045 A 
ATOM      5  C   UNL d   1       1.472  -0.704   0.560  0.00  0.00     0.028 A 
ENDROOT
BRANCH   3   6
ATOM      6  C   UNL d   1      -0.113  -2.645   0.218  0.00  0.00     0.273 C 
ATOM      7  N   UNL d   1      -1.439  -2.957  -0.081  0.00  0.00    -0.285 N 
ATOM      8  H   UNL d   1      -2.094  -2.199  -0.255  0.00  0.00     0.184 HD
ATOM      9  O   UNL d   1       0.743  -3.503   0.441  0.00  0.00    -0.266 OA
BRANCH   7  10
ATOM     10  N   UNL d   1      -1.916  -4.278  -0.279  0.00  0.00    -0.237 NA
ATOM     11  C   UNL d   1      -1.302  -4.920  -1.445  0.00  0.00     0.135 C 
ATOM     12  C   UNL d   1      -1.779  -5.118   0.914  0.00  0.00     0.135 C 
ENDBRANCH   7  10
ENDBRANCH   3   6
BRANCH   1  13
ATOM     13  N   UNL d   1       0.044   2.600  -0.314  0.00  0.00    -0.108 N 
ATOM     14  O   UNL d   1       1.005   3.380  -0.263  0.00  0.00    -0.531 OA
ATOM     15  O   UNL d   1      -1.118   2.910  -0.602  0.00  0.00    -0.531 OA
ENDBRANCH   1  13
TORSDOF 3
