REMARK  0 active torsions:
REMARK  status: ('A' for Active; 'I' for Inactive)
ROOT
ATOM      1  S   UNL d   1      -2.536   0.760  -0.635  0.00  0.00     0.270 S 
ATOM      2  C   UNL d   1      -2.468  -0.677   0.312  0.00  0.00     0.154 C 
ATOM      3  N   UNL d   1      -1.160   1.542  -0.046  0.00  0.00    -0.275 N 
ATOM      4  C   UNL d   1      -1.247  -1.445  -0.025  0.00  0.00     0.209 C 
ATOM      5  C   UNL d   1       0.028  -0.658  -0.047  0.00  0.00     0.043 A 
ATOM      6  C   UNL d   1      -3.267  -0.982   1.350  0.00  0.00     0.064 C 
ATOM      7  C   UNL d   1       0.051   0.757  -0.000  0.00  0.00     0.059 A 
ATOM      8  O   UNL d   1      -2.245   0.407  -2.011  0.00  0.00    -0.200 OA
ATOM      9  O   UNL d   1      -3.693   1.591  -0.373  0.00  0.00    -0.200 OA
ATOM     10  S   UNL d   1      -3.076  -2.461   2.280  0.00  0.00    -0.121 SA
ATOM     11  S   UNL d   1      -4.492   0.077   2.004  0.00  0.00    -0.121 SA
ATOM     12  O   UNL d   1      -1.261  -2.649  -0.254  0.00  0.00    -0.286 OA
ATOM     13  C   UNL d   1      -1.255   2.901   0.490  0.00  0.00     0.170 C 
ATOM     14  C   UNL d   1       1.230  -1.380  -0.077  0.00  0.00     0.018 A 
ATOM     15  C   UNL d   1       1.290   1.409   0.058  0.00  0.00     0.031 A 
ATOM     16  C   UNL d   1      -5.870  -2.282   2.427  0.00  0.00     0.021 C 
ATOM     17  C   UNL d   1      -4.721  -3.185   1.976  0.00  0.00     0.081 C 
ATOM     18  C   UNL d   1      -5.940  -0.956   1.676  0.00  0.00     0.081 C 
ATOM     19  C   UNL d   1       2.452  -0.709  -0.034  0.00  0.00     0.001 A 
ATOM     20  C   UNL d   1       2.480   0.680   0.043  0.00  0.00     0.002 A 
ENDROOT
TORSDOF 0
