REMARK  5 active torsions:
REMARK  status: ('A' for Active; 'I' for Inactive)
REMARK    1  A    between atoms: C_7  and  C_3 
REMARK    2  A    between atoms: C_17  and  C_6 
REMARK    3  A    between atoms: C_18  and  C_8 
REMARK    4  A    between atoms: C_11  and  C_19 
REMARK    5  A    between atoms: C_12  and  C_15 
ROOT
ATOM      1  C   UNL d   1       0.536   2.545  -0.024  0.00  0.00     0.010 A 
ATOM      2  C   UNL d   1       1.101   5.313   0.009  0.00  0.00    -0.009 A 
ATOM      3  C   UNL d   1       1.312   3.126  -1.036  0.00  0.00     0.016 A 
ATOM      4  C   UNL d   1       0.042   3.368   0.999  0.00  0.00     0.016 A 
ATOM      5  C   UNL d   1       1.594   4.496  -1.018  0.00  0.00     0.014 A 
ATOM      6  C   UNL d   1       0.323   4.737   1.014  0.00  0.00     0.014 A 
ENDROOT
BRANCH   2   7
ATOM      7  C   UNL d   1       1.407   6.735   0.016  0.00  0.00     0.050 A 
ATOM      8  N   UNL d   1       2.591   7.217  -0.515  0.00  0.00    -0.349 N 
ATOM      9  C   UNL d   1       2.598   8.531  -0.515  0.00  0.00     0.087 A 
ATOM     10  HN  UNL d   1       3.352   6.632  -0.859  1.00  0.00     0.166 HD
ATOM     11  S   UNL d   1       1.224   9.258   0.234  0.00  0.00    -0.081 SA
ATOM     12  C   UNL d   1       0.559   7.707   0.510  0.00  0.00     0.082 A 
BRANCH   9  13
ATOM     13  C   UNL d   1       3.664   9.348  -1.102  0.00  0.00     0.028 A 
ATOM     14  C   UNL d   1       4.335   9.009  -2.291  0.00  0.00     0.063 A 
ATOM     15  C   UNL d   1       5.396   9.835  -2.721  0.00  0.00     0.034 A 
ATOM     16  C   UNL d   1       5.727  10.964  -1.996  0.00  0.00     0.088 A 
ATOM     17  N   UNL d   1       5.087  11.327  -0.874  0.00  0.00    -0.374 N 
ATOM     18  C   UNL d   1       4.089  10.514  -0.453  0.00  0.00     0.102 A 
ATOM     19  HN  UNL d   1       5.340  12.174  -0.363  1.00  0.00     0.164 HD
BRANCH  14  20
ATOM     20  C   UNL d   1       4.010   7.836  -3.188  0.00  0.00     0.418 C 
ATOM     21  F   UNL d   1       2.885   7.128  -2.930  0.00  0.00    -0.166 F 
ATOM     22  F   UNL d   1       3.851   8.252  -4.482  0.00  0.00    -0.166 F 
ATOM     23  F   UNL d   1       5.030   6.931  -3.233  0.00  0.00    -0.166 F 
ENDBRANCH  14  20
ENDBRANCH   9  13
ENDBRANCH   2   7
BRANCH   1  24
ATOM     24  C   UNL d   1       0.261   1.117  -0.022  0.00  0.00     0.138 A 
ATOM     25  N   UNL d   1       0.766   0.266  -0.980  0.00  0.00    -0.319 N 
ATOM     26  C   UNL d   1       0.300  -0.901  -0.598  0.00  0.00     0.182 A 
ATOM     27  HN  UNL d   1       1.354   0.487  -1.783  1.00  0.00     0.169 HD
ATOM     28  O   UNL d   1      -0.466  -0.830   0.528  0.00  0.00    -0.217 OA
ATOM     29  N   UNL d   1      -0.491   0.506   0.909  0.00  0.00    -0.242 N 
ATOM     30  HN  UNL d   1      -0.969   0.924   1.708  1.00  0.00     0.196 HD
BRANCH  26  31
ATOM     31  C   UNL d   1       0.498  -2.223  -1.181  0.00  0.00     0.017 A 
ATOM     32  C   UNL d   1       1.345  -2.371  -2.289  0.00  0.00     0.017 A 
ATOM     33  C   UNL d   1       1.568  -3.630  -2.856  0.00  0.00     0.025 A 
ATOM     34  C   UNL d   1       0.939  -4.751  -2.317  0.00  0.00     0.034 A 
ATOM     35  C   UNL d   1       0.090  -4.623  -1.222  0.00  0.00     0.025 A 
ATOM     36 CL   UNL d   1       1.214  -6.302  -3.011  0.00  0.00    -0.084 Cl
ATOM     37  C   UNL d   1      -0.131  -3.364  -0.655  0.00  0.00     0.017 A 
ENDBRANCH  26  31
ENDBRANCH   1  24
TORSDOF 5
