REMARK  3 active torsions:
REMARK  status: ('A' for Active; 'I' for Inactive)
REMARK    1  A    between atoms: C_9  and  N_1 
REMARK    2  A    between atoms: C_11  and  N_2 
REMARK    3  A    between atoms: C_14  and  C_11 
ROOT
ATOM      1  N   UNL d   1       0.923  -1.377   0.108  0.00  0.00    -0.246 N 
ATOM      2  N   UNL d   1       2.083   0.724   0.066  0.00  0.00    -0.259 N 
ATOM      3  C   UNL d   1       2.145  -0.686   0.142  0.00  0.00     0.338 A 
ATOM      4  C   UNL d   1      -0.263  -0.680   0.009  0.00  0.00     0.150 A 
ATOM      5  C   UNL d   1      -0.264   0.681  -0.020  0.00  0.00     0.147 A 
ATOM      6  C   UNL d   1       0.909   1.481  -0.006  0.00  0.00     0.282 A 
ATOM      7  N   UNL d   1      -1.538  -1.171  -0.027  0.00  0.00    -0.336 N 
ATOM      8  HN  UNL d   1      -1.828  -2.149  -0.021  1.00  0.00     0.168 HD
ATOM      9  N   UNL d   1      -1.576   1.051  -0.071  0.00  0.00    -0.345 N 
ATOM     10  C   UNL d   1      -2.311  -0.105  -0.072  0.00  0.00     0.182 A 
ATOM     11  O   UNL d   1       3.235  -1.265   0.195  0.00  0.00    -0.246 OA
ATOM     12  O   UNL d   1       0.864   2.702  -0.089  0.00  0.00    -0.265 OA
ATOM     13  H   UNL d   1      -1.931   1.999  -0.095  0.00  0.00     0.167 HD
ENDROOT
BRANCH   1  14
ATOM     14  C   UNL d   1       0.865  -2.795   0.131  0.00  0.00     0.051 A 
ATOM     15  C   UNL d   1       1.366  -3.537   1.220  0.00  0.00    -0.035 A 
ATOM     16  C   UNL d   1       1.832  -2.906   2.503  0.00  0.00     0.050 C 
ATOM     17  C   UNL d   1       1.399  -4.941   1.132  0.00  0.00     0.009 A 
ATOM     18  C   UNL d   1       0.929  -5.601  -0.003  0.00  0.00     0.001 A 
ATOM     19  C   UNL d   1       0.402  -4.869  -1.062  0.00  0.00     0.002 A 
ATOM     20  C   UNL d   1       0.361  -3.475  -0.992  0.00  0.00     0.031 A 
ENDBRANCH   1  14
BRANCH   2  21
ATOM     21  C   UNL d   1       3.337   1.443  -0.086  0.00  0.00     0.183 C 
BRANCH  21  22
ATOM     22  C   UNL d   1       3.899   1.901   1.232  0.00  0.00     0.001 A 
ATOM     23  S   UNL d   1       4.186   3.574   1.495  0.00  0.00    -0.105 SA
ATOM     24  C   UNL d   1       4.959   3.278   2.989  0.00  0.00     0.050 A 
ATOM     25  C   UNL d   1       4.958   1.940   3.313  0.00  0.00     0.008 A 
ATOM     26  C   UNL d   1       4.335   1.146   2.305  0.00  0.00     0.017 A 
ENDBRANCH  21  22
ENDBRANCH   2  21
TORSDOF 3
