REMARK  1 active torsions:
REMARK  status: ('A' for Active; 'I' for Inactive)
REMARK    1  A    between atoms: N_10  and  C_7 
ROOT
ATOM      1  C   UNL d   1      -0.143  -1.353  -0.348  0.00  0.00     0.196 C 
ATOM      2  C   UNL d   1       1.190  -0.731  -0.126  0.00  0.00     0.055 A 
ATOM      3  C   UNL d   1       1.213   0.682  -0.097  0.00  0.00     0.031 A 
ATOM      4  C   UNL d   1      -0.034   1.485  -0.126  0.00  0.00     0.194 C 
ATOM      5  C   UNL d   1      -1.375  -0.585  -0.102  0.00  0.00     0.029 A 
ATOM      6  C   UNL d   1      -1.333   0.800  -0.074  0.00  0.00     0.029 A 
ATOM      7  C   UNL d   1       2.409  -1.452  -0.061  0.00  0.00     0.043 A 
ATOM      8  O   UNL d   1      -0.288  -2.463  -0.853  0.00  0.00    -0.286 OA
ATOM      9  O   UNL d   1       0.007   2.710  -0.163  0.00  0.00    -0.287 OA
ATOM     10  C   UNL d   1       2.421   1.390  -0.039  0.00  0.00     0.017 A 
ATOM     11  C   UNL d   1      -2.607  -1.250  -0.016  0.00  0.00     0.016 A 
ATOM     12  C   UNL d   1      -2.523   1.536  -0.019  0.00  0.00     0.016 A 
ATOM     13  C   UNL d   1       3.620   0.702  -0.017  0.00  0.00     0.003 A 
ATOM     14  C   UNL d   1       3.605  -0.691  -0.018  0.00  0.00     0.030 A 
ATOM     15  C   UNL d   1      -3.793  -0.519   0.058  0.00  0.00     0.001 A 
ATOM     16  C   UNL d   1      -3.752   0.874   0.036  0.00  0.00     0.001 A 
ENDROOT
BRANCH   7  17
ATOM     17  N   UNL d   1       2.626  -2.814   0.126  0.00  0.00    -0.393 N 
ATOM     18  C   UNL d   1       1.642  -3.854   0.320  0.00  0.00     0.146 C 
ATOM     19  H   UNL d   1       3.471  -3.155  -0.326  0.00  0.00     0.159 HD
ENDBRANCH   7  17
TORSDOF 1
