REMARK  3 active torsions:
REMARK  status: ('A' for Active; 'I' for Inactive)
REMARK    1  A    between atoms: C_9  and  C_1 
REMARK    2  A    between atoms: C_8  and  C_3 
REMARK    3  A    between atoms: O_24  and  C_9 
ROOT
ATOM      1  C   UNL d   1       2.842  -0.840   0.106  0.00  0.00     0.052 C 
ATOM      2  C   UNL d   1       0.293  -0.740   0.069  0.00  0.00     0.023 C 
ATOM      3  C   UNL d   1       1.520  -1.575   0.440  0.00  0.00     0.098 C 
ATOM      4  C   UNL d   1       0.385   0.598  -0.021  0.00  0.00     0.021 C 
ATOM      5  C   UNL d   1       2.831   0.516  -0.025  0.00  0.00     0.018 C 
ATOM      6  N   UNL d   1       1.621   1.202   0.093  0.00  0.00    -0.362 N 
ATOM      7  C   UNL d   1      -1.004  -1.414  -0.199  0.00  0.00     0.159 C 
ATOM      8  C   UNL d   1      -0.796   1.507  -0.232  0.00  0.00     0.067 C 
ATOM      9  C   UNL d   1      -2.162   0.839   0.028  0.00  0.00    -0.036 C 
ATOM     10  C   UNL d   1      -2.179  -0.549  -0.630  0.00  0.00     0.092 C 
ATOM     11  O   UNL d   1      -1.097  -2.638  -0.167  0.00  0.00    -0.293 OA
ATOM     12  C   UNL d   1       3.983   1.443  -0.323  0.00  0.00     0.069 C 
ATOM     13  C   UNL d   1      -3.267   1.719  -0.589  0.00  0.00     0.015 C 
ATOM     14  C   UNL d   1      -2.437   0.719   1.541  0.00  0.00     0.015 C 
ATOM     15  H   UNL d   1       1.655   2.212  -0.014  0.00  0.00     0.165 HD
ENDROOT
BRANCH   3  16
ATOM     16  C   UNL d   1       1.465  -1.913   1.942  0.00  0.00    -0.044 A 
ATOM     17  C   UNL d   1       1.429  -3.243   2.387  0.00  0.00     0.018 A 
ATOM     18  C   UNL d   1       1.336  -3.542   3.760  0.00  0.00    -0.024 A 
ATOM     19  C   UNL d   1       1.286  -4.969   4.222  0.00  0.00     0.044 C 
ATOM     20  C   UNL d   1       1.315  -2.497   4.689  0.00  0.00     0.076 A 
ATOM     21  C   UNL d   1       0.778  -5.046   5.657  0.00  0.00     0.042 C 
ATOM     22  C   UNL d   1       1.462  -3.994   6.543  0.00  0.00     0.061 C 
ATOM     23  O   UNL d   1       1.249  -2.665   6.043  0.00  0.00    -0.340 OA
ATOM     24  C   UNL d   1       0.819  -4.005   7.937  0.00  0.00     0.046 C 
ATOM     25  C   UNL d   1       2.971  -4.237   6.693  0.00  0.00     0.046 C 
ATOM     26  C   UNL d   1       1.341  -1.176   4.262  0.00  0.00     0.038 A 
ATOM     27  C   UNL d   1       1.420  -0.886   2.905  0.00  0.00     0.011 A 
ENDBRANCH   3  16
BRANCH   1  28
ATOM     28  C   UNL d   1       4.007  -1.760  -0.079  0.00  0.00     0.291 C 
ATOM     29  O   UNL d   1       3.897  -2.954  -0.301  0.00  0.00    -0.260 OA
BRANCH  28  30
ATOM     30  O   UNL d   1       5.182  -1.105   0.046  0.00  0.00    -0.323 OA
ATOM     31  C   UNL d   1       6.369  -1.874  -0.157  0.00  0.00     0.213 C 
ENDBRANCH  28  30
ENDBRANCH   1  28
TORSDOF 3
