REMARK  3 active torsions:
REMARK  status: ('A' for Active; 'I' for Inactive)
REMARK    1  A    between atoms: C_6  and  S_1 
REMARK    2  A    between atoms: N_7  and  S_1 
REMARK    3  A    between atoms: C_2  and  N_8 
ROOT
ATOM      1  N   UNL d   1       0.640  -1.235  -1.218  0.00  0.00    -0.205 NA
ATOM      2  N   UNL d   1       0.913  -2.895  -3.738  0.00  0.00    -0.360 N 
ATOM      3  C   UNL d   1       1.018  -0.684  -2.579  0.00  0.00     0.127 C 
ATOM      4  C   UNL d   1       0.425  -1.511  -3.732  0.00  0.00     0.140 C 
ATOM      5  C   UNL d   1       0.551  -3.741  -1.419  0.00  0.00     0.035 C 
ATOM      6  C   UNL d   1       1.361  -2.533  -0.968  0.00  0.00     0.109 C 
ATOM      7  C   UNL d   1       0.183  -3.832  -2.897  0.00  0.00     0.126 C 
ENDROOT
BRANCH   1   8
ATOM      8  S   UNL d   1       0.938  -0.115   0.069  0.00  0.00     0.244 S 
ATOM      9  O   UNL d   1       0.513  -0.713   1.316  0.00  0.00    -0.206 OA
ATOM     10  O   UNL d   1       2.308   0.336  -0.095  0.00  0.00    -0.206 OA
BRANCH   8  11
ATOM     11  C   UNL d   1      -0.147   1.272  -0.251  0.00  0.00     0.082 A 
ATOM     12  C   UNL d   1      -1.554   1.169  -0.218  0.00  0.00    -0.017 A 
ATOM     13  C   UNL d   1      -2.296   2.351  -0.444  0.00  0.00     0.041 A 
ATOM     14  C   UNL d   1      -2.294  -0.117   0.039  0.00  0.00     0.052 C 
ATOM     15 CL   UNL d   1      -4.029   2.351  -0.461  0.00  0.00    -0.084 Cl
ATOM     16  C   UNL d   1      -1.667   3.582  -0.664  0.00  0.00     0.024 A 
ATOM     17  C   UNL d   1      -0.281   3.667  -0.673  0.00  0.00     0.003 A 
ATOM     18  C   UNL d   1       0.477   2.517  -0.470  0.00  0.00     0.025 A 
ENDBRANCH   8  11
ENDBRANCH   1   8
BRANCH   2  19
ATOM     19  C   UNL d   1       1.996  -3.226  -4.505  0.00  0.00     0.147 A 
ATOM     20  N   UNL d   1       2.611  -2.359  -5.282  0.00  0.00    -0.336 N 
ATOM     21  C   UNL d   1       3.621  -2.958  -6.016  0.00  0.00     0.051 A 
ATOM     22  HN  UNL d   1       2.374  -1.368  -5.336  1.00  0.00     0.168 HD
ATOM     23  C   UNL d   1       4.437  -2.326  -6.978  0.00  0.00     0.032 A 
ATOM     24  C   UNL d   1       3.816  -4.312  -5.759  0.00  0.00     0.036 A 
ATOM     25  C   UNL d   1       5.416  -3.062  -7.656  0.00  0.00     0.026 A 
ATOM     26  C   UNL d   1       5.587  -4.415  -7.379  0.00  0.00     0.035 A 
ATOM     27  C   UNL d   1       4.797  -5.067  -6.429  0.00  0.00     0.045 A 
ATOM     28 CL   UNL d   1       6.794  -5.306  -8.226  0.00  0.00    -0.084 Cl
ATOM     29  S   UNL d   1       2.695  -4.810  -4.559  0.00  0.00    -0.052 SA
ENDBRANCH   2  19
TORSDOF 3
