REMARK  4 active torsions:
REMARK  status: ('A' for Active; 'I' for Inactive)
REMARK    1  A    between atoms: O_11  and  C_2 
REMARK    2  A    between atoms: C_13  and  O_11 
REMARK    3  A    between atoms: C_12  and  C_13 
REMARK    4  A    between atoms: C_15  and  C_12 
ROOT
ATOM      1  C   UNL d   1       0.026   1.151   1.318  0.00  0.00     0.042 A 
ATOM      2  C   UNL d   1       1.181   1.556   0.649  0.00  0.00     0.156 A 
ATOM      3  C   UNL d   1       0.111  -0.105   1.926  0.00  0.00     0.049 A 
ATOM      4  N   UNL d   1       2.302   0.819   0.541  0.00  0.00    -0.332 N 
ATOM      5  HN  UNL d   1       3.126   1.142   0.034  1.00  0.00     0.168 HD
ATOM      6  N   UNL d   1       1.213  -0.864   1.847  0.00  0.00    -0.351 N 
ATOM      7  HN  UNL d   1       1.262  -1.779   2.295  1.00  0.00     0.166 HD
ATOM      8  C   UNL d   1      -1.156   1.922   1.420  0.00  0.00     0.020 A 
ATOM      9  C   UNL d   1      -0.990  -0.567   2.636  0.00  0.00     0.054 A 
ATOM     10  C   UNL d   1       2.250  -0.369   1.152  0.00  0.00     0.182 A 
ATOM     11  C   UNL d   1      -2.158   0.191   2.740  0.00  0.00     0.036 A 
ATOM     12  C   UNL d   1      -2.248   1.437   2.132  0.00  0.00     0.025 A 
ATOM     13 CL   UNL d   1      -3.497  -0.419   3.632  0.00  0.00    -0.084 Cl
ENDROOT
BRANCH   2  14
ATOM     14  O   UNL d   1       1.145   2.782   0.021  0.00  0.00    -0.327 OA
BRANCH  14  15
ATOM     15  C   UNL d   1       2.415   3.425  -0.028  0.00  0.00     0.261 C 
BRANCH  15  16
ATOM     16  C   UNL d   1       2.188   4.932  -0.004  0.00  0.00     0.183 C 
ATOM     17  O   UNL d   1       1.065   5.436   0.042  0.00  0.00    -0.290 OA
BRANCH  16  18
ATOM     18  C   UNL d   1       3.382   5.831  -0.004  0.00  0.00     0.012 A 
ATOM     19  C   UNL d   1       4.693   5.341  -0.070  0.00  0.00     0.015 A 
ATOM     20  C   UNL d   1       5.774   6.226  -0.047  0.00  0.00     0.001 A 
ATOM     21  C   UNL d   1       5.554   7.601   0.041  0.00  0.00     0.000 A 
ATOM     22  C   UNL d   1       4.254   8.096   0.103  0.00  0.00     0.001 A 
ATOM     23  C   UNL d   1       3.172   7.215   0.081  0.00  0.00     0.015 A 
ENDBRANCH  16  18
ENDBRANCH  15  16
ENDBRANCH  14  15
ENDBRANCH   2  14
TORSDOF 4
