REMARK  2 active torsions:
REMARK  status: ('A' for Active; 'I' for Inactive)
REMARK    1  A    between atoms: C_7  and  O_12 
REMARK    2  A    between atoms: C_8  and  O_13 
ROOT
ATOM      1  C   UNL d   1      -0.310   0.823   0.924  0.00  0.00     0.026 C 
ATOM      2  C   UNL d   1       0.668   0.539  -0.722  0.00  0.00     0.026 C 
ATOM      3  C   UNL d   1      -1.217  -0.777   1.079  0.00  0.00    -0.003 C 
ATOM      4  C   UNL d   1       0.522  -1.286  -0.915  0.00  0.00    -0.003 C 
ATOM      5  C   UNL d   1       0.686  -0.911   0.421  0.00  0.00    -0.003 C 
ATOM      6  C   UNL d   1      -1.134  -0.348  -0.249  0.00  0.00    -0.003 C 
ATOM      7  C   UNL d   1      -1.304   1.882   0.640  0.00  0.00     0.123 C 
ATOM      8  C   UNL d   1       2.082   0.857  -0.426  0.00  0.00     0.123 C 
ATOM      9  C   UNL d   1      -0.691  -2.156   0.074  0.00  0.00     0.011 C 
ATOM     10  C   UNL d   1      -1.933   1.021  -0.373  0.00  0.00     0.037 C 
ATOM     11  C   UNL d   1       2.112  -0.226   0.567  0.00  0.00     0.037 C 
ENDROOT
BRANCH   7  12
ATOM     12  O   UNL d   1      -2.152   2.111   1.745  0.00  0.00    -0.395 OA
ATOM     13  H   UNL d   1      -1.623   2.583   2.411  0.00  0.00     0.210 HD
ENDBRANCH   7  12
BRANCH   8  14
ATOM     14  O   UNL d   1       2.204   2.142   0.141  0.00  0.00    -0.395 OA
ATOM     15  H   UNL d   1       3.040   2.165   0.637  0.00  0.00     0.210 HD
ENDBRANCH   8  14
TORSDOF 2
