REMARK  3 active torsions:
REMARK  status: ('A' for Active; 'I' for Inactive)
REMARK    1  A    between atoms: C_7  and  C_1 
REMARK    2  A    between atoms: C_13  and  C_8 
REMARK    3  A    between atoms: O_22  and  C_19 
ROOT
ATOM      1  C   UNL d   1      -0.814   1.463   0.029  0.00  0.00     0.144 A 
ATOM      2  N   UNL d   1       0.309   0.645   0.032  0.00  0.00    -0.235 N 
ATOM      3  C   UNL d   1       0.163  -0.751   0.043  0.00  0.00     0.129 A 
ATOM      4  C   UNL d   1      -2.042   0.904   0.039  0.00  0.00     0.067 A 
ATOM      5  N   UNL d   1      -1.057  -1.363   0.064  0.00  0.00    -0.340 N 
ATOM      6  HN  UNL d   1      -1.143  -2.380   0.072  1.00  0.00     0.167 HD
ATOM      7  C   UNL d   1      -2.107  -0.592   0.075  0.00  0.00     0.046 A 
ATOM      8  N   UNL d   1       1.621   0.988   0.012  0.00  0.00    -0.303 N 
ATOM      9  HN  UNL d   1       2.016   1.929   0.006  1.00  0.00     0.186 HD
ATOM     10  C   UNL d   1       1.434  -1.276   0.025  0.00  0.00     0.069 A 
ATOM     11  C   UNL d   1       2.284  -0.166   0.001  0.00  0.00     0.111 A 
ENDROOT
BRANCH   7  12
ATOM     12  C   UNL d   1      -3.467  -1.210   0.097  0.00  0.00    -0.009 A 
ATOM     13  C   UNL d   1      -4.565  -0.580   0.698  0.00  0.00     0.016 A 
ATOM     14  C   UNL d   1      -5.828  -1.186   0.678  0.00  0.00     0.037 A 
ATOM     15  C   UNL d   1      -6.000  -2.431   0.074  0.00  0.00     0.068 A 
ATOM     16  C   UNL d   1      -4.907  -3.063  -0.519  0.00  0.00     0.037 A 
ATOM     17  C   UNL d   1      -3.643  -2.465  -0.497  0.00  0.00     0.016 A 
BRANCH  15  18
ATOM     18  O   UNL d   1      -7.189  -3.099  -0.030  0.00  0.00    -0.356 OA
ATOM     19  C   UNL d   1      -8.136  -2.841   1.000  0.00  0.00     0.210 C 
ENDBRANCH  15  18
ENDBRANCH   7  12
BRANCH   1  20
ATOM     20  C   UNL d   1      -0.643   2.935   0.002  0.00  0.00     0.434 C 
ATOM     21  F   UNL d   1       0.622   3.409  -0.046  0.00  0.00    -0.165 F 
ATOM     22  F   UNL d   1      -1.293   3.472  -1.069  0.00  0.00    -0.165 F 
ATOM     23  F   UNL d   1      -1.222   3.501   1.098  0.00  0.00    -0.165 F 
ENDBRANCH   1  20
TORSDOF 3
