REMARK  4 active torsions:
REMARK  status: ('A' for Active; 'I' for Inactive)
REMARK    1  A    between atoms: S_6  and  C_1 
REMARK    2  A    between atoms: C_5  and  S_6 
REMARK    3  A    between atoms: C_9  and  C_5 
REMARK    4  A    between atoms: C_10  and  C_5 
ROOT
ATOM      1  C   UNL d   1      -1.975  -0.955  -0.411  0.00  0.00     0.114 A 
ATOM      2  N   UNL d   1      -1.786   0.260   0.042  0.00  0.00    -0.344 N 
ATOM      3  HN  UNL d   1      -2.524   0.905   0.323  1.00  0.00     0.167 HD
ATOM      4  S   UNL d   1      -0.568  -1.837  -0.827  0.00  0.00    -0.063 SA
ATOM      5  C   UNL d   1      -0.425   0.536   0.078  0.00  0.00     0.050 A 
ATOM      6  C   UNL d   1       0.405  -0.497  -0.365  0.00  0.00     0.034 A 
ATOM      7  C   UNL d   1       0.169   1.739   0.513  0.00  0.00     0.031 A 
ATOM      8  C   UNL d   1       1.804  -0.370  -0.392  0.00  0.00     0.021 A 
ATOM      9  C   UNL d   1       1.562   1.874   0.492  0.00  0.00     0.002 A 
ATOM     10  C   UNL d   1       2.367   0.832   0.045  0.00  0.00     0.002 A 
ENDROOT
BRANCH   1  11
ATOM     11  S   UNL d   1      -3.566  -1.658  -0.572  0.00  0.00    -0.085 SA
BRANCH  11  12
ATOM     12  C   UNL d   1      -4.656  -0.214  -0.379  0.00  0.00     0.192 C 
BRANCH  12  13
ATOM     13  C   UNL d   1      -4.654   0.640  -1.632  0.00  0.00     0.144 C 
ATOM     14  O   UNL d   1      -5.290   0.326  -2.642  0.00  0.00    -0.297 OA
ATOM     15  C   UNL d   1      -3.805   1.885  -1.643  0.00  0.00     0.092 C 
ENDBRANCH  12  13
BRANCH  12  16
ATOM     16  C   UNL d   1      -6.062  -0.676  -0.029  0.00  0.00     0.144 C 
ATOM     17  O   UNL d   1      -6.652  -0.193   0.946  0.00  0.00    -0.297 OA
ATOM     18  C   UNL d   1      -6.747  -1.728  -0.872  0.00  0.00     0.092 C 
ENDBRANCH  12  16
ENDBRANCH  11  12
ENDBRANCH   1  11
TORSDOF 4
