REMARK  9 active torsions:
REMARK  status: ('A' for Active; 'I' for Inactive)
REMARK    1  A    between atoms: O_16  and  C_1 
REMARK    2  A    between atoms: O_18  and  C_2 
REMARK    3  A    between atoms: O_19  and  C_3 
REMARK    4  A    between atoms: C_4  and  C_7 
REMARK    5  A    between atoms: O_20  and  C_4 
REMARK    6  A    between atoms: N_12  and  N_5 
REMARK    7  A    between atoms: C_13  and  C_10 
REMARK    8  A    between atoms: C_17  and  N_12 
REMARK    9  A    between atoms: C_23  and  O_20 
ROOT
ATOM      1  N   UNL d   1      -3.692  -0.666  -0.253  0.00  0.00    -0.311 N 
ATOM      2  HN  UNL d   1      -3.375  -1.630  -0.157  1.00  0.00     0.186 HD
ATOM      3  C   UNL d   1      -2.880   0.335  -0.193  0.00  0.00     0.118 C 
ENDROOT
BRANCH   1   4
ATOM      4  N   UNL d   1      -4.996  -0.348  -0.452  0.00  0.00    -0.301 N 
ATOM      5  H   UNL d   1      -5.245   0.488  -0.976  0.00  0.00     0.187 HD
BRANCH   4   6
ATOM      6  C   UNL d   1      -5.910  -1.413  -0.595  0.00  0.00     0.048 A 
ATOM      7  C   UNL d   1      -5.529  -2.741  -0.362  0.00  0.00     0.032 A 
ATOM      8  C   UNL d   1      -6.460  -3.778  -0.403  0.00  0.00     0.020 A 
ATOM      9  C   UNL d   1      -7.809  -3.500  -0.647  0.00  0.00     0.039 A 
ATOM     10  C   UNL d   1      -8.207  -2.176  -0.868  0.00  0.00     0.020 A 
ATOM     11  C   UNL d   1      -7.264  -1.142  -0.835  0.00  0.00     0.032 A 
BRANCH   9  12
ATOM     12  C   UNL d   1      -8.848  -4.560  -0.578  0.00  0.00     0.293 C 
ATOM     13  O   UNL d   1     -10.045  -4.347  -0.672  0.00  0.00    -0.259 OA
BRANCH  12  14
ATOM     14  O   UNL d   1      -8.262  -5.748  -0.291  0.00  0.00    -0.318 OA
BRANCH  14  15
ATOM     15  C   UNL d   1      -9.123  -6.767   0.229  0.00  0.00     0.174 C 
ATOM     16  C   UNL d   1      -9.182  -6.610   1.738  0.00  0.00     0.034 C 
ENDBRANCH  14  15
ENDBRANCH  12  14
ENDBRANCH   9  12
ENDBRANCH   4   6
ENDBRANCH   1   4
BRANCH   3  17
ATOM     17  C   UNL d   1      -1.435   0.140   0.047  0.00  0.00    -0.014 A 
ATOM     18  C   UNL d   1      -0.897  -1.135   0.216  0.00  0.00     0.052 A 
ATOM     19  C   UNL d   1       0.471  -1.307   0.471  0.00  0.00     0.105 A 
ATOM     20  C   UNL d   1       1.300  -0.173   0.549  0.00  0.00     0.135 A 
ATOM     21  C   UNL d   1       0.757   1.112   0.299  0.00  0.00     0.105 A 
ATOM     22  C   UNL d   1      -0.617   1.262   0.093  0.00  0.00     0.052 A 
BRANCH  19  23
ATOM     23  O   UNL d   1       0.798  -2.630   0.611  0.00  0.00    -0.353 OA
ATOM     24  C   UNL d   1       2.143  -2.991   0.876  0.00  0.00     0.210 C 
ENDBRANCH  19  23
BRANCH  20  25
ATOM     25  O   UNL d   1       2.651  -0.329   0.738  0.00  0.00    -0.351 OA
ATOM     26  C   UNL d   1       3.162   0.347   1.889  0.00  0.00     0.210 C 
ENDBRANCH  20  25
BRANCH  21  27
ATOM     27  O   UNL d   1       1.638   2.167   0.268  0.00  0.00    -0.353 OA
ATOM     28  C   UNL d   1       1.183   3.371  -0.339  0.00  0.00     0.210 C 
ENDBRANCH  21  27
ENDBRANCH   3  17
TORSDOF 9
