REMARK  8 active torsions:
REMARK  status: ('A' for Active; 'I' for Inactive)
REMARK       I    between atoms: N_2  and  C_1 
REMARK    1  A    between atoms: C_3  and  C_1 
REMARK    2  A    between atoms: C_8  and  N_2 
REMARK    3  A    between atoms: O_7  and  C_11 
REMARK    4  A    between atoms: C_10  and  O_7 
REMARK    5  A    between atoms: C_9  and  C_8 
REMARK    6  A    between atoms: C_11  and  C_9 
REMARK    7  A    between atoms: O_20  and  C_9 
REMARK    8  A    between atoms: O_21  and  C_12 
ROOT
ATOM      1  C   UNL d   1       3.622  -3.682  -0.167  0.00  0.00     0.160 C 
ENDROOT
BRANCH   1   2
ATOM      2  C   UNL d   1       2.637  -2.505  -0.171  0.00  0.00     0.156 C 
BRANCH   2   3
ATOM      3  N   UNL d   1       1.779  -2.510  -1.340  0.00  0.00    -0.354 N 
ATOM      4  C   UNL d   1       0.805  -1.550  -1.509  0.00  0.00     0.251 C 
ATOM      5  O   UNL d   1       0.649  -0.617  -0.729  0.00  0.00    -0.268 OA
ATOM      6  H   UNL d   1       1.928  -3.232  -2.033  0.00  0.00     0.162 HD
BRANCH   4   7
ATOM      7  C   UNL d   1      -0.060  -1.679  -2.716  0.00  0.00     0.032 A 
ATOM      8  C   UNL d   1      -0.340  -2.919  -3.301  0.00  0.00     0.017 A 
ATOM      9  C   UNL d   1      -1.166  -2.991  -4.426  0.00  0.00     0.007 A 
ATOM     10  C   UNL d   1      -1.728  -1.831  -4.974  0.00  0.00    -0.062 A 
ATOM     11  C   UNL d   1      -1.458  -0.595  -4.376  0.00  0.00     0.007 A 
ATOM     12  C   UNL d   1      -2.621  -1.929  -6.176  0.00  0.00     0.048 C 
ATOM     13  C   UNL d   1      -0.633  -0.519  -3.250  0.00  0.00     0.017 A 
ENDBRANCH   4   7
ENDBRANCH   2   3
ENDBRANCH   1   2
BRANCH   1  14
ATOM     14  C   UNL d   1       4.487  -3.637   1.102  0.00  0.00     0.209 C 
BRANCH  14  15
ATOM     15  O   UNL d   1       5.460  -4.685   1.065  0.00  0.00    -0.349 OA
BRANCH  15  16
ATOM     16  C   UNL d   1       6.264  -4.808   2.168  0.00  0.00     0.069 A 
ATOM     17  C   UNL d   1       6.291  -3.940   3.260  0.00  0.00     0.039 A 
ATOM     18  C   UNL d   1       7.158  -4.174   4.336  0.00  0.00     0.039 A 
ATOM     19  C   UNL d   1       8.009  -5.277   4.329  0.00  0.00     0.068 A 
ATOM     20  C   UNL d   1       7.987  -6.142   3.234  0.00  0.00     0.039 A 
ATOM     21  C   UNL d   1       7.122  -5.909   2.160  0.00  0.00     0.039 A 
BRANCH  19  22
ATOM     22  O   UNL d   1       8.897  -5.610   5.315  0.00  0.00    -0.356 OA
ATOM     23  C   UNL d   1       8.929  -4.766   6.460  0.00  0.00     0.210 C 
ENDBRANCH  19  22
ENDBRANCH  15  16
ENDBRANCH  14  15
ENDBRANCH   1  14
BRANCH   1  24
ATOM     24  O   UNL d   1       2.882  -4.911  -0.253  0.00  0.00    -0.392 OA
ATOM     25  H   UNL d   1       2.438  -5.056   0.600  0.00  0.00     0.210 HD
ENDBRANCH   1  24
TORSDOF 8
