REMARK  3 active torsions:
REMARK  status: ('A' for Active; 'I' for Inactive)
REMARK    1  A    between atoms: C_8  and  N_1 
REMARK    2  A    between atoms: C_10  and  C_5 
REMARK    3  A    between atoms: C_11  and  C_8 
ROOT
ATOM      1  N   UNL d   1       2.348  -0.603  -0.032  0.00  0.00    -0.252 N 
ATOM      2  N   UNL d   1       2.312   0.774  -0.014  0.00  0.00    -0.294 N 
ATOM      3  HN  UNL d   1       3.183   1.306  -0.017  1.00  0.00     0.187 HD
ATOM      4  C   UNL d   1       1.222  -1.409   0.059  0.00  0.00     0.273 C 
ATOM      5  C   UNL d   1       1.170   1.396   0.005  0.00  0.00     0.070 C 
ATOM      6  C   UNL d   1      -0.079  -0.720   0.033  0.00  0.00     0.046 A 
ATOM      7  C   UNL d   1      -0.129   0.666  -0.058  0.00  0.00     0.009 A 
ATOM      8  O   UNL d   1       1.252  -2.636   0.137  0.00  0.00    -0.266 OA
ATOM      9  C   UNL d   1      -1.262  -1.478   0.047  0.00  0.00     0.018 A 
ATOM     10  C   UNL d   1      -1.377   1.284  -0.225  0.00  0.00     0.015 A 
ATOM     11  C   UNL d   1      -2.556   0.535  -0.191  0.00  0.00     0.001 A 
ATOM     12  C   UNL d   1      -2.501  -0.847  -0.042  0.00  0.00     0.001 A 
ENDROOT
BRANCH   1  13
ATOM     13  C   UNL d   1       3.670  -1.223  -0.101  0.00  0.00     0.191 C 
BRANCH  13  14
ATOM     14  C   UNL d   1       4.114  -1.468  -1.527  0.00  0.00    -0.038 A 
ATOM     15  C   UNL d   1       4.855  -0.499  -2.218  0.00  0.00     0.009 A 
ATOM     16  C   UNL d   1       5.226  -0.705  -3.548  0.00  0.00     0.001 A 
ATOM     17  C   UNL d   1       4.858  -1.879  -4.203  0.00  0.00     0.000 A 
ATOM     18  C   UNL d   1       4.128  -2.853  -3.525  0.00  0.00     0.001 A 
ATOM     19  C   UNL d   1       3.758  -2.650  -2.194  0.00  0.00     0.009 A 
ENDBRANCH  13  14
ENDBRANCH   1  13
BRANCH   5  20
ATOM     20  C   UNL d   1       1.227   2.893   0.105  0.00  0.00    -0.007 A 
ATOM     21  C   UNL d   1       2.243   3.574  -0.580  0.00  0.00     0.014 A 
ATOM     22  C   UNL d   1       2.325   4.968  -0.516  0.00  0.00     0.001 A 
ATOM     23  C   UNL d   1       1.390   5.690   0.224  0.00  0.00     0.000 A 
ATOM     24  C   UNL d   1       0.400   5.019   0.938  0.00  0.00     0.001 A 
ATOM     25  C   UNL d   1       0.341   3.623   0.906  0.00  0.00     0.014 A 
ENDBRANCH   5  20
TORSDOF 3
