REMARK  2 active torsions:
REMARK  status: ('A' for Active; 'I' for Inactive)
REMARK    1  A    between atoms: C_5  and  C_1 
REMARK    2  A    between atoms: O_8  and  C_5 
ROOT
ATOM      1  C   UNL d   1      -1.585  -1.257  -0.017  0.00  0.00     0.067 A 
ATOM      2  C   UNL d   1      -2.378  -0.119  -0.024  0.00  0.00     0.107 A 
ATOM      3  C   UNL d   1      -0.223  -0.801  -0.010  0.00  0.00     0.008 A 
ATOM      4  N   UNL d   1      -1.566   0.980  -0.020  0.00  0.00    -0.364 N 
ATOM      5  C   UNL d   1      -0.247   0.596  -0.016  0.00  0.00     0.043 A 
ATOM      6  C   UNL d   1       1.035  -1.442  -0.004  0.00  0.00     0.015 A 
ATOM      7  C   UNL d   1       0.913   1.379  -0.018  0.00  0.00     0.030 A 
ATOM      8  C   UNL d   1       2.206  -0.674  -0.009  0.00  0.00     0.001 A 
ATOM      9  C   UNL d   1       2.143   0.717  -0.017  0.00  0.00     0.002 A 
ATOM     10  H   UNL d   1      -1.881   1.940  -0.025  0.00  0.00     0.165 HD
ENDROOT
BRANCH   1  11
ATOM     11  C   UNL d   1      -2.078  -2.631  -0.018  0.00  0.00     0.295 C 
ATOM     12  O   UNL d   1      -1.353  -3.618  -0.005  0.00  0.00    -0.259 OA
BRANCH  11  13
ATOM     13  O   UNL d   1      -3.445  -2.686  -0.038  0.00  0.00    -0.322 OA
ATOM     14  C   UNL d   1      -3.988  -4.004  -0.045  0.00  0.00     0.213 C 
ENDBRANCH  11  13
ENDBRANCH   1  11
TORSDOF 2
