REMARK  4 active torsions:
REMARK  status: ('A' for Active; 'I' for Inactive)
REMARK       I    between atoms: N_7  and  C_1 
REMARK    1  A    between atoms: C_9  and  C_1 
REMARK    2  A    between atoms: N_6  and  C_9 
REMARK    3  A    between atoms: C_8  and  N_6 
REMARK    4  A    between atoms: N_12  and  N_7 
ROOT
ATOM      1  N   UNL d   1       3.079  -1.021   1.043  0.00  0.00    -0.284 NA
ATOM      2  H   UNL d   1       2.661  -1.947   0.907  0.00  0.00     0.128 HD
ENDROOT
BRANCH   1   3
ATOM      3  C   UNL d   1       2.533  -0.083   0.034  0.00  0.00     0.196 C 
BRANCH   3   4
ATOM      4  C   UNL d   1       1.025   0.108   0.203  0.00  0.00     0.244 C 
ATOM      5  O   UNL d   1       0.294   0.486  -0.713  0.00  0.00    -0.271 OA
ATOM      6  N   UNL d   1       0.560  -0.150   1.485  0.00  0.00    -0.293 N 
ATOM      7  H   UNL d   1       1.216  -0.559   2.156  0.00  0.00     0.183 HD
BRANCH   6   8
ATOM      8  N   UNL d   1      -0.827  -0.161   1.742  0.00  0.00    -0.247 NA
ATOM      9  H   UNL d   1      -1.303  -0.140   0.828  0.00  0.00     0.143 HD
ATOM     10  H   UNL d   1      -1.074   0.739   2.162  0.00  0.00     0.143 HD
ENDBRANCH   6   8
ENDBRANCH   3   4
ENDBRANCH   1   3
BRANCH   1  11
ATOM     11  C   UNL d   1       4.478  -1.184   1.061  0.00  0.00     0.010 A 
ATOM     12  C   UNL d   1       5.066  -1.639   2.249  0.00  0.00     0.049 A 
ATOM     13  C   UNL d   1       6.439  -1.907   2.325  0.00  0.00     0.057 A 
ATOM     14 CL   UNL d   1       7.077  -2.429   3.844  0.00  0.00    -0.082 Cl
ATOM     15  C   UNL d   1       7.240  -1.755   1.191  0.00  0.00     0.055 A 
ATOM     16  C   UNL d   1       6.660  -1.341  -0.008  0.00  0.00     0.027 A 
ATOM     17 CL   UNL d   1       8.936  -2.078   1.196  0.00  0.00    -0.083 Cl
ATOM     18  C   UNL d   1       5.290  -1.066  -0.073  0.00  0.00     0.025 A 
ENDBRANCH   1  11
TORSDOF 4
