REMARK  7 active torsions:
REMARK  status: ('A' for Active; 'I' for Inactive)
REMARK    1  A    between atoms: C_2  and  S_1 
REMARK    2  A    between atoms: N_5  and  S_1 
REMARK    3  A    between atoms: C_11  and  C_4 
REMARK    4  A    between atoms: C_10  and  N_5 
REMARK    5  A    between atoms: C_14  and  C_10 
REMARK    6  A    between atoms: C_15  and  C_14 
REMARK    7  A    between atoms: O_16  and  C_14 
ROOT
ATOM      1  S   UNL d   1       1.160  -0.024   0.039  0.00  0.00     0.248 S 
ATOM      2  O   UNL d   1       0.538  -0.613  -1.124  0.00  0.00    -0.205 OA
ATOM      3  O   UNL d   1       2.599   0.007   0.192  0.00  0.00    -0.205 OA
ENDROOT
BRANCH   1   4
ATOM      4  C   UNL d   1       0.560  -0.966   1.417  0.00  0.00     0.115 A 
ATOM      5  S   UNL d   1       1.046  -0.451   2.973  0.00  0.00    -0.075 SA
ATOM      6  C   UNL d   1       0.330  -1.815   3.743  0.00  0.00     0.033 A 
ATOM      7  C   UNL d   1      -0.372  -2.575   2.822  0.00  0.00     0.023 A 
ATOM      8  C   UNL d   1      -0.226  -2.100   1.488  0.00  0.00     0.034 A 
BRANCH   6   9
ATOM      9  C   UNL d   1       0.506  -2.074   5.182  0.00  0.00     0.049 A 
ATOM     10  N   UNL d   1      -0.518  -2.747   5.767  0.00  0.00    -0.365 N 
ATOM     11  C   UNL d   1      -0.372  -3.092   7.066  0.00  0.00     0.088 A 
ATOM     12  HN  UNL d   1      -1.363  -2.982   5.247  1.00  0.00     0.165 HD
ATOM     13  C   UNL d   1       0.762  -2.821   7.815  0.00  0.00     0.017 A 
ATOM     14  C   UNL d   1       1.802  -2.136   7.202  0.00  0.00     0.004 A 
ATOM     15  C   UNL d   1       1.673  -1.751   5.868  0.00  0.00     0.031 A 
ENDBRANCH   6   9
ENDBRANCH   1   4
BRANCH   1  16
ATOM     16  N   UNL d   1       0.651   1.572   0.169  0.00  0.00    -0.212 NA
ATOM     17  H   UNL d   1       1.441   2.198   0.010  0.00  0.00     0.140 HD
BRANCH  16  18
ATOM     18  C   UNL d   1      -0.585   1.956  -0.555  0.00  0.00     0.141 C 
BRANCH  18  19
ATOM     19  C   UNL d   1      -1.873   1.334   0.020  0.00  0.00     0.165 C 
BRANCH  19  20
ATOM     20  C   UNL d   1      -2.123   1.592   1.495  0.00  0.00    -0.029 A 
ATOM     21  C   UNL d   1      -1.745   2.783   2.135  0.00  0.00     0.010 A 
ATOM     22  C   UNL d   1      -1.989   2.969   3.498  0.00  0.00     0.001 A 
ATOM     23  C   UNL d   1      -2.622   1.974   4.238  0.00  0.00     0.000 A 
ATOM     24  C   UNL d   1      -3.018   0.794   3.615  0.00  0.00     0.001 A 
ATOM     25  C   UNL d   1      -2.777   0.608   2.253  0.00  0.00     0.010 A 
ENDBRANCH  19  20
BRANCH  19  26
ATOM     26  O   UNL d   1      -2.983   1.834  -0.733  0.00  0.00    -0.390 OA
ATOM     27  H   UNL d   1      -3.315   2.625  -0.276  0.00  0.00     0.210 HD
ENDBRANCH  19  26
ENDBRANCH  18  19
ENDBRANCH  16  18
ENDBRANCH   1  16
TORSDOF 7
