REMARK  6 active torsions:
REMARK  status: ('A' for Active; 'I' for Inactive)
REMARK       I    between atoms: C_2  and  N_1 
REMARK    1  A    between atoms: C_3  and  N_1 
REMARK    2  A    between atoms: C_4  and  C_2 
REMARK    3  A    between atoms: N_7  and  C_3 
REMARK    4  A    between atoms: C_5  and  C_13 
REMARK    5  A    between atoms: C_15  and  C_6 
REMARK    6  A    between atoms: C_16  and  N_7 
ROOT
ATOM      1  C   UNL d   1       1.050  -2.560  -0.200  0.00  0.00     0.049 A 
ATOM      2  N   UNL d   1       1.075  -4.668  -1.404  0.00  0.00    -0.373 N 
ATOM      3  HN  UNL d   1       0.683  -5.286  -2.115  1.00  0.00     0.164 HD
ATOM      4  C   UNL d   1       2.173  -2.955   0.531  0.00  0.00     0.040 A 
ATOM      5  C   UNL d   1       2.717  -4.220   0.315  0.00  0.00     0.034 A 
ATOM      6  C   UNL d   1       0.559  -3.437  -1.163  0.00  0.00     0.104 A 
ATOM      7  C   UNL d   1       2.138  -5.034  -0.650  0.00  0.00     0.108 A 
ENDROOT
BRANCH   1   8
ATOM      8  C   UNL d   1       0.413  -1.231  -0.078  0.00  0.00     0.259 C 
ATOM      9  N   UNL d   1       0.630  -0.436   1.042  0.00  0.00    -0.299 N 
ATOM     10  H   UNL d   1       0.249   0.487   0.864  0.00  0.00     0.171 HD
ATOM     11  O   UNL d   1      -0.267  -0.788  -1.002  0.00  0.00    -0.267 OA
BRANCH   9  12
ATOM     12  C   UNL d   1       0.632  -0.685   2.400  0.00  0.00     0.179 C 
ATOM     13  S   UNL d   1       0.055  -2.063   3.150  0.00  0.00    -0.040 SA
BRANCH  12  14
ATOM     14  N   UNL d   1       1.106   0.324   3.201  0.00  0.00    -0.333 N 
ATOM     15  H   UNL d   1       0.951   0.140   4.189  0.00  0.00     0.168 HD
BRANCH  14  16
ATOM     16  C   UNL d   1       1.831   1.504   2.913  0.00  0.00     0.034 A 
ATOM     17  C   UNL d   1       2.359   1.839   1.662  0.00  0.00     0.029 A 
ATOM     18  C   UNL d   1       3.070   3.030   1.480  0.00  0.00     0.002 A 
ATOM     19  C   UNL d   1       3.284   3.889   2.553  0.00  0.00     0.000 A 
ATOM     20  C   UNL d   1       2.787   3.558   3.809  0.00  0.00     0.002 A 
ATOM     21  C   UNL d   1       2.065   2.374   3.987  0.00  0.00     0.029 A 
ENDBRANCH  14  16
ENDBRANCH  12  14
ENDBRANCH   9  12
ENDBRANCH   1   8
BRANCH   5  22
ATOM     22  C   UNL d   1       3.851  -4.660   1.060  0.00  0.00    -0.060 C 
ATOM     23  C   UNL d   1       4.822  -5.035   1.657  0.00  0.00    -0.061 C 
BRANCH  23  24
ATOM     24  C   UNL d   1       6.006  -5.503   2.307  0.00  0.00     0.018 A 
ATOM     25  C   UNL d   1       6.997  -6.131   1.550  0.00  0.00     0.020 A 
ATOM     26  C   UNL d   1       8.156  -6.602   2.167  0.00  0.00     0.001 A 
ATOM     27  C   UNL d   1       8.327  -6.442   3.542  0.00  0.00     0.000 A 
ATOM     28  C   UNL d   1       7.337  -5.810   4.299  0.00  0.00     0.001 A 
ATOM     29  C   UNL d   1       6.177  -5.340   3.684  0.00  0.00     0.020 A 
ENDBRANCH  23  24
ENDBRANCH   5  22
TORSDOF 6
