REMARK  4 active torsions:
REMARK  status: ('A' for Active; 'I' for Inactive)
REMARK    1  A    between atoms: N_2  and  S_1 
REMARK    2  A    between atoms: C_8  and  S_1 
REMARK    3  A    between atoms: N_3  and  C_13 
REMARK    4  A    between atoms: C_6  and  N_5 
ROOT
ATOM      1  N   UNL d   1       0.507  -0.987  -0.056  0.00  0.00    -0.204 NA
ATOM      2  N   UNL d   1      -1.073  -1.965   2.184  0.00  0.00    -0.280 NA
ATOM      3  C   UNL d   1      -0.869  -0.467   0.221  0.00  0.00     0.122 C 
ATOM      4  C   UNL d   1       0.675  -2.377   0.486  0.00  0.00     0.122 C 
ATOM      5  C   UNL d   1       0.303  -2.475   1.980  0.00  0.00     0.111 C 
ATOM      6  C   UNL d   1      -1.216  -0.557   1.721  0.00  0.00     0.111 C 
ENDROOT
BRANCH   1   7
ATOM      7  S   UNL d   1       1.787   0.098   0.220  0.00  0.00     0.243 S 
ATOM      8  O   UNL d   1       3.034  -0.632   0.167  0.00  0.00    -0.206 OA
ATOM      9  O   UNL d   1       1.448   0.946   1.339  0.00  0.00    -0.206 OA
BRANCH   7  10
ATOM     10  C   UNL d   1       1.715   1.085  -1.267  0.00  0.00     0.074 A 
ATOM     11  C   UNL d   1       1.353   2.434  -1.215  0.00  0.00     0.027 A 
ATOM     12  C   UNL d   1       1.304   3.178  -2.399  0.00  0.00     0.037 A 
ATOM     13  C   UNL d   1       1.623   2.563  -3.621  0.00  0.00     0.102 A 
ATOM     14  C   UNL d   1       2.006   1.215  -3.666  0.00  0.00     0.037 A 
ATOM     15  C   UNL d   1       2.053   0.476  -2.483  0.00  0.00     0.027 A 
BRANCH  13  16
ATOM     16  N   UNL d   1       1.545   3.335  -4.870  0.00  0.00    -0.116 N 
ATOM     17  O   UNL d   1       1.172   4.512  -4.795  0.00  0.00    -0.532 OA
ATOM     18  O   UNL d   1       1.846   2.755  -5.923  0.00  0.00    -0.532 OA
ENDBRANCH  13  16
ENDBRANCH   7  10
ENDBRANCH   1   7
BRANCH   2  19
ATOM     19  C   UNL d   1      -1.680  -2.135   3.452  0.00  0.00     0.024 A 
ATOM     20  C   UNL d   1      -3.102  -2.157   3.549  0.00  0.00     0.012 A 
ATOM     21  C   UNL d   1      -3.686  -2.129   4.835  0.00  0.00     0.045 A 
ATOM     22  C   UNL d   1      -3.951  -2.194   2.417  0.00  0.00     0.017 A 
ATOM     23  C   UNL d   1      -5.067  -2.050   4.943  0.00  0.00     0.054 A 
ATOM     24  N   UNL d   1      -2.955  -2.155   5.959  0.00  0.00    -0.365 N 
ATOM     25  C   UNL d   1      -5.885  -2.023   3.814  0.00  0.00     0.036 A 
ATOM     26  C   UNL d   1      -5.334  -2.113   2.546  0.00  0.00     0.025 A 
ATOM     27 CL   UNL d   1      -7.590  -1.875   3.990  0.00  0.00    -0.084 Cl
ATOM     28  C   UNL d   1      -1.613  -2.201   5.840  0.00  0.00     0.090 A 
ATOM     29  HN  UNL d   1      -3.402  -2.139   6.876  1.00  0.00     0.165 HD
ATOM     30  C   UNL d   1      -0.939  -2.189   4.633  0.00  0.00     0.041 A 
ENDBRANCH   2  19
TORSDOF 4
