REMARK  5 active torsions:
REMARK  status: ('A' for Active; 'I' for Inactive)
REMARK    1  A    between atoms: C_5  and  N_1 
REMARK    2  A    between atoms: N_6  and  N_2 
REMARK       I    between atoms: C_4  and  N_6 
REMARK    3  A    between atoms: O_13  and  C_4 
REMARK    4  A    between atoms: C_9  and  C_8 
REMARK    5  A    between atoms: C_18  and  O_13 
ROOT
ATOM      1  N   UNL d   1      -0.565  -1.049  -5.853  0.00  0.00    -0.300 N 
ATOM      2  HN  UNL d   1      -0.248  -1.610  -6.645  1.00  0.00     0.186 HD
ATOM      3  C   UNL d   1       0.114  -1.066  -4.743  0.00  0.00     0.032 C 
ATOM      4  C   UNL d   1      -0.239  -0.287  -3.490  0.00  0.00     0.070 C 
ENDROOT
BRANCH   3   5
ATOM      5  C   UNL d   1       1.355  -1.923  -4.694  0.00  0.00    -0.010 A 
ATOM      6  C   UNL d   1       2.127  -2.032  -3.531  0.00  0.00     0.049 A 
ATOM      7  C   UNL d   1       3.282  -2.830  -3.529  0.00  0.00     0.103 A 
ATOM      8  C   UNL d   1       3.674  -3.530  -4.676  0.00  0.00     0.036 A 
ATOM      9  C   UNL d   1       2.904  -3.426  -5.833  0.00  0.00     0.003 A 
ATOM     10  C   UNL d   1       1.755  -2.627  -5.843  0.00  0.00     0.013 A 
BRANCH   7  11
ATOM     11  N   UNL d   1       4.092  -2.922  -2.307  0.00  0.00    -0.116 N 
ATOM     12  O   UNL d   1       3.718  -2.270  -1.321  0.00  0.00    -0.532 OA
ATOM     13  O   UNL d   1       5.100  -3.641  -2.333  0.00  0.00    -0.532 OA
ENDBRANCH   7  11
ENDBRANCH   3   5
BRANCH   1  14
ATOM     14  N   UNL d   1      -1.687  -0.296  -5.973  0.00  0.00    -0.245 N 
ATOM     15  C   UNL d   1      -2.297  -0.131  -7.192  0.00  0.00     0.379 C 
ATOM     16  O   UNL d   1      -1.986  -0.672  -8.246  0.00  0.00    -0.237 OA
ATOM     17  H   UNL d   1      -2.010   0.315  -5.239  0.00  0.00     0.192 HD
BRANCH  15  18
ATOM     18  O   UNL d   1      -3.273   0.809  -7.062  0.00  0.00    -0.303 OA
BRANCH  18  19
ATOM     19  C   UNL d   1      -3.749   1.370  -8.294  0.00  0.00     0.176 C 
ATOM     20  C   UNL d   1      -2.879   2.568  -8.630  0.00  0.00     0.034 C 
ENDBRANCH  18  19
ENDBRANCH  15  18
ENDBRANCH   1  14
TORSDOF 5
