REMARK  1 active torsions:
REMARK  status: ('A' for Active; 'I' for Inactive)
REMARK    1  A    between atoms: C_3  and  C_1 
REMARK       I    between atoms: N_8  and  C_3 
ROOT
ATOM      1  C   UNL d   1      -1.173   1.457   0.076  0.00  0.00     0.068 A 
ATOM      2  C   UNL d   1       0.031   0.732   0.034  0.00  0.00     0.117 A 
ATOM      3  C   UNL d   1      -0.010  -0.672  -0.021  0.00  0.00     0.103 A 
ATOM      4  O   UNL d   1       1.226   1.413   0.060  0.00  0.00    -0.345 OA
ATOM      5  O   UNL d   1       1.112  -1.464  -0.042  0.00  0.00    -0.346 OA
ATOM      6  C   UNL d   1      -2.394   0.758   0.041  0.00  0.00     0.020 A 
ATOM      7  C   UNL d   1      -2.422  -0.635  -0.034  0.00  0.00     0.004 A 
ATOM      8  C   UNL d   1      -1.228  -1.349  -0.068  0.00  0.00     0.040 A 
ATOM      9  C   UNL d   1       2.326   0.602  -0.360  0.00  0.00     0.202 C 
ATOM     10  C   UNL d   1       2.283  -0.741   0.342  0.00  0.00     0.202 C 
ENDROOT
BRANCH   1  11
ATOM     11  C   UNL d   1      -1.258   2.949   0.138  0.00  0.00     0.252 C 
ATOM     12  O   UNL d   1      -2.337   3.531   0.173  0.00  0.00    -0.268 OA
ATOM     13  N   UNL d   1      -0.097   3.664   0.151  0.00  0.00    -0.366 N 
ATOM     14  H   UNL d   1       0.806   3.206   0.136  0.00  0.00     0.159 HD
ATOM     15  H   UNL d   1      -0.147   4.672   0.194  0.00  0.00     0.159 HD
ENDBRANCH   1  11
TORSDOF 1
