REMARK  6 active torsions:
REMARK  status: ('A' for Active; 'I' for Inactive)
REMARK    1  A    between atoms: C_8  and  C_1 
REMARK    2  A    between atoms: N_12  and  N_3 
REMARK    3  A    between atoms: C_11  and  C_7 
REMARK       I    between atoms: N_10  and  C_8 
REMARK    4  A    between atoms: C_9  and  N_12 
REMARK       I    between atoms: C_13  and  N_10 
REMARK    5  A    between atoms: O_26  and  C_13 
REMARK    6  A    between atoms: C_28  and  O_26 
ROOT
ATOM      1  C   UNL d   1      -0.496  -1.266   0.079  0.00  0.00     0.117 C 
ATOM      2  N   UNL d   1      -0.777   1.136  -0.146  0.00  0.00    -0.273 N 
ATOM      3  N   UNL d   1       1.340   0.227   0.216  0.00  0.00    -0.232 N 
ATOM      4  C   UNL d   1       0.553   1.382   0.090  0.00  0.00     0.344 C 
ATOM      5  C   UNL d   1      -1.345  -0.099  -0.265  0.00  0.00     0.266 C 
ATOM      6  C   UNL d   1       0.811  -1.040   0.280  0.00  0.00     0.139 C 
ATOM      7  O   UNL d   1       0.966   2.537   0.190  0.00  0.00    -0.245 OA
ATOM      8  O   UNL d   1      -2.501  -0.242  -0.653  0.00  0.00    -0.267 OA
ATOM      9  H   UNL d   1      -1.348   1.941  -0.352  0.00  0.00     0.173 HD
ENDROOT
BRANCH   3  10
ATOM     10  N   UNL d   1       2.747   0.380   0.360  0.00  0.00    -0.179 NA
ATOM     11  H   UNL d   1       2.930   0.865   1.241  0.00  0.00     0.155 HD
BRANCH  10  12
ATOM     12  C   UNL d   1       3.337   1.104  -0.723  0.00  0.00     0.114 A 
ATOM     13  C   UNL d   1       4.537   1.804  -0.550  0.00  0.00     0.089 A 
ATOM     14  C   UNL d   1       5.040   2.563  -1.627  0.00  0.00     0.044 A 
ATOM     15  C   UNL d   1       4.361   2.595  -2.833  0.00  0.00     0.050 A 
ATOM     16  C   UNL d   1       3.217   1.834  -2.943  0.00  0.00     0.113 A 
ATOM     17 CL   UNL d   1       4.920   3.562  -4.133  0.00  0.00    -0.083 Cl
ATOM     18  N   UNL d   1       2.713   1.082  -1.933  0.00  0.00    -0.353 N 
ATOM     19  HN  UNL d   1       1.881   0.510  -2.077  1.00  0.00     0.166 HD
BRANCH  13  20
ATOM     20  C   UNL d   1       5.298   1.824   0.740  0.00  0.00     0.420 C 
ATOM     21  F   UNL d   1       4.655   1.236   1.788  0.00  0.00    -0.166 F 
ATOM     22  F   UNL d   1       6.503   1.201   0.640  0.00  0.00    -0.166 F 
ATOM     23  F   UNL d   1       5.572   3.094   1.155  0.00  0.00    -0.166 F 
ENDBRANCH  13  20
ENDBRANCH  10  12
ENDBRANCH   3  10
BRANCH   1  24
ATOM     24  C   UNL d   1      -1.028  -2.662   0.170  0.00  0.00     0.267 C 
ATOM     25  N   UNL d   1      -2.138  -2.878  -0.623  0.00  0.00    -0.269 N 
ATOM     26  C   UNL d   1      -2.993  -3.950  -0.670  0.00  0.00     0.367 C 
ATOM     27  H   UNL d   1      -2.459  -2.128  -1.224  0.00  0.00     0.174 HD
ATOM     28  O   UNL d   1      -3.831  -4.030  -1.563  0.00  0.00    -0.238 OA
ATOM     29  O   UNL d   1      -0.445  -3.509   0.835  0.00  0.00    -0.267 OA
BRANCH  26  30
ATOM     30  O   UNL d   1      -2.869  -4.823   0.355  0.00  0.00    -0.304 OA
BRANCH  30  31
ATOM     31  C   UNL d   1      -3.886  -5.836   0.424  0.00  0.00     0.176 C 
ATOM     32  C   UNL d   1      -5.194  -5.248   0.935  0.00  0.00     0.034 C 
ENDBRANCH  30  31
ENDBRANCH  26  30
ENDBRANCH   1  24
TORSDOF 6
