REMARK  7 active torsions:
REMARK  status: ('A' for Active; 'I' for Inactive)
REMARK    1  A    between atoms: N_3  and  C_1 
REMARK       I    between atoms: C_2  and  N_5 
REMARK    2  A    between atoms: C_13  and  C_2 
REMARK    3  A    between atoms: N_5  and  N_3 
REMARK    4  A    between atoms: C_4  and  C_14 
REMARK       I    between atoms: N_7  and  C_4 
REMARK    5  A    between atoms: C_12  and  N_7 
REMARK    6  A    between atoms: S_11  and  C_13 
REMARK    7  A    between atoms: C_14  and  S_11 
ROOT
ATOM      1  S   UNL d   1       0.218   6.564   1.065  0.00  0.00    -0.150 SA
ENDROOT
BRANCH   1   2
ATOM      2  C   UNL d   1       1.678   5.460   1.004  0.00  0.00     0.178 C 
BRANCH   2   3
ATOM      3  C   UNL d   1       1.684   4.543  -0.213  0.00  0.00     0.245 C 
ATOM      4  N   UNL d   1       1.581   5.203  -1.416  0.00  0.00    -0.267 N 
ATOM      5  H   UNL d   1       1.140   6.123  -1.458  0.00  0.00     0.190 HD
ATOM      6  O   UNL d   1       1.900   3.334  -0.124  0.00  0.00    -0.271 OA
BRANCH   4   7
ATOM      7  N   UNL d   1       1.578   4.461  -2.610  0.00  0.00    -0.274 N 
ATOM      8  H   UNL d   1       1.925   3.509  -2.535  0.00  0.00     0.189 HD
BRANCH   7   9
ATOM      9  C   UNL d   1       0.989   4.961  -3.738  0.00  0.00     0.186 C 
ATOM     10  S   UNL d   1       0.224   6.451  -3.824  0.00  0.00    -0.040 SA
ATOM     11  N   UNL d   1       1.044   4.221  -4.875  0.00  0.00    -0.370 N 
ATOM     12  C   UNL d   1       1.677   2.949  -5.147  0.00  0.00     0.148 C 
ATOM     13  H   UNL d   1       0.611   4.681  -5.669  0.00  0.00     0.161 HD
ENDBRANCH   7   9
ENDBRANCH   4   7
ENDBRANCH   2   3
ENDBRANCH   1   2
BRANCH   1  14
ATOM     14  C   UNL d   1       0.724   7.518   2.529  0.00  0.00     0.177 C 
BRANCH  14  15
ATOM     15  C   UNL d   1      -0.230   8.601   3.014  0.00  0.00     0.231 C 
ATOM     16  N   UNL d   1      -1.436   8.719   2.355  0.00  0.00    -0.327 N 
ATOM     17  H   UNL d   1      -1.637   8.005   1.662  0.00  0.00     0.169 HD
ATOM     18  O   UNL d   1       0.118   9.278   3.984  0.00  0.00    -0.272 OA
BRANCH  16  19
ATOM     19  C   UNL d   1      -2.471   9.634   2.660  0.00  0.00     0.034 A 
ATOM     20  C   UNL d   1      -2.298  10.749   3.487  0.00  0.00     0.029 A 
ATOM     21  C   UNL d   1      -3.376  11.582   3.804  0.00  0.00     0.002 A 
ATOM     22  C   UNL d   1      -4.641  11.311   3.292  0.00  0.00     0.000 A 
ATOM     23  C   UNL d   1      -4.820  10.225   2.438  0.00  0.00     0.002 A 
ATOM     24  C   UNL d   1      -3.737   9.399   2.112  0.00  0.00     0.029 A 
ENDBRANCH  16  19
ENDBRANCH  14  15
ENDBRANCH   1  14
TORSDOF 7
