REMARK  2 active torsions:
REMARK  status: ('A' for Active; 'I' for Inactive)
REMARK    1  A    between atoms: C_2  and  C_6 
REMARK    2  A    between atoms: C_9  and  N_7 
ROOT
ATOM      1  C   UNL d   1       1.378   4.947   0.946  0.00  0.00     0.050 A 
ATOM      2  C   UNL d   1       1.535   3.549   0.944  0.00  0.00     0.045 A 
ATOM      3  C   UNL d   1       2.091   2.876  -0.154  0.00  0.00     0.034 A 
ATOM      4  C   UNL d   1       1.794   5.680  -0.174  0.00  0.00     0.016 A 
ATOM      5  C   UNL d   1       2.361   5.029  -1.264  0.00  0.00     0.003 A 
ATOM      6  C   UNL d   1       2.515   3.642  -1.245  0.00  0.00     0.029 A 
ENDROOT
BRANCH   3   7
ATOM      7  N   UNL d   1       2.274   1.486  -0.084  0.00  0.00    -0.337 N 
ATOM      8  C   UNL d   1       3.148   0.726  -0.802  0.00  0.00     0.141 C 
ATOM      9  N   UNL d   1       4.164   1.099  -1.502  0.00  0.00    -0.370 N 
ATOM     10  S   UNL d   1       2.824  -0.999  -0.761  0.00  0.00    -0.088 SA
ATOM     11  C   UNL d   1       4.893  -0.069  -2.025  0.00  0.00     0.137 C 
ATOM     12  HN  UNL d   1       4.428   2.070  -1.671  1.00  0.00     0.161 HD
ATOM     13  C   UNL d   1       3.946  -1.255  -2.160  0.00  0.00     0.069 C 
ATOM     14  C   UNL d   1       3.188  -1.240  -3.482  0.00  0.00     0.023 C 
ATOM     15  H   UNL d   1       1.624   0.979   0.499  0.00  0.00     0.168 HD
ENDBRANCH   3   7
BRANCH   1  16
ATOM     16  C   UNL d   1       0.773   5.665   2.125  0.00  0.00     0.417 C 
ATOM     17  F   UNL d   1       0.426   4.836   3.150  0.00  0.00    -0.166 F 
ATOM     18  F   UNL d   1       1.613   6.591   2.664  0.00  0.00    -0.166 F 
ATOM     19  F   UNL d   1      -0.363   6.340   1.794  0.00  0.00    -0.166 F 
ENDBRANCH   1  16
TORSDOF 2
