REMARK  2 active torsions:
REMARK  status: ('A' for Active; 'I' for Inactive)
REMARK    1  A    between atoms: C_13  and  C_5 
REMARK    2  A    between atoms: N_7  and  C_12 
ROOT
ATOM      1  C   UNL d   1       0.347   0.310   0.628  0.00  0.00     0.171 A 
ATOM      2  N   UNL d   1       1.499   0.827   0.949  0.00  0.00    -0.333 N 
ATOM      3  HN  UNL d   1       1.723   1.441   1.732  1.00  0.00     0.168 HD
ATOM      4  N   UNL d   1       0.383  -0.474  -0.475  0.00  0.00    -0.243 N 
ATOM      5  C   UNL d   1       2.351   0.336  -0.036  0.00  0.00     0.062 A 
ATOM      6  C   UNL d   1       1.666  -0.486  -0.923  0.00  0.00     0.149 A 
ATOM      7  S   UNL d   1      -1.250   0.383   1.234  0.00  0.00    -0.045 SA
ATOM      8  N   UNL d   1      -0.745  -1.058  -0.939  0.00  0.00    -0.297 N 
ATOM      9  HN  UNL d   1      -0.837  -1.664  -1.755  1.00  0.00     0.187 HD
ATOM     10  C   UNL d   1      -1.690  -0.683  -0.124  0.00  0.00     0.160 A 
ENDROOT
BRANCH   5  11
ATOM     11  C   UNL d   1       3.764   0.685  -0.100  0.00  0.00    -0.008 A 
ATOM     12  C   UNL d   1       4.316   1.516   0.889  0.00  0.00     0.016 A 
ATOM     13  C   UNL d   1       5.662   1.897   0.844  0.00  0.00     0.037 A 
ATOM     14  C   UNL d   1       6.471   1.442  -0.202  0.00  0.00     0.102 A 
ATOM     15  C   UNL d   1       5.943   0.608  -1.194  0.00  0.00     0.037 A 
ATOM     16  C   UNL d   1       4.595   0.233  -1.138  0.00  0.00     0.016 A 
BRANCH  14  17
ATOM     17  N   UNL d   1       7.880   1.848  -0.268  0.00  0.00    -0.116 N 
ATOM     18  O   UNL d   1       8.309   2.592   0.626  0.00  0.00    -0.532 OA
ATOM     19  O   UNL d   1       8.558   1.424  -1.215  0.00  0.00    -0.532 OA
ENDBRANCH  14  17
ENDBRANCH   5  11
TORSDOF 2
