REMARK  2 active torsions:
REMARK  status: ('A' for Active; 'I' for Inactive)
REMARK    1  A    between atoms: C_8  and  C_1 
REMARK    2  A    between atoms: C_9  and  C_2 
ROOT
ATOM      1  N   UNL d   1       5.739  -3.457   0.021  0.00  0.00    -0.191 NA
ATOM      2  C   UNL d   1       5.139  -2.464   0.028  0.00  0.00     0.101 C 
ATOM      3  N   UNL d   1       4.427   1.178   0.031  0.00  0.00    -0.372 N 
ATOM      4  HN  UNL d   1       4.944   2.057   0.021  1.00  0.00     0.164 HD
ATOM      5  C   UNL d   1       4.400  -1.241   0.037  0.00  0.00     0.061 A 
ATOM      6  C   UNL d   1       2.321  -0.019   0.069  0.00  0.00     0.035 A 
ATOM      7  C   UNL d   1       3.003  -1.237   0.059  0.00  0.00     0.046 A 
ATOM      8  C   UNL d   1       5.060  -0.020   0.025  0.00  0.00     0.110 A 
ATOM      9  C   UNL d   1       3.071   1.150   0.052  0.00  0.00     0.108 A 
ENDROOT
BRANCH   6  10
ATOM     10  C   UNL d   1       0.892   0.018   0.086  0.00  0.00    -0.060 C 
ATOM     11  C   UNL d   1      -0.310   0.035   0.078  0.00  0.00    -0.061 C 
BRANCH  11  12
ATOM     12  C   UNL d   1      -1.740   0.030   0.025  0.00  0.00     0.018 A 
ATOM     13  C   UNL d   1      -2.431  -1.183  -0.016  0.00  0.00     0.020 A 
ATOM     14  C   UNL d   1      -3.824  -1.194  -0.121  0.00  0.00     0.001 A 
ATOM     15  C   UNL d   1      -4.528   0.008  -0.179  0.00  0.00     0.000 A 
ATOM     16  C   UNL d   1      -3.842   1.222  -0.122  0.00  0.00     0.001 A 
ATOM     17  C   UNL d   1      -2.449   1.234  -0.019  0.00  0.00     0.020 A 
ENDBRANCH  11  12
ENDBRANCH   6  10
TORSDOF 2
