REMARK  3 active torsions:
REMARK  status: ('A' for Active; 'I' for Inactive)
REMARK    1  A    between atoms: C_4  and  C_1 
REMARK    2  A    between atoms: C_8  and  C_4 
REMARK    3  A    between atoms: C_13  and  C_9 
ROOT
ATOM      1  C   UNL d   1      -3.758  -0.460   0.069  0.00  0.00     0.189 C 
ATOM      2  O   UNL d   1      -3.634   0.652  -0.446  0.00  0.00    -0.287 OA
ENDROOT
BRANCH   1   3
ATOM      3  C   UNL d   1      -2.543  -1.375   0.099  0.00  0.00     0.027 C 
ATOM      4  C   UNL d   1      -2.607  -2.757  -0.219  0.00  0.00    -0.041 C 
ATOM      5  C   UNL d   1      -1.420  -3.543  -0.161  0.00  0.00    -0.049 C 
ATOM      6  C   UNL d   1      -3.877  -3.446  -0.652  0.00  0.00     0.050 C 
ATOM      7  C   UNL d   1      -1.476  -5.056  -0.209  0.00  0.00     0.049 C 
ATOM      8  C   UNL d   1      -0.152  -2.915  -0.093  0.00  0.00    -0.049 C 
ATOM      9  C   UNL d   1      -0.082  -1.517   0.066  0.00  0.00    -0.049 C 
ATOM     10  C   UNL d   1       1.099  -3.763  -0.194  0.00  0.00     0.049 C 
ATOM     11  C   UNL d   1      -1.271  -0.782   0.329  0.00  0.00    -0.041 C 
ATOM     12  C   UNL d   1       1.251  -0.809  -0.051  0.00  0.00     0.049 C 
ATOM     13  C   UNL d   1      -1.136   0.631   0.854  0.00  0.00     0.050 C 
ENDBRANCH   1   3
BRANCH   1  14
ATOM     14  C   UNL d   1      -5.093  -0.862   0.642  0.00  0.00    -0.009 C 
ATOM     15  C   UNL d   1      -6.178  -0.192   0.170  0.00  0.00     0.040 C 
ATOM     16  C   UNL d   1      -5.199  -1.891   1.724  0.00  0.00     0.052 C 
BRANCH  15  17
ATOM     17  C   UNL d   1      -7.563  -0.520   0.537  0.00  0.00     0.032 A 
ATOM     18  N   UNL d   1      -7.892  -1.834   0.488  0.00  0.00    -0.366 N 
ATOM     19  C   UNL d   1      -9.131  -2.186   0.889  0.00  0.00     0.088 A 
ATOM     20  HN  UNL d   1      -7.225  -2.533   0.160  1.00  0.00     0.165 HD
ATOM     21  C   UNL d   1     -10.074  -1.284   1.345  0.00  0.00     0.017 A 
ATOM     22  C   UNL d   1      -9.736   0.065   1.357  0.00  0.00     0.004 A 
ATOM     23  C   UNL d   1      -8.464   0.459   0.934  0.00  0.00     0.029 A 
ENDBRANCH  15  17
ENDBRANCH   1  14
TORSDOF 3
