REMARK  2 active torsions:
REMARK  status: ('A' for Active; 'I' for Inactive)
REMARK    1  A    between atoms: S_3  and  C_1 
REMARK    2  A    between atoms: C_8  and  S_3 
ROOT
ATOM      1  C   UNL d   1      -0.339   1.477   0.142  0.00  0.00     0.018 A 
ATOM      2  N   UNL d   1       3.268   0.637   1.509  0.00  0.00    -0.191 NA
ATOM      3  C   UNL d   1      -0.023   0.073   0.137  0.00  0.00     0.012 A 
ATOM      4  C   UNL d   1       2.354   0.150   0.979  0.00  0.00     0.100 C 
ATOM      5  C   UNL d   1       1.245  -0.548   0.392  0.00  0.00     0.057 C 
ATOM      6  C   UNL d   1      -1.101  -0.819  -0.140  0.00  0.00    -0.023 A 
ATOM      7  C   UNL d   1      -1.673   1.912   0.024  0.00  0.00     0.020 A 
ATOM      8  C   UNL d   1      -2.708   1.005  -0.144  0.00  0.00     0.002 A 
ATOM      9  C   UNL d   1       0.384  -2.747  -0.166  0.00  0.00     0.002 C 
ATOM     10  C   UNL d   1       1.439  -1.929   0.202  0.00  0.00     0.024 C 
ATOM     11  C   UNL d   1      -2.417  -0.347  -0.250  0.00  0.00     0.012 A 
ATOM     12  C   UNL d   1      -0.883  -2.197  -0.297  0.00  0.00     0.012 C 
ENDROOT
BRANCH   1  13
ATOM     13  S   UNL d   1       0.838   2.827   0.275  0.00  0.00    -0.090 SA
BRANCH  13  14
ATOM     14  C   UNL d   1       1.851   2.724  -1.197  0.00  0.00     0.005 A 
ATOM     15  C   UNL d   1       1.425   2.179  -2.414  0.00  0.00     0.019 A 
ATOM     16  C   UNL d   1       2.287   2.147  -3.518  0.00  0.00     0.001 A 
ATOM     17  C   UNL d   1       3.576   2.670  -3.421  0.00  0.00     0.000 A 
ATOM     18  C   UNL d   1       4.003   3.234  -2.222  0.00  0.00     0.001 A 
ATOM     19  C   UNL d   1       3.144   3.262  -1.121  0.00  0.00     0.019 A 
ENDBRANCH  13  14
ENDBRANCH   1  13
TORSDOF 2
