REMARK  2 active torsions:
REMARK  status: ('A' for Active; 'I' for Inactive)
REMARK    1  A    between atoms: N_14  and  C_4 
REMARK    2  A    between atoms: C_13  and  C_6 
ROOT
ATOM      1  C   UNL d   1      -0.260  -0.584   0.002  0.00  0.00     0.173 A 
ATOM      2  C   UNL d   1      -0.305   0.786   0.045  0.00  0.00     0.032 A 
ATOM      3  C   UNL d   1       2.199   0.646  -0.129  0.00  0.00     0.081 C 
ATOM      4  C   UNL d   1       2.052  -0.717  -0.199  0.00  0.00     0.140 C 
ATOM      5  O   UNL d   1       0.807  -1.369  -0.060  0.00  0.00    -0.279 OA
ATOM      6  C   UNL d   1       0.970   1.568   0.081  0.00  0.00     0.107 C 
ATOM      7  N   UNL d   1      -1.544  -1.025   0.006  0.00  0.00    -0.279 N 
ATOM      8  N   UNL d   1      -2.438  -0.019   0.038  0.00  0.00    -0.303 N 
ATOM      9  HN  UNL d   1      -3.456  -0.088   0.048  1.00  0.00     0.186 HD
ATOM     10  C   UNL d   1      -1.688   1.097   0.053  0.00  0.00     0.033 A 
ATOM     11  C   UNL d   1       3.505   1.289  -0.373  0.00  0.00     0.100 C 
ATOM     12  N   UNL d   1       4.533   1.788  -0.571  0.00  0.00    -0.191 NA
ATOM     13  C   UNL d   1      -2.356   2.421   0.048  0.00  0.00     0.070 C 
ATOM     14  H   UNL d   1      -1.881  -1.981  -0.024  0.00  0.00     0.189 HD
ENDROOT
BRANCH   4  15
ATOM     15  N   UNL d   1       3.081  -1.590  -0.460  0.00  0.00    -0.282 NA
ATOM     16  H   UNL d   1       4.021  -1.251  -0.269  0.00  0.00     0.126 HD
ATOM     17  H   UNL d   1       2.908  -2.535  -0.130  0.00  0.00     0.126 HD
ENDBRANCH   4  15
BRANCH   6  18
ATOM     18  C   UNL d   1       0.873   2.628  -0.992  0.00  0.00    -0.029 A 
ATOM     19  C   UNL d   1       0.958   3.976  -0.643  0.00  0.00     0.095 A 
ATOM     20  N   UNL d   1       0.932   4.996  -1.527  0.00  0.00    -0.375 N 
ATOM     21  C   UNL d   1       0.844   4.665  -2.832  0.00  0.00     0.087 A 
ATOM     22  HN  UNL d   1       0.977   5.968  -1.223  1.00  0.00     0.164 HD
ATOM     23  C   UNL d   1       0.766   3.362  -3.292  0.00  0.00     0.018 A 
ATOM     24  C   UNL d   1       0.778   2.331  -2.358  0.00  0.00     0.011 A 
ENDBRANCH   6  18
TORSDOF 2
