REMARK  2 active torsions:
REMARK  status: ('A' for Active; 'I' for Inactive)
REMARK       I    between atoms: N_2  and  C_1 
REMARK       I    between atoms: N_6  and  C_1 
REMARK    1  A    between atoms: C_3  and  N_2 
REMARK    2  A    between atoms: C_8  and  N_6 
ROOT
ATOM      1  C   UNL d   1       1.076   0.079  -0.003  0.00  0.00     0.326 C 
ATOM      2  N   UNL d   1       0.366   0.728   0.982  0.00  0.00    -0.294 N 
ATOM      3  N   UNL d   1       0.322  -0.617  -0.905  0.00  0.00    -0.309 N 
ATOM      4  O   UNL d   1       2.295   0.220  -0.035  0.00  0.00    -0.247 OA
ATOM      5  H   UNL d   1       0.937   1.328   1.558  0.00  0.00     0.172 HD
ATOM      6  H   UNL d   1      -0.678  -0.537  -0.744  0.00  0.00     0.170 HD
ENDROOT
BRANCH   2   7
ATOM      7  C   UNL d   1      -0.992   0.596   1.291  0.00  0.00     0.109 A 
ATOM      8  N   UNL d   1      -1.718  -0.341   0.641  0.00  0.00    -0.346 N 
ATOM      9  C   UNL d   1      -3.013  -0.517   0.984  0.00  0.00     0.007 A 
ATOM     10  HN  UNL d   1      -1.295  -0.906  -0.095  1.00  0.00     0.167 HD
ATOM     11  C   UNL d   1      -3.739  -1.641   0.310  0.00  0.00     0.068 C 
ATOM     12  C   UNL d   1      -3.641   0.279   1.930  0.00  0.00     0.025 A 
ATOM     13  C   UNL d   1      -2.894   1.264   2.570  0.00  0.00     0.006 A 
ATOM     14  C   UNL d   1      -1.543   1.415   2.262  0.00  0.00     0.049 A 
ENDBRANCH   2   7
BRANCH   3  15
ATOM     15  C   UNL d   1       0.723  -1.399  -1.995  0.00  0.00     0.036 A 
ATOM     16  C   UNL d   1       2.034  -1.828  -2.198  0.00  0.00     0.032 A 
ATOM     17  C   UNL d   1       2.340  -2.638  -3.295  0.00  0.00     0.044 A 
ATOM     18  C   UNL d   1       1.340  -2.995  -4.192  0.00  0.00     0.116 A 
ATOM     19  C   UNL d   1       0.032  -2.569  -4.008  0.00  0.00     0.044 A 
ATOM     20  F   UNL d   1       1.640  -3.765  -5.246  0.00  0.00    -0.206 F 
ATOM     21  C   UNL d   1      -0.279  -1.781  -2.900  0.00  0.00     0.032 A 
ENDBRANCH   3  15
TORSDOF 2
