REMARK  5 active torsions:
REMARK  status: ('A' for Active; 'I' for Inactive)
REMARK    1  A    between atoms: C_4  and  C_1 
REMARK    2  A    between atoms: C_2  and  C_3 
REMARK       I    between atoms: N_6  and  C_4 
REMARK    3  A    between atoms: C_5  and  N_7 
REMARK    4  A    between atoms: N_15  and  C_5 
REMARK    5  A    between atoms: N_7  and  N_6 
ROOT
ATOM      1  C   UNL d   1       0.570   1.274   0.034  0.00  0.00     0.064 A 
ATOM      2  C   UNL d   1      -0.619   0.783   0.591  0.00  0.00     0.066 A 
ATOM      3  N   UNL d   1       1.065  -0.906  -0.907  0.00  0.00    -0.374 N 
ATOM      4  HN  UNL d   1       1.682  -1.517  -1.442  1.00  0.00     0.164 HD
ATOM      5  C   UNL d   1       1.379   0.392  -0.674  0.00  0.00     0.105 A 
ATOM      6  C   UNL d   1      -0.960  -0.560   0.343  0.00  0.00     0.034 A 
ATOM      7  C   UNL d   1      -0.100  -1.351  -0.400  0.00  0.00     0.088 A 
ENDROOT
BRANCH   1   8
ATOM      8  C   UNL d   1       1.065   2.656   0.161  0.00  0.00     0.272 C 
ATOM      9  N   UNL d   1       0.179   3.664  -0.158  0.00  0.00    -0.264 N 
ATOM     10  H   UNL d   1      -0.767   3.534  -0.516  0.00  0.00     0.190 HD
ATOM     11  O   UNL d   1       2.231   2.861   0.479  0.00  0.00    -0.266 OA
BRANCH   9  12
ATOM     12  N   UNL d   1       0.637   4.981  -0.062  0.00  0.00    -0.274 N 
ATOM     13  H   UNL d   1       1.624   5.081   0.165  0.00  0.00     0.189 HD
BRANCH  12  14
ATOM     14  C   UNL d   1      -0.136   6.054  -0.475  0.00  0.00     0.186 C 
ATOM     15  S   UNL d   1      -1.695   5.890  -1.065  0.00  0.00    -0.040 SA
BRANCH  14  16
ATOM     16  N   UNL d   1       0.548   7.245  -0.335  0.00  0.00    -0.370 N 
ATOM     17  C   UNL d   1       0.049   8.575  -0.627  0.00  0.00     0.148 C 
ATOM     18  H   UNL d   1       1.405   7.209   0.200  0.00  0.00     0.161 HD
ENDBRANCH  14  16
ENDBRANCH  12  14
ENDBRANCH   9  12
ENDBRANCH   1   8
BRANCH   2  19
ATOM     19  C   UNL d   1      -1.542   1.612   1.437  0.00  0.00     0.418 C 
ATOM     20  F   UNL d   1      -0.939   2.631   2.099  0.00  0.00    -0.166 F 
ATOM     21  F   UNL d   1      -2.530   2.175   0.687  0.00  0.00    -0.166 F 
ATOM     22  F   UNL d   1      -2.171   0.880   2.396  0.00  0.00    -0.166 F 
ENDBRANCH   2  19
TORSDOF 5
