REMARK  6 active torsions:
REMARK  status: ('A' for Active; 'I' for Inactive)
REMARK    1  A    between atoms: C_9  and  C_1 
REMARK    2  A    between atoms: N_17  and  C_3 
REMARK    3  A    between atoms: C_16  and  C_6 
REMARK       I    between atoms: N_15  and  C_9 
REMARK    4  A    between atoms: C_19  and  C_12 
REMARK    5  A    between atoms: N_13  and  N_15 
REMARK    6  A    between atoms: C_21  and  C_20 
ROOT
ATOM      1  C   UNL d   1      -2.566  -0.730   0.004  0.00  0.00     0.103 A 
ATOM      2  C   UNL d   1      -0.196  -0.984  -0.024  0.00  0.00     0.040 A 
ATOM      3  C   UNL d   1      -1.498  -1.609  -0.097  0.00  0.00     0.062 A 
ATOM      4  C   UNL d   1      -0.380   0.391   0.036  0.00  0.00     0.103 A 
ATOM      5  S   UNL d   1      -2.014   0.881   0.062  0.00  0.00    -0.062 SA
ATOM      6  C   UNL d   1       1.159  -1.448   0.004  0.00  0.00     0.018 A 
ATOM      7  N   UNL d   1       1.851   0.880   0.101  0.00  0.00    -0.298 N 
ATOM      8  HN  UNL d   1       2.608   1.563   0.130  1.00  0.00     0.187 HD
ATOM      9  N   UNL d   1       0.603   1.309   0.078  0.00  0.00    -0.292 N 
ATOM     10  HN  UNL d   1       0.389   2.307   0.092  1.00  0.00     0.187 HD
ATOM     11  C   UNL d   1       2.158  -0.446   0.087  0.00  0.00     0.070 A 
ENDROOT
BRANCH   1  12
ATOM     12  C   UNL d   1      -3.975  -1.113   0.039  0.00  0.00     0.279 C 
ATOM     13  N   UNL d   1      -4.933  -0.095  -0.021  0.00  0.00    -0.266 N 
ATOM     14  H   UNL d   1      -4.671   0.879  -0.105  0.00  0.00     0.190 HD
ATOM     15  O   UNL d   1      -4.318  -2.296   0.090  0.00  0.00    -0.265 OA
BRANCH  13  16
ATOM     16  N   UNL d   1      -6.237  -0.483  -0.098  0.00  0.00    -0.308 N 
ATOM     17  C   UNL d   1      -7.156   0.411  -0.239  0.00  0.00     0.118 C 
ATOM     18  HN  UNL d   1      -6.484  -1.471  -0.045  1.00  0.00     0.186 HD
BRANCH  17  19
ATOM     19  C   UNL d   1      -8.569  -0.016  -0.372  0.00  0.00    -0.019 A 
ATOM     20  C   UNL d   1      -8.902  -1.378  -0.331  0.00  0.00     0.014 A 
ATOM     21  C   UNL d   1     -10.229  -1.787  -0.490  0.00  0.00     0.024 A 
ATOM     22  C   UNL d   1     -11.222  -0.827  -0.691  0.00  0.00     0.034 A 
ATOM     23  C   UNL d   1     -10.896   0.532  -0.726  0.00  0.00     0.024 A 
ATOM     24 CL   UNL d   1     -12.855  -1.324  -0.901  0.00  0.00    -0.084 Cl
ATOM     25  C   UNL d   1      -9.568   0.942  -0.566  0.00  0.00     0.014 A 
ENDBRANCH  17  19
ENDBRANCH  13  16
ENDBRANCH   1  12
BRANCH   3  26
ATOM     26  N   UNL d   1      -1.712  -2.938  -0.229  0.00  0.00    -0.397 N 
ATOM     27  H   UNL d   1      -1.030  -3.582  -0.619  0.00  0.00     0.156 HD
ATOM     28  H   UNL d   1      -2.671  -3.305  -0.254  0.00  0.00     0.156 HD
ENDBRANCH   3  26
BRANCH   6  29
ATOM     29  C   UNL d   1       1.448  -2.899  -0.051  0.00  0.00    -0.023 A 
ATOM     30  C   UNL d   1       2.311  -3.440  -1.022  0.00  0.00     0.012 A 
ATOM     31  C   UNL d   1       2.608  -4.807  -1.049  0.00  0.00     0.001 A 
ATOM     32  C   UNL d   1       2.003  -5.671  -0.142  0.00  0.00     0.000 A 
ATOM     33  C   UNL d   1       1.138  -5.165   0.822  0.00  0.00     0.001 A 
ATOM     34  C   UNL d   1       0.898  -3.789   0.890  0.00  0.00     0.012 A 
ENDBRANCH   6  29
BRANCH  11  35
ATOM     35  C   UNL d   1       3.623  -0.709   0.152  0.00  0.00    -0.007 A 
ATOM     36  C   UNL d   1       4.525   0.066  -0.603  0.00  0.00     0.014 A 
ATOM     37  C   UNL d   1       5.897  -0.216  -0.621  0.00  0.00     0.001 A 
ATOM     38  C   UNL d   1       6.400  -1.282   0.116  0.00  0.00     0.000 A 
ATOM     39  C   UNL d   1       5.540  -2.039   0.904  0.00  0.00     0.001 A 
ATOM     40  C   UNL d   1       4.176  -1.734   0.942  0.00  0.00     0.014 A 
ENDBRANCH  11  35
TORSDOF 6
