REMARK  2 active torsions:
REMARK  status: ('A' for Active; 'I' for Inactive)
REMARK    1  A    between atoms: N_5  and  C_1 
REMARK    2  A    between atoms: C_12  and  C_6 
ROOT
ATOM      1  C   UNL d   1      -1.081  -1.520  -0.051  0.00  0.00     0.045 A 
ATOM      2  N   UNL d   1      -1.214   1.281   0.009  0.00  0.00    -0.355 N 
ATOM      3  HN  UNL d   1      -1.265   2.299   0.061  1.00  0.00     0.166 HD
ATOM      4  C   UNL d   1      -2.310  -0.855  -0.045  0.00  0.00     0.060 A 
ATOM      5  C   UNL d   1      -2.348   0.540  -0.029  0.00  0.00     0.045 A 
ATOM      6  C   UNL d   1       0.105  -0.735  -0.080  0.00  0.00     0.017 A 
ATOM      7  C   UNL d   1      -0.023   0.664  -0.021  0.00  0.00     0.045 A 
ATOM      8  C   UNL d   1       1.406  -1.290  -0.179  0.00  0.00     0.016 A 
ATOM      9  C   UNL d   1       1.132   1.439   0.004  0.00  0.00     0.030 A 
ATOM     10  C   UNL d   1       2.549  -0.500  -0.139  0.00  0.00     0.001 A 
ATOM     11  C   UNL d   1       2.411   0.875  -0.039  0.00  0.00     0.002 A 
ENDROOT
BRANCH   1  12
ATOM     12  N   UNL d   1      -0.990  -2.917  -0.014  0.00  0.00    -0.377 N 
ATOM     13  C   UNL d   1      -2.042  -3.776  -0.583  0.00  0.00     0.153 C 
ATOM     14  C   UNL d   1      -1.449  -5.195  -0.823  0.00  0.00     0.291 C 
ATOM     15  N   UNL d   1      -0.823  -5.791   0.386  0.00  0.00     0.087 N 
ATOM     16  C   UNL d   1       0.163  -4.844   0.956  0.00  0.00     0.291 C 
ATOM     17  C   UNL d   1      -0.168  -7.055   0.063  0.00  0.00     0.310 C 
ATOM     18  C   UNL d   1      -0.470  -3.470   1.257  0.00  0.00     0.153 C 
ENDBRANCH   1  12
BRANCH   5  19
ATOM     19  C   UNL d   1      -3.608   1.316  -0.049  0.00  0.00    -0.009 A 
ATOM     20  C   UNL d   1      -3.681   2.585   0.559  0.00  0.00     0.013 A 
ATOM     21  C   UNL d   1      -4.850   3.353   0.519  0.00  0.00     0.001 A 
ATOM     22  C   UNL d   1      -5.978   2.867  -0.134  0.00  0.00     0.000 A 
ATOM     23  C   UNL d   1      -5.939   1.614  -0.739  0.00  0.00     0.001 A 
ATOM     24  C   UNL d   1      -4.768   0.850  -0.697  0.00  0.00     0.013 A 
ENDBRANCH   5  19
TORSDOF 2
