REMARK  5 active torsions:
REMARK  status: ('A' for Active; 'I' for Inactive)
REMARK    1  A    between atoms: C_10  and  C_1 
REMARK    2  A    between atoms: N_17  and  C_3 
REMARK    3  A    between atoms: N_11  and  C_7 
REMARK    4  A    between atoms: C_24  and  C_10 
REMARK    5  A    between atoms: C_16  and  N_14 
ROOT
ATOM      1  C   UNL d   1      -2.293  -0.728  -0.050  0.00  0.00     0.085 C 
ATOM      2  C   UNL d   1      -0.237   0.465  -0.070  0.00  0.00     0.034 A 
ATOM      3  C   UNL d   1      -1.690   0.521  -0.030  0.00  0.00     0.061 C 
ATOM      4  C   UNL d   1       0.146  -0.870  -0.191  0.00  0.00     0.088 A 
ATOM      5  S   UNL d   1      -1.146  -1.954  -0.346  0.00  0.00    -0.065 SA
ATOM      6  C   UNL d   1       0.832   1.418   0.015  0.00  0.00    -0.017 A 
ATOM      7  C   UNL d   1       2.166   0.917   0.033  0.00  0.00     0.077 A 
ATOM      8  N   UNL d   1       1.390  -1.375  -0.196  0.00  0.00    -0.351 N 
ATOM      9  HN  UNL d   1       1.576  -2.372  -0.307  1.00  0.00     0.166 HD
ATOM     10  C   UNL d   1       2.372  -0.469  -0.043  0.00  0.00     0.035 A 
ATOM     11  C   UNL d   1       0.659   2.913   0.113  0.00  0.00     0.052 C 
ATOM     12  C   UNL d   1       3.753  -1.056   0.047  0.00  0.00     0.070 C 
ENDROOT
BRANCH   7  13
ATOM     13  N   UNL d   1       3.261   1.798   0.221  0.00  0.00    -0.298 N 
ATOM     14  N   UNL d   1       3.962   1.847  -0.812  0.00  0.00    -0.300 N 
ATOM     15  HN  UNL d   1       3.679   1.429  -1.698  1.00  0.00     0.187 HD
ATOM     16  HN  UNL d   1       3.449   2.317   1.078  1.00  0.00     0.187 HD
BRANCH  14  17
ATOM     17  C   UNL d   1       5.183   2.537  -0.639  0.00  0.00     0.051 A 
ATOM     18  C   UNL d   1       5.475   3.393   0.434  0.00  0.00     0.054 A 
ATOM     19  C   UNL d   1       6.707   4.048   0.502  0.00  0.00     0.037 A 
ATOM     20 CL   UNL d   1       7.039   5.101   1.822  0.00  0.00    -0.084 Cl
ATOM     21  C   UNL d   1       7.668   3.865  -0.487  0.00  0.00     0.048 A 
ATOM     22  C   UNL d   1       7.390   3.009  -1.546  0.00  0.00     0.037 A 
ATOM     23  C   UNL d   1       6.163   2.350  -1.624  0.00  0.00     0.054 A 
ATOM     24 CL   UNL d   1       8.567   2.766  -2.778  0.00  0.00    -0.084 Cl
ENDBRANCH  14  17
ENDBRANCH   7  13
BRANCH   3  25
ATOM     25  N   UNL d   1      -2.439   1.647   0.086  0.00  0.00    -0.397 N 
ATOM     26  H   UNL d   1      -2.111   2.541  -0.256  0.00  0.00     0.156 HD
ATOM     27  H   UNL d   1      -3.451   1.566  -0.049  0.00  0.00     0.156 HD
ENDBRANCH   3  25
BRANCH   1  28
ATOM     28  C   UNL d   1      -3.713  -1.053   0.056  0.00  0.00     0.201 C 
ATOM     29  O   UNL d   1      -4.603  -0.283  -0.309  0.00  0.00    -0.286 OA
BRANCH  28  30
ATOM     30  C   UNL d   1      -4.139  -2.349   0.664  0.00  0.00     0.015 A 
ATOM     31  C   UNL d   1      -5.207  -3.051   0.092  0.00  0.00     0.015 A 
ATOM     32  C   UNL d   1      -5.602  -4.279   0.628  0.00  0.00     0.001 A 
ATOM     33  C   UNL d   1      -4.942  -4.803   1.741  0.00  0.00     0.000 A 
ATOM     34  C   UNL d   1      -3.897  -4.094   2.332  0.00  0.00     0.001 A 
ATOM     35  C   UNL d   1      -3.504  -2.863   1.805  0.00  0.00     0.015 A 
ENDBRANCH  28  30
ENDBRANCH   1  28
TORSDOF 5
