REMARK  7 active torsions:
REMARK  status: ('A' for Active; 'I' for Inactive)
REMARK    1  A    between atoms: N_3  and  C_1 
REMARK    2  A    between atoms: O_17  and  C_4 
REMARK    3  A    between atoms: C_7  and  C_11 
REMARK    4  A    between atoms: N_14  and  N_9 
REMARK    5  A    between atoms: C_12  and  N_14 
REMARK    6  A    between atoms: C_15  and  C_21 
REMARK    7  A    between atoms: C_27  and  O_17 
ROOT
ATOM      1  N   UNL d   1       4.505  -7.136  -0.825  0.00  0.00    -0.303 N 
ATOM      2  HN  UNL d   1       5.294  -7.779  -0.757  1.00  0.00     0.186 HD
ATOM      3  C   UNL d   1       4.320  -6.204   0.069  0.00  0.00     0.032 C 
ATOM      4  C   UNL d   1       3.145  -5.243   0.073  0.00  0.00     0.070 C 
ENDROOT
BRANCH   3   5
ATOM      5  C   UNL d   1       5.332  -6.068   1.175  0.00  0.00    -0.012 A 
ATOM      6  C   UNL d   1       6.416  -6.955   1.219  0.00  0.00     0.016 A 
ATOM      7  C   UNL d   1       7.396  -6.835   2.209  0.00  0.00     0.038 A 
ATOM      8  C   UNL d   1       7.293  -5.840   3.182  0.00  0.00     0.078 A 
ATOM      9  C   UNL d   1       6.221  -4.949   3.143  0.00  0.00     0.038 A 
ATOM     10  C   UNL d   1       5.242  -5.063   2.148  0.00  0.00     0.016 A 
BRANCH   8  11
ATOM     11  O   UNL d   1       8.243  -5.618   4.150  0.00  0.00    -0.288 OA
BRANCH  11  12
ATOM     12  C   UNL d   1       8.968  -6.614   4.664  0.00  0.00     0.194 A 
ATOM     13  S   UNL d   1      10.526  -6.309   5.321  0.00  0.00    -0.021 SA
ATOM     14  C   UNL d   1      10.690  -7.971   5.633  0.00  0.00     0.162 A 
ATOM     15  C   UNL d   1       9.552  -8.653   5.276  0.00  0.00     0.134 A 
ATOM     16  N   UNL d   1       8.556  -7.865   4.730  0.00  0.00    -0.338 N 
ATOM     17  HN  UNL d   1       7.642  -8.200   4.425  1.00  0.00     0.168 HD
BRANCH  14  18
ATOM     18  N   UNL d   1      11.882  -8.526   6.186  0.00  0.00    -0.107 N 
ATOM     19  O   UNL d   1      11.887  -9.751   6.359  0.00  0.00    -0.531 OA
ATOM     20  O   UNL d   1      12.818  -7.760   6.446  0.00  0.00    -0.531 OA
ENDBRANCH  14  18
ENDBRANCH  11  12
ENDBRANCH   8  11
ENDBRANCH   3   5
BRANCH   1  21
ATOM     21  N   UNL d   1       3.616  -7.225  -1.848  0.00  0.00    -0.285 N 
ATOM     22  H   UNL d   1       3.355  -6.384  -2.362  0.00  0.00     0.188 HD
BRANCH  21  23
ATOM     23  C   UNL d   1       3.794  -8.246  -2.799  0.00  0.00     0.120 A 
ATOM     24  N   UNL d   1       3.378  -7.979  -4.056  0.00  0.00    -0.351 N 
ATOM     25  C   UNL d   1       3.517  -8.949  -4.986  0.00  0.00     0.090 A 
ATOM     26  HN  UNL d   1       2.972  -7.075  -4.296  1.00  0.00     0.166 HD
ATOM     27  C   UNL d   1       4.053 -10.196  -4.723  0.00  0.00     0.033 A 
ATOM     28  C   UNL d   1       4.471 -10.477  -3.420  0.00  0.00     0.052 A 
ATOM     29  C   UNL d   1       4.329  -9.481  -2.448  0.00  0.00     0.066 A 
BRANCH  28  30
ATOM     30  C   UNL d   1       5.059 -11.817  -3.082  0.00  0.00     0.417 C 
ATOM     31  F   UNL d   1       5.417 -11.949  -1.775  0.00  0.00    -0.166 F 
ATOM     32  F   UNL d   1       4.198 -12.841  -3.338  0.00  0.00    -0.166 F 
ATOM     33  F   UNL d   1       6.181 -12.088  -3.805  0.00  0.00    -0.166 F 
ENDBRANCH  28  30
ENDBRANCH  21  23
ENDBRANCH   1  21
TORSDOF 7
