REMARK  3 active torsions:
REMARK  status: ('A' for Active; 'I' for Inactive)
REMARK    1  A    between atoms: N_18  and  C_4 
REMARK    2  A    between atoms: C_15  and  C_5 
REMARK    3  A    between atoms: N_8  and  C_14 
ROOT
ATOM      1  C   UNL d   1      -0.235  -0.581  -0.006  0.00  0.00     0.173 A 
ATOM      2  C   UNL d   1      -0.284   0.789   0.056  0.00  0.00     0.032 A 
ATOM      3  C   UNL d   1       2.190   0.643  -0.163  0.00  0.00     0.080 A 
ATOM      4  C   UNL d   1       2.073  -0.712  -0.243  0.00  0.00     0.140 A 
ATOM      5  C   UNL d   1       0.990   1.566   0.074  0.00  0.00     0.105 A 
ATOM      6  O   UNL d   1       0.835  -1.361  -0.099  0.00  0.00    -0.279 OA
ATOM      7  N   UNL d   1      -1.514  -1.029   0.010  0.00  0.00    -0.279 N 
ATOM      8  N   UNL d   1      -2.414  -0.029   0.059  0.00  0.00    -0.303 N 
ATOM      9  HN  UNL d   1      -3.431  -0.104   0.076  1.00  0.00     0.186 HD
ATOM     10  C   UNL d   1      -1.671   1.091   0.080  0.00  0.00     0.033 A 
ATOM     11  C   UNL d   1       3.464   1.267  -0.319  0.00  0.00     0.100 C 
ATOM     12  N   UNL d   1       4.501   1.771  -0.435  0.00  0.00    -0.191 NA
ATOM     13  C   UNL d   1      -2.357   2.407   0.085  0.00  0.00     0.070 C 
ATOM     14  H   UNL d   1      -1.847  -1.986  -0.029  0.00  0.00     0.189 HD
ENDROOT
BRANCH   4  15
ATOM     15  N   UNL d   1       3.105  -1.590  -0.477  0.00  0.00    -0.282 NA
ATOM     16  H   UNL d   1       4.041  -1.259  -0.255  0.00  0.00     0.126 HD
ATOM     17  H   UNL d   1       2.910  -2.525  -0.131  0.00  0.00     0.126 HD
ENDBRANCH   4  15
BRANCH   5  18
ATOM     18  C   UNL d   1       0.851   2.652  -0.985  0.00  0.00    -0.044 A 
ATOM     19  C   UNL d   1       0.928   4.003  -0.596  0.00  0.00     0.011 A 
ATOM     20  C   UNL d   1       0.805   5.025  -1.538  0.00  0.00     0.036 A 
ATOM     21  C   UNL d   1       0.616   4.700  -2.887  0.00  0.00     0.102 A 
ATOM     22  C   UNL d   1       0.561   3.362  -3.295  0.00  0.00     0.036 A 
ATOM     23  C   UNL d   1       0.680   2.346  -2.346  0.00  0.00     0.011 A 
BRANCH  21  24
ATOM     24  N   UNL d   1       0.468   5.770  -3.877  0.00  0.00    -0.116 N 
ATOM     25  O   UNL d   1       0.310   5.444  -5.062  0.00  0.00    -0.532 OA
ATOM     26  O   UNL d   1       0.501   6.941  -3.470  0.00  0.00    -0.532 OA
ENDBRANCH  21  24
ENDBRANCH   5  18
TORSDOF 3
