REMARK  3 active torsions:
REMARK  status: ('A' for Active; 'I' for Inactive)
REMARK    1  A    between atoms: C_2  and  S_1 
REMARK    2  A    between atoms: N_3  and  S_1 
REMARK       I    between atoms: C_5  and  N_6 
REMARK    3  A    between atoms: C_7  and  C_5 
ROOT
ATOM      1  N   UNL d   1       0.649   1.423  -0.756  0.00  0.00    -0.205 NA
ATOM      2  C   UNL d   1       2.024   4.772  -2.425  0.00  0.00     0.260 C 
ATOM      3  N   UNL d   1       0.802   4.198  -2.021  0.00  0.00    -0.346 N 
ATOM      4  C   UNL d   1       1.283   2.625  -0.105  0.00  0.00     0.127 C 
ATOM      5  C   UNL d   1       0.634   3.935  -0.586  0.00  0.00     0.141 C 
ATOM      6  O   UNL d   1       2.880   5.003  -1.567  0.00  0.00    -0.267 OA
ATOM      7  C   UNL d   1       0.101   2.041  -3.131  0.00  0.00     0.035 C 
ATOM      8  C   UNL d   1       1.067   1.327  -2.197  0.00  0.00     0.109 C 
ATOM      9  C   UNL d   1      -0.160   3.524  -2.885  0.00  0.00     0.127 C 
ENDROOT
BRANCH   1  10
ATOM     10  S   UNL d   1       0.964  -0.062   0.066  0.00  0.00     0.245 S 
ATOM     11  O   UNL d   1       0.283  -1.133  -0.632  0.00  0.00    -0.206 OA
ATOM     12  O   UNL d   1       2.400  -0.117   0.255  0.00  0.00    -0.206 OA
BRANCH  10  13
ATOM     13  C   UNL d   1       0.216   0.051   1.673  0.00  0.00     0.098 A 
ATOM     14  C   UNL d   1      -1.165   0.205   1.838  0.00  0.00     0.078 A 
ATOM     15  C   UNL d   1      -1.700   0.094   3.134  0.00  0.00     0.057 A 
ATOM     16 CL   UNL d   1      -2.220   0.531   0.502  0.00  0.00    -0.081 Cl
ATOM     17 CL   UNL d   1      -3.396   0.239   3.462  0.00  0.00    -0.083 Cl
ATOM     18  C   UNL d   1      -0.872  -0.161   4.237  0.00  0.00     0.026 A 
ATOM     19  C   UNL d   1       0.502  -0.294   4.063  0.00  0.00     0.003 A 
ATOM     20  C   UNL d   1       1.042  -0.189   2.785  0.00  0.00     0.027 A 
ENDBRANCH  10  13
ENDBRANCH   1  10
BRANCH   2  21
ATOM     21  C   UNL d   1       2.263   5.076  -3.834  0.00  0.00     0.072 A 
ATOM     22  S   UNL d   1       3.861   4.865  -4.444  0.00  0.00    -0.097 SA
ATOM     23  C   UNL d   1       3.424   5.412  -6.001  0.00  0.00     0.050 A 
ATOM     24  C   UNL d   1       2.098   5.767  -6.067  0.00  0.00     0.009 A 
ATOM     25  C   UNL d   1       1.441   5.614  -4.809  0.00  0.00     0.025 A 
ENDBRANCH   2  21
TORSDOF 3
