REMARK  5 active torsions:
REMARK  status: ('A' for Active; 'I' for Inactive)
REMARK    1  A    between atoms: N_7  and  S_1 
REMARK    2  A    between atoms: C_9  and  S_1 
REMARK    3  A    between atoms: S_16  and  C_2 
REMARK    4  A    between atoms: C_14  and  N_7 
REMARK       I    between atoms: C_13  and  N_15 
REMARK    5  A    between atoms: N_15  and  C_21 
ROOT
ATOM      1  S   UNL d   1       1.005  -0.117   0.097  0.00  0.00     0.263 S 
ATOM      2  O   UNL d   1       0.359  -1.150  -0.683  0.00  0.00    -0.200 OA
ATOM      3  O   UNL d   1       2.444   0.038   0.105  0.00  0.00    -0.200 OA
ENDROOT
BRANCH   1   4
ATOM      4  N   UNL d   1       0.541  -0.268   1.717  0.00  0.00    -0.281 N 
ATOM      5  H   UNL d   1       1.172   0.229   2.345  0.00  0.00     0.179 HD
BRANCH   4   6
ATOM      6  C   UNL d   1      -0.842  -0.288   2.052  0.00  0.00     0.044 A 
ATOM      7  C   UNL d   1      -1.495   0.904   2.377  0.00  0.00     0.051 A 
ATOM      8  C   UNL d   1      -2.862   0.843   2.696  0.00  0.00     0.036 A 
ATOM      9  S   UNL d   1      -3.936   2.124   3.106  0.00  0.00    -0.063 SA
ATOM     10  C   UNL d   1      -3.566  -0.363   2.720  0.00  0.00     0.050 A 
ATOM     11  C   UNL d   1      -5.200   0.990   3.325  0.00  0.00     0.112 A 
ATOM     12  N   UNL d   1      -4.896  -0.265   3.091  0.00  0.00    -0.344 N 
ATOM     13  HN  UNL d   1      -5.542  -1.050   3.171  1.00  0.00     0.167 HD
ATOM     14  C   UNL d   1      -2.883  -1.549   2.383  0.00  0.00     0.033 A 
ATOM     15  C   UNL d   1      -1.526  -1.498   2.035  0.00  0.00     0.032 A 
BRANCH  11  16
ATOM     16  S   UNL d   1      -6.798   1.484   3.846  0.00  0.00    -0.109 SA
ATOM     17  C   UNL d   1      -7.615  -0.118   4.008  0.00  0.00     0.097 C 
ENDBRANCH  11  16
ENDBRANCH   4   6
ENDBRANCH   1   4
BRANCH   1  18
ATOM     18  C   UNL d   1       0.308   1.453  -0.365  0.00  0.00     0.080 A 
ATOM     19  C   UNL d   1       1.038   2.627  -0.164  0.00  0.00     0.027 A 
ATOM     20  C   UNL d   1       0.444   3.862  -0.452  0.00  0.00     0.031 A 
ATOM     21  C   UNL d   1      -0.870   3.928  -0.939  0.00  0.00     0.034 A 
ATOM     22  C   UNL d   1      -1.562   2.737  -1.182  0.00  0.00     0.031 A 
ATOM     23  C   UNL d   1      -0.973   1.500  -0.911  0.00  0.00     0.027 A 
BRANCH  21  24
ATOM     24  N   UNL d   1      -1.424   5.211  -1.150  0.00  0.00    -0.328 N 
ATOM     25  C   UNL d   1      -2.719   5.503  -1.537  0.00  0.00     0.218 C 
ATOM     26  O   UNL d   1      -3.615   4.697  -1.773  0.00  0.00    -0.274 OA
ATOM     27  C   UNL d   1      -2.991   6.981  -1.655  0.00  0.00     0.117 C 
ATOM     28  H   UNL d   1      -0.813   5.993  -0.961  0.00  0.00     0.169 HD
ENDBRANCH  21  24
ENDBRANCH   1  18
TORSDOF 5
