REMARK  6 active torsions:
REMARK  status: ('A' for Active; 'I' for Inactive)
REMARK    1  A    between atoms: C_5  and  N_1 
REMARK    2  A    between atoms: N_8  and  N_2 
REMARK       I    between atoms: C_4  and  N_8 
REMARK    3  A    between atoms: C_6  and  C_4 
REMARK    4  A    between atoms: C_7  and  C_9 
REMARK    5  A    between atoms: O_20  and  C_7 
REMARK    6  A    between atoms: C_11  and  C_13 
ROOT
ATOM      1  N   UNL d   1      -2.885   2.982  -4.178  0.00  0.00    -0.302 N 
ATOM      2  HN  UNL d   1      -3.326   3.390  -5.003  1.00  0.00     0.186 HD
ATOM      3  C   UNL d   1      -1.892   2.148  -4.321  0.00  0.00     0.032 C 
ATOM      4  C   UNL d   1      -1.137   1.476  -3.188  0.00  0.00     0.070 C 
ENDROOT
BRANCH   1   5
ATOM      5  N   UNL d   1      -3.337   3.310  -2.941  0.00  0.00    -0.266 N 
ATOM      6  C   UNL d   1      -4.382   4.169  -2.707  0.00  0.00     0.259 C 
ATOM      7  O   UNL d   1      -4.755   4.405  -1.560  0.00  0.00    -0.267 OA
ATOM      8  H   UNL d   1      -2.938   2.905  -2.106  0.00  0.00     0.190 HD
BRANCH   6   9
ATOM      9  C   UNL d   1      -5.036   4.795  -3.880  0.00  0.00     0.082 C 
ATOM     10  C   UNL d   1      -6.060   5.636  -3.670  0.00  0.00     0.086 C 
BRANCH  10  11
ATOM     11  C   UNL d   1      -6.724   6.270  -4.817  0.00  0.00     0.165 C 
ATOM     12  O   UNL d   1      -6.407   6.093  -5.981  0.00  0.00    -0.647 OA
BRANCH  11  13
ATOM     13  O   UNL d   1      -7.736   7.076  -4.441  0.00  0.00    -0.773 OA
ATOM     14  H   UNL d   1      -7.895   7.133  -3.481  0.00  0.00     0.167 HD
ENDBRANCH  11  13
ENDBRANCH  10  11
ENDBRANCH   6   9
ENDBRANCH   1   5
BRANCH   3  15
ATOM     15  C   UNL d   1      -1.457   1.808  -5.727  0.00  0.00    -0.012 A 
ATOM     16  C   UNL d   1      -2.131   2.396  -6.811  0.00  0.00     0.016 A 
ATOM     17  C   UNL d   1      -1.788   2.078  -8.130  0.00  0.00     0.037 A 
ATOM     18  C   UNL d   1      -0.758   1.163  -8.373  0.00  0.00     0.102 A 
ATOM     19  C   UNL d   1      -0.064   0.580  -7.306  0.00  0.00     0.037 A 
ATOM     20  C   UNL d   1      -0.415   0.905  -5.989  0.00  0.00     0.016 A 
BRANCH  18  21
ATOM     21  N   UNL d   1      -0.410   0.804  -9.755  0.00  0.00    -0.116 N 
ATOM     22  O   UNL d   1       0.507  -0.012  -9.922  0.00  0.00    -0.532 OA
ATOM     23  O   UNL d   1      -1.056   1.334 -10.669  0.00  0.00    -0.532 OA
ENDBRANCH  18  21
ENDBRANCH   3  15
TORSDOF 6
