REMARK  2 active torsions:
REMARK  status: ('A' for Active; 'I' for Inactive)
REMARK    1  A    between atoms: C_2  and  C_1 
REMARK       I    between atoms: N_3  and  C_2 
REMARK    2  A    between atoms: C_14  and  N_3 
ROOT
ATOM      1  C   UNL d   1      -3.002   0.175   0.113  0.00  0.00     0.231 C 
ATOM      2  N   UNL d   1      -3.613   1.410  -0.018  0.00  0.00    -0.327 N 
ATOM      3  O   UNL d   1      -3.603  -0.876   0.340  0.00  0.00    -0.272 OA
ATOM      4  H   UNL d   1      -3.051   2.177  -0.360  0.00  0.00     0.169 HD
ENDROOT
BRANCH   1   5
ATOM      5  C   UNL d   1      -1.462   0.172  -0.021  0.00  0.00     0.042 C 
ATOM      6  C   UNL d   1      -0.800   0.964   1.132  0.00  0.00     0.024 C 
ATOM      7  C   UNL d   1       0.737   0.876   1.036  0.00  0.00    -0.013 C 
ATOM      8  C   UNL d   1       1.177  -0.595   1.115  0.00  0.00     0.009 C 
ATOM      9  C   UNL d   1       1.197   1.461  -0.310  0.00  0.00     0.009 C 
ATOM     10  C   UNL d   1       0.555  -1.391  -0.042  0.00  0.00    -0.013 C 
ATOM     11  C   UNL d   1      -0.971  -1.303   0.064  0.00  0.00     0.024 C 
ATOM     12  C   UNL d   1       0.995  -0.792  -1.385  0.00  0.00     0.009 C 
ATOM     13  C   UNL d   1       0.558   0.679  -1.471  0.00  0.00    -0.013 C 
ATOM     14  C   UNL d   1      -0.978   0.767  -1.364  0.00  0.00     0.024 C 
ENDBRANCH   1   5
BRANCH   2  15
ATOM     15  C   UNL d   1      -4.978   1.700   0.228  0.00  0.00     0.034 A 
ATOM     16  C   UNL d   1      -5.864   0.805   0.837  0.00  0.00     0.031 A 
ATOM     17  C   UNL d   1      -7.184   1.177   1.120  0.00  0.00     0.021 A 
ATOM     18  C   UNL d   1      -7.627   2.451   0.787  0.00  0.00     0.011 A 
ATOM     19  C   UNL d   1      -6.769   3.349   0.160  0.00  0.00     0.021 A 
ATOM     20 BR   UNL d   1      -9.395   2.969   1.210  0.00  0.00    -0.051 Br
ATOM     21  C   UNL d   1      -5.447   2.975  -0.115  0.00  0.00     0.031 A 
ENDBRANCH   2  15
TORSDOF 2
