REMARK  2 active torsions:
REMARK  status: ('A' for Active; 'I' for Inactive)
REMARK    1  A    between atoms: N_9  and  C_3 
REMARK    2  A    between atoms: C_7  and  C_4 
ROOT
ATOM      1  N   UNL d   1       0.516   1.448  -0.046  0.00  0.00    -0.350 N 
ATOM      2  HN  UNL d   1      -0.227   2.146  -0.067  1.00  0.00     0.166 HD
ATOM      3  C   UNL d   1       2.589  -0.464  -0.034  0.00  0.00     0.045 A 
ATOM      4  C   UNL d   1       1.808   1.838  -0.050  0.00  0.00     0.119 A 
ATOM      5  C   UNL d   1       0.206   0.134  -0.013  0.00  0.00     0.067 A 
ATOM      6  C   UNL d   1       1.211  -0.864   0.037  0.00  0.00     0.019 A 
ATOM      7  C   UNL d   1       2.848   0.916  -0.069  0.00  0.00     0.064 A 
ATOM      8  C   UNL d   1      -1.140  -0.256  -0.012  0.00  0.00     0.061 A 
ATOM      9 CL   UNL d   1      -2.412   0.926  -0.077  0.00  0.00    -0.082 Cl
ATOM     10  C   UNL d   1       0.772  -2.209   0.196  0.00  0.00     0.016 A 
ATOM     11  C   UNL d   1      -0.571  -2.575   0.163  0.00  0.00     0.003 A 
ATOM     12  C   UNL d   1      -1.535  -1.596   0.043  0.00  0.00     0.026 A 
ENDROOT
BRANCH   3  13
ATOM     13  N   UNL d   1       3.656  -1.371  -0.017  0.00  0.00    -0.380 N 
ATOM     14  C   UNL d   1       3.678  -2.531  -0.925  0.00  0.00     0.123 C 
ATOM     15  C   UNL d   1       4.223  -3.724  -0.132  0.00  0.00     0.020 C 
ATOM     16  C   UNL d   1       5.620  -3.423   0.414  0.00  0.00     0.003 C 
ATOM     17  C   UNL d   1       5.658  -2.096   1.172  0.00  0.00     0.020 C 
ATOM     18  C   UNL d   1       5.014  -0.957   0.379  0.00  0.00     0.123 C 
ENDBRANCH   3  13
BRANCH   4  19
ATOM     19  C   UNL d   1       2.143   3.323  -0.018  0.00  0.00     0.432 C 
ATOM     20  F   UNL d   1       1.060   4.150  -0.049  0.00  0.00    -0.165 F 
ATOM     21  F   UNL d   1       2.845   3.674   1.101  0.00  0.00    -0.165 F 
ATOM     22  F   UNL d   1       2.929   3.701  -1.069  0.00  0.00    -0.165 F 
ENDBRANCH   4  19
TORSDOF 2
