REMARK  4 active torsions:
REMARK  status: ('A' for Active; 'I' for Inactive)
REMARK    1  A    between atoms: S_12  and  C_1 
REMARK    2  A    between atoms: C_6  and  C_7 
REMARK    3  A    between atoms: C_7  and  C_8 
REMARK    4  A    between atoms: C_9  and  S_12 
ROOT
ATOM      1  C   UNL d   1       1.951  -5.213  -0.031  0.00  0.00     0.063 C 
ATOM      2  C   UNL d   1       1.575  -3.927  -0.038  0.00  0.00     0.057 C 
ENDROOT
BRANCH   2   3
ATOM      3  S   UNL d   1      -0.102  -3.491   0.030  0.00  0.00    -0.066 SA
BRANCH   3   4
ATOM      4  C   UNL d   1      -0.000  -1.813   0.617  0.00  0.00     0.148 A 
ATOM      5  N   UNL d   1      -0.987  -0.985   0.234  0.00  0.00    -0.341 N 
ATOM      6  C   UNL d   1      -0.958   0.269   0.724  0.00  0.00     0.009 A 
ATOM      7  HN  UNL d   1      -1.725  -1.292  -0.399  1.00  0.00     0.167 HD
ATOM      8  C   UNL d   1      -2.055   1.199   0.301  0.00  0.00     0.068 C 
ATOM      9  C   UNL d   1       0.030   0.703   1.585  0.00  0.00     0.049 A 
ATOM     10  C   UNL d   1       1.006  -0.215   1.921  0.00  0.00     0.009 A 
ATOM     11  N   UNL d   1       1.007  -1.474   1.443  0.00  0.00    -0.341 N 
ATOM     12  C   UNL d   1       2.112   0.171   2.856  0.00  0.00     0.068 C 
ATOM     13  HN  UNL d   1       1.737  -2.141   1.696  1.00  0.00     0.167 HD
ENDBRANCH   3   4
ENDBRANCH   2   3
BRANCH   1  14
ATOM     14  C   UNL d   1       3.354  -5.698  -0.084  0.00  0.00     0.185 C 
ATOM     15  O   UNL d   1       3.619  -6.783   0.436  0.00  0.00    -0.287 OA
BRANCH  14  16
ATOM     16  C   UNL d   1       4.435  -4.932  -0.744  0.00  0.00     0.052 A 
ATOM     17  C   UNL d   1       4.230  -4.144  -1.874  0.00  0.00     0.130 A 
ATOM     18  F   UNL d   1       3.015  -4.020  -2.428  0.00  0.00    -0.205 F 
ATOM     19  C   UNL d   1       5.289  -3.482  -2.492  0.00  0.00     0.043 A 
ATOM     20  C   UNL d   1       6.584  -3.629  -1.995  0.00  0.00     0.003 A 
ATOM     21  C   UNL d   1       6.811  -4.432  -0.878  0.00  0.00     0.001 A 
ATOM     22  C   UNL d   1       5.744  -5.082  -0.252  0.00  0.00     0.018 A 
ENDBRANCH  14  16
ENDBRANCH   1  14
TORSDOF 4
