REMARK  5 active torsions:
REMARK  status: ('A' for Active; 'I' for Inactive)
REMARK    1  A    between atoms: N_8  and  C_1 
REMARK    2  A    between atoms: C_13  and  C_2 
REMARK       I    between atoms: C_7  and  N_8 
REMARK       I    between atoms: N_9  and  C_7 
REMARK    3  A    between atoms: C_10  and  N_9 
REMARK    4  A    between atoms: O_12  and  C_11 
REMARK    5  A    between atoms: C_15  and  O_12 
ROOT
ATOM      1  C   UNL d   1       1.611  -2.611  -1.166  0.00  0.00     0.325 C 
ATOM      2  N   UNL d   1       0.324  -2.268  -0.775  0.00  0.00    -0.304 N 
ATOM      3  N   UNL d   1       2.544  -1.940  -0.379  0.00  0.00    -0.306 N 
ATOM      4  O   UNL d   1       1.881  -3.463  -2.003  0.00  0.00    -0.247 OA
ATOM      5  H   UNL d   1       0.221  -1.837   0.132  0.00  0.00     0.171 HD
ATOM      6  H   UNL d   1       2.173  -1.576   0.484  0.00  0.00     0.171 HD
ENDROOT
BRANCH   2   7
ATOM      7  C   UNL d   1      -0.834  -2.855  -1.280  0.00  0.00     0.097 A 
ATOM      8  C   UNL d   1      -2.020  -3.166  -0.534  0.00  0.00     0.094 A 
ATOM      9  N   UNL d   1      -2.985  -3.606  -1.351  0.00  0.00    -0.258 N 
ATOM     10  O   UNL d   1      -2.421  -3.693  -2.599  0.00  0.00    -0.240 OA
ATOM     11  HN  UNL d   1      -3.946  -3.832  -1.098  1.00  0.00     0.195 HD
ATOM     12  C   UNL d   1      -1.121  -3.279  -2.558  0.00  0.00     0.101 A 
ATOM     13  C   UNL d   1      -0.409  -3.367  -3.846  0.00  0.00     0.081 C 
BRANCH   8  14
ATOM     14  C   UNL d   1      -2.209  -3.213   0.917  0.00  0.00    -0.005 A 
ATOM     15  C   UNL d   1      -3.439  -2.858   1.488  0.00  0.00     0.014 A 
ATOM     16  C   UNL d   1      -3.671  -3.067   2.850  0.00  0.00     0.001 A 
ATOM     17  C   UNL d   1      -2.678  -3.629   3.651  0.00  0.00     0.000 A 
ATOM     18  C   UNL d   1      -1.445  -3.967   3.097  0.00  0.00     0.001 A 
ATOM     19  C   UNL d   1      -1.212  -3.760   1.736  0.00  0.00     0.014 A 
ENDBRANCH   8  14
ENDBRANCH   2   7
BRANCH   3  20
ATOM     20  C   UNL d   1       3.896  -2.357  -0.320  0.00  0.00     0.070 A 
ATOM     21  C   UNL d   1       4.750  -2.507  -1.425  0.00  0.00     0.102 A 
ATOM     22  C   UNL d   1       5.998  -3.118  -1.243  0.00  0.00     0.039 A 
ATOM     23  C   UNL d   1       6.423  -3.515   0.026  0.00  0.00     0.003 A 
ATOM     24  C   UNL d   1       5.617  -3.269   1.134  0.00  0.00     0.002 A 
ATOM     25  C   UNL d   1       4.367  -2.676   0.963  0.00  0.00     0.032 A 
BRANCH  21  26
ATOM     26  O   UNL d   1       4.505  -2.118  -2.725  0.00  0.00    -0.309 OA
BRANCH  26  27
ATOM     27  C   UNL d   1       3.795  -0.970  -2.990  0.00  0.00     0.076 A 
ATOM     28  C   UNL d   1       3.842   0.196  -2.223  0.00  0.00     0.037 A 
ATOM     29  C   UNL d   1       2.987   1.259  -2.524  0.00  0.00     0.003 A 
ATOM     30  C   UNL d   1       2.131   1.179  -3.623  0.00  0.00     0.000 A 
ATOM     31  C   UNL d   1       2.151   0.052  -4.442  0.00  0.00     0.003 A 
ATOM     32  C   UNL d   1       2.990  -1.016  -4.130  0.00  0.00     0.037 A 
ENDBRANCH  26  27
ENDBRANCH  21  26
ENDBRANCH   3  20
TORSDOF 5
