REMARK  7 active torsions:
REMARK  status: ('A' for Active; 'I' for Inactive)
REMARK    1  A    between atoms: N_8  and  C_1 
REMARK    2  A    between atoms: N_12  and  C_1 
REMARK    3  A    between atoms: C_2  and  C_6 
REMARK    4  A    between atoms: N_3  and  N_8 
REMARK    5  A    between atoms: C_13  and  N_12 
REMARK    6  A    between atoms: C_15  and  C_13 
REMARK    7  A    between atoms: C_14  and  C_15 
ROOT
ATOM      1  C   UNL d   1       0.769  -0.112   0.110  0.00  0.00     0.186 C 
ATOM      2  S   UNL d   1      -0.074  -0.094   1.564  0.00  0.00    -0.040 SA
ENDROOT
BRANCH   1   3
ATOM      3  N   UNL d   1       0.164  -0.257  -1.140  0.00  0.00    -0.277 N 
ATOM      4  H   UNL d   1       0.719  -0.225  -1.986  0.00  0.00     0.189 HD
BRANCH   3   5
ATOM      5  N   UNL d   1      -1.076  -0.830  -1.195  0.00  0.00    -0.308 N 
ATOM      6  C   UNL d   1      -1.594  -1.079  -2.353  0.00  0.00     0.126 C 
ATOM      7  HN  UNL d   1      -1.582  -1.057  -0.339  1.00  0.00     0.186 HD
BRANCH   6   8
ATOM      8  C   UNL d   1      -2.841  -1.807  -2.402  0.00  0.00     0.021 A 
ATOM      9  S   UNL d   1      -3.601  -2.110  -3.900  0.00  0.00    -0.101 SA
ATOM     10  C   UNL d   1      -4.859  -2.998  -3.150  0.00  0.00     0.050 A 
ATOM     11  C   UNL d   1      -4.706  -3.061  -1.783  0.00  0.00     0.008 A 
ATOM     12  C   UNL d   1      -3.543  -2.362  -1.350  0.00  0.00     0.021 A 
ENDBRANCH   6   8
ENDBRANCH   3   5
ENDBRANCH   1   3
BRANCH   1  13
ATOM     13  N   UNL d   1       2.154  -0.036   0.012  0.00  0.00    -0.366 N 
ATOM     14  H   UNL d   1       2.559  -0.054  -0.913  0.00  0.00     0.161 HD
BRANCH  13  15
ATOM     15  C   UNL d   1       3.031  -0.406   1.124  0.00  0.00     0.126 C 
BRANCH  15  16
ATOM     16  C   UNL d   1       4.518  -0.362   0.777  0.00  0.00     0.058 C 
BRANCH  16  17
ATOM     17  C   UNL d   1       5.357  -0.845   1.938  0.00  0.00    -0.057 A 
ATOM     18  C   UNL d   1       5.665  -2.205   2.079  0.00  0.00     0.007 A 
ATOM     19  C   UNL d   1       6.404  -2.654   3.176  0.00  0.00     0.001 A 
ATOM     20  C   UNL d   1       6.836  -1.750   4.144  0.00  0.00     0.000 A 
ATOM     21  C   UNL d   1       6.528  -0.397   4.018  0.00  0.00     0.001 A 
ATOM     22  C   UNL d   1       5.790   0.054   2.922  0.00  0.00     0.007 A 
ENDBRANCH  16  17
ENDBRANCH  15  16
ENDBRANCH  13  15
ENDBRANCH   1  13
TORSDOF 7
