REMARK  2 active torsions:
REMARK  status: ('A' for Active; 'I' for Inactive)
REMARK    1  A    between atoms: C_5  and  C_1 
REMARK    2  A    between atoms: C_4  and  C_6 
ROOT
ATOM      1  N   UNL d   1      -2.711  -2.916   0.598  0.00  0.00    -0.351 N 
ATOM      2  HN  UNL d   1      -2.034  -3.499   1.089  1.00  0.00     0.166 HD
ATOM      3  C   UNL d   1      -2.398  -1.947  -0.244  0.00  0.00     0.103 A 
ATOM      4  C   UNL d   1      -4.092  -3.029   0.720  0.00  0.00     0.025 A 
ATOM      5  S   UNL d   1      -3.735  -1.149  -0.968  0.00  0.00    -0.080 SA
ATOM      6  C   UNL d   1      -4.799  -2.162  -0.096  0.00  0.00     0.077 A 
ENDROOT
BRANCH   4   7
ATOM      7  C   UNL d   1      -4.672  -3.962   1.771  0.00  0.00     0.004 C 
ATOM      8  C   UNL d   1      -4.805  -3.179   3.107  0.00  0.00     0.020 C 
ATOM      9  C   UNL d   1      -5.406  -4.064   4.209  0.00  0.00    -0.013 C 
ATOM     10  C   UNL d   1      -6.795  -4.547   3.765  0.00  0.00     0.009 C 
ATOM     11  C   UNL d   1      -4.491  -5.276   4.438  0.00  0.00     0.009 C 
ATOM     12  C   UNL d   1      -6.678  -5.373   2.474  0.00  0.00    -0.013 C 
ATOM     13  C   UNL d   1      -6.078  -4.491   1.367  0.00  0.00     0.020 C 
ATOM     14  C   UNL d   1      -5.757  -6.577   2.715  0.00  0.00     0.009 C 
ATOM     15  C   UNL d   1      -4.363  -6.092   3.141  0.00  0.00    -0.013 C 
ATOM     16  C   UNL d   1      -3.768  -5.200   2.031  0.00  0.00     0.020 C 
ENDBRANCH   4   7
BRANCH   3  17
ATOM     17  C   UNL d   1      -0.974  -1.572  -0.534  0.00  0.00     0.091 A 
ATOM     18  N   UNL d   1      -0.623  -0.516  -1.283  0.00  0.00    -0.258 N 
ATOM     19  O   UNL d   1       0.760  -0.518  -1.312  0.00  0.00    -0.242 OA
ATOM     20  HN  UNL d   1      -1.247   0.151  -1.737  1.00  0.00     0.195 HD
ATOM     21  C   UNL d   1       1.224  -1.576  -0.599  0.00  0.00     0.074 A 
ATOM     22  C   UNL d   1       0.164  -2.269  -0.071  0.00  0.00     0.068 A 
ATOM     23  C   UNL d   1       2.689  -1.747  -0.559  0.00  0.00     0.079 C 
ENDBRANCH   3  17
TORSDOF 2
