REMARK  2 active torsions:
REMARK  status: ('A' for Active; 'I' for Inactive)
REMARK    1  A    between atoms: C_2  and  C_1 
REMARK       I    between atoms: N_3  and  C_1 
REMARK    2  A    between atoms: C_6  and  N_3 
ROOT
ATOM      1  N   UNL d   1      -1.802   0.915   0.444  0.00  0.00    -0.342 N 
ATOM      2  HN  UNL d   1      -1.305   0.827   1.330  1.00  0.00     0.167 HD
ATOM      3  C   UNL d   1      -1.119   1.009  -0.708  0.00  0.00     0.108 A 
ATOM      4  C   UNL d   1      -3.141   0.939   0.421  0.00  0.00     0.043 A 
ATOM      5  C   UNL d   1      -3.874   1.067  -0.774  0.00  0.00    -0.009 A 
ATOM      6  C   UNL d   1      -3.151   1.190  -1.966  0.00  0.00     0.017 A 
ATOM      7  C   UNL d   1      -1.757   1.165  -1.932  0.00  0.00     0.049 A 
ATOM      8  C   UNL d   1      -3.836   0.825   1.616  0.00  0.00     0.030 A 
ATOM      9  C   UNL d   1      -5.281   1.061  -0.741  0.00  0.00     0.013 A 
ATOM     10  C   UNL d   1      -5.231   0.821   1.655  0.00  0.00     0.002 A 
ATOM     11  C   UNL d   1      -5.955   0.935   0.473  0.00  0.00     0.001 A 
ENDROOT
BRANCH   3  12
ATOM     12  N   UNL d   1       0.282   0.948  -0.707  0.00  0.00    -0.309 N 
ATOM     13  C   UNL d   1       1.065   0.697   0.402  0.00  0.00     0.258 C 
ATOM     14  O   UNL d   1       0.666   0.486   1.543  0.00  0.00    -0.267 OA
ATOM     15  H   UNL d   1       0.738   1.041  -1.602  0.00  0.00     0.170 HD
BRANCH  13  16
ATOM     16  C   UNL d   1       2.548   0.727   0.197  0.00  0.00     0.054 A 
ATOM     17  C   UNL d   1       3.219   0.442  -1.001  0.00  0.00     0.049 A 
ATOM     18 CL   UNL d   1       2.429  -0.059  -2.456  0.00  0.00    -0.083 Cl
ATOM     19  C   UNL d   1       4.617   0.529  -1.059  0.00  0.00     0.025 A 
ATOM     20  C   UNL d   1       5.357   0.890   0.068  0.00  0.00     0.002 A 
ATOM     21  C   UNL d   1       4.704   1.154   1.266  0.00  0.00     0.001 A 
ATOM     22  C   UNL d   1       3.313   1.069   1.330  0.00  0.00     0.019 A 
ENDBRANCH  13  16
ENDBRANCH   3  12
TORSDOF 2
