REMARK  3 active torsions:
REMARK  status: ('A' for Active; 'I' for Inactive)
REMARK    1  A    between atoms: C_8  and  C_1 
REMARK    2  A    between atoms: C_7  and  C_15 
REMARK       I    between atoms: N_14  and  C_8 
REMARK    3  A    between atoms: C_15  and  N_14 
ROOT
ATOM      1  C   UNL d   1      -0.222  -2.463   0.021  0.00  0.00     0.262 C 
ATOM      2  N   UNL d   1       0.741  -3.454   0.011  0.00  0.00    -0.352 N 
ATOM      3  O   UNL d   1       0.120  -1.281   0.029  0.00  0.00    -0.267 OA
ATOM      4  H   UNL d   1       0.475  -4.431   0.024  0.00  0.00     0.163 HD
ENDROOT
BRANCH   2   5
ATOM      5  C   UNL d   1       2.139  -3.094   0.030  0.00  0.00     0.162 C 
BRANCH   5   6
ATOM      6  C   UNL d   1       2.984  -4.325  -0.039  0.00  0.00    -0.022 A 
ATOM      7  C   UNL d   1       3.438  -4.951  -1.267  0.00  0.00    -0.009 A 
ATOM      8  C   UNL d   1       4.248  -6.062  -1.013  0.00  0.00     0.015 A 
ATOM      9  C   UNL d   1       3.198  -4.606  -2.623  0.00  0.00     0.037 A 
ATOM     10  C   UNL d   1       4.813  -6.825  -2.056  0.00  0.00     0.021 A 
ATOM     11  S   UNL d   1       4.438  -6.330   0.675  0.00  0.00    -0.101 SA
ATOM     12  C   UNL d   1       4.556  -6.460  -3.379  0.00  0.00     0.025 A 
ATOM     13  C   UNL d   1       3.758  -5.362  -3.656  0.00  0.00     0.035 A 
ATOM     14 CL   UNL d   1       3.451  -4.919  -5.290  0.00  0.00    -0.084 Cl
ATOM     15  C   UNL d   1       3.469  -4.989   1.071  0.00  0.00     0.060 A 
ENDBRANCH   5   6
ENDBRANCH   2   5
BRANCH   1  16
ATOM     16  C   UNL d   1      -1.607  -2.878   0.022  0.00  0.00     0.114 A 
ATOM     17  C   UNL d   1      -2.772  -2.115   0.021  0.00  0.00     0.046 A 
ATOM     18  N   UNL d   1      -3.950  -2.860   0.026  0.00  0.00    -0.298 N 
ATOM     19  C   UNL d   1      -2.922  -0.636   0.015  0.00  0.00     0.071 C 
ATOM     20  N   UNL d   1      -3.717  -4.159   0.030  0.00  0.00    -0.269 N 
ATOM     21  HN  UNL d   1      -4.883  -2.449   0.027  1.00  0.00     0.187 HD
ATOM     22  S   UNL d   1      -2.091  -4.522   0.027  0.00  0.00     0.009 SA
ATOM     23  HN  UNL d   1      -4.454  -4.865   0.035  1.00  0.00     0.195 HD
ENDBRANCH   1  16
TORSDOF 3
