REMARK  8 active torsions:
REMARK  status: ('A' for Active; 'I' for Inactive)
REMARK    1  A    between atoms: C_2  and  C_1 
REMARK    2  A    between atoms: C_5  and  C_1 
REMARK    3  A    between atoms: C_11  and  C_1 
REMARK    4  A    between atoms: C_12  and  C_1 
REMARK    5  A    between atoms: O_10  and  C_2 
REMARK    6  A    between atoms: C_16  and  O_10 
REMARK    7  A    between atoms: C_14  and  C_11 
REMARK    8  A    between atoms: C_13  and  C_12 
ROOT
ATOM      1  N   UNL d   1      -1.828  -0.845  -3.991  0.00  0.00    -0.197 NA
ATOM      2  C   UNL d   1      -1.520  -0.584  -2.904  0.00  0.00     0.059 C 
ATOM      3  C   UNL d   1      -1.116  -0.268  -1.525  0.00  0.00     0.125 C 
ENDROOT
BRANCH   3   4
ATOM      4  C   UNL d   1       0.413  -0.351  -1.381  0.00  0.00     0.042 C 
BRANCH   4   5
ATOM      5  C   UNL d   1       0.972  -0.081   0.053  0.00  0.00     0.109 C 
BRANCH   5   6
ATOM      6  C   UNL d   1       0.506  -1.177   1.002  0.00  0.00     0.275 C 
ATOM      7  O   UNL d   1      -0.191  -2.122   0.657  0.00  0.00    -0.264 OA
BRANCH   6   8
ATOM      8  O   UNL d   1       0.975  -1.002   2.267  0.00  0.00    -0.321 OA
BRANCH   8   9
ATOM      9  C   UNL d   1       0.517  -1.971   3.227  0.00  0.00     0.174 C 
ATOM     10  C   UNL d   1       1.350  -3.237   3.153  0.00  0.00     0.034 C 
ENDBRANCH   8   9
ENDBRANCH   6   8
ENDBRANCH   5   6
BRANCH   5  11
ATOM     11  C   UNL d   1       0.547   1.340   0.440  0.00  0.00     0.141 C 
ATOM     12  O   UNL d   1       0.900   2.298  -0.258  0.00  0.00    -0.297 OA
ATOM     13  C   UNL d   1      -0.322   1.609   1.643  0.00  0.00     0.092 C 
ENDBRANCH   5  11
BRANCH   5  14
ATOM     14  C   UNL d   1       2.535  -0.101   0.020  0.00  0.00     0.042 C 
BRANCH  14  15
ATOM     15  C   UNL d   1       3.156  -1.408  -0.493  0.00  0.00     0.125 C 
ATOM     16  C   UNL d   1       4.622  -1.359  -0.431  0.00  0.00     0.059 C 
ATOM     17  N   UNL d   1       5.782  -1.329  -0.383  0.00  0.00    -0.197 NA
ENDBRANCH  14  15
ENDBRANCH   5  14
ENDBRANCH   4   5
ENDBRANCH   3   4
TORSDOF 8
