REMARK  7 active torsions:
REMARK  status: ('A' for Active; 'I' for Inactive)
REMARK    1  A    between atoms: S_15  and  C_3 
REMARK    2  A    between atoms: C_4  and  C_5 
REMARK    3  A    between atoms: C_6  and  O_13 
REMARK    4  A    between atoms: C_9  and  C_22 
REMARK       I    between atoms: N_14  and  C_9 
REMARK    5  A    between atoms: O_13  and  C_23 
REMARK    6  A    between atoms: C_24  and  N_14 
REMARK    7  A    between atoms: C_22  and  S_15 
ROOT
ATOM      1  C   UNL d   1      -1.383   5.050   0.167  0.00  0.00     0.231 C 
ATOM      2  N   UNL d   1      -0.146   5.665   0.278  0.00  0.00    -0.327 N 
ATOM      3  O   UNL d   1      -1.575   3.876  -0.140  0.00  0.00    -0.272 OA
ATOM      4  H   UNL d   1      -0.163   6.635   0.572  0.00  0.00     0.169 HD
ENDROOT
BRANCH   1   5
ATOM      5  C   UNL d   1      -2.558   5.938   0.561  0.00  0.00     0.185 C 
BRANCH   5   6
ATOM      6  S   UNL d   1      -2.390   7.647  -0.038  0.00  0.00    -0.085 SA
BRANCH   6   7
ATOM      7  C   UNL d   1      -2.307   7.274  -1.769  0.00  0.00     0.145 A 
ATOM      8  N   UNL d   1      -1.102   7.361  -2.347  0.00  0.00    -0.336 N 
ATOM      9  C   UNL d   1      -1.025   6.997  -3.646  0.00  0.00     0.052 A 
ATOM     10  HN  UNL d   1      -0.283   7.686  -1.833  1.00  0.00     0.168 HD
ATOM     11  C   UNL d   1      -2.125   6.556  -4.354  0.00  0.00     0.048 A 
ATOM     12  C   UNL d   1      -3.311   6.512  -3.661  0.00  0.00     0.092 A 
ATOM     13  N   UNL d   1      -3.430   6.860  -2.369  0.00  0.00    -0.347 N 
ATOM     14  HN  UNL d   1      -4.321   6.811  -1.875  1.00  0.00     0.167 HD
BRANCH   9  15
ATOM     15  C   UNL d   1       0.333   7.072  -4.209  0.00  0.00     0.031 A 
ATOM     16  S   UNL d   1       0.613   7.167  -5.904  0.00  0.00    -0.100 SA
ATOM     17  C   UNL d   1       2.311   7.198  -5.704  0.00  0.00     0.050 A 
ATOM     18  C   UNL d   1       2.675   7.149  -4.379  0.00  0.00     0.008 A 
ATOM     19  C   UNL d   1       1.537   7.098  -3.525  0.00  0.00     0.021 A 
ENDBRANCH   9  15
ENDBRANCH   6   7
ENDBRANCH   5   6
ENDBRANCH   1   5
BRANCH   2  20
ATOM     20  C   UNL d   1       1.106   5.163  -0.129  0.00  0.00     0.034 A 
ATOM     21  C   UNL d   1       1.286   3.921  -0.736  0.00  0.00     0.032 A 
ATOM     22  C   UNL d   1       2.555   3.518  -1.161  0.00  0.00     0.039 A 
ATOM     23  C   UNL d   1       3.658   4.348  -0.972  0.00  0.00     0.076 A 
ATOM     24  C   UNL d   1       3.483   5.609  -0.401  0.00  0.00     0.039 A 
ATOM     25  C   UNL d   1       2.216   6.002   0.040  0.00  0.00     0.032 A 
BRANCH  23  26
ATOM     26  O   UNL d   1       4.857   3.882  -1.452  0.00  0.00    -0.309 OA
BRANCH  26  27
ATOM     27  C   UNL d   1       6.012   4.081  -0.728  0.00  0.00     0.098 A 
ATOM     28  C   UNL d   1       7.221   4.137  -1.439  0.00  0.00     0.069 A 
ATOM     29  C   UNL d   1       8.433   4.318  -0.768  0.00  0.00     0.050 A 
ATOM     30 CL   UNL d   1       7.258   3.984  -3.160  0.00  0.00    -0.081 Cl
ATOM     31  C   UNL d   1       8.437   4.439   0.619  0.00  0.00     0.035 A 
ATOM     32  C   UNL d   1       7.249   4.354   1.341  0.00  0.00     0.026 A 
ATOM     33 CL   UNL d   1       9.923   4.685   1.450  0.00  0.00    -0.084 Cl
ATOM     34  C   UNL d   1       6.040   4.153   0.671  0.00  0.00     0.041 A 
ENDBRANCH  26  27
ENDBRANCH  23  26
ENDBRANCH   2  20
TORSDOF 7
