REMARK  4 active torsions:
REMARK  status: ('A' for Active; 'I' for Inactive)
REMARK    1  A    between atoms: S_8  and  C_1 
REMARK    2  A    between atoms: C_7  and  C_11 
REMARK       I    between atoms: N_9  and  C_7 
REMARK    3  A    between atoms: C_11  and  S_8 
REMARK    4  A    between atoms: C_12  and  N_9 
ROOT
ATOM      1  C   UNL d   1      -4.839  -0.139  -0.287  0.00  0.00     0.184 C 
ENDROOT
BRANCH   1   2
ATOM      2  C   UNL d   1      -6.139  -0.902  -0.117  0.00  0.00     0.231 C 
ATOM      3  N   UNL d   1      -7.071  -0.638  -1.108  0.00  0.00    -0.327 N 
ATOM      4  H   UNL d   1      -6.730  -0.129  -1.922  0.00  0.00     0.169 HD
ATOM      5  O   UNL d   1      -6.289  -1.668   0.833  0.00  0.00    -0.272 OA
BRANCH   3   6
ATOM      6  C   UNL d   1      -8.409  -1.083  -1.148  0.00  0.00     0.034 A 
ATOM      7  C   UNL d   1      -9.032  -1.757  -0.093  0.00  0.00     0.031 A 
ATOM      8  C   UNL d   1     -10.374  -2.143  -0.182  0.00  0.00     0.021 A 
ATOM      9  C   UNL d   1     -11.103  -1.851  -1.332  0.00  0.00     0.011 A 
ATOM     10  C   UNL d   1     -10.498  -1.183  -2.393  0.00  0.00     0.021 A 
ATOM     11 BR   UNL d   1     -12.919  -2.360  -1.445  0.00  0.00    -0.051 Br
ATOM     12  C   UNL d   1      -9.154  -0.798  -2.299  0.00  0.00     0.031 A 
ENDBRANCH   3   6
ENDBRANCH   1   2
BRANCH   1  13
ATOM     13  S   UNL d   1      -3.661  -1.135  -1.231  0.00  0.00    -0.096 SA
BRANCH  13  14
ATOM     14  C   UNL d   1      -4.153  -0.791  -2.873  0.00  0.00     0.113 A 
ATOM     15  N   UNL d   1      -4.980   0.190  -3.163  0.00  0.00    -0.344 N 
ATOM     16  C   UNL d   1      -5.032   0.347  -4.542  0.00  0.00     0.050 A 
ATOM     17  HN  UNL d   1      -5.500   0.745  -2.484  1.00  0.00     0.167 HD
ATOM     18  C   UNL d   1      -5.715   1.367  -5.235  0.00  0.00     0.031 A 
ATOM     19  C   UNL d   1      -4.316  -0.598  -5.281  0.00  0.00     0.034 A 
ATOM     20  C   UNL d   1      -5.654   1.420  -6.633  0.00  0.00     0.002 A 
ATOM     21  C   UNL d   1      -4.944   0.459  -7.346  0.00  0.00     0.002 A 
ATOM     22  C   UNL d   1      -4.272  -0.572  -6.684  0.00  0.00     0.021 A 
ATOM     23  S   UNL d   1      -3.545  -1.687  -4.196  0.00  0.00    -0.063 SA
ENDBRANCH  13  14
ENDBRANCH   1  13
TORSDOF 4
