REMARK  5 active torsions:
REMARK  status: ('A' for Active; 'I' for Inactive)
REMARK    1  A    between atoms: C_3  and  C_1 
REMARK    2  A    between atoms: C_12  and  C_2 
REMARK    3  A    between atoms: C_18  and  C_8 
REMARK    4  A    between atoms: O_26  and  C_12 
REMARK    5  A    between atoms: C_19  and  C_15 
ROOT
ATOM      1  C   UNL d   1       2.961   1.268  -1.439  0.00  0.00     0.052 A 
ATOM      2  C   UNL d   1       2.202   1.530  -0.132  0.00  0.00     0.102 A 
ATOM      3  C   UNL d   1       3.124   1.679   1.074  0.00  0.00     0.024 A 
ATOM      4  C   UNL d   1       4.469   1.643   0.943  0.00  0.00     0.021 A 
ATOM      5  C   UNL d   1       4.315   1.256  -1.472  0.00  0.00     0.018 A 
ATOM      6  N   UNL d   1       5.034   1.460  -0.302  0.00  0.00    -0.362 N 
ATOM      7  C   UNL d   1       2.544   1.888   2.433  0.00  0.00     0.159 C 
ATOM      8  C   UNL d   1       5.430   1.814   2.103  0.00  0.00     0.067 C 
ATOM      9  C   UNL d   1       4.786   2.457   3.345  0.00  0.00     0.031 C 
ATOM     10  C   UNL d   1       3.469   1.721   3.617  0.00  0.00     0.093 C 
ATOM     11  O   UNL d   1       1.356   2.157   2.595  0.00  0.00    -0.293 OA
ATOM     12  C   UNL d   1       5.169   1.058  -2.701  0.00  0.00     0.069 C 
ATOM     13  H   UNL d   1       6.048   1.407  -0.366  0.00  0.00     0.165 HD
ENDROOT
BRANCH   2  14
ATOM     14  C   UNL d   1       1.073   0.538   0.099  0.00  0.00     0.001 A 
ATOM     15  C   UNL d   1       1.031  -0.898   0.128  0.00  0.00     0.067 A 
ATOM     16  N   UNL d   1      -0.232  -1.330   0.313  0.00  0.00    -0.300 N 
ATOM     17  N   UNL d   1      -0.964  -0.222   0.433  0.00  0.00    -0.311 N 
ATOM     18  HN  UNL d   1      -0.558  -2.295   0.353  1.00  0.00     0.187 HD
ATOM     19  C   UNL d   1      -0.246   0.917   0.286  0.00  0.00     0.117 A 
ATOM     20  H   UNL d   1      -1.961  -0.316   0.597  0.00  0.00     0.186 HD
BRANCH  15  21
ATOM     21  C   UNL d   1       2.096  -1.891  -0.046  0.00  0.00    -0.007 A 
ATOM     22  C   UNL d   1       3.362  -1.726   0.523  0.00  0.00     0.017 A 
ATOM     23  C   UNL d   1       4.370  -2.672   0.326  0.00  0.00     0.043 A 
ATOM     24  C   UNL d   1       4.098  -3.818  -0.407  0.00  0.00     0.116 A 
ATOM     25  C   UNL d   1       2.835  -4.034  -0.944  0.00  0.00     0.043 A 
ATOM     26  F   UNL d   1       5.059  -4.733  -0.582  0.00  0.00    -0.206 F 
ATOM     27  C   UNL d   1       1.839  -3.070  -0.767  0.00  0.00     0.017 A 
ENDBRANCH  15  21
ENDBRANCH   2  14
BRANCH   1  28
ATOM     28  C   UNL d   1       2.151   1.002  -2.655  0.00  0.00     0.291 C 
ATOM     29  O   UNL d   1       2.443   0.186  -3.515  0.00  0.00    -0.260 OA
BRANCH  28  30
ATOM     30  O   UNL d   1       1.040   1.780  -2.650  0.00  0.00    -0.323 OA
ATOM     31  C   UNL d   1       0.087   1.470  -3.670  0.00  0.00     0.213 C 
ENDBRANCH  28  30
ENDBRANCH   1  28
BRANCH   9  32
ATOM     32  C   UNL d   1       4.575   3.972   3.291  0.00  0.00    -0.053 A 
ATOM     33  C   UNL d   1       4.095   4.629   4.440  0.00  0.00     0.010 A 
ATOM     34  C   UNL d   1       3.820   5.998   4.424  0.00  0.00     0.043 A 
ATOM     35  C   UNL d   1       4.040   6.727   3.264  0.00  0.00     0.116 A 
ATOM     36  C   UNL d   1       4.537   6.113   2.124  0.00  0.00     0.043 A 
ATOM     37  F   UNL d   1       3.767   8.037   3.244  0.00  0.00    -0.206 F 
ATOM     38  C   UNL d   1       4.806   4.742   2.138  0.00  0.00     0.010 A 
ENDBRANCH   9  32
TORSDOF 5
