REMARK  5 active torsions:
REMARK  status: ('A' for Active; 'I' for Inactive)
REMARK    1  A    between atoms: S_12  and  C_2 
REMARK    2  A    between atoms: S_18  and  C_3 
REMARK    3  A    between atoms: C_9  and  C_11 
REMARK    4  A    between atoms: C_11  and  C_16 
REMARK    5  A    between atoms: C_16  and  S_12 
ROOT
ATOM      1  C   UNL d   1       2.341   4.768  -0.118  0.00  0.00     0.169 C 
ATOM      2  O   UNL d   1       3.289   5.043  -0.853  0.00  0.00    -0.291 OA
ENDROOT
BRANCH   1   3
ATOM      3  C   UNL d   1       1.179   5.713  -0.077  0.00  0.00     0.013 A 
ATOM      4  C   UNL d   1       0.111   5.558   0.816  0.00  0.00     0.054 A 
ATOM      5  C   UNL d   1      -0.949   6.469   0.799  0.00  0.00     0.103 A 
ATOM      6  O   UNL d   1      -1.972   6.235   1.684  0.00  0.00    -0.346 OA
ATOM      7  C   UNL d   1      -0.940   7.554  -0.083  0.00  0.00     0.102 A 
ATOM      8  C   UNL d   1      -3.146   6.976   1.329  0.00  0.00     0.202 C 
ATOM      9  C   UNL d   1      -2.794   8.420   1.008  0.00  0.00     0.202 C 
ATOM     10  O   UNL d   1      -1.935   8.492  -0.136  0.00  0.00    -0.346 OA
ATOM     11  C   UNL d   1       0.117   7.712  -0.975  0.00  0.00     0.040 A 
ATOM     12  C   UNL d   1       1.172   6.795  -0.971  0.00  0.00     0.018 A 
ENDBRANCH   1   3
BRANCH   1  13
ATOM     13  C   UNL d   1       2.293   3.532   0.767  0.00  0.00     0.165 C 
BRANCH  13  14
ATOM     14  S   UNL d   1       3.742   2.456   0.567  0.00  0.00    -0.096 SA
BRANCH  14  15
ATOM     15  C   UNL d   1       3.564   1.978  -1.106  0.00  0.00     0.129 A 
ATOM     16  S   UNL d   1       4.898   1.566  -2.097  0.00  0.00    -0.038 SA
ATOM     17  C   UNL d   1       3.771   1.315  -3.366  0.00  0.00     0.128 A 
ATOM     18  N   UNL d   1       2.515   1.497  -3.020  0.00  0.00    -0.287 N 
ATOM     19  N   UNL d   1       2.391   1.881  -1.696  0.00  0.00    -0.287 N 
ATOM     20  HN  UNL d   1       1.725   1.371  -3.653  1.00  0.00     0.188 HD
ATOM     21  HN  UNL d   1       1.501   2.067  -1.235  1.00  0.00     0.188 HD
BRANCH  17  22
ATOM     22  S   UNL d   1       4.265   0.844  -4.976  0.00  0.00    -0.108 SA
ATOM     23  C   UNL d   1       2.680   0.876  -5.841  0.00  0.00     0.097 C 
ENDBRANCH  17  22
ENDBRANCH  14  15
ENDBRANCH  13  14
ENDBRANCH   1  13
TORSDOF 5
