REMARK  9 active torsions:
REMARK  status: ('A' for Active; 'I' for Inactive)
REMARK    1  A    between atoms: C_2  and  S_1 
REMARK    2  A    between atoms: C_18  and  S_1 
REMARK    3  A    between atoms: N_5  and  C_3 
REMARK       I    between atoms: C_6  and  N_5 
REMARK    4  A    between atoms: C_12  and  C_6 
REMARK    5  A    between atoms: C_7  and  C_12 
REMARK    6  A    between atoms: C_15  and  C_7 
REMARK    7  A    between atoms: C_10  and  C_15 
REMARK    8  A    between atoms: O_19  and  C_10 
REMARK    9  A    between atoms: O_20  and  C_11 
ROOT
ATOM      1  N   UNL d   1      -1.182  -3.177   2.722  0.00  0.00    -0.325 N 
ATOM      2  C   UNL d   1      -2.007  -4.114   3.304  0.00  0.00     0.223 C 
ATOM      3  O   UNL d   1      -2.834  -3.874   4.180  0.00  0.00    -0.273 OA
ATOM      4  H   UNL d   1      -0.368  -3.501   2.201  0.00  0.00     0.169 HD
ENDROOT
BRANCH   1   5
ATOM      5  C   UNL d   1      -1.232  -1.772   2.887  0.00  0.00     0.069 A 
ATOM      6  C   UNL d   1      -2.309  -1.083   3.449  0.00  0.00     0.055 A 
ATOM      7  C   UNL d   1      -2.266   0.316   3.531  0.00  0.00     0.061 A 
ATOM      8  C   UNL d   1      -1.165   1.036   3.054  0.00  0.00     0.026 A 
ATOM      9  C   UNL d   1      -0.089   0.353   2.492  0.00  0.00     0.040 A 
ATOM     10  C   UNL d   1      -0.136  -1.038   2.402  0.00  0.00     0.092 A 
BRANCH   7  11
ATOM     11  S   UNL d   1      -3.666   1.207   4.182  0.00  0.00     0.175 S 
ATOM     12  O   UNL d   1      -4.855   0.444   3.856  0.00  0.00    -0.223 OA
ATOM     13  O   UNL d   1      -3.528   2.584   3.743  0.00  0.00    -0.223 OA
BRANCH  11  14
ATOM     14  C   UNL d   1      -3.400   1.152   5.944  0.00  0.00     0.141 C 
ATOM     15  C   UNL d   1      -4.365   2.055   6.688  0.00  0.00     0.021 C 
ENDBRANCH  11  14
ENDBRANCH   7  11
BRANCH  10  16
ATOM     16  O   UNL d   1       0.902  -1.728   1.831  0.00  0.00    -0.358 OA
ATOM     17  H   UNL d   1       1.533  -1.090   1.456  0.00  0.00     0.217 HD
ENDBRANCH  10  16
ENDBRANCH   1   5
BRANCH   2  18
ATOM     18  C   UNL d   1      -1.869  -5.519   2.711  0.00  0.00     0.113 C 
BRANCH  18  19
ATOM     19  C   UNL d   1      -3.131  -5.925   1.898  0.00  0.00    -0.023 C 
ATOM     20  C   UNL d   1      -4.345  -6.052   2.855  0.00  0.00     0.010 C 
ATOM     21  C   UNL d   1      -5.295  -7.088   2.261  0.00  0.00     0.001 C 
ATOM     22  C   UNL d   1      -4.529  -7.767   1.135  0.00  0.00     0.001 C 
ATOM     23  C   UNL d   1      -3.068  -7.368   1.344  0.00  0.00     0.010 C 
BRANCH  19  24
ATOM     24  C   UNL d   1      -3.415  -4.906   0.755  0.00  0.00     0.119 C 
BRANCH  24  25
ATOM     25  C   UNL d   1      -2.264  -4.721  -0.223  0.00  0.00     0.140 C 
ATOM     26  O   UNL d   1      -1.264  -5.412  -0.290  0.00  0.00    -0.650 OA
BRANCH  25  27
ATOM     27  O   UNL d   1      -2.452  -3.670  -1.052  0.00  0.00    -0.776 OA
ATOM     28  H   UNL d   1      -3.284  -3.186  -0.893  0.00  0.00     0.167 HD
ENDBRANCH  25  27
ENDBRANCH  24  25
ENDBRANCH  19  24
ENDBRANCH  18  19
ENDBRANCH   2  18
TORSDOF 9
