REMARK  2 active torsions:
REMARK  status: ('A' for Active; 'I' for Inactive)
REMARK    1  A    between atoms: S_12  and  C_5 
REMARK    2  A    between atoms: C_9  and  N_8 
ROOT
ATOM      1  C   UNL d   1       2.938  -1.007   1.033  0.00  0.00     0.166 A 
ATOM      2  S   UNL d   1       1.315  -1.596   0.917  0.00  0.00    -0.027 SA
ATOM      3  N   UNL d   1       3.507  -1.299   2.186  0.00  0.00    -0.278 N 
ATOM      4  HN  UNL d   1       4.479  -1.081   2.405  1.00  0.00     0.189 HD
ATOM      5  C   UNL d   1       1.465  -2.122   2.536  0.00  0.00     0.127 A 
ATOM      6  N   UNL d   1       2.650  -1.933   3.066  0.00  0.00    -0.286 N 
ATOM      7  HN  UNL d   1       2.907  -2.219   4.010  1.00  0.00     0.188 HD
ATOM      8  N   UNL d   1       3.474  -0.326  -0.006  0.00  0.00    -0.335 N 
ATOM      9  H   UNL d   1       2.893  -0.194  -0.825  0.00  0.00     0.168 HD
ENDROOT
BRANCH   8  10
ATOM     10  C   UNL d   1       4.514   0.631   0.052  0.00  0.00     0.046 A 
ATOM     11  C   UNL d   1       5.450   0.660  -1.019  0.00  0.00    -0.035 A 
ATOM     12  C   UNL d   1       6.472   1.625  -1.040  0.00  0.00     0.009 A 
ATOM     13  C   UNL d   1       5.406  -0.309  -2.172  0.00  0.00     0.050 C 
ATOM     14  C   UNL d   1       6.597   2.548  -0.013  0.00  0.00     0.001 A 
ATOM     15  C   UNL d   1       5.681   2.540   1.031  0.00  0.00     0.009 A 
ATOM     16  C   UNL d   1       4.622   1.613   1.068  0.00  0.00    -0.035 A 
ATOM     17  C   UNL d   1       3.669   1.742   2.228  0.00  0.00     0.050 C 
ENDBRANCH   8  10
BRANCH   5  18
ATOM     18  S   UNL d   1       0.152  -2.838   3.433  0.00  0.00    -0.117 SA
ATOM     19  H   UNL d   1      -0.810  -2.608   2.531  0.00  0.00     0.109 HD
ENDBRANCH   5  18
TORSDOF 2
