REMARK  10 active torsions:
REMARK  status: ('A' for Active; 'I' for Inactive)
REMARK    1  A    between atoms: C_5  and  C_1 
REMARK    2  A    between atoms: O_8  and  C_2 
REMARK    3  A    between atoms: C_23  and  O_8 
REMARK    4  A    between atoms: C_9  and  C_12 
REMARK    5  A    between atoms: O_27  and  C_9 
REMARK    6  A    between atoms: C_14  and  C_25 
REMARK    7  A    between atoms: O_30  and  C_14 
REMARK    8  A    between atoms: O_24  and  C_20 
REMARK    9  A    between atoms: C_25  and  O_24 
REMARK   10  A    between atoms: C_31  and  O_30 
ROOT
ATOM      1  C   UNL d   1      -1.807  -1.462   0.003  0.00  0.00     0.197 C 
ATOM      2  C   UNL d   1      -2.290  -0.207   0.074  0.00  0.00     0.165 C 
ATOM      3  O   UNL d   1      -0.456  -1.789   0.033  0.00  0.00    -0.302 OA
ATOM      4  C   UNL d   1      -1.315   0.900   0.292  0.00  0.00     0.221 C 
ATOM      5  C   UNL d   1       0.465  -0.776   0.036  0.00  0.00     0.093 A 
ATOM      6  C   UNL d   1       0.105   0.561   0.139  0.00  0.00     0.051 A 
ATOM      7  C   UNL d   1       1.812  -1.125  -0.055  0.00  0.00     0.075 A 
ATOM      8  C   UNL d   1       1.081   1.561   0.121  0.00  0.00     0.021 A 
ATOM      9  O   UNL d   1      -1.640   2.040   0.598  0.00  0.00    -0.284 OA
ATOM     10  C   UNL d   1       2.797  -0.133  -0.040  0.00  0.00     0.072 A 
ATOM     11  C   UNL d   1       2.429   1.212   0.026  0.00  0.00     0.038 A 
ENDROOT
BRANCH   2  12
ATOM     12  O   UNL d   1      -3.664   0.024   0.059  0.00  0.00    -0.304 OA
BRANCH  12  13
ATOM     13  C   UNL d   1      -4.171   1.149  -0.549  0.00  0.00     0.076 A 
ATOM     14  C   UNL d   1      -3.625   1.720  -1.701  0.00  0.00     0.038 A 
ATOM     15  C   UNL d   1      -4.190   2.879  -2.238  0.00  0.00     0.020 A 
ATOM     16  C   UNL d   1      -5.336   3.439  -1.663  0.00  0.00     0.039 A 
ATOM     17  C   UNL d   1      -5.917   2.835  -0.543  0.00  0.00     0.020 A 
ATOM     18  C   UNL d   1      -5.331   1.691   0.012  0.00  0.00     0.038 A 
BRANCH  16  19
ATOM     19  C   UNL d   1      -5.886   4.668  -2.279  0.00  0.00     0.292 C 
ATOM     20  O   UNL d   1      -5.215   5.444  -2.950  0.00  0.00    -0.259 OA
BRANCH  19  21
ATOM     21  O   UNL d   1      -7.221   4.756  -2.062  0.00  0.00    -0.323 OA
ATOM     22  C   UNL d   1      -7.840   5.843  -2.753  0.00  0.00     0.213 C 
ENDBRANCH  19  21
ENDBRANCH  16  19
ENDBRANCH  12  13
ENDBRANCH   2  12
BRANCH   1  23
ATOM     23  C   UNL d   1      -2.721  -2.644  -0.112  0.00  0.00     0.442 C 
ATOM     24  F   UNL d   1      -2.041  -3.818  -0.183  0.00  0.00    -0.164 F 
ATOM     25  F   UNL d   1      -3.554  -2.748   0.955  0.00  0.00    -0.164 F 
ATOM     26  F   UNL d   1      -3.498  -2.583  -1.223  0.00  0.00    -0.164 F 
ENDBRANCH   1  23
BRANCH  10  27
ATOM     27  O   UNL d   1       4.084  -0.584  -0.133  0.00  0.00    -0.341 OA
BRANCH  27  28
ATOM     28  C   UNL d   1       5.070   0.244   0.479  0.00  0.00     0.286 C 
BRANCH  28  29
ATOM     29  C   UNL d   1       6.399  -0.487   0.558  0.00  0.00     0.283 C 
ATOM     30  O   UNL d   1       6.633  -1.605   0.120  0.00  0.00    -0.263 OA
BRANCH  29  31
ATOM     31  O   UNL d   1       7.287   0.284   1.254  0.00  0.00    -0.320 OA
BRANCH  31  32
ATOM     32  C   UNL d   1       8.479  -0.390   1.684  0.00  0.00     0.174 C 
ATOM     33  C   UNL d   1       8.204  -1.028   3.034  0.00  0.00     0.034 C 
ENDBRANCH  31  32
ENDBRANCH  29  31
ENDBRANCH  28  29
ENDBRANCH  27  28
ENDBRANCH  10  27
TORSDOF 10
