REMARK  8 active torsions:
REMARK  status: ('A' for Active; 'I' for Inactive)
REMARK    1  A    between atoms: N_2  and  C_1 
REMARK    2  A    between atoms: N_3  and  C_1 
REMARK    3  A    between atoms: C_5  and  N_2 
REMARK    4  A    between atoms: C_12  and  N_2 
REMARK    5  A    between atoms: C_4  and  N_3 
REMARK    6  A    between atoms: C_6  and  C_5 
REMARK    7  A    between atoms: C_18  and  C_12 
REMARK    8  A    between atoms: O_19  and  C_14 
ROOT
ATOM      1  N   UNL d   1       0.003   1.179  -0.121  0.00  0.00    -0.345 N 
ENDROOT
BRANCH   1   2
ATOM      2  C   UNL d   1       0.696  -0.013  -0.364  0.00  0.00     0.175 C 
ATOM      3  S   UNL d   1       0.099  -1.582  -0.123  0.00  0.00    -0.041 SA
BRANCH   2   4
ATOM      4  N   UNL d   1       2.002  -0.054  -0.718  0.00  0.00    -0.330 N 
ATOM      5  H   UNL d   1       2.367  -0.990  -0.544  0.00  0.00     0.168 HD
BRANCH   4   6
ATOM      6  C   UNL d   1       2.963   0.802  -1.282  0.00  0.00     0.078 C 
ATOM      7  C   UNL d   1       2.723   1.967  -2.016  0.00  0.00     0.064 C 
ATOM      8  C   UNL d   1       3.777   2.837  -2.322  0.00  0.00     0.050 C 
ATOM      9 CL   UNL d   1       1.228   2.261  -2.828  0.00  0.00    -0.082 Cl
ATOM     10  C   UNL d   1       5.088   2.481  -2.019  0.00  0.00     0.037 C 
ATOM     11  C   UNL d   1       5.368   1.237  -1.475  0.00  0.00     0.050 C 
ATOM     12 CL   UNL d   1       6.377   3.559  -2.381  0.00  0.00    -0.084 Cl
ATOM     13  C   UNL d   1       4.311   0.408  -1.116  0.00  0.00     0.064 C 
ATOM     14 CL   UNL d   1       4.708  -1.152  -0.461  0.00  0.00    -0.082 Cl
ENDBRANCH   4   6
ENDBRANCH   2   4
ENDBRANCH   1   2
BRANCH   1  15
ATOM     15  C   UNL d   1      -1.509   1.120  -0.155  0.00  0.00     0.118 C 
ATOM     16  C   UNL d   1      -2.055   1.296  -1.587  0.00  0.00     0.037 C 
BRANCH  15  17
ATOM     17  C   UNL d   1      -2.257   1.691   1.047  0.00  0.00    -0.003 A 
ATOM     18  C   UNL d   1      -3.262   2.659   0.990  0.00  0.00     0.074 A 
ATOM     19  C   UNL d   1      -4.032   2.974   2.117  0.00  0.00     0.037 A 
ATOM     20  C   UNL d   1      -3.789   2.342   3.335  0.00  0.00     0.003 A 
ATOM     21  C   UNL d   1      -2.765   1.409   3.434  0.00  0.00     0.001 A 
ATOM     22  C   UNL d   1      -2.015   1.085   2.303  0.00  0.00     0.012 A 
BRANCH  18  23
ATOM     23  O   UNL d   1      -3.532   3.308  -0.180  0.00  0.00    -0.360 OA
ATOM     24  H   UNL d   1      -3.981   4.143   0.035  0.00  0.00     0.217 HD
ENDBRANCH  18  23
ENDBRANCH  15  17
ENDBRANCH   1  15
BRANCH   1  25
ATOM     25  C   UNL d   1       0.668   2.283   0.642  0.00  0.00     0.164 C 
BRANCH  25  26
ATOM     26  C   UNL d   1       0.638   3.725   0.148  0.00  0.00    -0.040 A 
ATOM     27  C   UNL d   1      -0.363   4.274  -0.652  0.00  0.00     0.009 A 
ATOM     28  C   UNL d   1      -0.332   5.597  -1.105  0.00  0.00     0.001 A 
ATOM     29  C   UNL d   1       0.700   6.439  -0.713  0.00  0.00     0.000 A 
ATOM     30  C   UNL d   1       1.681   5.949   0.141  0.00  0.00     0.001 A 
ATOM     31  C   UNL d   1       1.652   4.612   0.570  0.00  0.00     0.009 A 
ENDBRANCH  25  26
ENDBRANCH   1  25
TORSDOF 8
