REMARK  3 active torsions:
REMARK  status: ('A' for Active; 'I' for Inactive)
REMARK    1  A    between atoms: N_2  and  S_1 
REMARK    2  A    between atoms: C_6  and  S_1 
REMARK    3  A    between atoms: C_3  and  N_4 
ROOT
ATOM      1  C   UNL d   1       0.878  -4.982  -1.128  0.00  0.00     0.141 A 
ATOM      2  C   UNL d   1       0.586  -5.465  -2.420  0.00  0.00     0.158 A 
ATOM      3  C   UNL d   1       0.364  -4.602  -3.545  0.00  0.00     0.121 C 
ATOM      4  N   UNL d   1       0.165  -3.892  -4.445  0.00  0.00    -0.190 NA
ATOM      5  N   UNL d   1       1.194  -5.887  -0.161  0.00  0.00    -0.349 N 
ATOM      6  HN  UNL d   1       1.450  -5.583   0.778  1.00  0.00     0.167 HD
ATOM      7  N   UNL d   1       0.550  -6.795  -2.746  0.00  0.00    -0.353 N 
ATOM      8  HN  UNL d   1       0.324  -7.117  -3.687  1.00  0.00     0.166 HD
ATOM      9  C   UNL d   1       1.160  -7.202  -0.483  0.00  0.00     0.106 A 
ATOM     10  C   UNL d   1       0.831  -7.647  -1.744  0.00  0.00     0.106 A 
ENDROOT
BRANCH   1  11
ATOM     11  N   UNL d   1       0.820  -3.669  -0.715  0.00  0.00    -0.363 N 
ATOM     12  C   UNL d   1      -0.117  -2.684  -1.269  0.00  0.00     0.140 C 
ATOM     13  C   UNL d   1      -0.741  -1.858  -0.132  0.00  0.00     0.127 C 
ATOM     14  N   UNL d   1       0.310  -1.182   0.687  0.00  0.00    -0.203 NA
ATOM     15  C   UNL d   1       1.221  -2.214   1.292  0.00  0.00     0.127 C 
ATOM     16  C   UNL d   1       1.833  -3.169   0.235  0.00  0.00     0.140 C 
BRANCH  14  17
ATOM     17  S   UNL d   1       1.056   0.155  -0.066  0.00  0.00     0.243 S 
ATOM     18  O   UNL d   1       0.083   0.780  -0.937  0.00  0.00    -0.206 OA
ATOM     19  O   UNL d   1       2.348  -0.256  -0.567  0.00  0.00    -0.206 OA
BRANCH  17  20
ATOM     20  C   UNL d   1       1.327   1.265   1.296  0.00  0.00     0.074 A 
ATOM     21  C   UNL d   1       2.531   1.223   2.001  0.00  0.00     0.025 A 
ATOM     22  C   UNL d   1       2.767   2.155   3.014  0.00  0.00     0.008 A 
ATOM     23  C   UNL d   1       1.817   3.142   3.310  0.00  0.00    -0.062 A 
ATOM     24  C   UNL d   1       0.623   3.187   2.580  0.00  0.00     0.008 A 
ATOM     25  C   UNL d   1       2.097   4.145   4.391  0.00  0.00     0.048 C 
ATOM     26  C   UNL d   1       0.376   2.252   1.573  0.00  0.00     0.025 A 
ENDBRANCH  17  20
ENDBRANCH  14  17
ENDBRANCH   1  11
TORSDOF 3
