REMARK  6 active torsions:
REMARK  status: ('A' for Active; 'I' for Inactive)
REMARK    1  A    between atoms: N_3  and  C_1 
REMARK       I    between atoms: C_7  and  N_3 
REMARK    2  A    between atoms: C_12  and  C_7 
REMARK    3  A    between atoms: C_9  and  C_14 
REMARK    4  A    between atoms: O_15  and  C_9 
REMARK    5  A    between atoms: C_10  and  C_12 
REMARK    6  A    between atoms: C_14  and  C_10 
ROOT
ATOM      1  N   UNL d   1      -1.618  -2.069  -0.623  0.00  0.00    -0.312 N 
ATOM      2  C   UNL d   1      -1.602  -2.913   0.468  0.00  0.00     0.224 C 
ATOM      3  O   UNL d   1      -1.217  -2.636   1.599  0.00  0.00    -0.273 OA
ATOM      4  H   UNL d   1      -1.745  -2.497  -1.543  0.00  0.00     0.170 HD
ENDROOT
BRANCH   2   5
ATOM      5  C   UNL d   1      -2.119  -4.312   0.162  0.00  0.00     0.112 C 
BRANCH   5   6
ATOM      6  C   UNL d   1      -3.655  -4.498   0.279  0.00  0.00    -0.030 C 
ATOM      7  C   UNL d   1      -3.966  -5.990   0.029  0.00  0.00     0.016 C 
ATOM      8  C   UNL d   1      -4.117  -4.158   1.712  0.00  0.00     0.016 C 
BRANCH   6   9
ATOM      9  C   UNL d   1      -4.480  -3.624  -0.696  0.00  0.00     0.119 C 
BRANCH   9  10
ATOM     10  C   UNL d   1      -4.158  -3.841  -2.155  0.00  0.00     0.140 C 
ATOM     11  O   UNL d   1      -3.069  -3.567  -2.645  0.00  0.00    -0.650 OA
BRANCH  10  12
ATOM     12  O   UNL d   1      -5.168  -4.363  -2.878  0.00  0.00    -0.776 OA
ATOM     13  H   UNL d   1      -5.995  -4.521  -2.382  0.00  0.00     0.167 HD
ENDBRANCH  10  12
ENDBRANCH   9  10
ENDBRANCH   6   9
ENDBRANCH   5   6
ENDBRANCH   2   5
BRANCH   1  14
ATOM     14  C   UNL d   1      -1.197  -0.745  -0.616  0.00  0.00     0.125 A 
ATOM     15  N   UNL d   1      -1.102   0.147   0.434  0.00  0.00    -0.281 N 
ATOM     16  N   UNL d   1      -0.593   1.348   0.059  0.00  0.00    -0.308 N 
ATOM     17  C   UNL d   1      -1.610   0.057   1.784  0.00  0.00     0.179 C 
ATOM     18  C   UNL d   1      -0.418   1.231  -1.254  0.00  0.00     0.111 A 
ATOM     19  HN  UNL d   1      -0.392   2.155   0.650  1.00  0.00     0.186 HD
ATOM     20  C   UNL d   1      -0.805  -0.029  -1.731  0.00  0.00     0.068 A 
ENDBRANCH   1  14
TORSDOF 6
