REMARK  3 active torsions:
REMARK  status: ('A' for Active; 'I' for Inactive)
REMARK    1  A    between atoms: C_2  and  C_1 
REMARK       I    between atoms: N_5  and  C_1 
REMARK    2  A    between atoms: C_3  and  C_4 
REMARK    3  A    between atoms: C_13  and  N_5 
ROOT
ATOM      1  C   UNL d   1       0.963   0.142   0.059  0.00  0.00     0.257 C 
ATOM      2  N   UNL d   1       0.219  -0.777  -0.664  0.00  0.00    -0.323 N 
ATOM      3  O   UNL d   1       2.166   0.358  -0.057  0.00  0.00    -0.267 OA
ATOM      4  H   UNL d   1      -0.788  -0.742  -0.583  0.00  0.00     0.169 HD
ENDROOT
BRANCH   1   5
ATOM      5  C   UNL d   1       0.229   0.968   1.044  0.00  0.00     0.048 A 
ATOM      6  C   UNL d   1      -0.945   0.555   1.681  0.00  0.00     0.032 A 
ATOM      7  C   UNL d   1      -1.542   1.373   2.651  0.00  0.00    -0.003 A 
ATOM      8  C   UNL d   1      -0.902   2.581   2.939  0.00  0.00     0.100 A 
ATOM      9  N   UNL d   1       0.234   3.013   2.342  0.00  0.00    -0.373 N 
ATOM     10  C   UNL d   1       0.777   2.192   1.414  0.00  0.00     0.104 A 
ATOM     11  HN  UNL d   1       0.659   3.909   2.580  1.00  0.00     0.164 HD
BRANCH   7  12
ATOM     12  C   UNL d   1      -2.761   0.978   3.372  0.00  0.00     0.016 A 
ATOM     13  S   UNL d   1      -3.993   0.074   2.581  0.00  0.00    -0.101 SA
ATOM     14  C   UNL d   1      -4.966   0.027   3.981  0.00  0.00     0.050 A 
ATOM     15  C   UNL d   1      -4.390   0.701   5.032  0.00  0.00     0.008 A 
ATOM     16  C   UNL d   1      -3.123   1.252   4.680  0.00  0.00     0.020 A 
ENDBRANCH   7  12
ENDBRANCH   1   5
BRANCH   2  17
ATOM     17  C   UNL d   1       0.723  -1.678  -1.632  0.00  0.00     0.037 A 
ATOM     18  C   UNL d   1       2.085  -1.855  -1.882  0.00  0.00     0.069 A 
ATOM     19  C   UNL d   1       2.513  -2.694  -2.909  0.00  0.00     0.104 A 
ATOM     20  O   UNL d   1       3.867  -2.755  -3.122  0.00  0.00    -0.346 OA
ATOM     21  C   UNL d   1       1.588  -3.414  -3.666  0.00  0.00     0.102 A 
ATOM     22  C   UNL d   1       4.151  -3.243  -4.434  0.00  0.00     0.202 C 
ATOM     23  C   UNL d   1       3.354  -4.508  -4.707  0.00  0.00     0.202 C 
ATOM     24  O   UNL d   1       1.944  -4.249  -4.692  0.00  0.00    -0.346 OA
ATOM     25  C   UNL d   1       0.228  -3.278  -3.400  0.00  0.00     0.042 A 
ATOM     26  C   UNL d   1      -0.203  -2.415  -2.385  0.00  0.00     0.032 A 
ENDBRANCH   2  17
TORSDOF 3
