REMARK  2 active torsions:
REMARK  status: ('A' for Active; 'I' for Inactive)
REMARK    1  A    between atoms: C_9  and  C_3 
REMARK    2  A    between atoms: O_12  and  C_4 
ROOT
ATOM      1  N   UNL d   1       2.400  -0.738  -0.046  0.00  0.00    -0.322 N 
ATOM      2  HN  UNL d   1       3.287  -1.243  -0.054  1.00  0.00     0.169 HD
ATOM      3  C   UNL d   1       2.335   0.606  -0.055  0.00  0.00     0.118 A 
ATOM      4  C   UNL d   1       1.220  -1.363  -0.027  0.00  0.00     0.154 A 
ATOM      5  N   UNL d   1       1.189   1.317  -0.046  0.00  0.00    -0.341 N 
ATOM      6  HN  UNL d   1       1.204   2.337  -0.049  1.00  0.00     0.167 HD
ATOM      7  C   UNL d   1      -0.023  -0.751  -0.019  0.00  0.00     0.042 A 
ATOM      8  C   UNL d   1       0.029   0.642  -0.032  0.00  0.00     0.048 A 
ATOM      9  C   UNL d   1      -1.261  -1.434  -0.005  0.00  0.00     0.018 A 
ATOM     10  C   UNL d   1      -1.177   1.335  -0.033  0.00  0.00     0.030 A 
ATOM     11  C   UNL d   1      -2.453  -0.717  -0.011  0.00  0.00     0.001 A 
ATOM     12  C   UNL d   1      -2.411   0.673  -0.026  0.00  0.00     0.002 A 
ENDROOT
BRANCH   3  13
ATOM     13  C   UNL d   1       3.613   1.351  -0.071  0.00  0.00     0.008 A 
ATOM     14  C   UNL d   1       4.851   0.680  -0.150  0.00  0.00     0.017 A 
ATOM     15  C   UNL d   1       6.065   1.377  -0.153  0.00  0.00     0.025 A 
ATOM     16  C   UNL d   1       6.064   2.765  -0.076  0.00  0.00     0.034 A 
ATOM     17  C   UNL d   1       4.862   3.460  -0.004  0.00  0.00     0.025 A 
ATOM     18 CL   UNL d   1       7.555   3.623  -0.067  0.00  0.00    -0.084 Cl
ATOM     19  C   UNL d   1       3.650   2.758  -0.003  0.00  0.00     0.017 A 
ENDBRANCH   3  13
BRANCH   4  20
ATOM     20  O   UNL d   1       1.339  -2.719  -0.020  0.00  0.00    -0.345 OA
ATOM     21  H   UNL d   1       2.308  -2.812  -0.035  0.00  0.00     0.219 HD
ENDBRANCH   4  20
TORSDOF 2
