REMARK  3 active torsions:
REMARK  status: ('A' for Active; 'I' for Inactive)
REMARK    1  A    between atoms: C_8  and  C_3 
REMARK    2  A    between atoms: C_7  and  C_4 
REMARK    3  A    between atoms: C_14  and  C_9 
ROOT
ATOM      1  N   UNL d   1       1.301  -0.510  -0.523  0.00  0.00    -0.349 N 
ATOM      2  HN  UNL d   1       2.123  -0.942  -0.945  1.00  0.00     0.166 HD
ATOM      3  C   UNL d   1       0.124  -1.090  -0.401  0.00  0.00     0.084 A 
ATOM      4  C   UNL d   1       1.264   0.772   0.004  0.00  0.00     0.050 A 
ATOM      5  S   UNL d   1      -1.079  -0.124   0.377  0.00  0.00    -0.081 SA
ATOM      6  C   UNL d   1       0.043   1.153   0.523  0.00  0.00     0.082 A 
ENDROOT
BRANCH   4   7
ATOM      7  C   UNL d   1       2.426   1.648  -0.026  0.00  0.00    -0.009 A 
ATOM      8  C   UNL d   1       3.369   1.526  -1.050  0.00  0.00     0.014 A 
ATOM      9  C   UNL d   1       4.473   2.387  -1.107  0.00  0.00     0.013 A 
ATOM     10  C   UNL d   1       4.671   3.397  -0.148  0.00  0.00    -0.026 A 
ATOM     11  C   UNL d   1       3.717   3.498   0.878  0.00  0.00     0.013 A 
ATOM     12  C   UNL d   1       2.620   2.632   0.947  0.00  0.00     0.014 A 
BRANCH  10  13
ATOM     13  C   UNL d   1       5.840   4.307  -0.204  0.00  0.00    -0.026 A 
ATOM     14  C   UNL d   1       6.431   4.816   0.969  0.00  0.00     0.012 A 
ATOM     15  C   UNL d   1       7.540   5.665   0.924  0.00  0.00     0.001 A 
ATOM     16  C   UNL d   1       8.097   6.016  -0.301  0.00  0.00     0.000 A 
ATOM     17  C   UNL d   1       7.535   5.532  -1.478  0.00  0.00     0.001 A 
ATOM     18  C   UNL d   1       6.415   4.696  -1.428  0.00  0.00     0.012 A 
ENDBRANCH  10  13
ENDBRANCH   4   7
BRANCH   3  19
ATOM     19  C   UNL d   1      -0.193  -2.463  -0.825  0.00  0.00    -0.002 A 
ATOM     20  C   UNL d   1       0.808  -3.444  -0.790  0.00  0.00     0.014 A 
ATOM     21  C   UNL d   1       0.528  -4.765  -1.151  0.00  0.00     0.001 A 
ATOM     22  C   UNL d   1      -0.755  -5.118  -1.564  0.00  0.00     0.000 A 
ATOM     23  C   UNL d   1      -1.755  -4.152  -1.628  0.00  0.00     0.001 A 
ATOM     24  C   UNL d   1      -1.475  -2.833  -1.265  0.00  0.00     0.014 A 
ENDBRANCH   3  19
TORSDOF 3
