REMARK  4 active torsions:
REMARK  status: ('A' for Active; 'I' for Inactive)
REMARK    1  A    between atoms: C_10  and  N_1 
REMARK    2  A    between atoms: C_3  and  C_7 
REMARK    3  A    between atoms: C_8  and  C_10 
REMARK       I    between atoms: N_9  and  C_8 
REMARK    4  A    between atoms: C_12  and  N_9 
ROOT
ATOM      1  N   UNL d   1       0.376   1.343  -0.143  0.00  0.00    -0.307 N 
ATOM      2  C   UNL d   1      -1.015   0.998  -0.002  0.00  0.00     0.055 A 
ATOM      3  C   UNL d   1       1.407   0.484   0.246  0.00  0.00     0.234 C 
ATOM      4  C   UNL d   1      -2.029   1.961  -0.164  0.00  0.00     0.047 A 
ATOM      5  S   UNL d   1      -0.239  -1.635   0.602  0.00  0.00    -0.118 SA
ATOM      6  C   UNL d   1      -3.394   1.612  -0.104  0.00  0.00     0.050 A 
ATOM      7  C   UNL d   1      -1.408  -0.335   0.255  0.00  0.00     0.028 A 
ATOM      8  C   UNL d   1       1.051  -0.575   1.261  0.00  0.00     0.182 C 
ATOM      9  O   UNL d   1       2.576   0.644  -0.112  0.00  0.00    -0.272 OA
ATOM     10  C   UNL d   1      -3.747   0.268   0.057  0.00  0.00     0.017 A 
ATOM     11  C   UNL d   1      -2.761  -0.695   0.245  0.00  0.00     0.021 A 
ENDROOT
BRANCH   1  12
ATOM     12  C   UNL d   1       0.777   2.642  -0.684  0.00  0.00     0.235 C 
BRANCH  12  13
ATOM     13  C   UNL d   1       0.387   2.965  -2.125  0.00  0.00     0.240 C 
ATOM     14  N   UNL d   1       0.639   1.971  -3.053  0.00  0.00    -0.324 N 
ATOM     15  H   UNL d   1       0.772   1.028  -2.705  0.00  0.00     0.169 HD
ATOM     16  O   UNL d   1      -0.023   4.098  -2.391  0.00  0.00    -0.271 OA
BRANCH  14  17
ATOM     17  C   UNL d   1       0.553   2.120  -4.462  0.00  0.00     0.056 A 
ATOM     18  C   UNL d   1       0.434   0.979  -5.274  0.00  0.00     0.060 A 
ATOM     19 CL   UNL d   1       0.368  -0.605  -4.580  0.00  0.00    -0.082 Cl
ATOM     20  C   UNL d   1       0.329   1.094  -6.665  0.00  0.00     0.026 A 
ATOM     21  C   UNL d   1       0.370   2.352  -7.269  0.00  0.00     0.002 A 
ATOM     22  C   UNL d   1       0.522   3.488  -6.481  0.00  0.00     0.002 A 
ATOM     23  C   UNL d   1       0.611   3.372  -5.089  0.00  0.00     0.031 A 
ENDBRANCH  14  17
ENDBRANCH  12  13
ENDBRANCH   1  12
BRANCH   6  24
ATOM     24  C   UNL d   1      -4.481   2.657  -0.209  0.00  0.00     0.417 C 
ATOM     25  F   UNL d   1      -4.025   3.930  -0.059  0.00  0.00    -0.166 F 
ATOM     26  F   UNL d   1      -5.128   2.620  -1.405  0.00  0.00    -0.166 F 
ATOM     27  F   UNL d   1      -5.443   2.495   0.743  0.00  0.00    -0.166 F 
ENDBRANCH   6  24
TORSDOF 4
