REMARK  6 active torsions:
REMARK  status: ('A' for Active; 'I' for Inactive)
REMARK    1  A    between atoms: N_2  and  C_1 
REMARK    2  A    between atoms: N_3  and  C_1 
REMARK    3  A    between atoms: C_4  and  N_3 
REMARK    4  A    between atoms: C_5  and  C_10 
REMARK    5  A    between atoms: O_17  and  C_5 
REMARK    6  A    between atoms: C_20  and  O_17 
ROOT
ATOM      1  C   UNL d   1       0.778  -0.062  -0.013  0.00  0.00     0.174 C 
ATOM      2  S   UNL d   1       2.432  -0.146  -0.245  0.00  0.00    -0.041 SA
ENDROOT
BRANCH   1   3
ATOM      3  N   UNL d   1       0.091  -0.628   1.048  0.00  0.00    -0.358 N 
ATOM      4  C   UNL d   1      -1.008  -1.545   0.769  0.00  0.00     0.126 C 
ATOM      5  C   UNL d   1      -2.192  -1.254   1.677  0.00  0.00     0.034 C 
ATOM      6  C   UNL d   1      -1.790  -1.158   3.157  0.00  0.00     0.088 C 
ATOM      7  C   UNL d   1      -0.478  -0.399   3.404  0.00  0.00     0.034 C 
ATOM      8  C   UNL d   1       0.628  -0.733   2.400  0.00  0.00     0.126 C 
BRANCH   6   9
ATOM      9  C   UNL d   1      -1.733  -2.557   3.722  0.00  0.00     0.263 C 
ATOM     10  O   UNL d   1      -0.720  -3.246   3.795  0.00  0.00    -0.265 OA
BRANCH   9  11
ATOM     11  O   UNL d   1      -2.995  -2.977   4.012  0.00  0.00    -0.322 OA
BRANCH  11  12
ATOM     12  C   UNL d   1      -3.158  -4.396   4.112  0.00  0.00     0.174 C 
ATOM     13  C   UNL d   1      -3.375  -4.945   2.712  0.00  0.00     0.034 C 
ENDBRANCH  11  12
ENDBRANCH   9  11
ENDBRANCH   6   9
ENDBRANCH   1   3
BRANCH   1  14
ATOM     14  N   UNL d   1       0.000   0.527  -0.982  0.00  0.00    -0.333 N 
ATOM     15  H   UNL d   1       0.458   0.638  -1.879  0.00  0.00     0.168 HD
BRANCH  14  16
ATOM     16  C   UNL d   1      -1.078   1.427  -0.763  0.00  0.00     0.040 A 
ATOM     17  C   UNL d   1      -1.941   1.748  -1.822  0.00  0.00    -0.035 A 
ATOM     18  C   UNL d   1      -2.886   2.779  -1.648  0.00  0.00     0.015 A 
ATOM     19  C   UNL d   1      -1.949   1.013  -3.134  0.00  0.00     0.050 C 
ATOM     20  C   UNL d   1      -2.993   3.478  -0.440  0.00  0.00    -0.061 A 
ATOM     21  C   UNL d   1      -2.170   3.109   0.624  0.00  0.00     0.009 A 
ATOM     22  C   UNL d   1      -3.922   4.649  -0.327  0.00  0.00     0.048 C 
ATOM     23  C   UNL d   1      -1.222   2.096   0.461  0.00  0.00     0.030 A 
ENDBRANCH  14  16
ENDBRANCH   1  14
TORSDOF 6
