REMARK  7 active torsions:
REMARK  status: ('A' for Active; 'I' for Inactive)
REMARK    1  A    between atoms: N_11  and  C_1 
REMARK    2  A    between atoms: C_10  and  C_4 
REMARK    3  A    between atoms: C_9  and  C_5 
REMARK    4  A    between atoms: C_6  and  C_13 
REMARK    5  A    between atoms: O_24  and  C_10 
REMARK    6  A    between atoms: C_15  and  N_11 
REMARK    7  A    between atoms: C_28  and  O_24 
ROOT
ATOM      1  C   UNL d   1       1.213  -0.820  -0.240  0.00  0.00     0.125 A 
ATOM      2  N   UNL d   1       1.332   0.530  -0.218  0.00  0.00    -0.327 N 
ATOM      3  HN  UNL d   1       2.250   0.969  -0.285  1.00  0.00     0.169 HD
ATOM      4  C   UNL d   1      -0.050  -1.404  -0.152  0.00  0.00     0.099 A 
ATOM      5  C   UNL d   1       0.223   1.283  -0.108  0.00  0.00     0.124 A 
ATOM      6  N   UNL d   1      -1.026   0.799  -0.038  0.00  0.00    -0.350 N 
ATOM      7  HN  UNL d   1      -1.843   1.407   0.019  1.00  0.00     0.166 HD
ATOM      8  C   UNL d   1      -1.127  -0.542  -0.050  0.00  0.00     0.111 A 
ENDROOT
BRANCH   1   9
ATOM      9  N   UNL d   1       2.385  -1.608  -0.382  0.00  0.00    -0.342 N 
ATOM     10  H   UNL d   1       2.292  -2.510   0.072  0.00  0.00     0.167 HD
BRANCH   9  11
ATOM     11  C   UNL d   1       3.741  -1.227  -0.534  0.00  0.00     0.034 A 
ATOM     12  C   UNL d   1       4.747  -2.198  -0.360  0.00  0.00     0.045 A 
ATOM     13  C   UNL d   1       6.116  -1.896  -0.525  0.00  0.00     0.050 A 
ATOM     14  C   UNL d   1       6.484  -0.600  -0.903  0.00  0.00     0.016 A 
ATOM     15  C   UNL d   1       5.507   0.367  -1.109  0.00  0.00     0.003 A 
ATOM     16  C   UNL d   1       4.155   0.050  -0.935  0.00  0.00     0.029 A 
BRANCH  13  17
ATOM     17  C   UNL d   1       7.186  -2.937  -0.315  0.00  0.00     0.417 C 
ATOM     18  F   UNL d   1       6.713  -4.111   0.193  0.00  0.00    -0.166 F 
ATOM     19  F   UNL d   1       7.831  -3.265  -1.469  0.00  0.00    -0.166 F 
ATOM     20  F   UNL d   1       8.156  -2.525   0.549  0.00  0.00    -0.166 F 
ENDBRANCH  13  17
ENDBRANCH   9  11
ENDBRANCH   1   9
BRANCH   4  21
ATOM     21  C   UNL d   1      -0.363  -2.832  -0.011  0.00  0.00     0.298 C 
ATOM     22  O   UNL d   1      -1.219  -3.226   0.767  0.00  0.00    -0.259 OA
BRANCH  21  23
ATOM     23  O   UNL d   1       0.369  -3.611  -0.838  0.00  0.00    -0.318 OA
BRANCH  23  24
ATOM     24  C   UNL d   1       0.185  -5.031  -0.672  0.00  0.00     0.174 C 
ATOM     25  C   UNL d   1      -1.079  -5.559  -1.332  0.00  0.00     0.034 C 
ENDBRANCH  23  24
ENDBRANCH  21  23
ENDBRANCH   4  21
BRANCH   5  26
ATOM     26  C   UNL d   1       0.347   2.745  -0.052  0.00  0.00     0.049 A 
ATOM     27  S   UNL d   1       1.870   3.515   0.149  0.00  0.00    -0.098 SA
ATOM     28  C   UNL d   1       1.171   5.074   0.131  0.00  0.00     0.050 A 
ATOM     29  C   UNL d   1      -0.190   5.030  -0.022  0.00  0.00     0.009 A 
ATOM     30  C   UNL d   1      -0.668   3.690  -0.119  0.00  0.00     0.023 A 
ENDBRANCH   5  26
TORSDOF 7
