REMARK  12 active torsions:
REMARK  status: ('A' for Active; 'I' for Inactive)
REMARK    1  A    between atoms: N_2  and  S_1 
REMARK    2  A    between atoms: C_4  and  S_1 
REMARK       I    between atoms: C_3  and  N_2 
REMARK       I    between atoms: N_10  and  C_3 
REMARK       I    between atoms: C2_29  and  N_5 
REMARK    3  A    between atoms: N_5  and  C_9 
REMARK    4  A    between atoms: C_6  and  C_9 
REMARK    5  A    between atoms: O_16  and  C_6 
REMARK    6  A    between atoms: C_9  and  C_20 
REMARK    7  A    between atoms: C_21  and  N_13 
REMARK    8  A    between atoms: C_20  and  C_23 
REMARK    9  A    between atoms: C_23  and  C_21 
REMARK   10  A    between atoms: O5_31  and  C2_29 
REMARK   11  A    between atoms: C8_32  and  O5_31 
REMARK   12  A    between atoms: C12_33  and  C8_32 
ROOT
ATOM      1  C   UNK d   1       0.776  -2.628  -4.347  0.00  0.00     0.138 C 
ENDROOT
BRANCH   1   2
ATOM      2  N   UNK d   1       0.515  -2.433  -2.927  0.00  0.00    -0.226 N 
ATOM      3  C   UNK d   1       1.096  -1.393  -2.282  0.00  0.00     0.681 C 
ATOM      4  N   UNK d   1       0.833  -1.339  -0.926  0.00  0.00    -0.113 N 
ATOM      5  N   UNK d   1       1.858  -0.544  -2.863  0.00  0.00    -0.234 N 
ATOM      6  H   UNK d   1       0.047  -1.830  -0.522  0.00  0.00     0.197 HD
ATOM      7  H   UNK d   1       2.146   0.184  -2.186  0.00  0.00     0.174 HD
ATOM      8  HN  UNK d   1       2.138  -0.579  -3.843  1.00  0.00     0.174 HD
ATOM      9  H   UNK d   1      -0.303  -2.864  -2.533  0.00  0.00     0.177 HD
BRANCH   4  10
ATOM     10  S   UNK d   1       1.815  -0.639   0.240  0.00  0.00     0.276 S 
ATOM     11  O   UNK d   1       1.054  -0.679   1.471  0.00  0.00    -0.200 OA
ATOM     12  O   UNK d   1       2.350   0.597  -0.288  0.00  0.00    -0.200 OA
BRANCH  10  13
ATOM     13  C   UNK d   1       3.165  -1.794   0.386  0.00  0.00     0.080 A 
ATOM     14  C   UNK d   1       3.984  -2.041  -0.720  0.00  0.00     0.026 A 
ATOM     15  C   UNK d   1       5.033  -2.953  -0.624  0.00  0.00     0.008 A 
ATOM     16  C   UNK d   1       5.296  -3.609   0.584  0.00  0.00    -0.062 A 
ATOM     17  C   UNK d   1       4.492  -3.332   1.700  0.00  0.00     0.008 A 
ATOM     18  C   UNK d   1       6.434  -4.584   0.659  0.00  0.00     0.048 C 
ATOM     19  C   UNK d   1       3.426  -2.428   1.604  0.00  0.00     0.026 A 
ENDBRANCH  10  13
ENDBRANCH   4  10
ENDBRANCH   1   2
BRANCH   1  20
ATOM     20  C   UNK d   1       0.097  -3.886  -4.883  0.00  0.00     0.023 C 
BRANCH  20  21
ATOM     21  C   UNK d   1       0.357  -4.111  -6.384  0.00  0.00     0.038 C 
BRANCH  21  22
ATOM     22  C   UNK d   1       1.833  -4.302  -6.777  0.00  0.00     0.184 C 
BRANCH  22  23
ATOM     23  N   UNK d   1       2.424  -5.447  -6.071  0.00  0.00    -0.322 N 
ATOM     24  C2  <1> d   1       3.485  -5.283  -5.225  0.00  0.00     0.361 C 
ATOM     25  O3  <1> d   1       4.173  -4.278  -5.166  0.00  0.00    -0.238 OA
ATOM     26  H   UNK d   1       1.879  -6.290  -5.929  0.00  0.00     0.165 HD
BRANCH  24  27
ATOM     27  O5  <1> d   1       3.609  -6.380  -4.444  0.00  0.00    -0.299 OA
BRANCH  27  28
ATOM     28  C8  <1> d   1       4.577  -6.253  -3.390  0.00  0.00     0.219 C 
BRANCH  28  29
ATOM     29  C12 <1> d   1       5.948  -6.667  -3.855  0.00  0.00    -0.034 A 
ATOM     30  C16 <1> d   1       7.023  -5.769  -3.789  0.00  0.00     0.009 A 
ATOM     31  C19 <1> d   1       8.292  -6.147  -4.230  0.00  0.00     0.001 A 
ATOM     32  C21 <1> d   1       8.500  -7.428  -4.737  0.00  0.00     0.000 A 
ATOM     33  C20 <1> d   1       7.442  -8.333  -4.799  0.00  0.00     0.001 A 
ATOM     34  C17 <1> d   1       6.173  -7.957  -4.358  0.00  0.00     0.009 A 
ENDBRANCH  28  29
ENDBRANCH  27  28
ENDBRANCH  24  27
ENDBRANCH  22  23
BRANCH  22  35
ATOM     35  C   UNK d   1       1.953  -4.458  -8.301  0.00  0.00     0.163 C 
ATOM     36  O   UNK d   1       1.454  -3.693  -9.114  0.00  0.00    -0.648 OA
BRANCH  35  37
ATOM     37  O   UNK d   1       2.683  -5.536  -8.679  0.00  0.00    -0.775 OA
ATOM     38  H   UNK d   1       3.059  -5.977  -7.891  0.00  0.00     0.167 HD
ENDBRANCH  35  37
ENDBRANCH  22  35
ENDBRANCH  21  22
ENDBRANCH  20  21
ENDBRANCH   1  20
TORSDOF 12
