REMARK  8 active torsions:
REMARK  status: ('A' for Active; 'I' for Inactive)
REMARK    1  A    between atoms: N_2  and  S_1 
REMARK    2  A    between atoms: C_10  and  S_1 
REMARK    3  A    between atoms: N_11  and  N_2 
REMARK    4  A    between atoms: C_3  and  C_22 
REMARK    5  A    between atoms: C_9  and  C_13 
REMARK       I    between atoms: C_12  and  N_11 
REMARK    6  A    between atoms: C_23  and  C_12 
REMARK    7  A    between atoms: S_21  and  C_23 
REMARK    8  A    between atoms: C_22  and  S_21 
ROOT
ATOM      1  N   UNL d   1       4.047   2.417  -5.330  0.00  0.00    -0.260 N 
ATOM      2  C   UNL d   1       3.691   2.674  -6.639  0.00  0.00     0.245 C 
ATOM      3  O   UNL d   1       4.421   3.275  -7.428  0.00  0.00    -0.271 OA
ATOM      4  H   UNL d   1       3.391   1.979  -4.681  0.00  0.00     0.190 HD
ENDROOT
BRANCH   1   5
ATOM      5  N   UNL d   1       5.312   2.881  -4.791  0.00  0.00    -0.220 N 
ATOM      6  H   UNL d   1       5.978   3.373  -5.395  0.00  0.00     0.200 HD
BRANCH   5   7
ATOM      7  S   UNL d   1       5.599   2.598  -3.161  0.00  0.00     0.276 S 
ATOM      8  O   UNL d   1       5.705   1.164  -2.990  0.00  0.00    -0.199 OA
ATOM      9  O   UNL d   1       4.606   3.343  -2.419  0.00  0.00    -0.199 OA
BRANCH   7  10
ATOM     10  C   UNL d   1       7.188   3.315  -2.822  0.00  0.00     0.081 A 
ATOM     11  C   UNL d   1       7.258   4.638  -2.373  0.00  0.00     0.041 A 
ATOM     12  C   UNL d   1       8.471   5.151  -1.879  0.00  0.00     0.049 A 
ATOM     13  C   UNL d   1       9.601   4.316  -1.848  0.00  0.00     0.016 A 
ATOM     14  C   UNL d   1       9.527   3.000  -2.308  0.00  0.00     0.002 A 
ATOM     15  C   UNL d   1       8.319   2.494  -2.791  0.00  0.00     0.025 A 
BRANCH  12  16
ATOM     16  C   UNL d   1       8.567   6.557  -1.331  0.00  0.00     0.417 C 
ATOM     17  F   UNL d   1       7.407   7.262  -1.437  0.00  0.00    -0.166 F 
ATOM     18  F   UNL d   1       8.899   6.579  -0.011  0.00  0.00    -0.166 F 
ATOM     19  F   UNL d   1       9.515   7.299  -1.968  0.00  0.00    -0.166 F 
ENDBRANCH  12  16
ENDBRANCH   7  10
ENDBRANCH   5   7
ENDBRANCH   1   5
BRANCH   2  20
ATOM     20  C   UNL d   1       2.339   2.103  -7.024  0.00  0.00     0.178 C 
BRANCH  20  21
ATOM     21  S   UNL d   1       0.987   2.787  -5.995  0.00  0.00    -0.155 SA
BRANCH  21  22
ATOM     22  C   UNL d   1       1.109   4.526  -6.509  0.00  0.00     0.114 C 
BRANCH  22  23
ATOM     23  C   UNL d   1       0.023   5.456  -5.968  0.00  0.00    -0.036 C 
ATOM     24  C   UNL d   1       0.256   6.194  -4.773  0.00  0.00    -0.048 C 
ATOM     25  C   UNL d   1      -0.577   7.295  -4.457  0.00  0.00    -0.049 C 
ATOM     26  C   UNL d   1       1.413   5.810  -3.876  0.00  0.00     0.049 C 
ATOM     27  C   UNL d   1      -0.281   8.208  -3.284  0.00  0.00     0.049 C 
ATOM     28  C   UNL d   1      -1.720   7.572  -5.257  0.00  0.00    -0.049 C 
ATOM     29  C   UNL d   1      -2.020   6.767  -6.389  0.00  0.00    -0.049 C 
ATOM     30  C   UNL d   1      -2.605   8.745  -4.872  0.00  0.00     0.049 C 
ATOM     31  C   UNL d   1      -1.167   5.681  -6.723  0.00  0.00    -0.048 C 
ATOM     32  C   UNL d   1      -3.235   7.122  -7.218  0.00  0.00     0.049 C 
ATOM     33  C   UNL d   1      -1.478   4.750  -7.876  0.00  0.00     0.049 C 
ENDBRANCH  22  23
ENDBRANCH  21  22
ENDBRANCH  20  21
ENDBRANCH   2  20
TORSDOF 8
