REMARK  3 active torsions:
REMARK  status: ('A' for Active; 'I' for Inactive)
REMARK    1  A    between atoms: C_7  and  N_1 
REMARK    2  A    between atoms: C_9  and  C_7 
REMARK    3  A    between atoms: C_10  and  C_9 
ROOT
ATOM      1  N   UNL d   1       0.447   1.412  -0.223  0.00  0.00    -0.373 N 
ATOM      2  C   UNL d   1       2.850   2.062   1.037  0.00  0.00     0.170 C 
ATOM      3  N   UNL d   1       2.014   3.014   0.569  0.00  0.00    -0.351 N 
ATOM      4  N   UNL d   1       2.392   0.793   0.989  0.00  0.00    -0.351 N 
ATOM      5  C   UNL d   1       0.632   2.760   0.290  0.00  0.00     0.245 C 
ATOM      6  C   UNL d   1       1.023   0.480   0.727  0.00  0.00     0.245 C 
ATOM      7  S   UNL d   1       4.375   2.420   1.581  0.00  0.00    -0.041 SA
ATOM      8  H   UNL d   1       2.333   3.971   0.642  0.00  0.00     0.163 HD
ATOM      9  H   UNL d   1       2.987   0.083   1.393  0.00  0.00     0.163 HD
ENDROOT
BRANCH   1  10
ATOM     10  C   UNL d   1       0.665   1.181  -1.673  0.00  0.00     0.024 C 
ATOM     11  C   UNL d   1      -0.200   2.174  -2.488  0.00  0.00     0.038 C 
ATOM     12  C   UNL d   1       2.133   1.437  -2.117  0.00  0.00     0.038 C 
BRANCH  10  13
ATOM     13  C   UNL d   1       0.339  -0.293  -2.141  0.00  0.00     0.038 C 
BRANCH  13  14
ATOM     14  C   UNL d   1      -1.073  -0.962  -2.047  0.00  0.00    -0.049 C 
ATOM     15  C   UNL d   1      -2.117  -0.298  -2.960  0.00  0.00     0.014 C 
ATOM     16  C   UNL d   1      -0.901  -2.419  -2.549  0.00  0.00     0.014 C 
ATOM     17  C   UNL d   1      -1.637  -1.027  -0.622  0.00  0.00     0.014 C 
ENDBRANCH  13  14
ENDBRANCH  10  13
ENDBRANCH   1  10
TORSDOF 3
