REMARK  6 active torsions:
REMARK  status: ('A' for Active; 'I' for Inactive)
REMARK    1  A    between atoms: C_2  and  C_1 
REMARK    2  A    between atoms: O_3  and  C_2 
REMARK    3  A    between atoms: C_8  and  O_3 
REMARK    4  A    between atoms: C_4  and  C_8 
REMARK    5  A    between atoms: C_6  and  C_4 
REMARK    6  A    between atoms: O_17  and  C_5 
ROOT
ATOM      1  O   UNL d   1       3.373   0.882   0.777  0.00  0.00    -0.310 OA
ENDROOT
BRANCH   1   2
ATOM      2  C   UNL d   1       2.922  -0.277   0.222  0.00  0.00     0.296 C 
ATOM      3  O   UNL d   1       3.653  -1.188  -0.131  0.00  0.00    -0.259 OA
BRANCH   2   4
ATOM      4  C   UNL d   1       1.428  -0.246   0.107  0.00  0.00     0.072 A 
ATOM      5  C   UNL d   1       0.654  -0.906  -0.866  0.00  0.00     0.084 A 
ATOM      6  C   UNL d   1      -0.754  -0.828  -0.774  0.00  0.00     0.038 A 
ATOM      7  C   UNL d   1      -1.400  -0.113   0.232  0.00  0.00     0.003 A 
ATOM      8  C   UNL d   1      -0.643   0.550   1.181  0.00  0.00     0.001 A 
ATOM      9  C   UNL d   1       0.751   0.480   1.122  0.00  0.00     0.020 A 
BRANCH   5  10
ATOM     10  O   UNL d   1       0.980  -1.647  -1.964  0.00  0.00    -0.355 OA
ATOM     11  C   UNL d   1       2.312  -1.838  -2.390  0.00  0.00     0.210 C 
ENDBRANCH   5  10
ENDBRANCH   2   4
ENDBRANCH   1   2
BRANCH   1  12
ATOM     12  C   UNL d   1       4.790   0.948   0.972  0.00  0.00     0.263 C 
BRANCH  12  13
ATOM     13  C   UNL d   1       5.329   0.118   2.143  0.00  0.00     0.183 C 
ATOM     14  O   UNL d   1       4.589  -0.498   2.908  0.00  0.00    -0.290 OA
BRANCH  13  15
ATOM     15  C   UNL d   1       6.810   0.109   2.390  0.00  0.00     0.012 A 
ATOM     16  C   UNL d   1       7.710   0.847   1.607  0.00  0.00     0.017 A 
ATOM     17  C   UNL d   1       9.079   0.833   1.902  0.00  0.00     0.025 A 
ATOM     18  C   UNL d   1       9.557   0.083   2.975  0.00  0.00     0.034 A 
ATOM     19  C   UNL d   1       8.676  -0.660   3.756  0.00  0.00     0.025 A 
ATOM     20 CL   UNL d   1      11.238   0.083   3.337  0.00  0.00    -0.084 Cl
ATOM     21  C   UNL d   1       7.307  -0.647   3.464  0.00  0.00     0.017 A 
ENDBRANCH  13  15
ENDBRANCH  12  13
ENDBRANCH   1  12
TORSDOF 6
