REMARK  8 active torsions:
REMARK  status: ('A' for Active; 'I' for Inactive)
REMARK    1  A    between atoms: C_2  and  S_1 
REMARK    2  A    between atoms: N_3  and  S_1 
REMARK    3  A    between atoms: C_4  and  N_6 
REMARK       I    between atoms: C_12  and  N_19 
REMARK    4  A    between atoms: C_23  and  C_12 
REMARK    5  A    between atoms: C_27  and  C_13 
REMARK    6  A    between atoms: N_19  and  C_27 
REMARK    7  A    between atoms: C_28  and  C_24 
REMARK    8  A    between atoms: C_31  and  C_28 
ROOT
ATOM      1  S   UNL d   1       1.339  -0.115   0.253  0.00  0.00     0.250 S 
ATOM      2  O   UNL d   1       1.158   0.228   1.643  0.00  0.00    -0.205 OA
ATOM      3  O   UNL d   1       0.964  -1.418  -0.248  0.00  0.00    -0.205 OA
ENDROOT
BRANCH   1   4
ATOM      4  C   UNL d   1       3.093   0.012   0.008  0.00  0.00     0.115 A 
ATOM      5  S   UNL d   1       3.643   0.067  -1.608  0.00  0.00    -0.080 SA
ATOM      6  C   UNL d   1       5.240   0.451  -1.114  0.00  0.00     0.002 A 
ATOM      7  C   UNL d   1       5.377   0.377   0.262  0.00  0.00     0.018 A 
ATOM      8  C   UNL d   1       4.131   0.124   0.903  0.00  0.00     0.033 A 
BRANCH   6   9
ATOM      9  C   UNL d   1       6.259   0.880  -2.119  0.00  0.00     0.169 C 
BRANCH   9  10
ATOM     10  N   UNL d   1       6.005   2.280  -2.365  0.00  0.00    -0.352 N 
ATOM     11  C   UNL d   1       6.991   3.157  -2.746  0.00  0.00     0.251 C 
ATOM     12  O   UNL d   1       8.149   2.814  -2.950  0.00  0.00    -0.268 OA
ATOM     13  H   UNL d   1       5.039   2.562  -2.467  0.00  0.00     0.163 HD
BRANCH  11  14
ATOM     14  C   UNL d   1       6.574   4.575  -2.912  0.00  0.00     0.032 A 
ATOM     15  C   UNL d   1       5.501   5.117  -2.186  0.00  0.00     0.017 A 
ATOM     16  C   UNL d   1       5.153   6.458  -2.347  0.00  0.00     0.001 A 
ATOM     17  C   UNL d   1       5.874   7.267  -3.225  0.00  0.00     0.000 A 
ATOM     18  C   UNL d   1       6.950   6.736  -3.939  0.00  0.00     0.001 A 
ATOM     19  C   UNL d   1       7.303   5.396  -3.780  0.00  0.00     0.017 A 
ENDBRANCH  11  14
ENDBRANCH   9  10
ENDBRANCH   6   9
ENDBRANCH   1   4
BRANCH   1  20
ATOM     20  N   UNL d   1       0.556   1.064  -0.701  0.00  0.00    -0.203 NA
ATOM     21  C   UNL d   1       1.010   2.483  -0.548  0.00  0.00     0.128 C 
ATOM     22  C   UNL d   1       0.517   3.139   0.750  0.00  0.00     0.157 C 
ATOM     23  N   UNL d   1      -0.931   2.975   0.875  0.00  0.00    -0.215 N 
ATOM     24  C   UNL d   1      -1.478   1.625   0.695  0.00  0.00     0.157 C 
ATOM     25  C   UNL d   1      -0.945   1.011  -0.616  0.00  0.00     0.128 C 
BRANCH  23  26
ATOM     26  C   UNL d   1      -1.583   3.814   1.757  0.00  0.00     0.679 A 
ATOM     27  N   UNL d   1      -2.865   3.560   2.063  0.00  0.00    -0.201 N 
ATOM     28  C   UNL d   1      -3.540   4.489   2.767  0.00  0.00     0.114 A 
ATOM     29  HN  UNL d   1      -3.313   2.691   1.772  1.00  0.00     0.183 HD
ATOM     30  C   UNL d   1      -2.991   5.676   3.191  0.00  0.00    -0.026 A 
ATOM     31  C   UNL d   1      -1.660   5.822   2.883  0.00  0.00     0.114 A 
ATOM     32  N   UNL d   1      -0.949   4.923   2.177  0.00  0.00    -0.201 N 
ATOM     33  HN  UNL d   1       0.037   5.077   1.968  1.00  0.00     0.183 HD
BRANCH  30  34
ATOM     34  C   UNL d   1      -3.775   6.712   3.934  0.00  0.00     0.041 C 
BRANCH  34  35
ATOM     35  C   UNL d   1      -3.817   8.058   3.203  0.00  0.00     0.000 C 
ATOM     36  C   UNL d   1      -4.593   9.092   4.001  0.00  0.00     0.005 C 
ENDBRANCH  34  35
ENDBRANCH  30  34
ENDBRANCH  23  26
ENDBRANCH   1  20
TORSDOF 8
