REMARK  7 active torsions:
REMARK  status: ('A' for Active; 'I' for Inactive)
REMARK    1  A    between atoms: C_3  and  C_1 
REMARK       I    between atoms: N_10  and  C_3 
REMARK    2  A    between atoms: C_6  and  O_13 
REMARK    3  A    between atoms: C_7  and  O_15 
REMARK       I    between atoms: C_9  and  N_11 
REMARK       I    between atoms: N_12  and  C_9 
REMARK    4  A    between atoms: N_11  and  N_10 
REMARK    5  A    between atoms: C_26  and  N_12 
REMARK    6  A    between atoms: O_13  and  C_17 
REMARK    7  A    between atoms: O_15  and  C_27 
ROOT
ATOM      1  C   UNL d   1      -3.705  -0.263   0.109  0.00  0.00     0.286 C 
ATOM      2  N   UNL d   1      -4.429  -1.424   0.244  0.00  0.00    -0.261 N 
ATOM      3  O   UNL d   1      -2.655  -0.214  -0.532  0.00  0.00    -0.264 OA
ATOM      4  H   UNL d   1      -5.326  -1.473   0.723  0.00  0.00     0.190 HD
ENDROOT
BRANCH   2   5
ATOM      5  N   UNL d   1      -4.036  -2.593  -0.431  0.00  0.00    -0.248 N 
ATOM      6  C   UNL d   1      -4.783  -3.727  -0.144  0.00  0.00     0.339 C 
ATOM      7  N   UNL d   1      -4.275  -4.854  -0.749  0.00  0.00    -0.308 N 
ATOM      8  O   UNL d   1      -5.791  -3.654   0.555  0.00  0.00    -0.245 OA
ATOM      9  H   UNL d   1      -3.546  -4.699  -1.429  0.00  0.00     0.170 HD
ATOM     10  H   UNL d   1      -3.040  -2.671  -0.608  0.00  0.00     0.192 HD
BRANCH   7  11
ATOM     11  C   UNL d   1      -4.745  -6.178  -0.616  0.00  0.00     0.036 A 
ATOM     12  C   UNL d   1      -5.768  -6.563   0.256  0.00  0.00     0.032 A 
ATOM     13  C   UNL d   1      -6.180  -7.902   0.345  0.00  0.00     0.039 A 
ATOM     14  C   UNL d   1      -5.589  -8.874  -0.457  0.00  0.00     0.078 A 
ATOM     15  C   UNL d   1      -4.550  -8.497  -1.312  0.00  0.00     0.039 A 
ATOM     16  C   UNL d   1      -4.132  -7.164  -1.395  0.00  0.00     0.032 A 
BRANCH  14  17
ATOM     17  O   UNL d   1      -5.915 -10.195  -0.521  0.00  0.00    -0.255 OA
BRANCH  17  18
ATOM     18  C   UNL d   1      -7.082 -10.648   0.146  0.00  0.00     0.530 C 
ATOM     19  F   UNL d   1      -8.128  -9.810  -0.016  0.00  0.00    -0.144 F 
ATOM     20  F   UNL d   1      -7.431 -11.846  -0.376  0.00  0.00    -0.144 F 
ATOM     21  F   UNL d   1      -6.838 -10.816   1.462  0.00  0.00    -0.144 F 
ENDBRANCH  17  18
ENDBRANCH  14  17
ENDBRANCH   7  11
ENDBRANCH   2   5
BRANCH   1  22
ATOM     22  C   UNL d   1      -4.276   0.896   0.767  0.00  0.00     0.103 A 
ATOM     23  N   UNL d   1      -3.744   2.157   0.615  0.00  0.00    -0.351 N 
ATOM     24  C   UNL d   1      -4.480   3.092   1.307  0.00  0.00     0.043 A 
ATOM     25  H   UNL d   1      -2.930   2.358   0.048  0.00  0.00     0.166 HD
ATOM     26  C   UNL d   1      -4.333   4.480   1.403  0.00  0.00     0.033 A 
ATOM     27  C   UNL d   1      -5.498   2.403   1.957  0.00  0.00    -0.004 A 
ATOM     28  C   UNL d   1      -5.256   5.182   2.193  0.00  0.00     0.039 A 
ATOM     29  C   UNL d   1      -6.259   4.515   2.894  0.00  0.00     0.079 A 
ATOM     30  C   UNL d   1      -6.400   3.127   2.757  0.00  0.00     0.051 A 
ATOM     31  C   UNL d   1      -5.365   1.030   1.614  0.00  0.00     0.049 A 
BRANCH  29  32
ATOM     32  O   UNL d   1      -7.217   5.104   3.664  0.00  0.00    -0.255 OA
BRANCH  32  33
ATOM     33  C   UNL d   1      -6.879   6.232   4.458  0.00  0.00     0.530 C 
ATOM     34  F   UNL d   1      -5.575   6.577   4.417  0.00  0.00    -0.144 F 
ATOM     35  F   UNL d   1      -7.620   7.290   4.061  0.00  0.00    -0.144 F 
ATOM     36  F   UNL d   1      -7.195   5.961   5.745  0.00  0.00    -0.144 F 
ENDBRANCH  32  33
ENDBRANCH  29  32
ENDBRANCH   1  22
TORSDOF 7
