REMARK  9 active torsions:
REMARK  status: ('A' for Active; 'I' for Inactive)
REMARK    1  A    between atoms: S_8  and  C_2 
REMARK    2  A    between atoms: C_18  and  C_7 
REMARK    3  A    between atoms: C_12  and  S_8 
REMARK    4  A    between atoms: C_9  and  C_20 
REMARK       I    between atoms: N_11  and  C_9 
REMARK    5  A    between atoms: C_10  and  C_12 
REMARK    6  A    between atoms: C_15  and  C_10 
REMARK    7  A    between atoms: C_19  and  N_11 
REMARK    8  A    between atoms: S_16  and  C_18 
REMARK    9  A    between atoms: C_20  and  S_16 
ROOT
ATOM      1  N   UNL d   1       0.550   0.060  -0.211  0.00  0.00    -0.319 N 
ATOM      2  C   UNL d   1      -0.253   1.154  -0.042  0.00  0.00     0.162 A 
ATOM      3  N   UNL d   1      -1.475   0.766   0.235  0.00  0.00    -0.278 N 
ATOM      4  HN  UNL d   1      -2.274   1.375   0.414  1.00  0.00     0.189 HD
ATOM      5  N   UNL d   1      -1.486  -0.612   0.241  0.00  0.00    -0.286 N 
ATOM      6  HN  UNL d   1      -2.298  -1.203   0.419  1.00  0.00     0.188 HD
ATOM      7  C   UNL d   1      -0.263  -1.037  -0.023  0.00  0.00     0.109 A 
ATOM      8  C   UNL d   1       1.951   0.028  -0.541  0.00  0.00     0.159 C 
ENDROOT
BRANCH   7   9
ATOM      9  C   UNL d   1       0.167  -2.460  -0.142  0.00  0.00     0.152 C 
BRANCH   9  10
ATOM     10  S   UNL d   1       0.990  -3.083   1.371  0.00  0.00    -0.152 SA
BRANCH  10  11
ATOM     11  C   UNL d   1      -0.454  -3.089   2.479  0.00  0.00     0.177 C 
BRANCH  11  12
ATOM     12  C   UNL d   1      -0.185  -3.544   3.911  0.00  0.00     0.231 C 
ATOM     13  N   UNL d   1       1.065  -4.067   4.178  0.00  0.00    -0.327 N 
ATOM     14  H   UNL d   1       1.712  -4.071   3.395  0.00  0.00     0.169 HD
ATOM     15  O   UNL d   1      -1.100  -3.446   4.730  0.00  0.00    -0.272 OA
BRANCH  13  16
ATOM     16  C   UNL d   1       1.545  -4.561   5.414  0.00  0.00     0.034 A 
ATOM     17  C   UNL d   1       0.782  -4.610   6.585  0.00  0.00     0.029 A 
ATOM     18  C   UNL d   1       1.321  -5.109   7.777  0.00  0.00     0.002 A 
ATOM     19  C   UNL d   1       2.634  -5.567   7.812  0.00  0.00     0.000 A 
ATOM     20  C   UNL d   1       3.408  -5.527   6.654  0.00  0.00     0.002 A 
ATOM     21  C   UNL d   1       2.865  -5.028   5.463  0.00  0.00     0.029 A 
ENDBRANCH  13  16
ENDBRANCH  11  12
ENDBRANCH  10  11
ENDBRANCH   9  10
ENDBRANCH   7   9
BRANCH   2  22
ATOM     22  S   UNL d   1       0.266   2.783  -0.300  0.00  0.00    -0.085 SA
BRANCH  22  23
ATOM     23  C   UNL d   1      -0.136   3.565   1.292  0.00  0.00     0.166 C 
BRANCH  23  24
ATOM     24  C   UNL d   1       0.777   3.115   2.425  0.00  0.00     0.169 C 
ATOM     25  O   UNL d   1       1.580   2.183   2.317  0.00  0.00    -0.291 OA
BRANCH  24  26
ATOM     26  C   UNL d   1       0.698   3.842   3.737  0.00  0.00     0.010 A 
ATOM     27  C   UNL d   1      -0.072   4.999   3.925  0.00  0.00     0.015 A 
ATOM     28  C   UNL d   1      -0.092   5.640   5.170  0.00  0.00     0.001 A 
ATOM     29  C   UNL d   1       0.650   5.132   6.236  0.00  0.00     0.000 A 
ATOM     30  C   UNL d   1       1.417   3.984   6.060  0.00  0.00     0.001 A 
ATOM     31  C   UNL d   1       1.444   3.345   4.818  0.00  0.00     0.015 A 
ENDBRANCH  24  26
ENDBRANCH  23  24
ENDBRANCH  22  23
ENDBRANCH   2  22
TORSDOF 9
