REMARK  5 active torsions:
REMARK  status: ('A' for Active; 'I' for Inactive)
REMARK    1  A    between atoms: C_15  and  C_5 
REMARK    2  A    between atoms: O_12  and  C_7 
REMARK    3  A    between atoms: O_13  and  C_8 
REMARK    4  A    between atoms: O_14  and  C_10 
REMARK    5  A    between atoms: C_18  and  C_15 
ROOT
ATOM      1  N   UNL d   1       2.468   0.677  -0.030  0.00  0.00    -0.340 N 
ATOM      2  HN  UNL d   1       3.360   1.171  -0.040  1.00  0.00     0.167 HD
ATOM      3  C   UNL d   1       0.026   0.686   0.010  0.00  0.00    -0.000 A 
ATOM      4  C   UNL d   1       0.029  -0.726   0.014  0.00  0.00    -0.017 A 
ATOM      5  C   UNL d   1       1.283   1.342  -0.024  0.00  0.00     0.022 A 
ATOM      6  C   UNL d   1      -1.226   1.345   0.041  0.00  0.00     0.054 A 
ATOM      7  C   UNL d   1       2.403  -0.659  -0.022  0.00  0.00     0.140 A 
ATOM      8  C   UNL d   1      -2.432   0.635   0.061  0.00  0.00     0.102 A 
ATOM      9  C   UNL d   1      -1.186  -1.435   0.044  0.00  0.00     0.052 A 
ATOM     10  C   UNL d   1      -2.414  -0.768   0.079  0.00  0.00     0.102 A 
ATOM     11  C   UNL d   1       1.248  -1.405  -0.006  0.00  0.00     0.068 A 
ENDROOT
BRANCH   5  12
ATOM     12  C   UNL d   1       1.407   2.849  -0.053  0.00  0.00     0.057 C 
BRANCH  12  13
ATOM     13  C   UNL d   1       1.366   3.461   1.347  0.00  0.00     0.002 C 
ATOM     14  C   UNL d   1       1.411   4.980   1.285  0.00  0.00     0.005 C 
ENDBRANCH  12  13
ENDBRANCH   5  12
BRANCH   7  15
ATOM     15  O   UNL d   1       3.614  -1.266  -0.029  0.00  0.00    -0.346 OA
ATOM     16  H   UNL d   1       4.189  -0.480  -0.032  0.00  0.00     0.219 HD
ENDBRANCH   7  15
BRANCH   8  17
ATOM     17  O   UNL d   1      -3.664   1.242   0.104  0.00  0.00    -0.353 OA
ATOM     18  C   UNL d   1      -3.738   2.566  -0.412  0.00  0.00     0.210 C 
ENDBRANCH   8  17
BRANCH  10  19
ATOM     19  O   UNL d   1      -3.637  -1.388   0.124  0.00  0.00    -0.353 OA
ATOM     20  C   UNL d   1      -3.658  -2.808   0.170  0.00  0.00     0.210 C 
ENDBRANCH  10  19
TORSDOF 5
