REMARK  7 active torsions:
REMARK  status: ('A' for Active; 'I' for Inactive)
REMARK    1  A    between atoms: C_3  and  C_1 
REMARK    2  A    between atoms: O_16  and  C_2 
REMARK    3  A    between atoms: O_17  and  C_3 
REMARK       I    between atoms: C_4  and  N_10 
REMARK    4  A    between atoms: C_7  and  C_4 
REMARK    5  A    between atoms: C_8  and  C_9 
REMARK    6  A    between atoms: O_18  and  C_8 
REMARK    7  A    between atoms: N_10  and  C_11 
ROOT
ATOM      1  C   UNL d   1       0.497   1.174  -0.175  0.00  0.00     0.070 A 
ATOM      2  C   UNL d   1       0.992  -0.097   0.132  0.00  0.00     0.084 A 
ATOM      3  C   UNL d   1       0.151  -1.220   0.166  0.00  0.00     0.067 A 
ATOM      4  C   UNL d   1      -0.830   1.279  -0.587  0.00  0.00     0.023 A 
ATOM      5  C   UNL d   1      -1.203  -1.091  -0.165  0.00  0.00     0.037 A 
ATOM      6  C   UNL d   1      -1.661   0.156  -0.601  0.00  0.00     0.031 A 
ENDROOT
BRANCH   5   7
ATOM      7  N   UNL d   1      -2.062  -2.215  -0.017  0.00  0.00    -0.324 N 
ATOM      8  C   UNL d   1      -3.432  -2.207  -0.207  0.00  0.00     0.245 C 
ATOM      9  O   UNL d   1      -4.112  -1.265  -0.599  0.00  0.00    -0.268 OA
ATOM     10  H   UNL d   1      -1.638  -3.064   0.334  0.00  0.00     0.169 HD
BRANCH   8  11
ATOM     11  C   UNL d   1      -4.108  -3.486   0.126  0.00  0.00     0.081 C 
ATOM     12  C   UNL d   1      -5.443  -3.531  -0.022  0.00  0.00     0.086 C 
BRANCH  12  13
ATOM     13  C   UNL d   1      -6.169  -4.770   0.276  0.00  0.00     0.165 C 
ATOM     14  O   UNL d   1      -5.630  -5.803   0.645  0.00  0.00    -0.647 OA
BRANCH  13  15
ATOM     15  O   UNL d   1      -7.497  -4.643   0.097  0.00  0.00    -0.773 OA
ATOM     16  H   UNL d   1      -7.808  -3.766  -0.194  0.00  0.00     0.167 HD
ENDBRANCH  13  15
ENDBRANCH  12  13
ENDBRANCH   8  11
ENDBRANCH   5   7
BRANCH   2  17
ATOM     17  O   UNL d   1       2.320  -0.281   0.412  0.00  0.00    -0.360 OA
ATOM     18  H   UNL d   1       2.779  -0.282  -0.456  0.00  0.00     0.217 HD
ENDBRANCH   2  17
BRANCH   1  19
ATOM     19  C   UNL d   1       1.278   2.438  -0.068  0.00  0.00     0.178 C 
ATOM     20  O   UNL d   1       0.856   3.509  -0.476  0.00  0.00    -0.646 OA
BRANCH  19  21
ATOM     21  O   UNL d   1       2.476   2.317   0.541  0.00  0.00    -0.773 OA
ATOM     22  H   UNL d   1       2.630   1.429   0.932  0.00  0.00     0.167 HD
ENDBRANCH  19  21
ENDBRANCH   1  19
TORSDOF 7
