REMARK  4 active torsions:
REMARK  status: ('A' for Active; 'I' for Inactive)
REMARK    1  A    between atoms: C_7  and  N_1 
REMARK    2  A    between atoms: C_13  and  N_2 
REMARK    3  A    between atoms: C_19  and  C_13 
REMARK    4  A    between atoms: S_17  and  C_16 
ROOT
ATOM      1  N   UNL d   1       0.948  -1.390  -0.013  0.00  0.00    -0.246 N 
ATOM      2  N   UNL d   1       2.118   0.701  -0.105  0.00  0.00    -0.260 N 
ATOM      3  C   UNL d   1       2.174  -0.709  -0.025  0.00  0.00     0.338 A 
ATOM      4  C   UNL d   1      -0.237  -0.691  -0.086  0.00  0.00     0.150 A 
ATOM      5  C   UNL d   1      -0.230   0.671  -0.138  0.00  0.00     0.147 A 
ATOM      6  C   UNL d   1       0.945   1.461  -0.165  0.00  0.00     0.282 A 
ATOM      7  N   UNL d   1      -1.515  -1.173  -0.060  0.00  0.00    -0.336 N 
ATOM      8  HN  UNL d   1      -1.811  -2.148  -0.028  1.00  0.00     0.168 HD
ATOM      9  N   UNL d   1      -1.540   1.049  -0.135  0.00  0.00    -0.345 N 
ATOM     10  C   UNL d   1      -2.282  -0.101  -0.085  0.00  0.00     0.182 A 
ATOM     11  O   UNL d   1       3.259  -1.301   0.004  0.00  0.00    -0.246 OA
ATOM     12  O   UNL d   1       0.905   2.684  -0.242  0.00  0.00    -0.265 OA
ATOM     13  H   UNL d   1      -1.890   2.000  -0.145  0.00  0.00     0.167 HD
ENDROOT
BRANCH   1  14
ATOM     14  C   UNL d   1       0.889  -2.802   0.104  0.00  0.00     0.053 A 
ATOM     15  C   UNL d   1       1.363  -3.471   1.262  0.00  0.00    -0.018 A 
ATOM     16  C   UNL d   1       1.419  -4.883   1.254  0.00  0.00     0.008 A 
ATOM     17  C   UNL d   1       1.746  -2.687   2.493  0.00  0.00     0.052 C 
ATOM     18  C   UNL d   1       0.978  -5.592   0.124  0.00  0.00     0.019 A 
ATOM     19  C   UNL d   1       0.469  -4.926  -0.988  0.00  0.00     0.004 A 
ATOM     20  C   UNL d   1       0.415  -3.537  -0.995  0.00  0.00     0.031 A 
BRANCH  16  21
ATOM     21  S   UNL d   1       1.903  -5.888   2.666  0.00  0.00    -0.134 SA
ATOM     22  C   UNL d   1       3.678  -5.536   2.752  0.00  0.00     0.095 C 
ENDBRANCH  16  21
ENDBRANCH   1  14
BRANCH   2  23
ATOM     23  C   UNL d   1       3.382   1.420  -0.110  0.00  0.00     0.175 C 
BRANCH  23  24
ATOM     24  C   UNL d   1       3.845   1.752   1.292  0.00  0.00    -0.040 A 
ATOM     25  C   UNL d   1       4.679   0.871   1.996  0.00  0.00     0.009 A 
ATOM     26  C   UNL d   1       5.067   1.156   3.306  0.00  0.00     0.001 A 
ATOM     27  C   UNL d   1       4.623   2.322   3.926  0.00  0.00     0.000 A 
ATOM     28  C   UNL d   1       3.797   3.207   3.237  0.00  0.00     0.001 A 
ATOM     29  C   UNL d   1       3.410   2.924   1.927  0.00  0.00     0.009 A 
ENDBRANCH  23  24
ENDBRANCH   2  23
TORSDOF 4
