REMARK  2 active torsions:
REMARK  status: ('A' for Active; 'I' for Inactive)
REMARK    1  A    between atoms: C_12  and  N_1 
REMARK    2  A    between atoms: N_9  and  C_8 
ROOT
ATOM      1  N   UNL d   1       2.327  -0.036   0.143  0.00  0.00    -0.244 N 
ATOM      2  C   UNL d   1       1.671   1.195   0.035  0.00  0.00     0.266 A 
ATOM      3  C   UNL d   1       1.674  -1.272   0.114  0.00  0.00     0.266 A 
ATOM      4  C   UNL d   1       0.188   1.166  -0.018  0.00  0.00     0.045 A 
ATOM      5  C   UNL d   1      -0.507  -0.044  -0.004  0.00  0.00     0.008 A 
ATOM      6  C   UNL d   1       0.195  -1.255   0.054  0.00  0.00     0.045 A 
ATOM      7  C   UNL d   1      -1.938  -0.043  -0.061  0.00  0.00     0.003 A 
ATOM      8  C   UNL d   1      -2.655   1.203  -0.057  0.00  0.00     0.041 A 
ATOM      9  C   UNL d   1      -0.500   2.376  -0.064  0.00  0.00     0.020 A 
ATOM     10  C   UNL d   1      -1.893   2.387  -0.073  0.00  0.00     0.031 A 
ATOM     11  O   UNL d   1       2.234  -2.368   0.083  0.00  0.00    -0.267 OA
ATOM     12  O   UNL d   1       2.223   2.297   0.030  0.00  0.00    -0.267 OA
ATOM     13  C   UNL d   1      -0.472  -2.485   0.046  0.00  0.00     0.018 A 
ATOM     14  C   UNL d   1      -2.554  -1.318  -0.151  0.00  0.00     0.014 A 
ATOM     15  C   UNL d   1      -1.849  -2.516  -0.067  0.00  0.00     0.002 A 
ENDROOT
BRANCH   1  16
ATOM     16  C   UNL d   1       3.755  -0.045   0.264  0.00  0.00     0.045 A 
ATOM     17  C   UNL d   1       4.559   0.708  -0.603  0.00  0.00     0.030 A 
ATOM     18  C   UNL d   1       5.948   0.684  -0.478  0.00  0.00     0.002 A 
ATOM     19  C   UNL d   1       6.550  -0.063   0.534  0.00  0.00     0.000 A 
ATOM     20  C   UNL d   1       5.759  -0.807   1.411  0.00  0.00     0.002 A 
ATOM     21  C   UNL d   1       4.374  -0.810   1.264  0.00  0.00     0.030 A 
ENDBRANCH   1  16
BRANCH   8  22
ATOM     22  N   UNL d   1      -4.038   1.323   0.024  0.00  0.00    -0.376 N 
ATOM     23  C   UNL d   1      -4.902   0.395   0.769  0.00  0.00     0.149 C 
ATOM     24  C   UNL d   1      -5.945   1.171   1.586  0.00  0.00     0.187 C 
ATOM     25  O   UNL d   1      -6.708   2.059   0.758  0.00  0.00    -0.388 OA
ATOM     26  C   UNL d   1      -5.838   3.013   0.127  0.00  0.00     0.187 C 
ATOM     27  C   UNL d   1      -4.787   2.324  -0.762  0.00  0.00     0.149 C 
ENDBRANCH   8  22
TORSDOF 2
