REMARK  2 active torsions:
REMARK  status: ('A' for Active; 'I' for Inactive)
REMARK    1  A    between atoms: C_12  and  C_3 
REMARK    2  A    between atoms: N_14  and  C_13 
ROOT
ATOM      1  S   UNL d   1       1.624   1.934  -0.347  0.00  0.00    -0.144 SA
ATOM      2  S   UNL d   1       2.083  -1.093  -0.894  0.00  0.00    -0.144 SA
ATOM      3  C   UNL d   1       2.800   0.538  -0.442  0.00  0.00     0.141 C 
ATOM      4  C   UNL d   1      -0.309  -0.818   0.417  0.00  0.00    -0.041 A 
ATOM      5  C   UNL d   1      -0.501   0.550   0.660  0.00  0.00    -0.041 A 
ATOM      6  C   UNL d   1      -1.391  -1.577  -0.060  0.00  0.00     0.015 A 
ATOM      7  C   UNL d   1      -1.750   1.124   0.386  0.00  0.00     0.015 A 
ATOM      8  C   UNL d   1      -2.654  -1.007  -0.318  0.00  0.00    -0.056 A 
ATOM      9  C   UNL d   1      -2.833   0.369  -0.102  0.00  0.00    -0.056 A 
ATOM     10  C   UNL d   1       0.636   1.443   1.083  0.00  0.00     0.114 C 
ATOM     11  C   UNL d   1       1.050  -1.457   0.547  0.00  0.00     0.114 C 
ATOM     12  C   UNL d   1      -3.718  -1.932  -0.842  0.00  0.00     0.049 C 
ATOM     13  C   UNL d   1      -4.094   1.131  -0.397  0.00  0.00     0.049 C 
ENDROOT
BRANCH   3  14
ATOM     14  C   UNL d   1       3.871   0.892  -1.470  0.00  0.00    -0.035 A 
ATOM     15  C   UNL d   1       3.564   1.010  -2.831  0.00  0.00     0.011 A 
ATOM     16  C   UNL d   1       4.553   1.310  -3.773  0.00  0.00     0.030 A 
ATOM     17  C   UNL d   1       5.900   1.490  -3.420  0.00  0.00     0.029 A 
ATOM     18  C   UNL d   1       6.177   1.425  -2.045  0.00  0.00     0.030 A 
ATOM     19  C   UNL d   1       5.192   1.133  -1.084  0.00  0.00     0.011 A 
BRANCH  17  20
ATOM     20  N   UNL d   1       6.862   1.780  -4.383  0.00  0.00    -0.390 N 
ATOM     21  C   UNL d   1       6.753   1.193  -5.722  0.00  0.00     0.149 C 
ATOM     22  C   UNL d   1       8.229   2.149  -4.022  0.00  0.00     0.149 C 
ENDBRANCH  17  20
ENDBRANCH   3  14
TORSDOF 2
