REMARK  7 active torsions:
REMARK  status: ('A' for Active; 'I' for Inactive)
REMARK    1  A    between atoms: C_7  and  C_1 
REMARK    2  A    between atoms: C_12  and  C_2 
REMARK    3  A    between atoms: N_6  and  C_5 
REMARK    4  A    between atoms: C_9  and  C_10 
REMARK    5  A    between atoms: N_24  and  C_10 
REMARK    6  A    between atoms: O_18  and  C_12 
REMARK    7  A    between atoms: N_14  and  O_18 
ROOT
ATOM      1  C   UNL d   1      -1.481  -1.069   0.477  0.00  0.00     0.320 C 
ATOM      2  O   UNL d   1      -2.193  -1.978   0.887  0.00  0.00    -0.257 OA
ENDROOT
BRANCH   1   3
ATOM      3  C   UNL d   1      -0.087  -1.264   0.104  0.00  0.00     0.102 A 
ATOM      4  C   UNL d   1       0.583  -2.477  -0.283  0.00  0.00     0.087 A 
ATOM      5  N   UNL d   1       1.861  -2.217  -0.605  0.00  0.00    -0.259 N 
ATOM      6  O   UNL d   1       2.061  -0.883  -0.394  0.00  0.00    -0.241 OA
ATOM      7  HN  UNL d   1       2.551  -2.888  -0.942  1.00  0.00     0.195 HD
ATOM      8  C   UNL d   1       0.907  -0.302   0.014  0.00  0.00     0.091 A 
ATOM      9  C   UNL d   1       1.032   1.149   0.253  0.00  0.00     0.080 C 
BRANCH   4  10
ATOM     10  C   UNL d   1       0.090  -3.850  -0.439  0.00  0.00     0.037 A 
ATOM     11  C   UNL d   1      -0.991  -4.153  -1.289  0.00  0.00     0.048 A 
ATOM     12 CL   UNL d   1      -1.819  -2.954  -2.230  0.00  0.00    -0.083 Cl
ATOM     13  C   UNL d   1      -1.407  -5.479  -1.482  0.00  0.00     0.025 A 
ATOM     14  C   UNL d   1      -0.725  -6.531  -0.879  0.00  0.00     0.003 A 
ATOM     15  C   UNL d   1       0.364  -6.258  -0.059  0.00  0.00     0.025 A 
ATOM     16  C   UNL d   1       0.760  -4.933   0.176  0.00  0.00     0.048 A 
ATOM     17 CL   UNL d   1       2.100  -4.729   1.260  0.00  0.00    -0.083 Cl
ENDBRANCH   4  10
ENDBRANCH   1   3
BRANCH   1  18
ATOM     18  O   UNL d   1      -1.885   0.233   0.274  0.00  0.00    -0.193 OA
BRANCH  18  19
ATOM     19  N   UNL d   1      -3.293   0.382   0.301  0.00  0.00    -0.245 N 
ATOM     20  C   UNL d   1      -3.630   1.593  -0.060  0.00  0.00     0.116 C 
ATOM     21  HN  UNL d   1      -3.951  -0.351   0.565  1.00  0.00     0.196 HD
BRANCH  20  22
ATOM     22  C   UNL d   1      -5.057   1.898  -0.176  0.00  0.00     0.047 A 
ATOM     23  S   UNL d   1      -5.540   3.474  -0.680  0.00  0.00    -0.063 SA
ATOM     24  C   UNL d   1      -7.184   3.064  -0.636  0.00  0.00     0.144 A 
ATOM     25  C   UNL d   1      -7.396   1.766  -0.224  0.00  0.00     0.045 A 
ATOM     26  C   UNL d   1      -6.161   1.094   0.049  0.00  0.00     0.025 A 
BRANCH  24  27
ATOM     27  N   UNL d   1      -8.182   4.031  -1.016  0.00  0.00    -0.108 N 
ATOM     28  O   UNL d   1      -9.342   3.608  -1.127  0.00  0.00    -0.531 OA
ATOM     29  O   UNL d   1      -7.826   5.203  -1.196  0.00  0.00    -0.531 OA
ENDBRANCH  24  27
ENDBRANCH  20  22
BRANCH  20  30
ATOM     30  N   UNL d   1      -2.680   2.560  -0.317  0.00  0.00    -0.286 NA
ATOM     31  H   UNL d   1      -3.013   3.516  -0.247  0.00  0.00     0.125 HD
ATOM     32  H   UNL d   1      -1.814   2.403   0.175  0.00  0.00     0.125 HD
ENDBRANCH  20  30
ENDBRANCH  18  19
ENDBRANCH   1  18
TORSDOF 7
