REMARK  1 active torsions:
REMARK  status: ('A' for Active; 'I' for Inactive)
REMARK    1  A    between atoms: C_5  and  N_2 
ROOT
ATOM      1  C   UNL d   1      -2.450  -1.343  -1.384  0.00  0.00     0.141 C 
ATOM      2  N   UNL d   1      -1.327  -1.856  -0.999  0.00  0.00    -0.336 N 
ATOM      3  HN  UNL d   1      -0.700  -1.277  -0.441  1.00  0.00     0.168 HD
ATOM      4  N   UNL d   1      -2.778  -0.042  -1.115  0.00  0.00    -0.361 N 
ATOM      5  S   UNL d   1      -3.689  -2.034  -2.409  0.00  0.00    -0.092 SA
ATOM      6  C   UNL d   1      -3.596   0.623  -2.134  0.00  0.00     0.033 C 
ATOM      7  C   UNL d   1      -3.849  -0.419  -3.250  0.00  0.00     0.112 C 
ATOM      8  C   UNL d   1      -4.920   1.085  -1.523  0.00  0.00     0.039 C 
ATOM      9  C   UNL d   1      -2.818   1.831  -2.666  0.00  0.00     0.039 C 
ATOM     10  H   UNL d   1      -2.015   0.483  -0.700  0.00  0.00     0.162 HD
ENDROOT
BRANCH   2  11
ATOM     11  C   UNL d   1      -0.921  -3.170  -1.308  0.00  0.00     0.046 A 
ATOM     12  C   UNL d   1      -0.632  -3.604  -2.626  0.00  0.00    -0.035 A 
ATOM     13  C   UNL d   1      -0.200  -4.924  -2.846  0.00  0.00     0.009 A 
ATOM     14  C   UNL d   1      -0.766  -2.723  -3.835  0.00  0.00     0.050 C 
ATOM     15  C   UNL d   1       0.039  -5.787  -1.783  0.00  0.00     0.001 A 
ATOM     16  C   UNL d   1      -0.157  -5.340  -0.481  0.00  0.00     0.009 A 
ATOM     17  C   UNL d   1      -0.639  -4.044  -0.232  0.00  0.00    -0.035 A 
ATOM     18  C   UNL d   1      -0.729  -3.592   1.202  0.00  0.00     0.050 C 
ENDBRANCH   2  11
TORSDOF 1
