REMARK  6 active torsions:
REMARK  status: ('A' for Active; 'I' for Inactive)
REMARK    1  A    between atoms: C_6  and  C_1 
REMARK    2  A    between atoms: C_7  and  C_2 
REMARK    3  A    between atoms: C_3  and  S_5 
REMARK    4  A    between atoms: S_5  and  C_4 
REMARK    5  A    between atoms: O_21  and  C_6 
REMARK    6  A    between atoms: O_20  and  C_7 
ROOT
ATOM      1  S   UNL d   1      -2.795  -2.339  -0.138  0.00  0.00    -0.085 SA
ENDROOT
BRANCH   1   2
ATOM      2  C   UNL d   1      -4.191  -1.226  -0.106  0.00  0.00     0.044 A 
ATOM      3  C   UNL d   1      -4.874  -0.904   1.094  0.00  0.00     0.058 A 
ATOM      4  C   UNL d   1      -5.934   0.022   1.076  0.00  0.00     0.043 A 
ATOM      5  C   UNL d   1      -6.362   0.575  -0.126  0.00  0.00     0.036 A 
ATOM      6  C   UNL d   1      -5.750   0.225  -1.321  0.00  0.00     0.049 A 
ATOM      7 CL   UNL d   1      -7.653   1.710  -0.128  0.00  0.00    -0.084 Cl
ATOM      8  C   UNL d   1      -4.673  -0.668  -1.314  0.00  0.00     0.053 A 
ATOM      9 CL   UNL d   1      -3.954  -1.008  -2.856  0.00  0.00    -0.083 Cl
BRANCH   3  10
ATOM     10  C   UNL d   1      -4.443  -1.446   2.417  0.00  0.00     0.177 C 
ATOM     11  O   UNL d   1      -3.284  -1.666   2.718  0.00  0.00    -0.646 OA
BRANCH  10  12
ATOM     12  O   UNL d   1      -5.465  -1.680   3.271  0.00  0.00    -0.773 OA
ATOM     13  H   UNL d   1      -6.372  -1.600   2.923  0.00  0.00     0.167 HD
ENDBRANCH  10  12
ENDBRANCH   3  10
ENDBRANCH   1   2
BRANCH   1  14
ATOM     14  C   UNL d   1      -1.253  -1.401   0.023  0.00  0.00     0.044 A 
ATOM     15  C   UNL d   1      -0.043  -2.150  -0.021  0.00  0.00     0.058 A 
ATOM     16  C   UNL d   1       1.218  -1.515  -0.030  0.00  0.00     0.043 A 
ATOM     17  C   UNL d   1       1.309  -0.136   0.031  0.00  0.00     0.036 A 
ATOM     18  C   UNL d   1       0.156   0.620   0.131  0.00  0.00     0.049 A 
ATOM     19 CL   UNL d   1       2.843   0.637  -0.002  0.00  0.00    -0.084 Cl
ATOM     20  C   UNL d   1      -1.109   0.005   0.139  0.00  0.00     0.053 A 
ATOM     21 CL   UNL d   1      -2.393   1.148   0.325  0.00  0.00    -0.083 Cl
BRANCH  15  22
ATOM     22  C   UNL d   1       0.063  -3.641  -0.087  0.00  0.00     0.177 C 
ATOM     23  O   UNL d   1       0.947  -4.197  -0.716  0.00  0.00    -0.646 OA
BRANCH  22  24
ATOM     24  O   UNL d   1      -0.793  -4.315   0.709  0.00  0.00    -0.773 OA
ATOM     25  H   UNL d   1      -1.487  -3.766   1.129  0.00  0.00     0.167 HD
ENDBRANCH  22  24
ENDBRANCH  15  22
ENDBRANCH   1  14
TORSDOF 6
