REMARK  4 active torsions:
REMARK  status: ('A' for Active; 'I' for Inactive)
REMARK    1  A    between atoms: C_10  and  C_1 
REMARK    2  A    between atoms: N_6  and  C_2 
REMARK    3  A    between atoms: C_7  and  C_3 
REMARK       I    between atoms: C_8  and  N_6 
REMARK       I    between atoms: N_11  and  C_8 
REMARK    4  A    between atoms: O_16  and  C_10 
ROOT
ATOM      1  C   UNL d   1      -1.058  -0.785   0.259  0.00  0.00     0.122 A 
ATOM      2  C   UNL d   1      -0.806   0.515  -0.136  0.00  0.00     0.193 A 
ATOM      3  C   UNL d   1       0.002  -1.542  -0.332  0.00  0.00     0.089 A 
ATOM      4  N   UNL d   1       0.835  -0.753  -1.021  0.00  0.00    -0.257 N 
ATOM      5  HN  UNL d   1       1.668  -1.038  -1.536  1.00  0.00     0.195 HD
ATOM      6  O   UNL d   1       0.332   0.527  -0.888  0.00  0.00    -0.218 OA
ENDROOT
BRANCH   3   7
ATOM      7  C   UNL d   1       0.193  -2.988  -0.267  0.00  0.00     0.037 A 
ATOM      8  C   UNL d   1      -0.716  -3.856  -0.903  0.00  0.00     0.048 A 
ATOM      9 CL   UNL d   1      -1.978  -3.280  -1.943  0.00  0.00    -0.083 Cl
ATOM     10  C   UNL d   1      -0.670  -5.236  -0.672  0.00  0.00     0.025 A 
ATOM     11  C   UNL d   1       0.299  -5.771   0.172  0.00  0.00     0.003 A 
ATOM     12  C   UNL d   1       1.235  -4.929   0.771  0.00  0.00     0.025 A 
ATOM     13  C   UNL d   1       1.184  -3.546   0.558  0.00  0.00     0.048 A 
ATOM     14 CL   UNL d   1       2.337  -2.579   1.414  0.00  0.00    -0.083 Cl
ENDBRANCH   3   7
BRANCH   1  15
ATOM     15  C   UNL d   1      -2.156  -1.262   1.057  0.00  0.00     0.299 C 
ATOM     16  O   UNL d   1      -3.200  -0.642   1.224  0.00  0.00    -0.259 OA
BRANCH  15  17
ATOM     17  O   UNL d   1      -1.896  -2.498   1.574  0.00  0.00    -0.322 OA
ATOM     18  C   UNL d   1      -3.000  -3.232   2.098  0.00  0.00     0.213 C 
ENDBRANCH  15  17
ENDBRANCH   1  15
BRANCH   2  19
ATOM     19  N   UNL d   1      -1.496   1.694   0.068  0.00  0.00    -0.286 N 
ATOM     20  C   UNL d   1      -0.906   2.917  -0.162  0.00  0.00     0.323 C 
ATOM     21  N   UNL d   1      -1.754   4.023  -0.124  0.00  0.00    -0.343 N 
ATOM     22  O   UNL d   1       0.299   3.060  -0.374  0.00  0.00    -0.247 OA
ATOM     23  C   UNL d   1      -3.186   4.009   0.138  0.00  0.00     0.154 C 
ATOM     24  C   UNL d   1      -1.133   5.339  -0.181  0.00  0.00     0.154 C 
ATOM     25  H   UNL d   1      -2.353   1.641   0.595  0.00  0.00     0.172 HD
ENDBRANCH   2  19
TORSDOF 4
