REMARK  3 active torsions:
REMARK  status: ('A' for Active; 'I' for Inactive)
REMARK    1  A    between atoms: C_2  and  C_1 
REMARK       I    between atoms: N_7  and  C_1 
REMARK    2  A    between atoms: C_3  and  C_5 
REMARK    3  A    between atoms: C_4  and  C_6 
ROOT
ATOM      1  C   UNL d   1       0.153   0.960  -0.863  0.00  0.00     0.033 A 
ATOM      2  C   UNL d   1      -1.745   2.479  -1.069  0.00  0.00     0.049 A 
ATOM      3  C   UNL d   1      -0.349   1.975  -3.015  0.00  0.00     0.049 A 
ATOM      4  C   UNL d   1       0.381   1.066  -2.237  0.00  0.00     0.033 A 
ATOM      5  C   UNL d   1      -0.933   1.639  -0.291  0.00  0.00     0.033 A 
ATOM      6  C   UNL d   1      -1.415   2.673  -2.421  0.00  0.00     0.032 A 
ENDROOT
BRANCH   1   7
ATOM      7  C   UNL d   1       0.975   0.082   0.010  0.00  0.00     0.254 C 
ATOM      8  N   UNL d   1       2.362   0.032  -0.118  0.00  0.00    -0.344 N 
ATOM      9  C   UNL d   1       3.222   0.923  -0.900  0.00  0.00     0.153 C 
ATOM     10  C   UNL d   1       3.103  -0.885   0.750  0.00  0.00     0.130 C 
ATOM     11  C   UNL d   1       4.288   0.112  -1.596  0.00  0.00    -0.011 C 
ATOM     12  C   UNL d   1       4.623  -1.138  -1.242  0.00  0.00    -0.027 C 
ATOM     13  C   UNL d   1       3.965  -1.838  -0.086  0.00  0.00     0.047 C 
ATOM     14  O   UNL d   1       0.360  -0.576   0.850  0.00  0.00    -0.267 OA
ENDBRANCH   1   7
BRANCH   3  15
ATOM     15  C   UNL d   1       0.019   2.223  -4.458  0.00  0.00     0.417 C 
ATOM     16  F   UNL d   1       1.118   1.528  -4.861  0.00  0.00    -0.166 F 
ATOM     17  F   UNL d   1      -0.978   1.891  -5.321  0.00  0.00    -0.166 F 
ATOM     18  F   UNL d   1       0.305   3.534  -4.693  0.00  0.00    -0.166 F 
ENDBRANCH   3  15
BRANCH   2  19
ATOM     19  C   UNL d   1      -2.958   3.164  -0.482  0.00  0.00     0.417 C 
ATOM     20  F   UNL d   1      -3.200   2.837   0.816  0.00  0.00    -0.166 F 
ATOM     21  F   UNL d   1      -2.851   4.521  -0.516  0.00  0.00    -0.166 F 
ATOM     22  F   UNL d   1      -4.097   2.862  -1.165  0.00  0.00    -0.166 F 
ENDBRANCH   2  19
TORSDOF 3
