REMARK  5 active torsions:
REMARK  status: ('A' for Active; 'I' for Inactive)
REMARK       I    between atoms: N_4  and  C_1 
REMARK       I    between atoms: N_5  and  C_1 
REMARK    1  A    between atoms: C_2  and  O_7 
REMARK    2  A    between atoms: C_12  and  N_4 
REMARK    3  A    between atoms: C_13  and  N_5 
REMARK    4  A    between atoms: O_7  and  C_14 
REMARK    5  A    between atoms: C_24  and  C_15 
ROOT
ATOM      1  N   UNL d   1       3.328  -4.233  -6.400  0.00  0.00    -0.197 NA
ATOM      2  C   UNL d   1       3.181  -4.581  -5.304  0.00  0.00     0.063 C 
ATOM      3  C   UNL d   1       2.988  -5.049  -3.920  0.00  0.00     0.162 C 
ENDROOT
BRANCH   3   4
ATOM      4  C   UNL d   1       2.303  -4.030  -3.040  0.00  0.00    -0.045 A 
ATOM      5  C   UNL d   1       0.999  -3.592  -3.312  0.00  0.00     0.010 A 
ATOM      6  C   UNL d   1       0.398  -2.602  -2.523  0.00  0.00     0.030 A 
ATOM      7  C   UNL d   1       1.089  -2.028  -1.452  0.00  0.00     0.036 A 
ATOM      8  C   UNL d   1       2.360  -2.516  -1.141  0.00  0.00     0.030 A 
ATOM      9  C   UNL d   1       2.966  -3.500  -1.928  0.00  0.00     0.010 A 
BRANCH   7  10
ATOM     10  N   UNL d   1       0.471  -0.954  -0.768  0.00  0.00    -0.309 N 
ATOM     11  C   UNL d   1       1.101  -0.081   0.107  0.00  0.00     0.325 C 
ATOM     12  N   UNL d   1       0.248   0.933   0.515  0.00  0.00    -0.309 N 
ATOM     13  O   UNL d   1       2.274  -0.175   0.453  0.00  0.00    -0.247 OA
ATOM     14  H   UNL d   1      -0.736   0.796   0.344  0.00  0.00     0.170 HD
ATOM     15  H   UNL d   1      -0.440  -0.681  -1.101  0.00  0.00     0.170 HD
BRANCH  12  16
ATOM     16  C   UNL d   1       0.606   2.070   1.278  0.00  0.00     0.036 A 
ATOM     17  C   UNL d   1       1.922   2.401   1.611  0.00  0.00     0.032 A 
ATOM     18  C   UNL d   1       2.213   3.530   2.388  0.00  0.00     0.039 A 
ATOM     19  C   UNL d   1       1.183   4.330   2.867  0.00  0.00     0.078 A 
ATOM     20  C   UNL d   1      -0.129   4.044   2.484  0.00  0.00     0.039 A 
ATOM     21  C   UNL d   1      -0.419   2.920   1.700  0.00  0.00     0.032 A 
BRANCH  19  22
ATOM     22  O   UNL d   1       1.332   5.427   3.657  0.00  0.00    -0.255 OA
BRANCH  22  23
ATOM     23  C   UNL d   1       2.389   5.447   4.609  0.00  0.00     0.530 C 
ATOM     24  F   UNL d   1       2.997   4.256   4.792  0.00  0.00    -0.144 F 
ATOM     25  F   UNL d   1       3.313   6.358   4.237  0.00  0.00    -0.144 F 
ATOM     26  F   UNL d   1       1.877   5.832   5.802  0.00  0.00    -0.144 F 
ENDBRANCH  22  23
ENDBRANCH  19  22
ENDBRANCH  12  16
ENDBRANCH   7  10
ENDBRANCH   3   4
TORSDOF 5
