REMARK  13 active torsions:
REMARK  status: ('A' for Active; 'I' for Inactive)
REMARK    1  A    between atoms: O_8  and  C_1 
REMARK    2  A    between atoms: C_2  and  O_7 
REMARK    3  A    between atoms: C_3  and  C_32 
REMARK       I    between atoms: N_5  and  C_3 
REMARK       I    between atoms: C_4  and  N_6 
REMARK    4  A    between atoms: C_31  and  C_4 
REMARK    5  A    between atoms: C_17  and  N_5 
REMARK    6  A    between atoms: N_6  and  C_18 
REMARK    7  A    between atoms: O_7  and  C_19 
REMARK    8  A    between atoms: C_20  and  O_8 
REMARK    9  A    between atoms: S_21  and  C_31 
REMARK   10  A    between atoms: C_33  and  S_21 
REMARK   11  A    between atoms: S_22  and  C_34 
REMARK   12  A    between atoms: C_32  and  S_22 
REMARK   13  A    between atoms: C_34  and  C_33 
ROOT
ATOM      1  C   UNL d   1       6.269  -9.881  -0.950  0.00  0.00     0.084 C 
ENDROOT
BRANCH   1   2
ATOM      2  S   UNL d   1       5.753  -8.297  -1.694  0.00  0.00    -0.159 SA
BRANCH   2   3
ATOM      3  C   UNL d   1       3.966  -8.364  -1.327  0.00  0.00     0.177 C 
BRANCH   3   4
ATOM      4  C   UNL d   1       3.242  -7.086  -1.742  0.00  0.00     0.231 C 
ATOM      5  N   UNL d   1       3.785  -6.436  -2.837  0.00  0.00    -0.327 N 
ATOM      6  H   UNL d   1       4.616  -6.875  -3.234  0.00  0.00     0.169 HD
ATOM      7  O   UNL d   1       2.216  -6.758  -1.147  0.00  0.00    -0.272 OA
BRANCH   5   8
ATOM      8  C   UNL d   1       3.393  -5.204  -3.391  0.00  0.00     0.034 A 
ATOM      9  C   UNL d   1       2.376  -4.416  -2.856  0.00  0.00     0.032 A 
ATOM     10  C   UNL d   1       2.035  -3.184  -3.431  0.00  0.00     0.039 A 
ATOM     11  C   UNL d   1       2.673  -2.756  -4.590  0.00  0.00     0.078 A 
ATOM     12  C   UNL d   1       3.720  -3.521  -5.110  0.00  0.00     0.039 A 
ATOM     13  C   UNL d   1       4.078  -4.738  -4.517  0.00  0.00     0.032 A 
BRANCH  11  14
ATOM     14  O   UNL d   1       2.385  -1.622  -5.289  0.00  0.00    -0.255 OA
BRANCH  14  15
ATOM     15  C   UNL d   1       1.088  -1.052  -5.177  0.00  0.00     0.530 C 
ATOM     16  F   UNL d   1       0.147  -1.908  -4.725  0.00  0.00    -0.144 F 
ATOM     17  F   UNL d   1       0.700  -0.638  -6.405  0.00  0.00    -0.144 F 
ATOM     18  F   UNL d   1       1.133   0.024  -4.364  0.00  0.00    -0.144 F 
ENDBRANCH  14  15
ENDBRANCH  11  14
ENDBRANCH   5   8
ENDBRANCH   3   4
ENDBRANCH   2   3
ENDBRANCH   1   2
BRANCH   1  19
ATOM     19  C   UNL d   1       7.779 -10.037  -1.147  0.00  0.00     0.084 C 
BRANCH  19  20
ATOM     20  S   UNL d   1       8.449 -11.583  -0.424  0.00  0.00    -0.159 SA
BRANCH  20  21
ATOM     21  C   UNL d   1       7.696 -12.758  -1.576  0.00  0.00     0.177 C 
BRANCH  21  22
ATOM     22  C   UNL d   1       8.089 -14.213  -1.402  0.00  0.00     0.231 C 
ATOM     23  N   UNL d   1       9.020 -14.513  -0.432  0.00  0.00    -0.327 N 
ATOM     24  H   UNL d   1       9.315 -13.737   0.153  0.00  0.00     0.169 HD
ATOM     25  O   UNL d   1       7.523 -15.042  -2.126  0.00  0.00    -0.272 OA
BRANCH  23  26
ATOM     26  C   UNL d   1       9.456 -15.810  -0.072  0.00  0.00     0.034 A 
ATOM     27  C   UNL d   1       9.215 -16.948  -0.848  0.00  0.00     0.032 A 
ATOM     28  C   UNL d   1       9.595 -18.228  -0.413  0.00  0.00     0.039 A 
ATOM     29  C   UNL d   1      10.267 -18.382   0.792  0.00  0.00     0.078 A 
ATOM     30  C   UNL d   1      10.522 -17.245   1.567  0.00  0.00     0.039 A 
ATOM     31  C   UNL d   1      10.137 -15.968   1.135  0.00  0.00     0.032 A 
BRANCH  29  32
ATOM     32  O   UNL d   1      10.717 -19.545   1.339  0.00  0.00    -0.255 OA
BRANCH  32  33
ATOM     33  C   UNL d   1      10.845 -20.709   0.538  0.00  0.00     0.530 C 
ATOM     34  F   UNL d   1      11.126 -20.442  -0.754  0.00  0.00    -0.144 F 
ATOM     35  F   UNL d   1      11.864 -21.449   1.033  0.00  0.00    -0.144 F 
ATOM     36  F   UNL d   1       9.719 -21.451   0.607  0.00  0.00    -0.144 F 
ENDBRANCH  32  33
ENDBRANCH  29  32
ENDBRANCH  23  26
ENDBRANCH  21  22
ENDBRANCH  20  21
ENDBRANCH  19  20
ENDBRANCH   1  19
TORSDOF 13
