REMARK  6 active torsions:
REMARK  status: ('A' for Active; 'I' for Inactive)
REMARK    1  A    between atoms: N_2  and  S_1 
REMARK    2  A    between atoms: C_11  and  S_1 
REMARK    3  A    between atoms: S_3  and  O_7 
REMARK    4  A    between atoms: C_10  and  S_3 
REMARK    5  A    between atoms: O_7  and  C_5 
REMARK    6  A    between atoms: C_9  and  C_16 
ROOT
ATOM      1  N   UNL d   1       0.416   0.692  -1.581  0.00  0.00    -0.271 N 
ATOM      2  C   UNL d   1      -0.906   0.593  -2.148  0.00  0.00     0.059 A 
ATOM      3  C   UNL d   1      -1.307   3.137  -2.359  0.00  0.00     0.118 C 
ATOM      4  C   UNL d   1      -1.733   1.705  -2.427  0.00  0.00     0.028 A 
ATOM      5  C   UNL d   1      -0.098   3.506  -2.849  0.00  0.00     0.059 C 
ATOM      6  C   UNL d   1       1.411   1.679  -2.059  0.00  0.00     0.147 C 
ATOM      7  C   UNL d   1       0.287   4.870  -3.041  0.00  0.00     0.098 C 
ATOM      8  C   UNL d   1      -1.356  -0.702  -2.455  0.00  0.00     0.055 A 
ATOM      9  N   UNL d   1       0.656   5.949  -3.230  0.00  0.00    -0.192 NA
ATOM     10  C   UNL d   1      -3.039   1.453  -2.905  0.00  0.00     0.018 A 
ATOM     11  C   UNL d   1       0.945   2.487  -3.265  0.00  0.00     0.074 C 
ATOM     12  C   UNL d   1      -2.633  -0.915  -2.962  0.00  0.00     0.036 A 
ATOM     13  C   UNL d   1      -3.490   0.157  -3.162  0.00  0.00     0.025 A 
ATOM     14 CL   UNL d   1      -3.146  -2.505  -3.364  0.00  0.00    -0.084 Cl
ENDROOT
BRANCH   3  15
ATOM     15  O   UNL d   1      -2.355   3.966  -1.986  0.00  0.00    -0.227 OA
BRANCH  15  16
ATOM     16  S   UNL d   1      -2.237   5.387  -1.193  0.00  0.00     0.303 S 
ATOM     17  O   UNL d   1      -1.078   5.330  -0.324  0.00  0.00    -0.193 OA
ATOM     18  O   UNL d   1      -2.447   6.456  -2.146  0.00  0.00    -0.193 OA
BRANCH  16  19
ATOM     19  C   UNL d   1      -3.669   5.400  -0.132  0.00  0.00     0.087 A 
ATOM     20  C   UNL d   1      -4.819   4.689  -0.493  0.00  0.00     0.042 A 
ATOM     21  C   UNL d   1      -5.909   4.629   0.391  0.00  0.00     0.049 A 
ATOM     22  C   UNL d   1      -5.829   5.313   1.617  0.00  0.00     0.016 A 
ATOM     23  C   UNL d   1      -4.684   6.036   1.959  0.00  0.00     0.002 A 
ATOM     24  C   UNL d   1      -3.598   6.077   1.087  0.00  0.00     0.026 A 
BRANCH  21  25
ATOM     25  C   UNL d   1      -7.142   3.819   0.064  0.00  0.00     0.417 C 
ATOM     26  F   UNL d   1      -7.072   3.206  -1.151  0.00  0.00    -0.166 F 
ATOM     27  F   UNL d   1      -7.357   2.826   0.969  0.00  0.00    -0.166 F 
ATOM     28  F   UNL d   1      -8.277   4.568   0.045  0.00  0.00    -0.166 F 
ENDBRANCH  21  25
ENDBRANCH  16  19
ENDBRANCH  15  16
ENDBRANCH   3  15
BRANCH   1  29
ATOM     29  S   UNL d   1       0.680   0.049  -0.011  0.00  0.00     0.265 S 
ATOM     30  O   UNL d   1       2.109  -0.119   0.158  0.00  0.00    -0.200 OA
ATOM     31  O   UNL d   1      -0.229  -1.050   0.239  0.00  0.00    -0.200 OA
BRANCH  29  32
ATOM     32  C   UNL d   1       0.181   1.392   1.048  0.00  0.00     0.080 A 
ATOM     33  C   UNL d   1      -1.139   1.471   1.501  0.00  0.00     0.027 A 
ATOM     34  C   UNL d   1      -1.522   2.546   2.306  0.00  0.00     0.025 A 
ATOM     35  C   UNL d   1      -0.586   3.521   2.658  0.00  0.00     0.034 A 
ATOM     36  C   UNL d   1       0.742   3.412   2.246  0.00  0.00     0.025 A 
ATOM     37 CL   UNL d   1      -1.073   4.868   3.611  0.00  0.00    -0.084 Cl
ATOM     38  C   UNL d   1       1.133   2.333   1.454  0.00  0.00     0.027 A 
ENDBRANCH  29  32
ENDBRANCH   1  29
TORSDOF 6
