REMARK  3 active torsions:
REMARK  status: ('A' for Active; 'I' for Inactive)
REMARK    1  A    between atoms: N_3  and  C_1 
REMARK    2  A    between atoms: O_11  and  C_8 
REMARK    3  A    between atoms: C_12  and  O_11 
ROOT
ATOM      1  C   UNL d   1      -2.624  -0.640   0.021  0.00  0.00     0.137 A 
ATOM      2  N   UNL d   1       1.902  -0.039   0.009  0.00  0.00    -0.289 N 
ATOM      3  C   UNL d   1       1.125  -1.156  -0.002  0.00  0.00     0.259 A 
ATOM      4  C   UNL d   1       1.167   1.104   0.058  0.00  0.00     0.259 A 
ATOM      5  C   UNL d   1      -0.262  -0.695   0.041  0.00  0.00     0.050 A 
ATOM      6  C   UNL d   1      -0.235   0.690   0.084  0.00  0.00     0.051 A 
ATOM      7  C   UNL d   1      -2.613   0.777   0.020  0.00  0.00     0.110 A 
ATOM      8  C   UNL d   1      -1.445  -1.404   0.035  0.00  0.00     0.057 A 
ATOM      9  C   UNL d   1      -1.387   1.451   0.115  0.00  0.00     0.058 A 
ATOM     10  O   UNL d   1       1.556   2.253   0.065  0.00  0.00    -0.267 OA
ATOM     11  O   UNL d   1       1.472  -2.318  -0.047  0.00  0.00    -0.267 OA
ATOM     12  H   UNL d   1       2.909  -0.055  -0.036  0.00  0.00     0.172 HD
ENDROOT
BRANCH   7  13
ATOM     13  O   UNL d   1      -3.821   1.443  -0.008  0.00  0.00    -0.305 OA
BRANCH  13  14
ATOM     14  C   UNL d   1      -3.921   2.651  -0.664  0.00  0.00     0.114 A 
ATOM     15  C   UNL d   1      -3.228   3.002  -1.830  0.00  0.00     0.153 A 
ATOM     16  C   UNL d   1      -3.354   4.271  -2.384  0.00  0.00     0.087 A 
ATOM     17  F   UNL d   1      -2.407   2.129  -2.433  0.00  0.00    -0.203 F 
ATOM     18  C   UNL d   1      -4.229   5.176  -1.800  0.00  0.00     0.119 A 
ATOM     19  C   UNL d   1      -4.985   4.826  -0.685  0.00  0.00     0.045 A 
ATOM     20  F   UNL d   1      -4.354   6.402  -2.322  0.00  0.00    -0.206 F 
ATOM     21  C   UNL d   1      -4.833   3.560  -0.116  0.00  0.00     0.043 A 
ENDBRANCH  13  14
ENDBRANCH   7  13
BRANCH   1  22
ATOM     22  N   UNL d   1      -3.886  -1.353   0.020  0.00  0.00    -0.113 N 
ATOM     23  O   UNL d   1      -4.658  -1.152  -0.925  0.00  0.00    -0.532 OA
ATOM     24  O   UNL d   1      -4.077  -2.144   0.955  0.00  0.00    -0.532 OA
ENDBRANCH   1  22
TORSDOF 3
