REMARK  5 active torsions:
REMARK  status: ('A' for Active; 'I' for Inactive)
REMARK    1  A    between atoms: S_2  and  N_3 
REMARK    2  A    between atoms: C_14  and  S_2 
REMARK    3  A    between atoms: S_22  and  C_5 
REMARK    4  A    between atoms: C_10  and  C_6 
REMARK    5  A    between atoms: O_28  and  N_20 
ROOT
ATOM      1  C   UNL d   1       0.119  -0.783   0.039  0.00  0.00     0.020 A 
ATOM      2  C   UNL d   1       0.469   0.639   0.042  0.00  0.00    -0.024 A 
ATOM      3  C   UNL d   1       1.236  -1.596  -0.029  0.00  0.00     0.054 A 
ATOM      4  C   UNL d   1       1.845   0.826   0.005  0.00  0.00     0.041 A 
ATOM      5  S   UNL d   1       2.673  -0.677  -0.010  0.00  0.00    -0.080 SA
ATOM      6  C   UNL d   1      -1.285  -1.201   0.074  0.00  0.00     0.045 C 
ATOM      7  C   UNL d   1      -0.608   1.711   0.036  0.00  0.00     0.050 C 
ATOM      8  C   UNL d   1      -2.031   1.170   0.377  0.00  0.00    -0.038 C 
ATOM      9  C   UNL d   1      -2.291  -0.158  -0.368  0.00  0.00     0.069 C 
ATOM     10  N   UNL d   1      -1.581  -2.374   0.541  0.00  0.00    -0.271 N 
ATOM     11  HN  UNL d   1      -0.885  -3.055   0.843  1.00  0.00     0.194 HD
ATOM     12  C   UNL d   1      -3.101   2.181  -0.075  0.00  0.00     0.015 C 
ATOM     13  C   UNL d   1      -2.181   0.973   1.901  0.00  0.00     0.015 C 
ENDROOT
BRANCH   4  14
ATOM     14  C   UNL d   1       2.617   2.134  -0.026  0.00  0.00     0.068 A 
ATOM     15  N   UNL d   1       2.058   3.353   0.036  0.00  0.00    -0.284 N 
ATOM     16  N   UNL d   1       3.129   4.209   0.086  0.00  0.00    -0.188 N 
ATOM     17  HN  UNL d   1       1.065   3.589   0.045  1.00  0.00     0.188 HD
ATOM     18  C   UNL d   1       4.326   3.567  -0.098  0.00  0.00     0.132 A 
ATOM     19  C   UNL d   1       4.032   2.228  -0.136  0.00  0.00     0.052 A 
BRANCH  16  20
ATOM     20  S   UNL d   1       3.057   5.940   0.234  0.00  0.00     0.282 S 
ATOM     21  O   UNL d   1       2.042   6.219   1.232  0.00  0.00    -0.198 OA
ATOM     22  O   UNL d   1       4.431   6.386   0.390  0.00  0.00    -0.198 OA
BRANCH  20  23
ATOM     23  C   UNL d   1       2.459   6.492  -1.337  0.00  0.00     0.081 A 
ATOM     24  C   UNL d   1       1.140   6.207  -1.704  0.00  0.00     0.027 A 
ATOM     25  C   UNL d   1       0.644   6.678  -2.920  0.00  0.00     0.025 A 
ATOM     26  C   UNL d   1       1.462   7.437  -3.759  0.00  0.00     0.034 A 
ATOM     27  C   UNL d   1       2.773   7.736  -3.389  0.00  0.00     0.025 A 
ATOM     28 CL   UNL d   1       0.843   8.021  -5.254  0.00  0.00    -0.084 Cl
ATOM     29  C   UNL d   1       3.276   7.270  -2.171  0.00  0.00     0.027 A 
ENDBRANCH  20  23
ENDBRANCH  16  20
ENDBRANCH   4  14
BRANCH   3  30
ATOM     30  S   UNL d   1       1.345  -3.342  -0.263  0.00  0.00    -0.126 SA
ATOM     31  C   UNL d   1       1.056  -3.967   1.406  0.00  0.00     0.096 C 
ENDBRANCH   3  30
BRANCH  10  32
ATOM     32  O   UNL d   1      -2.961  -2.601   0.584  0.00  0.00    -0.285 OA
ATOM     33  C   UNL d   1      -3.192  -3.820   1.281  0.00  0.00     0.237 C 
ENDBRANCH  10  32
TORSDOF 5
