REMARK  9 active torsions:
REMARK  status: ('A' for Active; 'I' for Inactive)
REMARK    1  A    between atoms: C_6  and  C_1 
REMARK    2  A    between atoms: C_10  and  C_2 
REMARK    3  A    between atoms: C_21  and  N_3 
REMARK    4  A    between atoms: C_8  and  C_11 
REMARK    5  A    between atoms: C_9  and  C_12 
REMARK    6  A    between atoms: O_20  and  C_10 
REMARK    7  A    between atoms: C_13  and  C_14 
REMARK    8  A    between atoms: N_32  and  C_14 
REMARK    9  A    between atoms: N_15  and  O_20 
ROOT
ATOM      1  C   UNL d   1       3.790  -2.692  -1.482  0.00  0.00     0.109 C 
ATOM      2  N   UNL d   1       2.788  -1.872  -1.554  0.00  0.00    -0.246 N 
ATOM      3  HN  UNL d   1       2.672  -1.168  -2.283  1.00  0.00     0.196 HD
ENDROOT
BRANCH   2   4
ATOM      4  O   UNL d   1       1.880  -2.077  -0.498  0.00  0.00    -0.193 OA
BRANCH   4   5
ATOM      5  C   UNL d   1       0.958  -1.055  -0.470  0.00  0.00     0.318 C 
ATOM      6  O   UNL d   1       1.175   0.112  -0.775  0.00  0.00    -0.257 OA
BRANCH   5   7
ATOM      7  C   UNL d   1      -0.354  -1.535  -0.066  0.00  0.00     0.091 C 
ATOM      8  C   UNL d   1      -1.444  -0.786   0.364  0.00  0.00     0.158 C 
ATOM      9  N   UNL d   1      -2.495  -1.672   0.517  0.00  0.00    -0.251 N 
ATOM     10  N   UNL d   1      -2.058  -2.959   0.404  0.00  0.00    -0.303 N 
ATOM     11  C   UNL d   1      -0.801  -2.862  -0.015  0.00  0.00     0.127 C 
ATOM     12  HN  UNL d   1      -2.583  -3.811   0.599  1.00  0.00     0.186 HD
BRANCH   8  13
ATOM     13  C   UNL d   1      -1.525   0.641   0.714  0.00  0.00     0.435 C 
ATOM     14  F   UNL d   1      -0.333   1.131   1.128  0.00  0.00    -0.165 F 
ATOM     15  F   UNL d   1      -1.931   1.399  -0.331  0.00  0.00    -0.165 F 
ATOM     16  F   UNL d   1      -2.380   0.880   1.741  0.00  0.00    -0.165 F 
ENDBRANCH   8  13
BRANCH   9  17
ATOM     17  C   UNL d   1      -3.876  -1.448   0.791  0.00  0.00     0.057 A 
ATOM     18  C   UNL d   1      -4.528  -0.263   0.432  0.00  0.00     0.031 A 
ATOM     19  C   UNL d   1      -5.861  -0.057   0.802  0.00  0.00     0.002 A 
ATOM     20  C   UNL d   1      -6.553  -1.035   1.514  0.00  0.00     0.000 A 
ATOM     21  C   UNL d   1      -5.929  -2.241   1.822  0.00  0.00     0.002 A 
ATOM     22  C   UNL d   1      -4.602  -2.456   1.447  0.00  0.00     0.031 A 
ENDBRANCH   9  17
ENDBRANCH   5   7
ENDBRANCH   4   5
ENDBRANCH   2   4
BRANCH   1  23
ATOM     23  C   UNL d   1       4.755  -2.705  -2.634  0.00  0.00     0.005 A 
ATOM     24  C   UNL d   1       4.799  -1.628  -3.527  0.00  0.00     0.031 A 
ATOM     25  C   UNL d   1       5.676  -1.645  -4.624  0.00  0.00     0.049 A 
ATOM     26  C   UNL d   1       6.508  -2.760  -4.818  0.00  0.00     0.032 A 
ATOM     27  C   UNL d   1       6.468  -3.854  -3.936  0.00  0.00     0.049 A 
ATOM     28  C   UNL d   1       5.577  -3.818  -2.850  0.00  0.00     0.031 A 
BRANCH  25  29
ATOM     29  C   UNL d   1       5.709  -0.468  -5.576  0.00  0.00     0.417 C 
ATOM     30  F   UNL d   1       6.636  -0.603  -6.565  0.00  0.00    -0.166 F 
ATOM     31  F   UNL d   1       4.519  -0.272  -6.204  0.00  0.00    -0.166 F 
ATOM     32  F   UNL d   1       6.005   0.701  -4.946  0.00  0.00    -0.166 F 
ENDBRANCH  25  29
BRANCH  27  33
ATOM     33  C   UNL d   1       7.352  -5.061  -4.137  0.00  0.00     0.417 C 
ATOM     34  F   UNL d   1       8.237  -4.922  -5.160  0.00  0.00    -0.166 F 
ATOM     35  F   UNL d   1       8.098  -5.339  -3.030  0.00  0.00    -0.166 F 
ATOM     36  F   UNL d   1       6.639  -6.189  -4.401  0.00  0.00    -0.166 F 
ENDBRANCH  27  33
ENDBRANCH   1  23
BRANCH   1  37
ATOM     37  N   UNL d   1       4.011  -3.541  -0.420  0.00  0.00    -0.286 NA
ATOM     38  H   UNL d   1       4.985  -3.692  -0.178  0.00  0.00     0.125 HD
ATOM     39  H   UNL d   1       3.468  -3.277   0.396  0.00  0.00     0.125 HD
ENDBRANCH   1  37
TORSDOF 9
