REMARK  6 active torsions:
REMARK  status: ('A' for Active; 'I' for Inactive)
REMARK       I    between atoms: C_8  and  N_1 
REMARK    1  A    between atoms: C_9  and  C_5 
REMARK       I    between atoms: N_13  and  C_8 
REMARK    2  A    between atoms: C_18  and  N_10 
REMARK    3  A    between atoms: C_17  and  N_11 
REMARK    4  A    between atoms: C_19  and  N_13 
REMARK    5  A    between atoms: C_21  and  C_17 
REMARK    6  A    between atoms: C_20  and  C_18 
ROOT
ATOM      1  C   UNL d   1       2.017   1.592   0.142  0.00  0.00     0.112 C 
ATOM      2  N   UNL d   1       3.647   0.450   1.718  0.00  0.00     0.121 N 
ATOM      3  N   UNL d   1       4.320   0.767  -0.601  0.00  0.00     0.121 N 
ATOM      4  C   UNL d   1       4.739   0.762   0.800  0.00  0.00     0.543 C 
ATOM      5  C   UNL d   1       3.178   1.653  -0.873  0.00  0.00     0.289 C 
ATOM      6  C   UNL d   1       2.569   1.443   1.563  0.00  0.00     0.289 C 
ENDROOT
BRANCH   1   7
ATOM      7  C   UNL d   1       0.866   0.702  -0.246  0.00  0.00     0.118 A 
ATOM      8  N   UNL d   1       0.353  -0.321   0.469  0.00  0.00    -0.264 N 
ATOM      9  N   UNL d   1      -0.849  -0.489  -0.166  0.00  0.00    -0.124 N 
ATOM     10  HN  UNL d   1       0.749  -0.827   1.261  1.00  0.00     0.190 HD
ATOM     11  N   UNL d   1      -1.012   0.311  -1.248  0.00  0.00     0.007 NA
ATOM     12  C   UNL d   1      -1.890  -1.329   0.303  0.00  0.00     0.359 C 
ATOM     13  N   UNL d   1       0.078   1.055  -1.310  0.00  0.00    -0.269 N 
ATOM     14  HN  UNL d   1       0.292   1.759  -2.017  1.00  0.00     0.185 HD
ATOM     15  N   UNL d   1      -1.423  -2.346   1.127  0.00  0.00    -0.306 N 
ATOM     16  O   UNL d   1      -3.039  -1.131  -0.081  0.00  0.00    -0.243 OA
ATOM     17  H   UNL d   1      -0.417  -2.489   1.166  0.00  0.00     0.171 HD
BRANCH  15  18
ATOM     18  C   UNL d   1      -2.251  -3.312   1.760  0.00  0.00     0.036 A 
ATOM     19  C   UNL d   1      -3.611  -3.098   1.998  0.00  0.00     0.029 A 
ATOM     20  C   UNL d   1      -4.387  -4.065   2.649  0.00  0.00     0.002 A 
ATOM     21  C   UNL d   1      -3.814  -5.263   3.055  0.00  0.00     0.000 A 
ATOM     22  C   UNL d   1      -2.461  -5.495   2.815  0.00  0.00     0.002 A 
ATOM     23  C   UNL d   1      -1.678  -4.514   2.181  0.00  0.00     0.029 A 
ENDBRANCH  15  18
ENDBRANCH   1   7
BRANCH   3  24
ATOM     24  C   UNL d   1       5.472   1.041  -1.501  0.00  0.00     0.313 C 
BRANCH  24  25
ATOM     25  C   UNL d   1       6.115   2.417  -1.383  0.00  0.00    -0.030 A 
ATOM     26  C   UNL d   1       7.116   2.669  -0.431  0.00  0.00     0.009 A 
ATOM     27  C   UNL d   1       7.620   3.959  -0.245  0.00  0.00     0.001 A 
ATOM     28  C   UNL d   1       7.149   5.011  -1.026  0.00  0.00     0.000 A 
ATOM     29  C   UNL d   1       6.193   4.770  -2.010  0.00  0.00     0.001 A 
ATOM     30  C   UNL d   1       5.686   3.481  -2.194  0.00  0.00     0.009 A 
ENDBRANCH  24  25
ENDBRANCH   3  24
BRANCH   2  31
ATOM     31  C   UNL d   1       3.120  -0.910   1.577  0.00  0.00     0.313 C 
BRANCH  31  32
ATOM     32  C   UNL d   1       4.049  -2.045   1.926  0.00  0.00    -0.030 A 
ATOM     33  C   UNL d   1       4.722  -2.103   3.153  0.00  0.00     0.009 A 
ATOM     34  C   UNL d   1       5.462  -3.238   3.490  0.00  0.00     0.001 A 
ATOM     35  C   UNL d   1       5.528  -4.319   2.612  0.00  0.00     0.000 A 
ATOM     36  C   UNL d   1       4.868  -4.268   1.387  0.00  0.00     0.001 A 
ATOM     37  C   UNL d   1       4.135  -3.136   1.046  0.00  0.00     0.009 A 
ENDBRANCH  31  32
ENDBRANCH   2  31
TORSDOF 6
