REMARK  3 active torsions:
REMARK  status: ('A' for Active; 'I' for Inactive)
REMARK    1  A    between atoms: S_6  and  C_2 
REMARK    2  A    between atoms: C_9  and  C_3 
REMARK    3  A    between atoms: C_17  and  S_6 
ROOT
ATOM      1  C   UNL d   1      -0.782   0.037  -0.029  0.00  0.00     0.082 A 
ATOM      2  C   UNL d   1       0.121   1.076   0.009  0.00  0.00     0.093 A 
ATOM      3  C   UNL d   1      -0.117  -1.254   0.009  0.00  0.00     0.003 A 
ATOM      4  S   UNL d   1       1.739   0.542   0.095  0.00  0.00    -0.090 SA
ATOM      5  C   UNL d   1       1.258  -1.094   0.055  0.00  0.00     0.065 A 
ATOM      6  C   UNL d   1      -2.208   0.197  -0.065  0.00  0.00     0.102 C 
ATOM      7  N   UNL d   1      -3.367   0.240  -0.046  0.00  0.00    -0.191 NA
ENDROOT
BRANCH   2   8
ATOM      8  S   UNL d   1      -0.229   2.794  -0.073  0.00  0.00     0.058 S 
ATOM      9  O   UNL d   1      -1.694   2.945  -0.343  0.00  0.00    -0.252 OA
BRANCH   8  10
ATOM     10  C   UNL d   1       0.021   3.183   1.694  0.00  0.00     0.110 C 
ATOM     11  C   UNL d   1      -0.265   4.650   1.953  0.00  0.00     0.019 C 
ENDBRANCH   8  10
ENDBRANCH   2   8
BRANCH   3  12
ATOM     12  C   UNL d   1      -0.711  -2.601   0.027  0.00  0.00    -0.024 A 
ATOM     13  C   UNL d   1      -0.127  -3.656  -0.694  0.00  0.00     0.014 A 
ATOM     14  C   UNL d   1      -0.679  -4.942  -0.658  0.00  0.00     0.024 A 
ATOM     15  C   UNL d   1      -1.831  -5.182   0.085  0.00  0.00     0.034 A 
ATOM     16  C   UNL d   1      -2.429  -4.149   0.799  0.00  0.00     0.024 A 
ATOM     17 CL   UNL d   1      -2.514  -6.760   0.127  0.00  0.00    -0.084 Cl
ATOM     18  C   UNL d   1      -1.864  -2.869   0.780  0.00  0.00     0.014 A 
ENDBRANCH   3  12
TORSDOF 3
