REMARK  2 active torsions:
REMARK  status: ('A' for Active; 'I' for Inactive)
REMARK    1  A    between atoms: C_7  and  C_3 
REMARK    2  A    between atoms: N_10  and  C_9 
ROOT
ATOM      1  C   UNL d   1       2.043  -2.423  -0.010  0.00  0.00    -0.007 A 
ATOM      2  C   UNL d   1       2.005  -3.324  -1.086  0.00  0.00     0.037 A 
ATOM      3  C   UNL d   1       2.849  -4.440  -1.128  0.00  0.00     0.006 A 
ATOM      4  C   UNL d   1       2.955  -2.650   1.030  0.00  0.00     0.014 A 
ATOM      5  C   UNL d   1       3.833  -3.732   0.974  0.00  0.00     0.003 A 
ATOM      6  C   UNL d   1       3.794  -4.605  -0.113  0.00  0.00     0.023 A 
ENDROOT
BRANCH   1   7
ATOM      7  C   UNL d   1       1.149  -1.270   0.002  0.00  0.00     0.049 A 
ATOM      8  N   UNL d   1      -0.102  -1.315  -0.598  0.00  0.00    -0.353 N 
ATOM      9  C   UNL d   1      -0.716  -0.160  -0.445  0.00  0.00     0.047 A 
ATOM     10  HN  UNL d   1      -0.488  -2.122  -1.086  1.00  0.00     0.166 HD
ATOM     11  S   UNL d   1       0.175   1.049   0.388  0.00  0.00    -0.087 SA
ATOM     12  C   UNL d   1      -2.088   0.140  -0.936  0.00  0.00     0.076 C 
ATOM     13  C   UNL d   1       1.471  -0.054   0.573  0.00  0.00     0.081 A 
ENDBRANCH   1   7
BRANCH   3  14
ATOM     14  N   UNL d   1       2.909  -5.239  -2.277  0.00  0.00    -0.303 NA
ATOM     15  H   UNL d   1       2.038  -5.264  -2.799  0.00  0.00     0.124 HD
ATOM     16  H   UNL d   1       3.286  -6.166  -2.113  0.00  0.00     0.124 HD
ENDBRANCH   3  14
TORSDOF 2
