REMARK  3 active torsions:
REMARK  status: ('A' for Active; 'I' for Inactive)
REMARK    1  A    between atoms: C_6  and  C_1 
REMARK    2  A    between atoms: S_8  and  C_3 
REMARK    3  A    between atoms: C_7  and  C_5 
REMARK       I    between atoms: N_10  and  C_6 
ROOT
ATOM      1  C   UNL d   1      -0.738   1.276  -0.083  0.00  0.00     0.080 A 
ATOM      2  S   UNL d   1      -1.245  -0.358  -0.107  0.00  0.00    -0.076 SA
ATOM      3  C   UNL d   1       0.351  -0.976   0.016  0.00  0.00     0.052 A 
ATOM      4  C   UNL d   1       0.652   1.364  -0.059  0.00  0.00    -0.027 A 
ATOM      5  C   UNL d   1       1.294   0.041  -0.032  0.00  0.00    -0.006 A 
ATOM      6  C   UNL d   1       1.427   2.655  -0.021  0.00  0.00     0.050 C 
ENDROOT
BRANCH   1   7
ATOM      7  C   UNL d   1      -1.724   2.357  -0.076  0.00  0.00     0.256 C 
ATOM      8  O   UNL d   1      -1.463   3.562  -0.079  0.00  0.00    -0.267 OA
ATOM      9  N   UNL d   1      -3.046   2.003  -0.048  0.00  0.00    -0.365 N 
ATOM     10  H   UNL d   1      -3.338   1.039   0.002  0.00  0.00     0.159 HD
ATOM     11  H   UNL d   1      -3.731   2.744   0.001  0.00  0.00     0.159 HD
ENDBRANCH   1   7
BRANCH   3  12
ATOM     12  S   UNL d   1       0.520  -2.714   0.299  0.00  0.00    -0.126 SA
ATOM     13  C   UNL d   1       0.957  -3.352  -1.331  0.00  0.00     0.096 C 
ENDBRANCH   3  12
BRANCH   5  14
ATOM     14  C   UNL d   1       2.734  -0.068  -0.002  0.00  0.00     0.003 C 
ATOM     15  C   UNL d   1       3.539  -1.136   0.067  0.00  0.00     0.012 C 
ENDBRANCH   5  14
TORSDOF 3
