REMARK  5 active torsions:
REMARK  status: ('A' for Active; 'I' for Inactive)
REMARK    1  A    between atoms: C_2  and  C_1 
REMARK    2  A    between atoms: C_4  and  C_2 
REMARK    3  A    between atoms: N_8  and  C_3 
REMARK    4  A    between atoms: C_6  and  C_4 
REMARK    5  A    between atoms: C_7  and  C_4 
ROOT
ATOM      1  C   UNL d   1       1.067  -0.431   2.612  0.00  0.00     0.125 C 
ENDROOT
BRANCH   1   2
ATOM      2  C   UNL d   1       0.367  -0.133   1.269  0.00  0.00     0.163 C 
ATOM      3  O   UNL d   1       0.489  -0.857   0.273  0.00  0.00    -0.292 OA
BRANCH   2   4
ATOM      4  C   UNL d   1      -0.508   1.073   1.097  0.00  0.00     0.068 C 
ATOM      5  C   UNL d   1      -0.752   2.046   1.981  0.00  0.00     0.088 C 
BRANCH   5   6
ATOM      6  N   UNL d   1      -1.574   3.166   1.865  0.00  0.00    -0.398 N 
ATOM      7  C   UNL d   1      -2.382   3.491   0.689  0.00  0.00     0.148 C 
ATOM      8  C   UNL d   1      -1.760   4.099   2.979  0.00  0.00     0.148 C 
ENDBRANCH   5   6
ENDBRANCH   2   4
ENDBRANCH   1   2
BRANCH   1   9
ATOM      9  C   UNL d   1       0.727  -1.812   3.182  0.00  0.00    -0.042 A 
ATOM     10  C   UNL d   1       0.910  -2.988   2.440  0.00  0.00     0.008 A 
ATOM     11  C   UNL d   1       0.705  -4.239   3.025  0.00  0.00     0.001 A 
ATOM     12  C   UNL d   1       0.322  -4.335   4.361  0.00  0.00     0.000 A 
ATOM     13  C   UNL d   1       0.118  -3.178   5.108  0.00  0.00     0.001 A 
ATOM     14  C   UNL d   1       0.312  -1.927   4.522  0.00  0.00     0.008 A 
ENDBRANCH   1   9
BRANCH   1  15
ATOM     15  C   UNL d   1       2.581  -0.188   2.604  0.00  0.00    -0.042 A 
ATOM     16  C   UNL d   1       3.230   0.115   3.816  0.00  0.00     0.008 A 
ATOM     17  C   UNL d   1       4.606   0.345   3.861  0.00  0.00     0.001 A 
ATOM     18  C   UNL d   1       5.361   0.271   2.695  0.00  0.00     0.000 A 
ATOM     19  C   UNL d   1       4.744  -0.060   1.491  0.00  0.00     0.001 A 
ATOM     20  C   UNL d   1       3.366  -0.298   1.447  0.00  0.00     0.008 A 
ENDBRANCH   1  15
TORSDOF 5
