REMARK  4 active torsions:
REMARK  status: ('A' for Active; 'I' for Inactive)
REMARK    1  A    between atoms: S_6  and  C_1 
REMARK    2  A    between atoms: C_5  and  N_9 
REMARK    3  A    between atoms: C_17  and  S_6 
REMARK    4  A    between atoms: C_8  and  C_17 
REMARK       I    between atoms: N_9  and  C_8 
ROOT
ATOM      1  C   UNL d   1       2.618   4.304  -0.281  0.00  0.00     0.231 C 
ATOM      2  N   UNL d   1       1.749   5.252   0.237  0.00  0.00    -0.326 N 
ATOM      3  O   UNL d   1       3.703   4.544  -0.807  0.00  0.00    -0.272 OA
ATOM      4  H   UNL d   1       0.884   4.891   0.625  0.00  0.00     0.169 HD
ENDROOT
BRANCH   1   5
ATOM      5  C   UNL d   1       2.189   2.866  -0.044  0.00  0.00     0.185 C 
BRANCH   5   6
ATOM      6  S   UNL d   1       0.471   2.562  -0.563  0.00  0.00    -0.084 SA
BRANCH   6   7
ATOM      7  C   UNL d   1       0.413   0.847  -0.312  0.00  0.00     0.146 A 
ATOM      8  N   UNL d   1      -0.602   0.044  -0.755  0.00  0.00    -0.341 N 
ATOM      9  C   UNL d   1      -0.293  -1.240  -0.381  0.00  0.00     0.109 A 
ATOM     10  C   UNL d   1      -1.792   0.421  -1.477  0.00  0.00     0.158 C 
ATOM     11  C   UNL d   1       0.909  -1.143   0.275  0.00  0.00     0.107 A 
ATOM     12  N   UNL d   1       1.336   0.157   0.319  0.00  0.00    -0.345 N 
ATOM     13  HN  UNL d   1       2.188   0.513   0.751  1.00  0.00     0.167 HD
ENDBRANCH   6   7
ENDBRANCH   5   6
ENDBRANCH   1   5
BRANCH   2  14
ATOM     14  C   UNL d   1       1.942   6.650   0.296  0.00  0.00     0.037 A 
ATOM     15  C   UNL d   1       3.056   7.307  -0.235  0.00  0.00     0.053 A 
ATOM     16  C   UNL d   1       3.193   8.691  -0.097  0.00  0.00     0.037 A 
ATOM     17 CL   UNL d   1       4.576   9.482  -0.750  0.00  0.00    -0.084 Cl
ATOM     18  C   UNL d   1       2.228   9.440   0.568  0.00  0.00     0.048 A 
ATOM     19  C   UNL d   1       1.113   8.790   1.084  0.00  0.00     0.037 A 
ATOM     20  C   UNL d   1       0.961   7.408   0.948  0.00  0.00     0.053 A 
ATOM     21 CL   UNL d   1      -0.091   9.700   1.914  0.00  0.00    -0.084 Cl
ENDBRANCH   2  14
TORSDOF 4
