REMARK  3 active torsions:
REMARK  status: ('A' for Active; 'I' for Inactive)
REMARK    1  A    between atoms: N_4  and  C_1 
REMARK       I    between atoms: C_6  and  N_4 
REMARK       I    between atoms: N_9  and  C_6 
REMARK    2  A    between atoms: N_10  and  N_9 
REMARK    3  A    between atoms: C_12  and  N_10 
ROOT
ATOM      1  N   UNL d   1      -3.219  -2.946  -1.201  0.00  0.00    -0.292 N 
ATOM      2  C   UNL d   1      -2.191  -2.779  -0.316  0.00  0.00     0.336 C 
ATOM      3  N   UNL d   1      -1.168  -3.692  -0.369  0.00  0.00    -0.268 N 
ATOM      4  O   UNL d   1      -2.202  -1.827   0.467  0.00  0.00    -0.246 OA
ATOM      5  H   UNL d   1      -3.934  -2.236  -1.141  0.00  0.00     0.172 HD
ATOM      6  H   UNL d   1      -1.381  -4.609  -0.761  0.00  0.00     0.185 HD
ENDROOT
BRANCH   1   7
ATOM      7  C   UNL d   1      -3.394  -3.963  -2.116  0.00  0.00     0.132 A 
ATOM      8  N   UNL d   1      -2.554  -4.990  -2.296  0.00  0.00    -0.245 N 
ATOM      9  O   UNL d   1      -3.107  -5.776  -3.286  0.00  0.00    -0.241 OA
ATOM     10  HN  UNL d   1      -1.678  -5.157  -1.801  1.00  0.00     0.196 HD
ATOM     11  C   UNL d   1      -4.283  -5.231  -3.689  0.00  0.00     0.076 A 
ATOM     12  C   UNL d   1      -4.507  -4.074  -2.983  0.00  0.00     0.084 A 
ATOM     13  C   UNL d   1      -5.018  -5.962  -4.736  0.00  0.00     0.079 C 
ENDBRANCH   1   7
BRANCH   3  14
ATOM     14  N   UNL d   1      -0.233  -3.696   0.676  0.00  0.00    -0.202 NA
ATOM     15  H   UNL d   1      -0.311  -2.856   1.260  0.00  0.00     0.153 HD
BRANCH  14  16
ATOM     16  C   UNL d   1       1.105  -3.931   0.273  0.00  0.00     0.027 A 
ATOM     17  C   UNL d   1       1.458  -4.431  -0.989  0.00  0.00     0.025 A 
ATOM     18  C   UNL d   1       2.787  -4.732  -1.300  0.00  0.00     0.002 A 
ATOM     19  C   UNL d   1       3.783  -4.566  -0.342  0.00  0.00     0.000 A 
ATOM     20  C   UNL d   1       3.449  -4.099   0.926  0.00  0.00     0.002 A 
ATOM     21  C   UNL d   1       2.120  -3.789   1.230  0.00  0.00     0.025 A 
ENDBRANCH  14  16
ENDBRANCH   3  14
TORSDOF 3
