REMARK  5 active torsions:
REMARK  status: ('A' for Active; 'I' for Inactive)
REMARK    1  A    between atoms: C_2  and  C_1 
REMARK    2  A    between atoms: C_7  and  C_3 
REMARK    3  A    between atoms: C_8  and  C_4 
REMARK    4  A    between atoms: O_20  and  C_7 
REMARK    5  A    between atoms: O_19  and  C_8 
ROOT
ATOM      1  C   UNL d   1      -1.179  -1.472   0.103  0.00  0.00     0.015 A 
ATOM      2  C   UNL d   1       0.106  -1.987   0.401  0.00  0.00     0.053 A 
ATOM      3  C   UNL d   1      -1.244  -0.096  -0.244  0.00  0.00     0.047 A 
ATOM      4  C   UNL d   1      -0.096   0.691  -0.393  0.00  0.00     0.048 A 
ATOM      5  C   UNL d   1       1.259  -1.185   0.252  0.00  0.00     0.042 A 
ATOM      6  C   UNL d   1       1.150   0.136  -0.160  0.00  0.00     0.036 A 
ATOM      7 CL   UNL d   1      -2.761   0.717  -0.492  0.00  0.00    -0.083 Cl
ATOM      8 CL   UNL d   1       2.568   1.086  -0.368  0.00  0.00    -0.084 Cl
ENDROOT
BRANCH   1   9
ATOM      9  C   UNL d   1      -2.422  -2.301   0.091  0.00  0.00     0.015 A 
ATOM     10  C   UNL d   1      -3.039  -2.812   1.259  0.00  0.00     0.053 A 
ATOM     11  C   UNL d   1      -4.290  -3.459   1.192  0.00  0.00     0.042 A 
ATOM     12  C   UNL d   1      -4.927  -3.637  -0.028  0.00  0.00     0.036 A 
ATOM     13  C   UNL d   1      -4.320  -3.212  -1.198  0.00  0.00     0.048 A 
ATOM     14 CL   UNL d   1      -6.466  -4.401  -0.087  0.00  0.00    -0.084 Cl
ATOM     15  C   UNL d   1      -3.077  -2.571  -1.141  0.00  0.00     0.047 A 
ATOM     16 CL   UNL d   1      -2.372  -2.139  -2.670  0.00  0.00    -0.083 Cl
BRANCH  10  17
ATOM     17  C   UNL d   1      -2.400  -2.708   2.597  0.00  0.00     0.293 C 
ATOM     18  O   UNL d   1      -1.711  -1.775   2.972  0.00  0.00    -0.259 OA
BRANCH  17  19
ATOM     19  O   UNL d   1      -2.656  -3.848   3.286  0.00  0.00    -0.322 OA
ATOM     20  C   UNL d   1      -2.047  -3.931   4.574  0.00  0.00     0.213 C 
ENDBRANCH  17  19
ENDBRANCH  10  17
ENDBRANCH   1   9
BRANCH   2  21
ATOM     21  C   UNL d   1       0.303  -3.374   0.898  0.00  0.00     0.293 C 
ATOM     22  O   UNL d   1      -0.364  -4.338   0.565  0.00  0.00    -0.259 OA
BRANCH  21  23
ATOM     23  O   UNL d   1       1.294  -3.359   1.825  0.00  0.00    -0.322 OA
ATOM     24  C   UNL d   1       1.560  -4.612   2.454  0.00  0.00     0.213 C 
ENDBRANCH  21  23
ENDBRANCH   2  21
TORSDOF 5
