REMARK  3 active torsions:
REMARK  status: ('A' for Active; 'I' for Inactive)
REMARK    1  A    between atoms: C_3  and  C_1 
REMARK       I    between atoms: N_4  and  C_1 
REMARK    2  A    between atoms: N_2  and  C_5 
REMARK    3  A    between atoms: C_7  and  N_6 
ROOT
ATOM      1  C   UNL d   1       0.784   0.164  -0.089  0.00  0.00     0.257 C 
ATOM      2  N   UNL d   1       0.449   0.232   1.270  0.00  0.00    -0.345 N 
ATOM      3  N   UNL d   1      -0.185   0.588   4.020  0.00  0.00    -0.364 N 
ATOM      4  O   UNL d   1       1.456   1.037  -0.649  0.00  0.00    -0.267 OA
ATOM      5  C   UNL d   1       0.816   1.472   1.980  0.00  0.00     0.146 C 
ATOM      6  C   UNL d   1      -0.605  -0.572   1.933  0.00  0.00     0.146 C 
ATOM      7  C   UNL d   1      -0.422  -0.737   3.455  0.00  0.00     0.144 C 
ATOM      8  C   UNL d   1       1.004   1.259   3.491  0.00  0.00     0.144 C 
ENDROOT
BRANCH   1   9
ATOM      9  C   UNL d   1       0.402  -1.016  -0.899  0.00  0.00     0.075 C 
ATOM     10  C   UNL d   1      -0.940  -1.331  -1.167  0.00  0.00     0.051 C 
ATOM     11 CL   UNL d   1      -2.254  -0.262  -0.820  0.00  0.00    -0.083 Cl
ATOM     12  C   UNL d   1      -1.271  -2.526  -1.816  0.00  0.00     0.025 C 
ATOM     13  C   UNL d   1      -0.273  -3.346  -2.333  0.00  0.00     0.003 C 
ATOM     14  C   UNL d   1       1.060  -2.969  -2.200  0.00  0.00     0.025 C 
ATOM     15  C   UNL d   1       1.402  -1.824  -1.467  0.00  0.00     0.051 C 
ATOM     16 CL   UNL d   1       3.094  -1.492  -1.312  0.00  0.00    -0.083 Cl
ENDBRANCH   1   9
BRANCH   3  17
ATOM     17  C   UNL d   1      -0.758   0.952   5.212  0.00  0.00     0.103 A 
ATOM     18  N   UNL d   1      -1.168  -0.010   6.071  0.00  0.00    -0.350 N 
ATOM     19  C   UNL d   1      -1.772   0.367   7.229  0.00  0.00     0.125 A 
ATOM     20  HN  UNL d   1      -1.026  -0.997   5.855  1.00  0.00     0.166 HD
ATOM     21  C   UNL d   1      -2.015   1.687   7.561  0.00  0.00     0.118 A 
ATOM     22  C   UNL d   1      -1.628   2.682   6.670  0.00  0.00     0.041 A 
ATOM     23  C   UNL d   1      -0.990   2.301   5.491  0.00  0.00     0.051 A 
BRANCH  21  24
ATOM     24  N   UNL d   1      -2.667   2.029   8.813  0.00  0.00    -0.114 N 
ATOM     25  O   UNL d   1      -2.990   1.091   9.565  0.00  0.00    -0.532 OA
ATOM     26  O   UNL d   1      -2.860   3.221   9.059  0.00  0.00    -0.532 OA
ENDBRANCH  21  24
ENDBRANCH   3  17
TORSDOF 3
