REMARK  3 active torsions:
REMARK  status: ('A' for Active; 'I' for Inactive)
REMARK    1  A    between atoms: C_6  and  C_1 
REMARK    2  A    between atoms: S_9  and  C_3 
REMARK       I    between atoms: N_10  and  C_6 
REMARK    3  A    between atoms: N_13  and  N_10 
ROOT
ATOM      1  C   UNL d   1      -1.852  -0.879  -0.101  0.00  0.00     0.082 A 
ATOM      2  S   UNL d   1      -2.685   0.622  -0.075  0.00  0.00    -0.076 SA
ATOM      3  C   UNL d   1      -1.241   1.535   0.020  0.00  0.00     0.052 A 
ATOM      4  C   UNL d   1      -0.478  -0.685  -0.048  0.00  0.00    -0.023 A 
ATOM      5  C   UNL d   1      -0.136   0.710   0.010  0.00  0.00    -0.005 A 
ATOM      6  C   UNL d   1       1.231   1.120   0.079  0.00  0.00     0.010 A 
ATOM      7  C   UNL d   1       2.235   0.229   0.055  0.00  0.00    -0.025 A 
ATOM      8  C   UNL d   1       0.570  -1.767  -0.007  0.00  0.00     0.045 A 
ATOM      9  C   UNL d   1       2.026  -1.260  -0.031  0.00  0.00     0.032 A 
ENDROOT
BRANCH   1  10
ATOM     10  C   UNL d   1      -2.577  -2.148  -0.166  0.00  0.00     0.273 C 
ATOM     11  O   UNL d   1      -2.029  -3.247  -0.264  0.00  0.00    -0.266 OA
ATOM     12  N   UNL d   1      -3.971  -2.056  -0.115  0.00  0.00    -0.289 N 
ATOM     13  H   UNL d   1      -4.398  -1.153   0.080  0.00  0.00     0.183 HD
BRANCH  12  14
ATOM     14  N   UNL d   1      -4.770  -3.222  -0.103  0.00  0.00    -0.247 NA
ATOM     15  H   UNL d   1      -4.128  -4.024  -0.022  0.00  0.00     0.143 HD
ATOM     16  H   UNL d   1      -5.184  -3.327  -1.032  0.00  0.00     0.143 HD
ENDBRANCH  12  14
ENDBRANCH   1  10
BRANCH   3  17
ATOM     17  S   UNL d   1      -1.325   3.288   0.182  0.00  0.00    -0.126 SA
ATOM     18  C   UNL d   1      -0.687   3.824  -1.419  0.00  0.00     0.096 C 
ENDBRANCH   3  17
TORSDOF 3
