REMARK  4 active torsions:
REMARK  status: ('A' for Active; 'I' for Inactive)
REMARK    1  A    between atoms: C_3  and  C_1 
REMARK    2  A    between atoms: C_4  and  C_2 
REMARK    3  A    between atoms: S_6  and  C_3 
REMARK    4  A    between atoms: C_11  and  S_6 
ROOT
ATOM      1  C   UNL d   1       0.072  -0.971  -0.525  0.00  0.00     0.084 A 
ATOM      2  C   UNL d   1      -1.072  -0.188  -0.415  0.00  0.00     0.144 A 
ATOM      3  O   UNL d   1      -0.683   1.103  -0.180  0.00  0.00    -0.234 OA
ATOM      4  N   UNL d   1       0.685   1.190  -0.111  0.00  0.00    -0.264 N 
ATOM      5  HN  UNL d   1       1.240   2.031   0.048  1.00  0.00     0.194 HD
ATOM      6  C   UNL d   1       1.141  -0.051  -0.294  0.00  0.00     0.046 A 
ATOM      7  C   UNL d   1       2.603  -0.283  -0.184  0.00  0.00     0.071 C 
ENDROOT
BRANCH   1   8
ATOM      8  C   UNL d   1       0.114  -2.399  -0.735  0.00  0.00     0.229 C 
ATOM      9  O   UNL d   1      -0.593  -3.165  -0.087  0.00  0.00    -0.279 OA
BRANCH   8  10
ATOM     10  S   UNL d   1       1.265  -3.081  -1.875  0.00  0.00    -0.044 SA
BRANCH  10  11
ATOM     11  C   UNL d   1       1.277  -2.041  -3.341  0.00  0.00     0.052 C 
ATOM     12  C   UNL d   1       0.119  -1.555  -3.974  0.00  0.00     0.052 C 
ATOM     13 CL   UNL d   1      -1.465  -2.113  -3.587  0.00  0.00    -0.083 Cl
ATOM     14  C   UNL d   1       0.195  -0.670  -5.059  0.00  0.00     0.025 C 
ATOM     15  C   UNL d   1       1.425  -0.334  -5.608  0.00  0.00     0.003 C 
ATOM     16  C   UNL d   1       2.579  -0.903  -5.085  0.00  0.00     0.025 C 
ATOM     17  C   UNL d   1       2.511  -1.741  -3.964  0.00  0.00     0.052 C 
ATOM     18 CL   UNL d   1       4.021  -2.416  -3.433  0.00  0.00    -0.083 Cl
ENDBRANCH  10  11
ENDBRANCH   8  10
ENDBRANCH   1   8
BRANCH   2  19
ATOM     19  C   UNL d   1      -2.523  -0.525  -0.595  0.00  0.00     0.094 C 
ATOM     20  N   UNL d   1      -3.433   0.462  -0.628  0.00  0.00    -0.258 N 
ATOM     21  O   UNL d   1      -4.620  -0.119  -1.031  0.00  0.00    -0.242 OA
ATOM     22  HN  UNL d   1      -3.278   1.444  -0.401  1.00  0.00     0.195 HD
ATOM     23  C   UNL d   1      -4.426  -1.451  -1.209  0.00  0.00     0.074 C 
ATOM     24  C   UNL d   1      -3.143  -1.770  -0.841  0.00  0.00     0.068 C 
ATOM     25  C   UNL d   1      -5.544  -2.218  -1.786  0.00  0.00     0.079 C 
ENDBRANCH   2  19
TORSDOF 4
