REMARK  12 active torsions:
REMARK  status: ('A' for Active; 'I' for Inactive)
REMARK    1  A    between atoms: C_5  and  C_1 
REMARK    2  A    between atoms: C_6  and  C_1 
REMARK    3  A    between atoms: C_7  and  C_2 
REMARK    4  A    between atoms: N_8  and  C_3 
REMARK    5  A    between atoms: O_16  and  C_4 
REMARK    6  A    between atoms: O_19  and  C_5 
REMARK    7  A    between atoms: O_18  and  C_6 
REMARK    8  A    between atoms: O_17  and  C_7 
REMARK    9  A    between atoms: C_9  and  N_8 
REMARK   10  A    between atoms: O_20  and  C_10 
REMARK   11  A    between atoms: C_22  and  O_18 
REMARK   12  A    between atoms: C_21  and  O_19 
ROOT
ATOM      1  C   UNL d   1      -1.700   1.880  -4.631  0.00  0.00     0.108 A 
ATOM      2  C   UNL d   1      -0.937   1.630  -3.462  0.00  0.00     0.114 A 
ATOM      3  C   UNL d   1       0.232   0.828  -3.532  0.00  0.00     0.067 A 
ATOM      4  C   UNL d   1      -1.230   1.414  -5.875  0.00  0.00     0.087 A 
ATOM      5  C   UNL d   1       0.665   0.372  -4.784  0.00  0.00     0.035 A 
ATOM      6  C   UNL d   1      -0.050   0.669  -5.937  0.00  0.00     0.040 A 
ENDROOT
BRANCH   3   7
ATOM      7  N   UNL d   1       0.865   0.383  -2.351  0.00  0.00    -0.362 N 
ATOM      8  H   UNL d   1       0.636   0.917  -1.507  0.00  0.00     0.165 HD
BRANCH   7   9
ATOM      9  C   UNL d   1       1.522  -0.817  -2.152  0.00  0.00     0.112 C 
ATOM     10  C   UNL d   1       2.159  -1.270  -1.054  0.00  0.00     0.129 C 
BRANCH  10  11
ATOM     11  C   UNL d   1       2.846  -2.588  -1.060  0.00  0.00     0.300 C 
ATOM     12  O   UNL d   1       3.105  -3.231  -0.063  0.00  0.00    -0.259 OA
BRANCH  11  13
ATOM     13  O   UNL d   1       3.227  -2.916  -2.328  0.00  0.00    -0.318 OA
BRANCH  13  14
ATOM     14  C   UNL d   1       4.244  -3.923  -2.442  0.00  0.00     0.174 C 
ATOM     15  C   UNL d   1       5.583  -3.215  -2.542  0.00  0.00     0.034 C 
ENDBRANCH  13  14
ENDBRANCH  11  13
ENDBRANCH  10  11
BRANCH  10  16
ATOM     16  C   UNL d   1       2.261  -0.372   0.113  0.00  0.00     0.300 C 
ATOM     17  O   UNL d   1       1.506   0.575   0.324  0.00  0.00    -0.259 OA
BRANCH  16  18
ATOM     18  O   UNL d   1       3.404  -0.627   0.793  0.00  0.00    -0.318 OA
BRANCH  18  19
ATOM     19  C   UNL d   1       3.887   0.431   1.629  0.00  0.00     0.174 C 
ATOM     20  C   UNL d   1       4.853   1.258   0.800  0.00  0.00     0.034 C 
ENDBRANCH  18  19
ENDBRANCH  16  18
ENDBRANCH  10  16
ENDBRANCH   7   9
ENDBRANCH   3   7
BRANCH   2  21
ATOM     21  O   UNL d   1      -1.395   1.907  -2.188  0.00  0.00    -0.352 OA
ATOM     22  C   UNL d   1      -1.350   3.288  -1.822  0.00  0.00     0.210 C 
ENDBRANCH   2  21
BRANCH   1  23
ATOM     23  C   UNL d   1      -3.110   2.313  -4.523  0.00  0.00     0.298 C 
ATOM     24  O   UNL d   1      -4.039   1.667  -4.981  0.00  0.00    -0.259 OA
BRANCH  23  25
ATOM     25  O   UNL d   1      -3.221   3.504  -3.887  0.00  0.00    -0.322 OA
ATOM     26  C   UNL d   1      -4.567   3.863  -3.552  0.00  0.00     0.213 C 
ENDBRANCH  23  25
ENDBRANCH   1  23
BRANCH   4  27
ATOM     27  O   UNL d   1      -1.867   1.463  -7.087  0.00  0.00    -0.355 OA
ATOM     28  C   UNL d   1      -2.446   2.702  -7.472  0.00  0.00     0.210 C 
ENDBRANCH   4  27
TORSDOF 12
