REMARK  2 active torsions:
REMARK  status: ('A' for Active; 'I' for Inactive)
REMARK    1  A    between atoms: C_7  and  C_3 
REMARK    2  A    between atoms: S_14  and  C_5 
ROOT
ATOM      1  C   UNL d   1      -0.491  -0.296   0.040  0.00  0.00     0.129 A 
ATOM      2  C   UNL d   1       0.253   0.999   0.076  0.00  0.00     0.268 A 
ATOM      3  C   UNL d   1       2.338  -0.236   0.065  0.00  0.00     0.053 A 
ATOM      4  N   UNL d   1       1.621   0.928   0.098  0.00  0.00    -0.321 N 
ATOM      5  C   UNL d   1       0.220  -1.447   0.024  0.00  0.00     0.028 A 
ATOM      6  C   UNL d   1       1.681  -1.405   0.026  0.00  0.00     0.051 A 
ATOM      7  C   UNL d   1      -1.905  -0.219  -0.007  0.00  0.00     0.106 C 
ATOM      8  N   UNL d   1      -3.067  -0.177  -0.019  0.00  0.00    -0.191 NA
ATOM      9  O   UNL d   1      -0.316   2.087   0.070  0.00  0.00    -0.266 OA
ATOM     10  H   UNL d   1       2.115   1.814   0.113  0.00  0.00     0.169 HD
ENDROOT
BRANCH   5  11
ATOM     11  S   UNL d   1      -0.477  -3.042  -0.175  0.00  0.00    -0.133 SA
ATOM     12  C   UNL d   1      -1.395  -3.308   1.361  0.00  0.00     0.095 C 
ENDBRANCH   5  11
BRANCH   3  13
ATOM     13  C   UNL d   1       3.767  -0.166   0.044  0.00  0.00     0.031 A 
ATOM     14  S   UNL d   1       4.597   1.111   0.867  0.00  0.00    -0.100 SA
ATOM     15  C   UNL d   1       6.131   0.540   0.388  0.00  0.00     0.050 A 
ATOM     16  C   UNL d   1       6.040  -0.592  -0.385  0.00  0.00     0.008 A 
ATOM     17  C   UNL d   1       4.687  -0.998  -0.579  0.00  0.00     0.021 A 
ENDBRANCH   3  13
TORSDOF 2
