REMARK  7 active torsions:
REMARK  status: ('A' for Active; 'I' for Inactive)
REMARK    1  A    between atoms: C_6  and  C_3 
REMARK       I    between atoms: N_8  and  C_6 
REMARK    2  A    between atoms: C_18  and  N_8 
REMARK    3  A    between atoms: C_19  and  N_8 
REMARK    4  A    between atoms: O_16  and  C_20 
REMARK    5  A    between atoms: O_17  and  C_21 
REMARK    6  A    between atoms: C_20  and  C_18 
REMARK    7  A    between atoms: C_21  and  C_19 
ROOT
ATOM      1  C   UNL d   1      -0.636   0.633  -0.227  0.00  0.00     0.005 C 
ATOM      2  C   UNL d   1      -1.154  -0.662   0.003  0.00  0.00     0.027 C 
ATOM      3  C   UNL d   1      -1.547   1.693  -0.206  0.00  0.00     0.044 C 
ATOM      4  C   UNL d   1      -0.029  -1.607   0.135  0.00  0.00     0.194 C 
ATOM      5  C   UNL d   1       0.811   0.497  -0.408  0.00  0.00    -0.010 A 
ATOM      6  C   UNL d   1       1.193  -0.830  -0.132  0.00  0.00     0.026 A 
ATOM      7  O   UNL d   1      -0.099  -2.787   0.389  0.00  0.00    -0.287 OA
ATOM      8  C   UNL d   1      -2.500  -0.974   0.093  0.00  0.00     0.016 C 
ATOM      9  C   UNL d   1      -2.927   1.383  -0.232  0.00  0.00     0.018 C 
ATOM     10  C   UNL d   1       1.788   1.344  -0.907  0.00  0.00     0.013 A 
ATOM     11  C   UNL d   1       2.489  -1.311  -0.218  0.00  0.00     0.016 A 
ATOM     12  C   UNL d   1      -3.399   0.070  -0.071  0.00  0.00     0.002 C 
ATOM     13  C   UNL d   1       3.111   0.881  -1.032  0.00  0.00     0.001 A 
ATOM     14  C   UNL d   1       3.464  -0.426  -0.664  0.00  0.00     0.001 A 
ENDROOT
BRANCH   3  15
ATOM     15  C   UNL d   1      -1.156   3.131  -0.141  0.00  0.00     0.254 C 
ATOM     16  N   UNL d   1      -1.826   4.018   0.728  0.00  0.00    -0.344 N 
ATOM     17  O   UNL d   1      -0.273   3.524  -0.900  0.00  0.00    -0.267 OA
BRANCH  16  18
ATOM     18  C   UNL d   1      -1.402   5.428   0.707  0.00  0.00     0.152 C 
BRANCH  18  19
ATOM     19  C   UNL d   1      -1.592   6.154  -0.630  0.00  0.00     0.184 C 
BRANCH  19  20
ATOM     20  O   UNL d   1      -2.978   6.259  -0.953  0.00  0.00    -0.399 OA
ATOM     21  H   UNL d   1      -3.017   6.590  -1.867  0.00  0.00     0.209 HD
ENDBRANCH  19  20
ENDBRANCH  18  19
ENDBRANCH  16  18
BRANCH  16  22
ATOM     22  C   UNL d   1      -2.644   3.623   1.896  0.00  0.00     0.152 C 
BRANCH  22  23
ATOM     23  C   UNL d   1      -1.896   3.695   3.232  0.00  0.00     0.184 C 
BRANCH  23  24
ATOM     24  O   UNL d   1      -0.865   2.716   3.271  0.00  0.00    -0.399 OA
ATOM     25  H   UNL d   1      -0.350   2.876   4.081  0.00  0.00     0.209 HD
ENDBRANCH  23  24
ENDBRANCH  22  23
ENDBRANCH  16  22
ENDBRANCH   3  15
TORSDOF 7
