REMARK  3 active torsions:
REMARK  status: ('A' for Active; 'I' for Inactive)
REMARK    1  A    between atoms: C_6  and  N_1 
REMARK    2  A    between atoms: N_8  and  N_2 
REMARK       I    between atoms: C_7  and  N_8 
REMARK    3  A    between atoms: C_10  and  C_7 
ROOT
ATOM      1  N   UNL d   1      -0.790  -1.179   0.063  0.00  0.00    -0.308 N 
ATOM      2  N   UNL d   1       0.555   1.109   0.371  0.00  0.00    -0.248 N 
ATOM      3  C   UNL d   1      -1.504  -0.013  -0.279  0.00  0.00     0.244 C 
ATOM      4  C   UNL d   1       1.330  -0.040   0.435  0.00  0.00     0.257 C 
ATOM      5  C   UNL d   1      -0.603   1.210  -0.513  0.00  0.00     0.255 C 
ATOM      6  C   UNL d   1       0.651  -1.219  -0.234  0.00  0.00     0.236 C 
ATOM      7  O   UNL d   1       2.459  -0.085   0.911  0.00  0.00    -0.270 OA
ATOM      8  O   UNL d   1      -2.721   0.063  -0.417  0.00  0.00    -0.271 OA
ENDROOT
BRANCH   2   9
ATOM      9  N   UNL d   1       1.087   2.301   0.890  0.00  0.00    -0.260 N 
ATOM     10  C   UNL d   1       1.589   3.293   0.054  0.00  0.00     0.277 C 
ATOM     11  O   UNL d   1       1.341   3.322  -1.149  0.00  0.00    -0.265 OA
ATOM     12  H   UNL d   1       1.542   2.203   1.796  0.00  0.00     0.190 HD
BRANCH  10  13
ATOM     13  C   UNL d   1       2.401   4.303   0.729  0.00  0.00     0.074 A 
ATOM     14  S   UNL d   1       2.868   4.145   2.376  0.00  0.00    -0.097 SA
ATOM     15  C   UNL d   1       3.707   5.631   2.360  0.00  0.00     0.050 A 
ATOM     16  C   UNL d   1       3.643   6.245   1.131  0.00  0.00     0.009 A 
ATOM     17  C   UNL d   1       2.897   5.476   0.187  0.00  0.00     0.025 A 
ENDBRANCH  10  13
ENDBRANCH   2   9
BRANCH   1  18
ATOM     18  C   UNL d   1      -1.423  -2.366   0.529  0.00  0.00     0.041 A 
ATOM     19  C   UNL d   1      -2.652  -2.799   0.020  0.00  0.00     0.053 A 
ATOM     20  C   UNL d   1      -3.236  -3.977   0.496  0.00  0.00     0.037 A 
ATOM     21 CL   UNL d   1      -4.714  -4.534  -0.190  0.00  0.00    -0.084 Cl
ATOM     22  C   UNL d   1      -2.630  -4.717   1.506  0.00  0.00     0.048 A 
ATOM     23  C   UNL d   1      -1.425  -4.274   2.035  0.00  0.00     0.037 A 
ATOM     24  C   UNL d   1      -0.815  -3.117   1.545  0.00  0.00     0.053 A 
ATOM     25 CL   UNL d   1      -0.679  -5.149   3.315  0.00  0.00    -0.084 Cl
ENDBRANCH   1  18
TORSDOF 3
