REMARK  3 active torsions:
REMARK  status: ('A' for Active; 'I' for Inactive)
REMARK    1  A    between atoms: C_4  and  C_1 
REMARK    2  A    between atoms: N_2  and  C_3 
REMARK       I    between atoms: N_5  and  C_4 
REMARK    3  A    between atoms: C_6  and  N_5 
ROOT
ATOM      1  C   UNL d   1       3.823  -0.214   0.396  0.00  0.00     0.259 C 
ATOM      2  N   UNL d   1       4.537  -1.344   0.093  0.00  0.00    -0.309 N 
ATOM      3  O   UNL d   1       4.436   0.786   0.788  0.00  0.00    -0.267 OA
ATOM      4  H   UNL d   1       5.510  -1.257   0.358  0.00  0.00     0.170 HD
ENDROOT
BRANCH   1   5
ATOM      5  C   UNL d   1       2.354  -0.101   0.259  0.00  0.00     0.065 A 
ATOM      6  C   UNL d   1       1.414  -1.006   0.766  0.00  0.00     0.120 A 
ATOM      7  C   UNL d   1       0.038  -0.825   0.542  0.00  0.00     0.060 A 
ATOM      8  C   UNL d   1      -0.400   0.319  -0.120  0.00  0.00     0.036 A 
ATOM      9  C   UNL d   1       0.511   1.282  -0.547  0.00  0.00     0.025 A 
ATOM     10 CL   UNL d   1      -2.081   0.561  -0.382  0.00  0.00    -0.084 Cl
ATOM     11  C   UNL d   1       1.882   1.069  -0.367  0.00  0.00     0.021 A 
BRANCH   6  12
ATOM     12  N   UNL d   1       1.806  -2.108   1.635  0.00  0.00    -0.115 N 
ATOM     13  O   UNL d   1       2.723  -1.905   2.444  0.00  0.00    -0.532 OA
ATOM     14  O   UNL d   1       1.141  -3.152   1.571  0.00  0.00    -0.532 OA
ENDBRANCH   6  12
ENDBRANCH   1   5
BRANCH   2  15
ATOM     15  C   UNL d   1       4.160  -2.534  -0.532  0.00  0.00     0.108 A 
ATOM     16  N   UNL d   1       2.928  -2.671  -1.053  0.00  0.00    -0.352 N 
ATOM     17  C   UNL d   1       2.613  -3.873  -1.590  0.00  0.00     0.090 A 
ATOM     18  HN  UNL d   1       2.259  -1.901  -1.044  1.00  0.00     0.166 HD
ATOM     19  C   UNL d   1       3.483  -4.948  -1.653  0.00  0.00     0.024 A 
ATOM     20  C   UNL d   1       4.766  -4.790  -1.136  0.00  0.00    -0.057 A 
ATOM     21  C   UNL d   1       5.106  -3.558  -0.570  0.00  0.00     0.055 A 
ATOM     22  C   UNL d   1       5.752  -5.918  -1.196  0.00  0.00     0.048 C 
ENDBRANCH   2  15
TORSDOF 3
