REMARK  12 active torsions:
REMARK  status: ('A' for Active; 'I' for Inactive)
REMARK    1  A    between atoms: O_49  and  C_13 
REMARK    2  A    between atoms: O_50  and  C_14 
REMARK    3  A    between atoms: O_53  and  C_15 
REMARK    4  A    between atoms: O_54  and  C_16 
REMARK    5  A    between atoms: O_51  and  C_17 
REMARK    6  A    between atoms: O_52  and  C_18 
REMARK    7  A    between atoms: C_47  and  C_19 
REMARK    8  A    between atoms: C_46  and  C_20 
REMARK    9  A    between atoms: C_45  and  C_21 
REMARK   10  A    between atoms: C_44  and  C_22 
REMARK   11  A    between atoms: C_43  and  C_23 
REMARK   12  A    between atoms: C_48  and  C_24 
ROOT
ATOM      1  C   UNL d   1       1.864   4.478   0.210  0.00  0.00    -0.020 C 
ATOM      2  C   UNL d   1       3.857   3.077   0.175  0.00  0.00    -0.020 C 
ATOM      3  C   UNL d   1      -0.727   4.643   0.135  0.00  0.00    -0.020 A 
ATOM      4  C   UNL d   1       4.801   0.700   0.122  0.00  0.00    -0.020 A 
ATOM      5  C   UNL d   1      -3.008   3.770   0.118  0.00  0.00    -0.020 A 
ATOM      6  C   UNL d   1       4.448  -1.712   0.123  0.00  0.00    -0.020 A 
ATOM      7  C   UNL d   1      -4.652   1.818   0.184  0.00  0.00    -0.020 C 
ATOM      8  C   UNL d   1       3.028  -3.848   0.181  0.00  0.00    -0.020 C 
ATOM      9  C   UNL d   1      -4.837  -0.609   0.178  0.00  0.00    -0.020 C 
ATOM     10  C   UNL d   1       0.766  -4.750   0.142  0.00  0.00    -0.020 C 
ATOM     11  C   UNL d   1      -3.755  -2.953   0.161  0.00  0.00    -0.020 A 
ATOM     12  C   UNL d   1      -1.798  -4.415   0.164  0.00  0.00    -0.020 A 
ATOM     13  C   UNL d   1       1.732  -3.903   0.705  0.00  0.00     0.079 C 
ATOM     14  C   UNL d   1      -1.764   3.923   0.746  0.00  0.00     0.079 A 
ATOM     15  C   UNL d   1       4.290  -0.456   0.728  0.00  0.00     0.079 A 
ATOM     16  C   UNL d   1       2.620   3.420   0.734  0.00  0.00     0.079 C 
ATOM     17  C   UNL d   1      -4.318   0.571   0.729  0.00  0.00     0.079 C 
ATOM     18  C   UNL d   1      -2.564  -3.398   0.755  0.00  0.00     0.079 A 
ATOM     19  C   UNL d   1       5.461  -0.613  -1.851  0.00  0.00    -0.049 A 
ATOM     20  C   UNL d   1       2.349  -5.326  -1.666  0.00  0.00    -0.049 C 
ATOM     21  C   UNL d   1      -2.138   4.944  -1.871  0.00  0.00    -0.049 A 
ATOM     22  C   UNL d   1       3.498   4.733  -1.620  0.00  0.00    -0.049 C 
ATOM     23  C   UNL d   1      -5.831   0.711  -1.666  0.00  0.00    -0.049 C 
ATOM     24  C   UNL d   1      -3.370  -4.462  -1.748  0.00  0.00    -0.049 A 
ATOM     25  C   UNL d   1      -4.695  -1.969   0.834  0.00  0.00     0.083 C 
ATOM     26  C   UNL d   1      -0.570  -5.035   0.803  0.00  0.00     0.083 C 
ATOM     27  C   UNL d   1       0.574   4.957   0.862  0.00  0.00     0.083 C 
ATOM     28  C   UNL d   1       4.789   2.056   0.799  0.00  0.00     0.083 C 
ATOM     29  C   UNL d   1      -4.202   3.128   0.798  0.00  0.00     0.083 C 
ATOM     30  C   UNL d   1       4.133  -3.028   0.818  0.00  0.00     0.083 C 
ATOM     31  C   UNL d   1       2.344   5.138  -0.943  0.00  0.00     0.018 C 
ATOM     32  C   UNL d   1       5.388   0.594  -1.154  0.00  0.00     0.018 A 
ATOM     33  C   UNL d   1       4.268   3.743  -0.998  0.00  0.00     0.018 C 
ATOM     34  C   UNL d   1      -5.589  -0.506  -1.014  0.00  0.00     0.018 C 
ATOM     35  C   UNL d   1      -5.423   1.862  -0.996  0.00  0.00     0.018 C 
ATOM     36  C   UNL d   1       1.099  -5.439  -1.043  0.00  0.00     0.018 C 
ATOM     37  C   UNL d   1      -3.166   4.292  -1.182  0.00  0.00     0.018 A 
ATOM     38  C   UNL d   1       3.317  -4.589  -0.984  0.00  0.00     0.018 C 
ATOM     39  C   UNL d   1      -0.949   5.149  -1.165  0.00  0.00     0.018 A 
ATOM     40  C   UNL d   1      -4.139  -3.514  -1.075  0.00  0.00     0.018 A 
ATOM     41  C   UNL d   1      -2.231  -4.928  -1.079  0.00  0.00     0.018 A 
ATOM     42  C   UNL d   1       5.033  -1.754  -1.164  0.00  0.00     0.018 A 
ENDROOT
BRANCH  19  43
ATOM     43  C   UNL d   1       5.966  -0.706  -3.299  0.00  0.00    -0.024 C 
ATOM     44  C   UNL d   1       6.377   0.652  -3.912  0.00  0.00     0.019 C 
ATOM     45  C   UNL d   1       7.193  -1.634  -3.377  0.00  0.00     0.019 C 
ATOM     46  C   UNL d   1       4.835  -1.268  -4.191  0.00  0.00     0.019 C 
ENDBRANCH  19  43
BRANCH  15  47
ATOM     47  O   UNL d   1       3.643  -0.310   1.927  0.00  0.00    -0.360 OA
ATOM     48  H   UNL d   1       3.090  -1.098   2.075  0.00  0.00     0.217 HD
ENDBRANCH  15  47
BRANCH  16  49
ATOM     49  O   UNL d   1       2.140   2.759   1.831  0.00  0.00    -0.360 OA
ATOM     50  H   UNL d   1       2.522   1.863   1.843  0.00  0.00     0.217 HD
ENDBRANCH  16  49
BRANCH  13  51
ATOM     51  O   UNL d   1       1.445  -3.128   1.796  0.00  0.00    -0.360 OA
ATOM     52  H   UNL d   1       0.523  -2.828   1.693  0.00  0.00     0.217 HD
ENDBRANCH  13  51
BRANCH  22  53
ATOM     53  C   UNL d   1       3.907   5.298  -2.992  0.00  0.00    -0.024 C 
ATOM     54  C   UNL d   1       2.921   6.338  -3.564  0.00  0.00     0.019 C 
ATOM     55  C   UNL d   1       5.290   5.968  -2.907  0.00  0.00     0.019 C 
ATOM     56  C   UNL d   1       3.967   4.141  -4.018  0.00  0.00     0.019 C 
ENDBRANCH  22  53
BRANCH  20  57
ATOM     57  C   UNL d   1       2.609  -5.970  -3.038  0.00  0.00    -0.024 C 
ATOM     58  C   UNL d   1       4.020  -5.692  -3.606  0.00  0.00     0.019 C 
ATOM     59  C   UNL d   1       2.436  -7.498  -2.950  0.00  0.00     0.019 C 
ATOM     60  C   UNL d   1       1.602  -5.401  -4.063  0.00  0.00     0.019 C 
ENDBRANCH  20  57
BRANCH  14  61
ATOM     61  O   UNL d   1      -1.549   3.395   1.989  0.00  0.00    -0.360 OA
ATOM     62  H   UNL d   1      -2.041   2.555   2.039  0.00  0.00     0.217 HD
ENDBRANCH  14  61
BRANCH  18  63
ATOM     63  O   UNL d   1      -2.192  -2.826   1.943  0.00  0.00    -0.360 OA
ATOM     64  H   UNL d   1      -1.926  -3.542   2.546  0.00  0.00     0.217 HD
ENDBRANCH  18  63
BRANCH  21  65
ATOM     65  C   UNL d   1      -2.335   5.382  -3.332  0.00  0.00    -0.024 C 
ATOM     66  C   UNL d   1      -1.095   6.058  -3.958  0.00  0.00     0.019 C 
ATOM     67  C   UNL d   1      -2.635   4.135  -4.196  0.00  0.00     0.019 C 
ATOM     68  C   UNL d   1      -3.507   6.375  -3.443  0.00  0.00     0.019 C 
ENDBRANCH  21  65
BRANCH  24  69
ATOM     69  C   UNL d   1      -3.716  -4.964  -3.161  0.00  0.00    -0.024 C 
ATOM     70  C   UNL d   1      -4.994  -4.333  -3.760  0.00  0.00     0.019 C 
ATOM     71  C   UNL d   1      -2.555  -4.603  -4.116  0.00  0.00     0.019 C 
ATOM     72  C   UNL d   1      -3.917  -6.492  -3.159  0.00  0.00     0.019 C 
ENDBRANCH  24  69
BRANCH  17  73
ATOM     73  O   UNL d   1      -3.491   0.550   1.821  0.00  0.00    -0.360 OA
ATOM     74  H   UNL d   1      -3.064  -0.326   1.855  0.00  0.00     0.217 HD
ENDBRANCH  17  73
BRANCH  23  75
ATOM     75  C   UNL d   1      -6.466   0.744  -3.066  0.00  0.00    -0.024 C 
ATOM     76  C   UNL d   1      -6.638   2.166  -3.646  0.00  0.00     0.019 C 
ATOM     77  C   UNL d   1      -5.548  -0.023  -4.045  0.00  0.00     0.019 C 
ATOM     78  C   UNL d   1      -7.856   0.081  -3.046  0.00  0.00     0.019 C 
ENDBRANCH  23  75
TORSDOF 12
