REMARK  4 active torsions:
REMARK  status: ('A' for Active; 'I' for Inactive)
REMARK    1  A    between atoms: C_2  and  S_1 
REMARK    2  A    between atoms: C_13  and  S_1 
REMARK    3  A    between atoms: N_14  and  C_5 
REMARK    4  A    between atoms: C_12  and  C_6 
ROOT
ATOM      1  C   UNL d   1       0.410  -1.430   0.963  0.00  0.00     0.113 A 
ATOM      2  N   UNL d   1       0.328  -3.786   1.236  0.00  0.00    -0.331 N 
ATOM      3  HN  UNL d   1       0.491  -4.728   0.883  1.00  0.00     0.168 HD
ATOM      4  C   UNL d   1       0.600  -2.705   0.484  0.00  0.00     0.102 A 
ATOM      5  C   UNL d   1      -0.170  -3.583   2.476  0.00  0.00     0.116 A 
ATOM      6  N   UNL d   1      -0.445  -2.367   2.986  0.00  0.00    -0.350 N 
ATOM      7  HN  UNL d   1      -0.849  -2.254   3.915  1.00  0.00     0.166 HD
ATOM      8  C   UNL d   1      -0.161  -1.310   2.207  0.00  0.00     0.116 A 
ENDROOT
BRANCH   5   9
ATOM      9  C   UNL d   1      -0.358  -4.755   3.354  0.00  0.00     0.008 A 
ATOM     10  C   UNL d   1      -0.770  -4.605   4.695  0.00  0.00     0.017 A 
ATOM     11  C   UNL d   1      -0.924  -5.706   5.544  0.00  0.00     0.025 A 
ATOM     12  C   UNL d   1      -0.668  -6.986   5.066  0.00  0.00     0.034 A 
ATOM     13  C   UNL d   1      -0.262  -7.173   3.749  0.00  0.00     0.025 A 
ATOM     14 CL   UNL d   1      -0.853  -8.343   6.107  0.00  0.00    -0.084 Cl
ATOM     15  C   UNL d   1      -0.108  -6.066   2.904  0.00  0.00     0.017 A 
ENDBRANCH   5   9
BRANCH   4  16
ATOM     16  N   UNL d   1       1.180  -2.985  -0.747  0.00  0.00    -0.287 NA
ATOM     17  H   UNL d   1       1.112  -3.985  -0.924  0.00  0.00     0.125 HD
ATOM     18  H   UNL d   1       0.773  -2.432  -1.507  0.00  0.00     0.125 HD
ENDBRANCH   4  16
BRANCH   1  19
ATOM     19  S   UNL d   1       0.861   0.004   0.076  0.00  0.00     0.183 S 
ATOM     20  O   UNL d   1       0.130   1.113   0.666  0.00  0.00    -0.222 OA
ATOM     21  O   UNL d   1       0.691  -0.289  -1.337  0.00  0.00    -0.222 OA
BRANCH  19  22
ATOM     22  C   UNL d   1       2.611   0.227   0.430  0.00  0.00     0.105 C 
ATOM     23  C   UNL d   1       3.143   1.450  -0.317  0.00  0.00     0.026 C 
ATOM     24  C   UNL d   1       2.880   0.383   1.926  0.00  0.00     0.026 C 
ENDBRANCH  19  22
ENDBRANCH   1  19
TORSDOF 4
