REMARK  3 active torsions:
REMARK  status: ('A' for Active; 'I' for Inactive)
REMARK    1  A    between atoms: C_4  and  N_1 
REMARK    2  A    between atoms: C_2  and  C_5 
REMARK    3  A    between atoms: O_15  and  C_2 
ROOT
ATOM      1  C   UNL d   1      -3.088  -0.021   0.792  0.00  0.00     0.030 A 
ATOM      2  C   UNL d   1      -5.736  -0.045   1.820  0.00  0.00     0.037 A 
ATOM      3  C   UNL d   1      -4.034   0.938   0.398  0.00  0.00     0.030 A 
ATOM      4  C   UNL d   1      -3.509  -0.986   1.720  0.00  0.00     0.030 A 
ATOM      5  C   UNL d   1      -4.809  -1.002   2.234  0.00  0.00     0.020 A 
ATOM      6  C   UNL d   1      -5.343   0.934   0.907  0.00  0.00     0.020 A 
ENDROOT
BRANCH   1   7
ATOM      7  N   UNL d   1      -1.769   0.004   0.374  0.00  0.00    -0.378 N 
ATOM      8  C   UNL d   1      -1.150   1.220  -0.173  0.00  0.00     0.153 C 
ATOM      9  C   UNL d   1       0.366   1.209   0.150  0.00  0.00     0.291 C 
ATOM     10  N   UNL d   1       1.055  -0.009  -0.337  0.00  0.00     0.087 N 
ATOM     11  C   UNL d   1       0.374  -1.207   0.207  0.00  0.00     0.291 C 
ATOM     12  C   UNL d   1       2.460   0.005   0.068  0.00  0.00     0.310 C 
ATOM     13  C   UNL d   1      -1.139  -1.235  -0.117  0.00  0.00     0.153 C 
ENDBRANCH   1   7
BRANCH   2  14
ATOM     14  C   UNL d   1      -7.093  -0.086   2.422  0.00  0.00     0.176 C 
ATOM     15  O   UNL d   1      -7.313  -0.536   3.535  0.00  0.00    -0.646 OA
BRANCH  14  16
ATOM     16  O   UNL d   1      -8.068   0.386   1.615  0.00  0.00    -0.773 OA
ATOM     17  H   UNL d   1      -7.798   0.540   0.694  0.00  0.00     0.167 HD
ENDBRANCH  14  16
ENDBRANCH   2  14
TORSDOF 3
