REMARK  12 active torsions:
REMARK  status: ('A' for Active; 'I' for Inactive)
REMARK    1  A    between atoms: N_7  and  C_1 
REMARK    2  A    between atoms: C_9  and  C_2 
REMARK       I    between atoms: C_8  and  N_7 
REMARK    3  A    between atoms: C_15  and  C_8 
REMARK    4  A    between atoms: N_12  and  C_19 
REMARK    5  A    between atoms: C_20  and  N_12 
REMARK    6  A    between atoms: C_21  and  N_12 
REMARK    7  A    between atoms: S_13  and  C_15 
REMARK    8  A    between atoms: C_22  and  S_13 
REMARK    9  A    between atoms: C_19  and  C_22 
REMARK   10  A    between atoms: C_32  and  C_31 
REMARK   11  A    between atoms: O_36  and  C_31 
REMARK   12  A    between atoms: O_35  and  C_32 
ROOT
ATOM      1  C   UNL d   2       1.718  -0.467  -1.825  0.00  0.00     0.243 C 
ATOM      2  O   UNL d   2       2.341  -1.186  -1.068  0.00  0.00    -0.642 OA
ENDROOT
BRANCH   1   3
ATOM      3  C   UNL d   2       0.418  -0.941  -2.527  0.00  0.00     0.243 C 
ATOM      4  O   UNL d   2      -0.519  -0.232  -2.805  0.00  0.00    -0.642 OA
BRANCH   3   5
ATOM      5  O   UNL d   2       0.506  -2.257  -2.828  0.00  0.00    -0.769 OA
ATOM      6  H   UNL d   2       1.327  -2.639  -2.457  0.00  0.00     0.168 HD
ENDBRANCH   3   5
ENDBRANCH   1   3
BRANCH   1   7
ATOM      7  O   UNL d   2       2.190   0.707  -2.263  0.00  0.00    -0.769 OA
ATOM      8  H   UNL d   2       3.050   0.819  -1.810  0.00  0.00     0.168 HD
ENDBRANCH   1   7
TORSDOF 12
