REMARK  4 active torsions:
REMARK  status: ('A' for Active; 'I' for Inactive)
REMARK    1  A    between atoms: C_9  and  C_1 
REMARK    2  A    between atoms: O_5  and  C_2 
REMARK    3  A    between atoms: C_6  and  O_5 
REMARK    4  A    between atoms: N_15  and  C_12 
ROOT
ATOM      1  C   UNL d   1       1.842   1.335  -0.032  0.00  0.00    -0.018 A 
ATOM      2  C   UNL d   1       2.420   0.049   0.135  0.00  0.00     0.084 A 
ATOM      3  C   UNL d   1       0.452   1.414  -0.212  0.00  0.00     0.034 A 
ATOM      4  C   UNL d   1       1.623  -1.104   0.077  0.00  0.00     0.039 A 
ATOM      5  C   UNL d   1      -0.335   0.259  -0.210  0.00  0.00     0.034 A 
ATOM      6  C   UNL d   1       0.243  -1.000  -0.072  0.00  0.00     0.026 A 
ATOM      7 CL   UNL d   1      -2.045   0.382  -0.376  0.00  0.00    -0.084 Cl
ENDROOT
BRANCH   2   8
ATOM      8  O   UNL d   1       3.798  -0.004   0.275  0.00  0.00    -0.293 OA
BRANCH   8   9
ATOM      9  C   UNL d   1       4.356  -1.130   0.856  0.00  0.00     0.148 C 
ATOM     10  N   UNL d   1       3.833  -1.605   2.006  0.00  0.00    -0.345 N 
ATOM     11  C   UNL d   1       4.356  -2.767   2.463  0.00  0.00     0.113 C 
ATOM     12  HN  UNL d   1       3.087  -1.117   2.502  1.00  0.00     0.167 HD
ATOM     13  C   UNL d   1       5.343  -3.503   1.809  0.00  0.00     0.021 C 
ATOM     14  C   UNL d   1       5.938  -2.904   0.702  0.00  0.00     0.029 C 
ATOM     15  C   UNL d   1       5.433  -1.705   0.201  0.00  0.00     0.058 C 
BRANCH  13  16
ATOM     16  N   UNL d   1       5.876  -4.678   2.356  0.00  0.00    -0.302 NA
ATOM     17  H   UNL d   1       6.329  -5.275   1.670  0.00  0.00     0.124 HD
ATOM     18  H   UNL d   1       5.216  -5.195   2.929  0.00  0.00     0.124 HD
ENDBRANCH  13  16
ENDBRANCH   8   9
ENDBRANCH   2   8
BRANCH   1  19
ATOM     19  C   UNL d   1       2.741   2.571  -0.025  0.00  0.00     0.021 C 
ATOM     20  C   UNL d   1       2.112   3.895   0.483  0.00  0.00     0.009 C 
ATOM     21  C   UNL d   1       1.875   4.991  -0.552  0.00  0.00     0.001 C 
ATOM     22  C   UNL d   1       3.024   5.104  -1.536  0.00  0.00     0.000 C 
ATOM     23  C   UNL d   1       3.161   3.793  -2.286  0.00  0.00     0.001 C 
ATOM     24  C   UNL d   1       3.551   2.667  -1.340  0.00  0.00     0.009 C 
ENDBRANCH   1  19
TORSDOF 4
