REMARK  6 active torsions:
REMARK  status: ('A' for Active; 'I' for Inactive)
REMARK    1  A    between atoms: C_2  and  C_1 
REMARK    2  A    between atoms: C_4  and  C_2 
REMARK    3  A    between atoms: C_3  and  O_10 
REMARK    4  A    between atoms: N_9  and  C_5 
REMARK    5  A    between atoms: C_18  and  N_9 
REMARK    6  A    between atoms: O_10  and  C_19 
ROOT
ATOM      1  C   UNL d   1       1.002  -0.026  -0.065  0.00  0.00     0.111 C 
ATOM      2  C   UNL d   1       0.304  -0.264   1.063  0.00  0.00     0.115 C 
ATOM      3  C   UNL d   1       0.345   0.154  -1.307  0.00  0.00     0.105 C 
ATOM      4  N   UNL d   1      -0.231   0.275  -2.312  0.00  0.00    -0.191 NA
ENDROOT
BRANCH   1   5
ATOM      5  C   UNL d   1       2.496   0.078   0.028  0.00  0.00     0.210 C 
ATOM      6  O   UNL d   1       2.994   0.422   1.102  0.00  0.00    -0.285 OA
BRANCH   5   7
ATOM      7  C   UNL d   1       3.303  -0.242  -1.149  0.00  0.00     0.056 A 
ATOM      8  S   UNL d   1       4.835   0.515  -1.330  0.00  0.00    -0.098 SA
ATOM      9  C   UNL d   1       5.134  -0.277  -2.814  0.00  0.00     0.050 A 
ATOM     10  C   UNL d   1       4.108  -1.125  -3.160  0.00  0.00     0.009 A 
ATOM     11  C   UNL d   1       3.059  -1.117  -2.194  0.00  0.00     0.023 A 
ENDBRANCH   5   7
ENDBRANCH   1   5
BRANCH   2  12
ATOM     12  N   UNL d   1      -1.053  -0.456   1.197  0.00  0.00    -0.364 N 
ATOM     13  H   UNL d   1      -1.607  -0.502   0.344  0.00  0.00     0.165 HD
BRANCH  12  14
ATOM     14  C   UNL d   1      -1.803  -0.614   2.373  0.00  0.00     0.032 A 
ATOM     15  C   UNL d   1      -1.399  -0.131   3.622  0.00  0.00     0.032 A 
ATOM     16  C   UNL d   1      -2.178  -0.347   4.771  0.00  0.00     0.039 A 
ATOM     17  C   UNL d   1      -3.374  -1.055   4.682  0.00  0.00     0.078 A 
ATOM     18  C   UNL d   1      -3.751  -1.594   3.452  0.00  0.00     0.039 A 
ATOM     19  C   UNL d   1      -2.979  -1.370   2.311  0.00  0.00     0.032 A 
BRANCH  17  20
ATOM     20  O   UNL d   1      -4.239  -1.323   5.697  0.00  0.00    -0.255 OA
BRANCH  20  21
ATOM     21  C   UNL d   1      -4.298  -0.446   6.811  0.00  0.00     0.530 C 
ATOM     22  F   UNL d   1      -3.816   0.788   6.556  0.00  0.00    -0.144 F 
ATOM     23  F   UNL d   1      -5.594  -0.314   7.175  0.00  0.00    -0.144 F 
ATOM     24  F   UNL d   1      -3.622  -0.982   7.849  0.00  0.00    -0.144 F 
ENDBRANCH  20  21
ENDBRANCH  17  20
ENDBRANCH  12  14
ENDBRANCH   2  12
TORSDOF 6
