REMARK  5 active torsions:
REMARK  status: ('A' for Active; 'I' for Inactive)
REMARK    1  A    between atoms: N_5  and  C_1 
REMARK    2  A    between atoms: C_8  and  C_3 
REMARK    3  A    between atoms: C_9  and  C_8 
REMARK    4  A    between atoms: O_19  and  C_9 
REMARK    5  A    between atoms: C_24  and  O_19 
ROOT
ATOM      1  C   UNL d   1      -3.533   1.405  -0.053  0.00  0.00     0.228 C 
ATOM      2  C   UNL d   1      -4.134   2.001  -1.256  0.00  0.00     0.079 C 
ATOM      3  N   UNL d   1      -4.585   2.416  -2.244  0.00  0.00    -0.196 NA
ENDROOT
BRANCH   1   4
ATOM      4  C   UNL d   1      -1.996   1.357  -0.145  0.00  0.00     0.020 A 
ATOM      5  C   UNL d   1      -1.181   2.433  -0.167  0.00  0.00     0.179 A 
ATOM      6  C   UNL d   1       0.292   2.413  -0.131  0.00  0.00     0.282 A 
ATOM      7  N   UNL d   1       0.885   1.153  -0.087  0.00  0.00    -0.311 N 
ATOM      8  O   UNL d   1       0.946   3.453  -0.097  0.00  0.00    -0.265 OA
ATOM      9  C   UNL d   1       2.330   1.135   0.067  0.00  0.00     0.133 C 
ATOM     10  C   UNL d   1       0.121  -0.039  -0.104  0.00  0.00     0.054 A 
ATOM     11  C   UNL d   1       3.057  -0.179  -0.142  0.00  0.00     0.025 C 
ATOM     12  C   UNL d   1       2.253  -1.423   0.159  0.00  0.00     0.042 C 
ATOM     13  C   UNL d   1       0.775  -1.285  -0.056  0.00  0.00    -0.030 A 
ATOM     14  C   UNL d   1       0.028  -2.467  -0.136  0.00  0.00     0.009 A 
ATOM     15  C   UNL d   1      -1.348  -2.419  -0.284  0.00  0.00     0.002 A 
ATOM     16  C   UNL d   1      -2.000  -1.189  -0.313  0.00  0.00     0.014 A 
ATOM     17  C   UNL d   1      -1.301   0.028  -0.192  0.00  0.00     0.002 A 
BRANCH   5  18
ATOM     18  N   UNL d   1      -1.743   3.760  -0.191  0.00  0.00    -0.109 N 
ATOM     19  O   UNL d   1      -2.144   4.213   0.880  0.00  0.00    -0.532 OA
ATOM     20  O   UNL d   1      -1.846   4.296  -1.297  0.00  0.00    -0.532 OA
ENDBRANCH   5  18
ENDBRANCH   1   4
BRANCH   1  21
ATOM     21  C   UNL d   1      -4.126   2.006   1.222  0.00  0.00     0.281 C 
ATOM     22  O   UNL d   1      -5.257   2.465   1.305  0.00  0.00    -0.263 OA
BRANCH  21  23
ATOM     23  O   UNL d   1      -3.291   1.827   2.289  0.00  0.00    -0.321 OA
BRANCH  23  24
ATOM     24  C   UNL d   1      -3.791   2.289   3.556  0.00  0.00     0.174 C 
ATOM     25  C   UNL d   1      -3.615   3.790   3.700  0.00  0.00     0.034 C 
ENDBRANCH  23  24
ENDBRANCH  21  23
ENDBRANCH   1  21
TORSDOF 5
