REMARK  3 active torsions:
REMARK  status: ('A' for Active; 'I' for Inactive)
REMARK       I    between atoms: C_2  and  N_5 
REMARK    1  A    between atoms: C_6  and  C_2 
REMARK    2  A    between atoms: N_5  and  C_11 
REMARK    3  A    between atoms: C_11  and  C_8 
ROOT
ATOM      1  O   UNL d   1       3.625   1.275   0.184  0.00  0.00    -0.339 OA
ATOM      2  O   UNL d   1       1.041   2.563  -0.111  0.00  0.00    -0.346 OA
ATOM      3  C   UNL d   1       3.457   2.636   0.180  0.00  0.00     0.102 A 
ATOM      4  C   UNL d   1       2.215   3.258   0.019  0.00  0.00     0.102 A 
ATOM      5  C   UNL d   1       2.454   0.571  -0.281  0.00  0.00     0.171 C 
ATOM      6  C   UNL d   1       1.194   1.202   0.307  0.00  0.00     0.209 C 
ATOM      7  C   UNL d   1       4.611   3.405   0.318  0.00  0.00     0.039 A 
ATOM      8  C   UNL d   1       2.135   4.647  -0.058  0.00  0.00     0.039 A 
ATOM      9  C   UNL d   1       4.530   4.797   0.253  0.00  0.00     0.003 A 
ATOM     10  C   UNL d   1       3.294   5.417   0.057  0.00  0.00     0.003 A 
ENDROOT
BRANCH   5  11
ATOM     11  C   UNL d   1       2.432   0.539  -1.822  0.00  0.00     0.157 C 
BRANCH  11  12
ATOM     12  N   UNL d   1       3.575  -0.173  -2.375  0.00  0.00    -0.358 N 
ATOM     13  C   UNL d   1       3.551  -1.534  -2.583  0.00  0.00     0.225 C 
ATOM     14  O   UNL d   1       2.550  -2.205  -2.345  0.00  0.00    -0.273 OA
ATOM     15  H   UNL d   1       4.456   0.322  -2.399  0.00  0.00     0.162 HD
BRANCH  13  16
ATOM     16  C   UNL d   1       4.859  -2.142  -3.127  0.00  0.00     0.030 C 
ATOM     17  C   UNL d   1       5.992  -1.944  -2.109  0.00  0.00     0.024 C 
ATOM     18  C   UNL d   1       4.660  -3.650  -3.357  0.00  0.00     0.024 C 
ATOM     19  C   UNL d   1       5.236  -1.487  -4.464  0.00  0.00     0.024 C 
ENDBRANCH  13  16
ENDBRANCH  11  12
ENDBRANCH   5  11
TORSDOF 3
