REMARK  7 active torsions:
REMARK  status: ('A' for Active; 'I' for Inactive)
REMARK    1  A    between atoms: N_2  and  S_1 
REMARK    2  A    between atoms: C_7  and  S_1 
REMARK    3  A    between atoms: S_6  and  N_2 
REMARK    4  A    between atoms: S_4  and  C_5 
REMARK    5  A    between atoms: C_10  and  S_4 
REMARK    6  A    between atoms: C_16  and  S_6 
REMARK    7  A    between atoms: C_9  and  C_11 
ROOT
ATOM      1  C   UNL d   1      -0.227   3.433  -2.094  0.00  0.00     0.107 A 
ATOM      2  C   UNL d   1       0.652   1.615  -0.655  0.00  0.00     0.122 A 
ATOM      3  S   UNL d   1      -0.357   1.726  -2.038  0.00  0.00    -0.064 SA
ATOM      4  C   UNL d   1       0.529   3.912  -1.040  0.00  0.00     0.033 A 
ATOM      5  C   UNL d   1       1.027   2.869  -0.208  0.00  0.00     0.035 A 
ENDROOT
BRANCH   2   6
ATOM      6  S   UNL d   1       1.051  -0.022  -0.051  0.00  0.00     0.276 S 
ATOM      7  O   UNL d   1       0.928  -0.906  -1.196  0.00  0.00    -0.199 OA
ATOM      8  O   UNL d   1       2.337   0.144   0.598  0.00  0.00    -0.199 OA
BRANCH   6   9
ATOM      9  N   UNL d   1      -0.128  -0.463   1.075  0.00  0.00    -0.236 N 
ATOM     10  HN  UNL d   1      -0.937  -0.999   0.762  1.00  0.00     0.189 HD
BRANCH   9  11
ATOM     11  S   UNL d   1      -0.004  -0.047   2.677  0.00  0.00     0.061 S 
ATOM     12  O   UNL d   1       0.158   1.377   2.861  0.00  0.00    -0.244 OA
ATOM     13  C   UNL d   1      -1.500  -0.615   3.428  0.00  0.00     0.143 C 
BRANCH  11  14
ATOM     14  C   UNL d   1       1.330  -0.956   3.350  0.00  0.00     0.039 A 
ATOM     15  C   UNL d   1       2.394  -0.269   3.938  0.00  0.00     0.023 A 
ATOM     16  C   UNL d   1       3.496  -0.982   4.416  0.00  0.00     0.025 A 
ATOM     17  C   UNL d   1       3.522  -2.372   4.307  0.00  0.00     0.034 A 
ATOM     18  C   UNL d   1       2.447  -3.058   3.742  0.00  0.00     0.025 A 
ATOM     19 CL   UNL d   1       4.897  -3.245   4.861  0.00  0.00    -0.084 Cl
ATOM     20  C   UNL d   1       1.341  -2.350   3.261  0.00  0.00     0.023 A 
ENDBRANCH  11  14
ENDBRANCH   9  11
ENDBRANCH   6   9
ENDBRANCH   2   6
BRANCH   1  21
ATOM     21  S   UNL d   1      -1.098   4.281  -3.399  0.00  0.00     0.228 S 
ATOM     22  O   UNL d   1      -2.475   3.831  -3.285  0.00  0.00    -0.215 OA
ATOM     23  O   UNL d   1      -0.752   5.681  -3.227  0.00  0.00    -0.215 OA
BRANCH  21  24
ATOM     24  C   UNL d   1      -0.478   3.768  -4.984  0.00  0.00     0.134 A 
ATOM     25  N   UNL d   1       0.808   3.331  -5.002  0.00  0.00    -0.356 N 
ATOM     26  C   UNL d   1       1.298   2.980  -6.216  0.00  0.00     0.105 A 
ATOM     27  HN  UNL d   1       1.371   3.271  -4.153  1.00  0.00     0.166 HD
ATOM     28  C   UNL d   1       0.571   3.042  -7.400  0.00  0.00     0.063 A 
ATOM     29  C   UNL d   1      -0.756   3.490  -7.330  0.00  0.00     0.020 A 
ATOM     30  C   UNL d   1      -1.297   3.860  -6.101  0.00  0.00     0.043 A 
BRANCH  28  31
ATOM     31  C   UNL d   1       1.192   2.647  -8.707  0.00  0.00     0.418 C 
ATOM     32  F   UNL d   1       2.490   2.252  -8.597  0.00  0.00    -0.166 F 
ATOM     33  F   UNL d   1       0.536   1.614  -9.303  0.00  0.00    -0.166 F 
ATOM     34  F   UNL d   1       1.187   3.664  -9.613  0.00  0.00    -0.166 F 
ENDBRANCH  28  31
ENDBRANCH  21  24
ENDBRANCH   1  21
TORSDOF 7
