REMARK  4 active torsions:
REMARK  status: ('A' for Active; 'I' for Inactive)
REMARK    1  A    between atoms: C_5  and  C_3 
REMARK    2  A    between atoms: C_9  and  C_4 
REMARK    3  A    between atoms: O_14  and  C_9 
REMARK    4  A    between atoms: C_18  and  O_14 
ROOT
ATOM      1  N   UNL d   1       1.402  -0.591  -0.126  0.00  0.00    -0.345 N 
ATOM      2  HN  UNL d   1       2.272  -1.086  -0.321  1.00  0.00     0.167 HD
ATOM      3  C   UNL d   1       0.244  -1.177   0.080  0.00  0.00     0.086 A 
ATOM      4  C   UNL d   1       1.288   0.798  -0.042  0.00  0.00     0.115 A 
ATOM      5  S   UNL d   1      -1.066  -0.086   0.361  0.00  0.00    -0.081 SA
ATOM      6  C   UNL d   1      -0.000   1.240   0.187  0.00  0.00     0.087 A 
ENDROOT
BRANCH   3   7
ATOM      7  C   UNL d   1       0.027  -2.635   0.066  0.00  0.00     0.021 A 
ATOM      8  C   UNL d   1       0.926  -3.536   0.681  0.00  0.00     0.068 A 
ATOM      9  C   UNL d   1       0.692  -4.921   0.598  0.00  0.00     0.056 A 
ATOM     10 CL   UNL d   1       2.297  -2.958   1.585  0.00  0.00    -0.082 Cl
ATOM     11 CL   UNL d   1       1.750  -6.092   1.313  0.00  0.00    -0.083 Cl
ATOM     12  C   UNL d   1      -0.426  -5.415  -0.078  0.00  0.00     0.026 A 
ATOM     13  C   UNL d   1      -1.318  -4.538  -0.683  0.00  0.00     0.003 A 
ATOM     14  C   UNL d   1      -1.088  -3.164  -0.621  0.00  0.00     0.016 A 
ENDBRANCH   3   7
BRANCH   4  15
ATOM     15  C   UNL d   1       2.434   1.687  -0.230  0.00  0.00     0.310 C 
ATOM     16  O   UNL d   1       2.330   2.907  -0.307  0.00  0.00    -0.258 OA
BRANCH  15  17
ATOM     17  O   UNL d   1       3.603   0.997  -0.349  0.00  0.00    -0.317 OA
BRANCH  17  18
ATOM     18  C   UNL d   1       4.738   1.746  -0.793  0.00  0.00     0.175 C 
ATOM     19  C   UNL d   1       4.772   1.708  -2.309  0.00  0.00     0.034 C 
ENDBRANCH  17  18
ENDBRANCH  15  17
ENDBRANCH   4  15
TORSDOF 4
