REMARK  3 active torsions:
REMARK  status: ('A' for Active; 'I' for Inactive)
REMARK    1  A    between atoms: C_7  and  C_1 
REMARK    2  A    between atoms: O_8  and  C_4 
REMARK    3  A    between atoms: O_9  and  C_6 
ROOT
ATOM      1  C   UNL d   1       1.015  -0.663  -0.005  0.00  0.00     0.078 A 
ATOM      2  N   UNL d   1      -0.390   1.127   0.388  0.00  0.00    -0.277 N 
ATOM      3  HN  UNL d   1      -0.750   2.036   0.679  1.00  0.00     0.189 HD
ATOM      4  C   UNL d   1      -0.258  -0.997  -0.434  0.00  0.00     0.170 A 
ATOM      5  N   UNL d   1      -1.038   0.112  -0.217  0.00  0.00    -0.277 N 
ATOM      6  C   UNL d   1       0.836   0.636   0.508  0.00  0.00     0.170 A 
ATOM      7  H   UNL d   1      -2.022   0.215  -0.434  0.00  0.00     0.189 HD
ENDROOT
BRANCH   1   8
ATOM      8  C   UNL d   1       2.199  -1.506  -0.065  0.00  0.00    -0.017 A 
ATOM      9  C   UNL d   1       2.440  -2.349  -1.159  0.00  0.00     0.012 A 
ATOM     10  C   UNL d   1       3.592  -3.140  -1.210  0.00  0.00     0.001 A 
ATOM     11  C   UNL d   1       4.525  -3.083  -0.177  0.00  0.00     0.000 A 
ATOM     12  C   UNL d   1       4.307  -2.237   0.908  0.00  0.00     0.001 A 
ATOM     13  C   UNL d   1       3.150  -1.455   0.964  0.00  0.00     0.012 A 
ENDBRANCH   1   8
BRANCH   4  14
ATOM     14  O   UNL d   1      -0.804  -2.095  -0.944  0.00  0.00    -0.344 OA
ATOM     15  H   UNL d   1      -0.154  -2.816  -0.842  0.00  0.00     0.219 HD
ENDBRANCH   4  14
BRANCH   6  16
ATOM     16  O   UNL d   1       1.704   1.457   1.094  0.00  0.00    -0.344 OA
ATOM     17  H   UNL d   1       1.184   2.254   1.298  0.00  0.00     0.219 HD
ENDBRANCH   6  16
TORSDOF 3
