REMARK  2 active torsions:
REMARK  status: ('A' for Active; 'I' for Inactive)
REMARK    1  A    between atoms: N_12  and  C_7 
REMARK    2  A    between atoms: C_15  and  N_12 
ROOT
ATOM      1  S   UNL d   1       0.852  -1.645  -0.089  0.00  0.00     0.270 S 
ATOM      2  C   UNL d   1       2.049  -0.474  -0.511  0.00  0.00     0.146 C 
ATOM      3  N   UNL d   1       1.274  -1.967   1.542  0.00  0.00    -0.275 N 
ATOM      4  C   UNL d   1       1.629  -0.861   2.344  0.00  0.00     0.066 A 
ATOM      5  C   UNL d   1       1.989   0.367   1.814  0.00  0.00     0.084 A 
ATOM      6  C   UNL d   1       2.135   0.686   0.403  0.00  0.00     0.215 C 
ATOM      7  C   UNL d   1       2.990  -0.751  -1.427  0.00  0.00     0.118 C 
ATOM      8  S   UNL d   1       2.328   1.526   3.017  0.00  0.00    -0.096 SA
ATOM      9  O   UNL d   1      -0.455  -1.027  -0.078  0.00  0.00    -0.200 OA
ATOM     10  O   UNL d   1       1.074  -2.868  -0.844  0.00  0.00    -0.200 OA
ATOM     11  C   UNL d   1       1.689  -0.845   3.768  0.00  0.00     0.039 A 
ATOM     12  C   UNL d   1       2.047   0.390   4.263  0.00  0.00     0.053 A 
ATOM     13  O   UNL d   1       2.352   1.812  -0.040  0.00  0.00    -0.285 OA
ATOM     14  C   UNL d   1       1.109  -3.331   2.053  0.00  0.00     0.170 C 
ENDROOT
BRANCH   7  15
ATOM     15  N   UNL d   1       4.140  -0.033  -1.671  0.00  0.00    -0.363 N 
ATOM     16  H   UNL d   1       4.300   0.184  -2.658  0.00  0.00     0.165 HD
BRANCH  15  17
ATOM     17  C   UNL d   1       5.389  -0.283  -1.032  0.00  0.00     0.053 A 
ATOM     18  C   UNL d   1       6.528   0.469  -1.390  0.00  0.00     0.060 A 
ATOM     19 CL   UNL d   1       6.452   1.639  -2.663  0.00  0.00    -0.082 Cl
ATOM     20  C   UNL d   1       7.750   0.293  -0.732  0.00  0.00     0.026 A 
ATOM     21  C   UNL d   1       7.854  -0.625   0.310  0.00  0.00     0.002 A 
ATOM     22  C   UNL d   1       6.735  -1.355   0.702  0.00  0.00     0.002 A 
ATOM     23  C   UNL d   1       5.512  -1.177   0.046  0.00  0.00     0.031 A 
ENDBRANCH  15  17
ENDBRANCH   7  15
TORSDOF 2
