REMARK  4 active torsions:
REMARK  status: ('A' for Active; 'I' for Inactive)
REMARK    1  A    between atoms: C_4  and  C_1 
REMARK    2  A    between atoms: C_3  and  C_2 
REMARK       I    between atoms: N_14  and  C_4 
REMARK    3  A    between atoms: C_11  and  C_16 
REMARK    4  A    between atoms: C_21  and  N_14 
ROOT
ATOM      1  C   UNL d   1      -0.088  -1.157   0.192  0.00  0.00     0.094 A 
ATOM      2  C   UNL d   1      -1.316  -0.545   0.412  0.00  0.00     0.145 A 
ATOM      3  O   UNL d   1      -1.189   0.794   0.160  0.00  0.00    -0.234 OA
ATOM      4  N   UNL d   1       0.110   1.112  -0.133  0.00  0.00    -0.264 N 
ATOM      5  HN  UNL d   1       0.486   2.035  -0.350  1.00  0.00     0.194 HD
ATOM      6  C   UNL d   1       0.779  -0.036  -0.074  0.00  0.00     0.047 A 
ATOM      7  C   UNL d   1       2.256  -0.025  -0.244  0.00  0.00     0.071 C 
ENDROOT
BRANCH   1   8
ATOM      8  C   UNL d   1       0.386  -2.542   0.255  0.00  0.00     0.261 C 
ATOM      9  N   UNL d   1      -0.535  -3.540   0.496  0.00  0.00    -0.323 N 
ATOM     10  H   UNL d   1      -1.499  -3.262   0.651  0.00  0.00     0.169 HD
ATOM     11  O   UNL d   1       1.585  -2.758   0.092  0.00  0.00    -0.267 OA
BRANCH   9  12
ATOM     12  C   UNL d   1      -0.256  -4.902   0.763  0.00  0.00     0.035 A 
ATOM     13  C   UNL d   1       1.008  -5.483   0.644  0.00  0.00     0.030 A 
ATOM     14  C   UNL d   1       1.240  -6.790   1.086  0.00  0.00     0.018 A 
ATOM     15  C   UNL d   1       0.207  -7.549   1.647  0.00  0.00     0.048 A 
ATOM     16  C   UNL d   1      -1.082  -7.000   1.682  0.00  0.00     0.018 A 
ATOM     17  C   UNL d   1      -1.311  -5.692   1.238  0.00  0.00     0.030 A 
BRANCH  15  18
ATOM     18  C   UNL d   1       0.474  -8.910   2.239  0.00  0.00     0.417 C 
ATOM     19  F   UNL d   1       1.789  -9.268   2.216  0.00  0.00    -0.166 F 
ATOM     20  F   UNL d   1       0.095  -8.986   3.547  0.00  0.00    -0.166 F 
ATOM     21  F   UNL d   1      -0.197  -9.905   1.599  0.00  0.00    -0.166 F 
ENDBRANCH  15  18
ENDBRANCH   9  12
ENDBRANCH   1   8
BRANCH   2  22
ATOM     22  C   UNL d   1      -2.621  -1.067   0.907  0.00  0.00     0.094 A 
ATOM     23  N   UNL d   1      -2.857  -2.341   1.235  0.00  0.00    -0.258 N 
ATOM     24  O   UNL d   1      -4.136  -2.367   1.764  0.00  0.00    -0.242 OA
ATOM     25  HN  UNL d   1      -2.225  -3.132   1.118  1.00  0.00     0.195 HD
ATOM     26  C   UNL d   1      -4.662  -1.113   1.737  0.00  0.00     0.074 A 
ATOM     27  C   UNL d   1      -3.754  -0.259   1.163  0.00  0.00     0.068 A 
ATOM     28  C   UNL d   1      -5.998  -0.941   2.333  0.00  0.00     0.079 C 
ENDBRANCH   2  22
TORSDOF 4
