REMARK  4 active torsions:
REMARK  status: ('A' for Active; 'I' for Inactive)
REMARK    1  A    between atoms: N_3  and  C_1 
REMARK       I    between atoms: C_9  and  N_3 
REMARK    2  A    between atoms: S_14  and  C_6 
REMARK    3  A    between atoms: C_13  and  C_9 
REMARK    4  A    between atoms: C_15  and  S_14 
ROOT
ATOM      1  N   UNL d   1      -0.979  -6.254  -1.102  0.00  0.00    -0.197 NA
ATOM      2  C   UNL d   1      -0.991  -5.094  -1.043  0.00  0.00     0.069 C 
ATOM      3  C   UNL d   1      -1.020  -3.623  -0.984  0.00  0.00     0.205 C 
ENDROOT
BRANCH   3   4
ATOM      4  S   UNL d   1       0.248  -2.971   0.140  0.00  0.00    -0.089 SA
BRANCH   4   5
ATOM      5  C   UNL d   1      -0.011  -1.251  -0.018  0.00  0.00     0.131 A 
ATOM      6  S   UNL d   1       1.245  -0.117   0.222  0.00  0.00    -0.026 SA
ATOM      7  C   UNL d   1       0.111   1.118  -0.099  0.00  0.00     0.168 A 
ATOM      8  N   UNL d   1      -1.110   0.675  -0.318  0.00  0.00    -0.278 N 
ATOM      9  N   UNL d   1      -1.177  -0.712  -0.299  0.00  0.00    -0.286 N 
ATOM     10  HN  UNL d   1      -1.914   1.282  -0.482  1.00  0.00     0.189 HD
ATOM     11  HN  UNL d   1      -2.026  -1.248  -0.481  1.00  0.00     0.188 HD
BRANCH   7  12
ATOM     12  N   UNL d   1       0.440   2.459  -0.079  0.00  0.00    -0.302 N 
ATOM     13  C   UNL d   1       1.723   2.961  -0.089  0.00  0.00     0.257 C 
ATOM     14  O   UNL d   1       2.756   2.306  -0.170  0.00  0.00    -0.267 OA
ATOM     15  H   UNL d   1      -0.350   3.078  -0.207  0.00  0.00     0.171 HD
BRANCH  13  16
ATOM     16  C   UNL d   1       1.859   4.447  -0.055  0.00  0.00     0.032 A 
ATOM     17  C   UNL d   1       0.950   5.280   0.610  0.00  0.00     0.017 A 
ATOM     18  C   UNL d   1       1.181   6.660   0.661  0.00  0.00     0.001 A 
ATOM     19  C   UNL d   1       2.312   7.211   0.054  0.00  0.00     0.000 A 
ATOM     20  C   UNL d   1       3.218   6.387  -0.609  0.00  0.00     0.001 A 
ATOM     21  C   UNL d   1       2.994   5.012  -0.660  0.00  0.00     0.017 A 
ENDBRANCH  13  16
ENDBRANCH   7  12
ENDBRANCH   4   5
ENDBRANCH   3   4
TORSDOF 4
