REMARK  4 active torsions:
REMARK  status: ('A' for Active; 'I' for Inactive)
REMARK    1  A    between atoms: C_7  and  C_1 
REMARK    2  A    between atoms: S_15  and  C_10 
REMARK    3  A    between atoms: C_20  and  S_15 
REMARK    4  A    between atoms: C_23  and  C_20 
ROOT
ATOM      1  C   UNL d   1       2.101  -2.568   0.058  0.00  0.00     0.065 A 
ATOM      2  N   UNL d   1       2.764  -3.042   1.133  0.00  0.00    -0.335 N 
ATOM      3  HN  UNL d   1       2.847  -2.503   1.995  1.00  0.00     0.168 HD
ATOM      4  C   UNL d   1       3.309  -4.264   1.006  0.00  0.00     0.144 A 
ATOM      5  N   UNL d   1       3.219  -5.034  -0.090  0.00  0.00    -0.347 N 
ATOM      6  HN  UNL d   1       3.645  -5.960  -0.129  1.00  0.00     0.167 HD
ATOM      7  C   UNL d   1       1.962  -3.284  -1.113  0.00  0.00     0.049 A 
ATOM      8  C   UNL d   1       2.541  -4.527  -1.129  0.00  0.00     0.092 A 
ENDROOT
BRANCH   1   9
ATOM      9  C   UNL d   1       1.554  -1.220   0.194  0.00  0.00     0.089 A 
ATOM     10  N   UNL d   1       2.223  -0.146   0.772  0.00  0.00    -0.304 N 
ATOM     11  C   UNL d   1       1.383   0.962   0.653  0.00  0.00     0.112 A 
ATOM     12  C   UNL d   1       3.495  -0.058   1.351  0.00  0.00     0.099 A 
ATOM     13  C   UNL d   1       1.854   2.207   1.158  0.00  0.00     0.049 A 
ATOM     14  N   UNL d   1       0.255   0.657   0.057  0.00  0.00    -0.344 N 
ATOM     15  C   UNL d   1       3.073   2.286   1.722  0.00  0.00     0.005 A 
ATOM     16  C   UNL d   1       3.932   1.119   1.827  0.00  0.00     0.018 A 
ATOM     17  C   UNL d   1       0.339  -0.684  -0.230  0.00  0.00     0.036 A 
ATOM     18  HN  UNL d   1      -0.522   1.284  -0.150  1.00  0.00     0.167 HD
ATOM     19  C   UNL d   1      -0.808  -1.341  -0.903  0.00  0.00     0.070 C 
ENDBRANCH   1   9
BRANCH   4  20
ATOM     20  S   UNL d   1       4.358  -4.881   2.290  0.00  0.00    -0.089 SA
BRANCH  20  21
ATOM     21  C   UNL d   1       3.449  -4.311   3.757  0.00  0.00     0.121 C 
BRANCH  21  22
ATOM     22  C   UNL d   1       4.077  -4.891   5.007  0.00  0.00    -0.048 A 
ATOM     23  C   UNL d   1       5.144  -4.234   5.639  0.00  0.00     0.009 A 
ATOM     24  C   UNL d   1       5.779  -4.810   6.743  0.00  0.00     0.024 A 
ATOM     25  C   UNL d   1       5.351  -6.046   7.221  0.00  0.00     0.034 A 
ATOM     26  C   UNL d   1       4.290  -6.709   6.610  0.00  0.00     0.024 A 
ATOM     27 CL   UNL d   1       6.150  -6.767   8.564  0.00  0.00    -0.084 Cl
ATOM     28  C   UNL d   1       3.655  -6.134   5.505  0.00  0.00     0.009 A 
ENDBRANCH  21  22
ENDBRANCH  20  21
ENDBRANCH   4  20
TORSDOF 4
