REMARK  6 active torsions:
REMARK  status: ('A' for Active; 'I' for Inactive)
REMARK    1  A    between atoms: C_4  and  S_1 
REMARK    2  A    between atoms: C_5  and  S_1 
REMARK    3  A    between atoms: S_2  and  N_7 
REMARK    4  A    between atoms: C_3  and  C_6 
REMARK    5  A    between atoms: C_8  and  C_4 
REMARK    6  A    between atoms: N_7  and  N_11 
REMARK       I    between atoms: N_11  and  C_8 
ROOT
ATOM      1  S   UNL d   1       0.908   0.065   0.106  0.00  0.00     0.199 S 
ATOM      2  O   UNL d   1       0.375   0.536   1.376  0.00  0.00    -0.221 OA
ATOM      3  O   UNL d   1       0.517   0.712  -1.136  0.00  0.00    -0.221 OA
ENDROOT
BRANCH   1   4
ATOM      4  C   UNL d   1       0.495  -1.629  -0.045  0.00  0.00     0.251 C 
BRANCH   4   5
ATOM      5  C   UNL d   1       1.099  -2.324  -1.226  0.00  0.00     0.250 C 
ATOM      6  N   UNL d   1       1.207  -1.643  -2.419  0.00  0.00    -0.260 N 
ATOM      7  H   UNL d   1       0.943  -0.660  -2.561  0.00  0.00     0.190 HD
ATOM      8  O   UNL d   1       1.380  -3.527  -1.163  0.00  0.00    -0.271 OA
BRANCH   6   9
ATOM      9  N   UNL d   1       1.734  -2.379  -3.557  0.00  0.00    -0.225 N 
ATOM     10  H   UNL d   1       2.152  -3.294  -3.347  0.00  0.00     0.200 HD
BRANCH   9  11
ATOM     11  S   UNL d   1       2.165  -1.553  -4.954  0.00  0.00     0.240 S 
ATOM     12  O   UNL d   1       0.981  -0.887  -5.447  0.00  0.00    -0.205 OA
ATOM     13  O   UNL d   1       3.378  -0.815  -4.662  0.00  0.00    -0.205 OA
ATOM     14  C   UNL d   1       2.569  -2.897  -6.051  0.00  0.00     0.187 C 
ENDBRANCH   9  11
ENDBRANCH   6   9
ENDBRANCH   4   5
ENDBRANCH   1   4
BRANCH   1  15
ATOM     15  C   UNL d   1       2.675   0.211   0.211  0.00  0.00     0.128 A 
ATOM     16  N   UNL d   1       3.370  -0.952   0.151  0.00  0.00    -0.356 N 
ATOM     17  C   UNL d   1       4.721  -0.824   0.097  0.00  0.00     0.105 A 
ATOM     18  HN  UNL d   1       2.909  -1.862   0.146  1.00  0.00     0.166 HD
ATOM     19  C   UNL d   1       5.394   0.396   0.092  0.00  0.00     0.063 A 
ATOM     20  C   UNL d   1       4.625   1.564   0.189  0.00  0.00     0.020 A 
ATOM     21  C   UNL d   1       3.239   1.474   0.247  0.00  0.00     0.042 A 
BRANCH  19  22
ATOM     22  C   UNL d   1       6.886   0.465  -0.034  0.00  0.00     0.418 C 
ATOM     23  F   UNL d   1       7.484  -0.754  -0.127  0.00  0.00    -0.166 F 
ATOM     24  F   UNL d   1       7.279   1.160  -1.135  0.00  0.00    -0.166 F 
ATOM     25  F   UNL d   1       7.470   1.087   1.027  0.00  0.00    -0.166 F 
ENDBRANCH  19  22
ENDBRANCH   1  15
TORSDOF 6
