REMARK  8 active torsions:
REMARK  status: ('A' for Active; 'I' for Inactive)
REMARK    1  A    between atoms: C_2  and  C_1 
REMARK    2  A    between atoms: C_3  and  C_1 
REMARK    3  A    between atoms: C_5  and  C_1 
REMARK    4  A    between atoms: O_20  and  C_1 
REMARK       I    between atoms: C_4  and  N_6 
REMARK       I    between atoms: N_9  and  C_4 
REMARK    5  A    between atoms: O_22  and  C_5 
REMARK    6  A    between atoms: N_6  and  C_7 
REMARK    7  A    between atoms: C_13  and  N_9 
REMARK    8  A    between atoms: C_28  and  O_22 
ROOT
ATOM      1  C   UNL d   1       0.849  -0.298   0.484  0.00  0.00    -0.004 C 
ATOM      2  C   UNL d   1      -1.972  -0.036   0.142  0.00  0.00     0.042 C 
ATOM      3  C   UNL d   1       0.136   0.750   1.093  0.00  0.00     0.020 C 
ATOM      4  C   UNL d   1      -1.273   0.868   0.963  0.00  0.00    -0.035 C 
ATOM      5  C   UNL d   1       0.084  -1.326  -0.078  0.00  0.00     0.013 C 
ATOM      6  C   UNL d   1      -1.294  -1.191  -0.251  0.00  0.00     0.031 C 
ATOM      7  C   UNL d   1      -1.987   1.870   1.830  0.00  0.00     0.050 C 
ENDROOT
BRANCH   2   8
ATOM      8  N   UNL d   1      -3.287   0.268  -0.325  0.00  0.00    -0.308 N 
ATOM      9  C   UNL d   1      -3.959  -0.446  -1.318  0.00  0.00     0.325 C 
ATOM     10  N   UNL d   1      -5.166   0.141  -1.688  0.00  0.00    -0.309 N 
ATOM     11  O   UNL d   1      -3.542  -1.477  -1.816  0.00  0.00    -0.247 OA
ATOM     12  H   UNL d   1      -5.364   1.073  -1.355  0.00  0.00     0.170 HD
ATOM     13  H   UNL d   1      -3.636   1.188  -0.111  0.00  0.00     0.170 HD
BRANCH  10  14
ATOM     14  C   UNL d   1      -6.067  -0.390  -2.659  0.00  0.00     0.037 A 
ATOM     15  C   UNL d   1      -5.917  -1.649  -3.258  0.00  0.00     0.053 A 
ATOM     16  C   UNL d   1      -6.799  -2.087  -4.248  0.00  0.00     0.036 A 
ATOM     17 CL   UNL d   1      -6.567  -3.629  -4.979  0.00  0.00    -0.084 Cl
ATOM     18  C   UNL d   1      -7.861  -1.288  -4.650  0.00  0.00     0.024 A 
ATOM     19  C   UNL d   1      -8.051  -0.049  -4.041  0.00  0.00     0.004 A 
ATOM     20  C   UNL d   1      -7.162   0.396  -3.050  0.00  0.00     0.029 A 
ENDBRANCH  10  14
ENDBRANCH   2   8
BRANCH   1  21
ATOM     21  C   UNL d   1       2.375  -0.289   0.306  0.00  0.00     0.271 C 
BRANCH  21  22
ATOM     22  C   UNL d   1       2.874   0.966  -0.471  0.00  0.00     0.432 C 
ATOM     23  F   UNL d   1       1.882   1.757  -0.940  0.00  0.00    -0.167 F 
ATOM     24  F   UNL d   1       3.711   1.764   0.231  0.00  0.00    -0.167 F 
ATOM     25  F   UNL d   1       3.577   0.556  -1.570  0.00  0.00    -0.167 F 
ENDBRANCH  21  22
BRANCH  21  26
ATOM     26  C   UNL d   1       3.192  -0.240   1.605  0.00  0.00     0.308 C 
ATOM     27  O   UNL d   1       2.851   0.329   2.636  0.00  0.00    -0.261 OA
BRANCH  26  28
ATOM     28  O   UNL d   1       4.431  -0.797   1.408  0.00  0.00    -0.319 OA
BRANCH  28  29
ATOM     29  C   UNL d   1       5.465  -0.462   2.348  0.00  0.00     0.174 C 
ATOM     30  C   UNL d   1       5.801  -1.638   3.244  0.00  0.00     0.034 C 
ENDBRANCH  28  29
ENDBRANCH  26  28
ENDBRANCH  21  26
BRANCH  21  31
ATOM     31  O   UNL d   1       2.718  -1.503  -0.432  0.00  0.00    -0.368 OA
ATOM     32  H   UNL d   1       3.241  -1.231  -1.211  0.00  0.00     0.212 HD
ENDBRANCH  21  31
ENDBRANCH   1  21
TORSDOF 8
