REMARK  2 active torsions:
REMARK  status: ('A' for Active; 'I' for Inactive)
REMARK    1  A    between atoms: S_7  and  C_1 
REMARK    2  A    between atoms: C_8  and  S_7 
ROOT
ATOM      1  C   UNL d   1       0.112  -1.077   0.010  0.00  0.00     0.055 A 
ATOM      2  N   UNL d   1      -0.731   1.044   0.083  0.00  0.00    -0.304 N 
ATOM      3  HN  UNL d   1      -1.363   1.844   0.123  1.00  0.00     0.186 HD
ATOM      4  N   UNL d   1       0.608   1.050   0.055  0.00  0.00    -0.304 N 
ATOM      5  C   UNL d   1       1.173  -0.195  -0.001  0.00  0.00     0.041 A 
ATOM      6  C   UNL d   1      -1.048  -0.257   0.047  0.00  0.00     0.041 A 
ATOM      7  C   UNL d   1       2.642  -0.362  -0.076  0.00  0.00     0.071 C 
ATOM      8  C   UNL d   1      -2.476  -0.665   0.039  0.00  0.00     0.071 C 
ATOM      9  H   UNL d   1       1.079   1.949   0.059  0.00  0.00     0.186 HD
ENDROOT
BRANCH   1  10
ATOM     10  S   UNL d   1       0.084  -2.821  -0.097  0.00  0.00    -0.050 SA
BRANCH  10  11
ATOM     11  C   UNL d   1       1.544  -3.346   0.758  0.00  0.00     0.149 A 
ATOM     12  N   UNL d   1       1.492  -3.451   2.099  0.00  0.00    -0.346 N 
ATOM     13  C   UNL d   1       2.602  -3.914   2.704  0.00  0.00     0.091 A 
ATOM     14  HN  UNL d   1       0.658  -3.193   2.628  1.00  0.00     0.167 HD
ATOM     15  C   UNL d   1       3.746  -4.269   2.029  0.00  0.00     0.034 A 
ATOM     16  C   UNL d   1       3.694  -4.128   0.664  0.00  0.00     0.091 A 
ATOM     17  N   UNL d   1       2.611  -3.678   0.005  0.00  0.00    -0.346 N 
ATOM     18  HN  UNL d   1       2.598  -3.593  -1.012  1.00  0.00     0.167 HD
ENDBRANCH  10  11
ENDBRANCH   1  10
TORSDOF 2
