REMARK  3 active torsions:
REMARK  status: ('A' for Active; 'I' for Inactive)
REMARK       I    between atoms: N_2  and  C_1 
REMARK    1  A    between atoms: C_5  and  C_1 
REMARK       I    between atoms: C_3  and  N_2 
REMARK       I    between atoms: N_6  and  C_3 
REMARK    2  A    between atoms: N_4  and  C_7 
REMARK    3  A    between atoms: C_9  and  N_8 
ROOT
ATOM      1  C   UNL d   1      -0.743  -1.091  -0.333  0.00  0.00     0.263 C 
ATOM      2  N   UNL d   1       0.479  -1.684  -0.597  0.00  0.00    -0.275 N 
ATOM      3  C   UNL d   1       1.110  -1.640  -1.813  0.00  0.00     0.325 C 
ATOM      4  N   UNL d   1       2.495  -1.743  -1.774  0.00  0.00    -0.331 N 
ATOM      5  N   UNL d   1       5.271  -1.078  -1.979  0.00  0.00    -0.364 N 
ATOM      6  O   UNL d   1      -1.539  -0.629  -1.138  0.00  0.00    -0.267 OA
ATOM      7  O   UNL d   1       0.504  -1.570  -2.879  0.00  0.00    -0.247 OA
ATOM      8  C   UNL d   1       3.373  -1.822  -0.591  0.00  0.00     0.147 C 
ATOM      9  C   UNL d   1       3.209  -1.837  -3.057  0.00  0.00     0.147 C 
ATOM     10  C   UNL d   1       4.383  -0.844  -3.132  0.00  0.00     0.144 C 
ATOM     11  C   UNL d   1       4.593  -0.876  -0.687  0.00  0.00     0.144 C 
ATOM     12  H   UNL d   1       1.008  -2.026   0.183  0.00  0.00     0.173 HD
ENDROOT
BRANCH   1  13
ATOM     13  C   UNL d   1      -1.085  -1.027   1.102  0.00  0.00     0.075 A 
ATOM     14  C   UNL d   1      -0.313  -0.245   1.975  0.00  0.00     0.051 A 
ATOM     15 CL   UNL d   1       1.056   0.673   1.449  0.00  0.00    -0.083 Cl
ATOM     16  C   UNL d   1      -0.638  -0.178   3.333  0.00  0.00     0.025 A 
ATOM     17  C   UNL d   1      -1.741  -0.873   3.824  0.00  0.00     0.003 A 
ATOM     18  C   UNL d   1      -2.522  -1.636   2.958  0.00  0.00     0.025 A 
ATOM     19  C   UNL d   1      -2.199  -1.717   1.598  0.00  0.00     0.051 A 
ATOM     20 CL   UNL d   1      -3.187  -2.734   0.611  0.00  0.00    -0.083 Cl
ENDBRANCH   1  13
BRANCH   5  21
ATOM     21  C   UNL d   1       6.624  -0.792  -2.049  0.00  0.00     0.103 A 
ATOM     22  N   UNL d   1       7.260  -0.364  -0.932  0.00  0.00    -0.350 N 
ATOM     23  C   UNL d   1       8.608  -0.197  -0.957  0.00  0.00     0.125 A 
ATOM     24  HN  UNL d   1       6.732  -0.170  -0.081  1.00  0.00     0.166 HD
ATOM     25  C   UNL d   1       9.380  -0.444  -2.075  0.00  0.00     0.118 A 
ATOM     26  C   UNL d   1       8.746  -0.875  -3.233  0.00  0.00     0.041 A 
ATOM     27  C   UNL d   1       7.361  -1.051  -3.210  0.00  0.00     0.051 A 
BRANCH  25  28
ATOM     28  N   UNL d   1      10.825  -0.283  -2.021  0.00  0.00    -0.114 N 
ATOM     29  O   UNL d   1      11.324   0.081  -0.950  0.00  0.00    -0.532 OA
ATOM     30  O   UNL d   1      11.468  -0.528  -3.053  0.00  0.00    -0.532 OA
ENDBRANCH  25  28
ENDBRANCH   5  21
TORSDOF 3
