REMARK  3 active torsions:
REMARK  status: ('A' for Active; 'I' for Inactive)
REMARK    1  A    between atoms: C_6  and  C_1 
REMARK    2  A    between atoms: C_7  and  C_2 
REMARK    3  A    between atoms: S_16  and  C_5 
ROOT
ATOM      1  C   UNL d   1       1.276  -1.240   0.077  0.00  0.00     0.056 A 
ATOM      2  C   UNL d   1      -0.101  -1.330  -0.075  0.00  0.00     0.040 A 
ATOM      3  C   UNL d   1      -0.724  -0.033  -0.129  0.00  0.00     0.082 A 
ATOM      4  S   UNL d   1       1.786   0.398   0.136  0.00  0.00    -0.078 SA
ATOM      5  C   UNL d   1       0.194   0.995  -0.033  0.00  0.00     0.063 A 
ATOM      6  C   UNL d   1      -2.137   0.196  -0.179  0.00  0.00     0.102 C 
ATOM      7  N   UNL d   1      -3.283   0.375  -0.241  0.00  0.00    -0.191 NA
ENDROOT
BRANCH   2   8
ATOM      8  C   UNL d   1      -0.830  -2.646  -0.104  0.00  0.00     0.088 A 
ATOM      9  O   UNL d   1      -0.368  -3.779   0.509  0.00  0.00    -0.322 OA
ATOM     10  C   UNL d   1      -1.278  -4.763   0.306  0.00  0.00     0.142 A 
ATOM     11  C   UNL d   1      -2.321  -4.297  -0.454  0.00  0.00     0.027 A 
ATOM     12  C   UNL d   1      -2.038  -2.932  -0.713  0.00  0.00     0.040 A 
ENDBRANCH   2   8
BRANCH   5  13
ATOM     13  S   UNL d   1      -0.100   2.734   0.040  0.00  0.00    -0.126 SA
ATOM     14  C   UNL d   1      -0.836   3.059  -1.578  0.00  0.00     0.096 C 
ENDBRANCH   5  13
BRANCH   1  15
ATOM     15  C   UNL d   1       2.256  -2.297   0.128  0.00  0.00     0.118 A 
ATOM     16  O   UNL d   1       2.143  -3.452  -0.605  0.00  0.00    -0.237 OA
ATOM     17  N   UNL d   1       3.214  -4.291  -0.352  0.00  0.00    -0.272 N 
ATOM     18  C   UNL d   1       3.972  -3.635   0.525  0.00  0.00     0.117 A 
ATOM     19  HN  UNL d   1       3.386  -5.213  -0.752  1.00  0.00     0.194 HD
ATOM     20  C   UNL d   1       3.434  -2.378   0.846  0.00  0.00     0.059 A 
ENDBRANCH   1  15
TORSDOF 3
