REMARK  2 active torsions:
REMARK  status: ('A' for Active; 'I' for Inactive)
REMARK    1  A    between atoms: C_6  and  C_1 
REMARK    2  A    between atoms: N_10  and  C_2 
ROOT
ATOM      1  C   UNL d   1      -0.087   1.288  -0.052  0.00  0.00     0.061 A 
ATOM      2  C   UNL d   1       0.611   0.199  -0.529  0.00  0.00     0.177 A 
ATOM      3  N   UNL d   1      -1.304  -0.609   0.331  0.00  0.00    -0.269 N 
ATOM      4  HN  UNL d   1      -2.046  -1.245   0.622  1.00  0.00     0.194 HD
ATOM      5  O   UNL d   1      -0.124  -0.930  -0.323  0.00  0.00    -0.220 OA
ATOM      6  C   UNL d   1      -1.255   0.716   0.496  0.00  0.00     0.132 A 
ENDROOT
BRANCH   1   7
ATOM      7  C   UNL d   1       0.328   2.673  -0.081  0.00  0.00     0.048 A 
ATOM      8  N   UNL d   1      -0.125   3.432   0.947  0.00  0.00    -0.365 N 
ATOM      9  C   UNL d   1       0.245   4.732   0.967  0.00  0.00     0.088 A 
ATOM     10  HN  UNL d   1      -0.720   3.038   1.676  1.00  0.00     0.165 HD
ATOM     11  C   UNL d   1       1.043   5.321   0.002  0.00  0.00     0.017 A 
ATOM     12  C   UNL d   1       1.481   4.535  -1.056  0.00  0.00     0.004 A 
ATOM     13  C   UNL d   1       1.115   3.192  -1.105  0.00  0.00     0.030 A 
ENDBRANCH   1   7
BRANCH   2  14
ATOM     14  N   UNL d   1       1.821   0.029  -1.101  0.00  0.00    -0.377 N 
ATOM     15  H   UNL d   1       2.555   0.698  -0.890  0.00  0.00     0.158 HD
ATOM     16  H   UNL d   1       2.171  -0.926  -1.134  0.00  0.00     0.158 HD
ENDBRANCH   2  14
TORSDOF 2
