REMARK  2 active torsions:
REMARK  status: ('A' for Active; 'I' for Inactive)
REMARK    1  A    between atoms: C_3  and  N_1 
REMARK    2  A    between atoms: C_10  and  C_2 
ROOT
ATOM      1  N   UNL d   1       1.013  -0.547   0.114  0.00  0.00    -0.257 N 
ATOM      2  C   UNL d   1      -0.330   1.252   0.113  0.00  0.00     0.050 A 
ATOM      3  C   UNL d   1       1.002   0.849   0.005  0.00  0.00     0.046 A 
ATOM      4  N   UNL d   1      -0.252  -1.026   0.199  0.00  0.00    -0.304 N 
ATOM      5  HN  UNL d   1      -0.538  -2.002   0.264  1.00  0.00     0.186 HD
ATOM      6  C   UNL d   1      -1.040   0.041   0.180  0.00  0.00     0.124 A 
ATOM      7  C   UNL d   1       2.201   1.691  -0.289  0.00  0.00     0.071 C 
ENDROOT
BRANCH   1   8
ATOM      8  C   UNL d   1       2.107  -1.463   0.085  0.00  0.00     0.100 A 
ATOM      9  C   UNL d   1       3.299  -1.208   0.788  0.00  0.00     0.066 A 
ATOM     10  C   UNL d   1       4.423  -2.029   0.624  0.00  0.00     0.050 A 
ATOM     11 CL   UNL d   1       3.419  -0.075   2.094  0.00  0.00    -0.082 Cl
ATOM     12  C   UNL d   1       4.338  -3.176  -0.150  0.00  0.00     0.037 A 
ATOM     13  C   UNL d   1       3.136  -3.520  -0.751  0.00  0.00     0.050 A 
ATOM     14 CL   UNL d   1       5.710  -4.196  -0.327  0.00  0.00    -0.084 Cl
ATOM     15  C   UNL d   1       2.025  -2.668  -0.651  0.00  0.00     0.066 A 
ATOM     16 CL   UNL d   1       0.646  -3.189  -1.564  0.00  0.00    -0.082 Cl
ENDBRANCH   1   8
BRANCH   2  17
ATOM     17  C   UNL d   1      -0.851   2.617   0.101  0.00  0.00     0.159 C 
ATOM     18  O   UNL d   1      -0.091   3.595   0.119  0.00  0.00    -0.293 OA
ATOM     19  C   UNL d   1      -2.338   2.862   0.078  0.00  0.00     0.097 C 
ENDBRANCH   2  17
TORSDOF 2
