REMARK  4 active torsions:
REMARK  status: ('A' for Active; 'I' for Inactive)
REMARK    1  A    between atoms: C_2  and  C_1 
REMARK    2  A    between atoms: C_17  and  C_7 
REMARK    3  A    between atoms: N_13  and  N_16 
REMARK    4  A    between atoms: C_15  and  C_19 
ROOT
ATOM      1  C   UNL d   1       0.350  -2.750  -0.060  0.00  0.00     0.056 A 
ATOM      2  N   UNL d   1       1.071  -3.231   1.007  0.00  0.00    -0.334 N 
ATOM      3  HN  UNL d   1       1.312  -2.684   1.833  1.00  0.00     0.168 HD
ATOM      4  C   UNL d   1       1.408  -4.490   0.826  0.00  0.00     0.163 A 
ATOM      5  C   UNL d   1       0.063  -3.683  -1.034  0.00  0.00     0.083 A 
ATOM      6  S   UNL d   1       0.812  -5.176  -0.641  0.00  0.00    -0.062 SA
ATOM      7  N   UNL d   1       2.158  -5.234   1.681  0.00  0.00    -0.280 N 
ATOM      8  H   UNL d   1       2.328  -6.201   1.423  0.00  0.00     0.189 HD
ENDROOT
BRANCH   1   9
ATOM      9  C   UNL d   1      -0.015  -1.338  -0.063  0.00  0.00     0.052 A 
ATOM     10  C   UNL d   1       0.778  -0.237   0.393  0.00  0.00     0.080 A 
ATOM     11  N   UNL d   1       0.081   0.908   0.253  0.00  0.00    -0.259 N 
ATOM     12  O   UNL d   1      -1.134   0.570  -0.297  0.00  0.00    -0.241 OA
ATOM     13  HN  UNL d   1       0.394   1.845   0.506  1.00  0.00     0.195 HD
ATOM     14  C   UNL d   1      -1.193  -0.772  -0.493  0.00  0.00     0.087 A 
ATOM     15  C   UNL d   1      -2.450  -1.286  -1.066  0.00  0.00     0.080 C 
BRANCH  10  16
ATOM     16  C   UNL d   1       2.150  -0.193   0.918  0.00  0.00    -0.007 A 
ATOM     17  C   UNL d   1       2.500   0.749   1.900  0.00  0.00     0.014 A 
ATOM     18  C   UNL d   1       3.800   0.803   2.410  0.00  0.00     0.001 A 
ATOM     19  C   UNL d   1       4.770  -0.084   1.950  0.00  0.00     0.000 A 
ATOM     20  C   UNL d   1       4.443  -1.013   0.966  0.00  0.00     0.001 A 
ATOM     21  C   UNL d   1       3.148  -1.056   0.444  0.00  0.00     0.014 A 
ENDBRANCH  10  16
ENDBRANCH   1   9
BRANCH   7  22
ATOM     22  N   UNL d   1       2.312  -4.855   2.978  0.00  0.00    -0.309 N 
ATOM     23  C   UNL d   1       3.061  -5.601   3.724  0.00  0.00     0.120 C 
ATOM     24  HN  UNL d   1       1.857  -4.020   3.346  1.00  0.00     0.186 HD
BRANCH  23  25
ATOM     25  C   UNL d   1       3.209  -5.297   5.165  0.00  0.00     0.002 A 
ATOM     26  C   UNL d   1       4.011  -6.070   6.011  0.00  0.00     0.045 A 
ATOM     27 CL   UNL d   1       4.949  -7.408   5.451  0.00  0.00    -0.083 Cl
ATOM     28  C   UNL d   1       4.071  -5.769   7.378  0.00  0.00     0.024 A 
ATOM     29  C   UNL d   1       3.336  -4.703   7.901  0.00  0.00     0.002 A 
ATOM     30  C   UNL d   1       2.546  -3.925   7.061  0.00  0.00     0.001 A 
ATOM     31  C   UNL d   1       2.484  -4.218   5.698  0.00  0.00     0.014 A 
ENDBRANCH  23  25
ENDBRANCH   7  22
TORSDOF 4
