REMARK  7 active torsions:
REMARK  status: ('A' for Active; 'I' for Inactive)
REMARK    1  A    between atoms: C_8  and  C_1 
REMARK    2  A    between atoms: C_4  and  C_2 
REMARK    3  A    between atoms: S_7  and  C_3 
REMARK    4  A    between atoms: C_12  and  S_7 
REMARK    5  A    between atoms: O_13  and  C_8 
REMARK    6  A    between atoms: C_20  and  O_13 
REMARK    7  A    between atoms: C_21  and  C_20 
ROOT
ATOM      1  C   UNL d   1      -0.009  -1.401   0.022  0.00  0.00     0.086 A 
ATOM      2  C   UNL d   1       1.225  -0.777   0.041  0.00  0.00     0.136 A 
ATOM      3  C   UNL d   1       0.187   1.315   0.096  0.00  0.00     0.150 A 
ATOM      4  N   UNL d   1       1.319   0.590   0.080  0.00  0.00    -0.332 N 
ATOM      5  HN  UNL d   1       2.231   1.049   0.097  1.00  0.00     0.168 HD
ATOM      6  N   UNL d   1      -1.041   0.785   0.014  0.00  0.00    -0.345 N 
ATOM      7  HN  UNL d   1      -1.877   1.367  -0.027  1.00  0.00     0.167 HD
ATOM      8  C   UNL d   1      -1.109  -0.562  -0.010  0.00  0.00     0.110 A 
ENDROOT
BRANCH   1   9
ATOM      9  C   UNL d   1      -0.280  -2.837  -0.078  0.00  0.00     0.297 C 
ATOM     10  O   UNL d   1      -1.119  -3.277  -0.848  0.00  0.00    -0.259 OA
BRANCH   9  11
ATOM     11  O   UNL d   1       0.449  -3.538   0.812  0.00  0.00    -0.313 OA
BRANCH  11  12
ATOM     12  C   UNL d   1       0.324  -4.969   0.701  0.00  0.00     0.217 C 
BRANCH  12  13
ATOM     13  C   UNL d   1      -0.601  -5.505   1.762  0.00  0.00    -0.034 A 
ATOM     14  C   UNL d   1      -1.721  -6.275   1.416  0.00  0.00     0.009 A 
ATOM     15  C   UNL d   1      -2.562  -6.786   2.407  0.00  0.00     0.001 A 
ATOM     16  C   UNL d   1      -2.292  -6.534   3.750  0.00  0.00     0.000 A 
ATOM     17  C   UNL d   1      -1.178  -5.775   4.105  0.00  0.00     0.001 A 
ATOM     18  C   UNL d   1      -0.336  -5.265   3.117  0.00  0.00     0.009 A 
ENDBRANCH  12  13
ENDBRANCH  11  12
ENDBRANCH   9  11
ENDBRANCH   1   9
BRANCH   2  19
ATOM     19  C   UNL d   1       2.548  -1.508  -0.053  0.00  0.00     0.433 C 
ATOM     20  F   UNL d   1       2.479  -2.848  -0.282  0.00  0.00    -0.165 F 
ATOM     21  F   UNL d   1       3.319  -1.034  -1.077  0.00  0.00    -0.165 F 
ATOM     22  F   UNL d   1       3.307  -1.365   1.072  0.00  0.00    -0.165 F 
ENDBRANCH   2  19
BRANCH   3  23
ATOM     23  S   UNL d   1       0.336   3.075   0.087  0.00  0.00    -0.036 SA
BRANCH  23  24
ATOM     24  C   UNL d   1       0.273   3.432   1.830  0.00  0.00     0.077 A 
ATOM     25  N   UNL d   1       0.189   2.411   2.708  0.00  0.00    -0.360 N 
ATOM     26  C   UNL d   1       0.137   2.714   4.023  0.00  0.00     0.089 A 
ATOM     27  HN  UNL d   1       0.166   1.442   2.389  1.00  0.00     0.166 HD
ATOM     28  C   UNL d   1       0.166   4.008   4.514  0.00  0.00     0.017 A 
ATOM     29  C   UNL d   1       0.258   5.050   3.603  0.00  0.00     0.004 A 
ATOM     30  C   UNL d   1       0.314   4.763   2.241  0.00  0.00     0.037 A 
ENDBRANCH  23  24
ENDBRANCH   3  23
TORSDOF 7
