REMARK  3 active torsions:
REMARK  status: ('A' for Active; 'I' for Inactive)
REMARK    1  A    between atoms: C_7  and  C_1 
REMARK       I    between atoms: C_2  and  N_5 
REMARK    2  A    between atoms: C_10  and  C_2 
REMARK    3  A    between atoms: N_5  and  C_7 
ROOT
ATOM      1  C   UNL d   1       2.399  -4.216   0.003  0.00  0.00     0.251 C 
ATOM      2  N   UNL d   1       1.955  -2.915   0.043  0.00  0.00    -0.352 N 
ATOM      3  O   UNL d   1       1.649  -5.187  -0.015  0.00  0.00    -0.268 OA
ATOM      4  H   UNL d   1       2.583  -2.177  -0.245  0.00  0.00     0.163 HD
ENDROOT
BRANCH   2   5
ATOM      5  C   UNL d   1       0.545  -2.600   0.052  0.00  0.00     0.169 C 
BRANCH   5   6
ATOM      6  C   UNL d   1       0.378  -1.221   0.620  0.00  0.00     0.006 A 
ATOM      7  C   UNL d   1       0.130  -0.828   1.931  0.00  0.00    -0.047 A 
ATOM      8  C   UNL d   1       0.042   0.602   2.033  0.00  0.00     0.015 A 
ATOM      9  C   UNL d   1      -0.034  -1.726   3.115  0.00  0.00     0.049 C 
ATOM     10  C   UNL d   1       0.225   1.236   0.828  0.00  0.00     0.051 A 
ATOM     11  S   UNL d   1       0.510   0.130  -0.436  0.00  0.00    -0.104 SA
ENDBRANCH   5   6
ENDBRANCH   2   5
BRANCH   1  12
ATOM     12  C   UNL d   1       3.878  -4.400  -0.039  0.00  0.00     0.032 A 
ATOM     13  C   UNL d   1       4.749  -3.451   0.513  0.00  0.00     0.017 A 
ATOM     14  C   UNL d   1       6.128  -3.664   0.481  0.00  0.00     0.001 A 
ATOM     15  C   UNL d   1       6.643  -4.826  -0.093  0.00  0.00     0.000 A 
ATOM     16  C   UNL d   1       5.781  -5.780  -0.632  0.00  0.00     0.001 A 
ATOM     17  C   UNL d   1       4.400  -5.572  -0.602  0.00  0.00     0.017 A 
ENDBRANCH   1  12
TORSDOF 3
