REMARK  3 active torsions:
REMARK  status: ('A' for Active; 'I' for Inactive)
REMARK       I    between atoms: N_2  and  C_1 
REMARK    1  A    between atoms: O_3  and  C_1 
REMARK    2  A    between atoms: C_6  and  N_2 
REMARK    3  A    between atoms: C_8  and  O_3 
ROOT
ATOM      1  C   UNL d   1       1.019  -0.066   0.146  0.00  0.00     0.365 C 
ATOM      2  N   UNL d   1       0.511  -0.465  -1.062  0.00  0.00    -0.303 N 
ATOM      3  O   UNL d   1       2.159  -0.216   0.556  0.00  0.00    -0.238 OA
ATOM      4  H   UNL d   1      -0.427  -0.138  -1.250  0.00  0.00     0.171 HD
ENDROOT
BRANCH   2   5
ATOM      5  C   UNL d   1       1.190  -1.178  -2.069  0.00  0.00     0.036 A 
ATOM      6  C   UNL d   1       2.433  -1.789  -1.867  0.00  0.00     0.031 A 
ATOM      7  C   UNL d   1       3.074  -2.466  -2.908  0.00  0.00     0.026 A 
ATOM      8  C   UNL d   1       2.475  -2.536  -4.161  0.00  0.00     0.034 A 
ATOM      9  C   UNL d   1       1.232  -1.947  -4.376  0.00  0.00     0.026 A 
ATOM     10 CL   UNL d   1       3.278  -3.349  -5.446  0.00  0.00    -0.084 Cl
ATOM     11  C   UNL d   1       0.585  -1.278  -3.329  0.00  0.00     0.031 A 
ENDBRANCH   2   5
BRANCH   1  12
ATOM     12  O   UNL d   1       0.047   0.577   0.854  0.00  0.00    -0.298 OA
BRANCH  12  13
ATOM     13  C   UNL d   1       0.488   1.111   2.121  0.00  0.00     0.143 C 
ATOM     14  C   UNL d   1       0.599   0.017   3.183  0.00  0.00     0.043 C 
ATOM     15  C   UNL d   1      -0.817  -0.397   3.544  0.00  0.00     0.076 C 
ATOM     16  S   UNL d   1      -1.756   1.150   3.594  0.00  0.00    -0.166 SA
ATOM     17  C   UNL d   1      -0.541   2.113   2.641  0.00  0.00     0.106 C 
ENDBRANCH  12  13
ENDBRANCH   1  12
TORSDOF 3
