REMARK  2 active torsions:
REMARK  status: ('A' for Active; 'I' for Inactive)
REMARK    1  A    between atoms: C_7  and  N_1 
REMARK    2  A    between atoms: S_10  and  C_2 
ROOT
ATOM      1  N   UNL d   1       1.006  -0.630  -0.052  0.00  0.00    -0.241 N 
ATOM      2  C   UNL d   1       0.879   0.707   0.177  0.00  0.00     0.167 A 
ATOM      3  C   UNL d   1      -0.293  -1.075  -0.208  0.00  0.00     0.347 A 
ATOM      4  N   UNL d   1      -0.344   1.151   0.219  0.00  0.00    -0.276 N 
ATOM      5  HN  UNL d   1      -0.663   2.105   0.389  1.00  0.00     0.189 HD
ATOM      6  N   UNL d   1      -1.100   0.042  -0.018  0.00  0.00    -0.249 N 
ATOM      7  O   UNL d   1      -0.711  -2.204  -0.421  0.00  0.00    -0.245 OA
ATOM      8  H   UNL d   1      -2.112   0.056  -0.036  0.00  0.00     0.192 HD
ENDROOT
BRANCH   1   9
ATOM      9  C   UNL d   1       2.138  -1.472  -0.044  0.00  0.00     0.049 A 
ATOM     10  C   UNL d   1       2.226  -2.543  -0.944  0.00  0.00     0.072 A 
ATOM     11  C   UNL d   1       3.351  -3.362  -0.947  0.00  0.00     0.118 A 
ATOM     12  F   UNL d   1       3.441  -4.353  -1.843  0.00  0.00    -0.206 F 
ATOM     13  C   UNL d   1       4.388  -3.165  -0.045  0.00  0.00     0.042 A 
ATOM     14  C   UNL d   1       4.299  -2.130   0.880  0.00  0.00     0.005 A 
ATOM     15  C   UNL d   1       3.181  -1.287   0.877  0.00  0.00     0.030 A 
ENDBRANCH   1   9
BRANCH   2  16
ATOM     16  S   UNL d   1       2.221   1.797   0.271  0.00  0.00    -0.105 SA
ATOM     17  H   UNL d   1       3.057   1.090  -0.502  0.00  0.00     0.110 HD
ENDBRANCH   2  16
TORSDOF 2
