REMARK  8 active torsions:
REMARK  status: ('A' for Active; 'I' for Inactive)
REMARK    1  A    between atoms: C_6  and  C_1 
REMARK    2  A    between atoms: C_7  and  C_2 
REMARK    3  A    between atoms: O_11  and  C_3 
REMARK    4  A    between atoms: O_10  and  C_4 
REMARK    5  A    between atoms: O_13  and  C_6 
REMARK    6  A    between atoms: O_12  and  C_7 
REMARK    7  A    between atoms: C_15  and  O_12 
REMARK    8  A    between atoms: C_14  and  O_13 
ROOT
ATOM      1  C   UNL d   1       0.022  -1.113  -0.011  0.00  0.00     0.187 A 
ATOM      2  C   UNL d   1      -0.092   1.116  -0.004  0.00  0.00     0.187 A 
ATOM      3  C   UNL d   1       1.244   0.772  -0.003  0.00  0.00     0.142 A 
ATOM      4  C   UNL d   1       1.316  -0.634  -0.004  0.00  0.00     0.142 A 
ATOM      5  O   UNL d   1      -0.843  -0.040  -0.014  0.00  0.00    -0.292 OA
ENDROOT
BRANCH   1   6
ATOM      6  C   UNL d   1      -0.490  -2.467  -0.008  0.00  0.00     0.320 C 
ATOM      7  O   UNL d   1       0.185  -3.489   0.033  0.00  0.00    -0.257 OA
BRANCH   6   8
ATOM      8  O   UNL d   1      -1.856  -2.461  -0.064  0.00  0.00    -0.316 OA
BRANCH   8   9
ATOM      9  C   UNL d   1      -2.483  -3.753  -0.054  0.00  0.00     0.175 C 
ATOM     10  C   UNL d   1      -2.532  -4.333  -1.456  0.00  0.00     0.034 C 
ENDBRANCH   8   9
ENDBRANCH   6   8
ENDBRANCH   1   6
BRANCH   4  11
ATOM     11  O   UNL d   1       2.406  -1.419   0.002  0.00  0.00    -0.355 OA
ATOM     12  H   UNL d   1       3.226  -0.905   0.045  0.00  0.00     0.218 HD
ENDBRANCH   4  11
BRANCH   3  13
ATOM     13  O   UNL d   1       2.248   1.664  -0.004  0.00  0.00    -0.355 OA
ATOM     14  H   UNL d   1       3.117   1.236  -0.045  0.00  0.00     0.218 HD
ENDBRANCH   3  13
BRANCH   2  15
ATOM     15  C   UNL d   1      -0.740   2.410   0.002  0.00  0.00     0.320 C 
ATOM     16  O   UNL d   1      -0.173   3.495   0.045  0.00  0.00    -0.257 OA
BRANCH  15  17
ATOM     17  O   UNL d   1      -2.098   2.265  -0.055  0.00  0.00    -0.316 OA
BRANCH  17  18
ATOM     18  C   UNL d   1      -2.853   3.486  -0.047  0.00  0.00     0.175 C 
ATOM     19  C   UNL d   1      -2.958   4.057  -1.450  0.00  0.00     0.034 C 
ENDBRANCH  17  18
ENDBRANCH  15  17
ENDBRANCH   2  15
TORSDOF 8
