REMARK  6 active torsions:
REMARK  status: ('A' for Active; 'I' for Inactive)
REMARK    1  A    between atoms: S_12  and  C_3 
REMARK    2  A    between atoms: N_15  and  C_4 
REMARK    3  A    between atoms: C_10  and  C_18 
REMARK       I    between atoms: N_11  and  C_10 
REMARK    4  A    between atoms: C_19  and  N_11 
REMARK    5  A    between atoms: C_18  and  S_12 
REMARK    6  A    between atoms: C_20  and  C_13 
ROOT
ATOM      1  C   UNL d   1       2.165  -7.535  -0.888  0.00  0.00     0.185 C 
ENDROOT
BRANCH   1   2
ATOM      2  C   UNL d   1       3.288  -6.505  -0.892  0.00  0.00     0.231 C 
ATOM      3  N   UNL d   1       3.081  -5.403  -0.075  0.00  0.00    -0.327 N 
ATOM      4  H   UNL d   1       2.242  -5.409   0.494  0.00  0.00     0.169 HD
ATOM      5  O   UNL d   1       4.310  -6.732  -1.539  0.00  0.00    -0.272 OA
BRANCH   3   6
ATOM      6  C   UNL d   1       3.876  -4.237  -0.012  0.00  0.00     0.034 A 
ATOM      7  C   UNL d   1       4.956  -3.999  -0.860  0.00  0.00     0.030 A 
ATOM      8  C   UNL d   1       5.662  -2.796  -0.801  0.00  0.00     0.010 A 
ATOM      9  C   UNL d   1       5.312  -1.792   0.113  0.00  0.00    -0.055 A 
ATOM     10  C   UNL d   1       4.246  -2.044   0.986  0.00  0.00     0.010 A 
ATOM     11  C   UNL d   1       3.532  -3.250   0.921  0.00  0.00     0.030 A 
BRANCH   9  12
ATOM     12  C   UNL d   1       6.032  -0.457   0.124  0.00  0.00     0.010 C 
ATOM     13  C   UNL d   1       7.532  -0.605   0.395  0.00  0.00     0.015 C 
ATOM     14  C   UNL d   1       5.798   0.294  -1.192  0.00  0.00     0.015 C 
ENDBRANCH   9  12
ENDBRANCH   3   6
ENDBRANCH   1   2
BRANCH   1  15
ATOM     15  S   UNL d   1       0.497  -6.808  -0.857  0.00  0.00    -0.084 SA
BRANCH  15  16
ATOM     16  C   UNL d   1       0.605  -5.756  -2.288  0.00  0.00     0.147 A 
ATOM     17  N   UNL d   1       1.451  -6.095  -3.255  0.00  0.00    -0.313 N 
ATOM     18  C   UNL d   1       1.579  -5.205  -4.224  0.00  0.00     0.157 A 
ATOM     19  HN  UNL d   1       1.963  -6.977  -3.250  1.00  0.00     0.170 HD
ATOM     20  N   UNL d   1       0.931  -4.052  -4.286  0.00  0.00    -0.329 N 
ATOM     21  C   UNL d   1       0.086  -3.837  -3.284  0.00  0.00     0.184 A 
ATOM     22  HN  UNL d   1       1.070  -3.382  -5.042  1.00  0.00     0.169 HD
ATOM     23  N   UNL d   1      -0.119  -4.643  -2.250  0.00  0.00    -0.333 N 
ATOM     24  HN  UNL d   1      -0.771  -4.427  -1.495  1.00  0.00     0.168 HD
BRANCH  18  25
ATOM     25  N   UNL d   1       2.515  -5.470  -5.204  0.00  0.00    -0.274 NA
ATOM     26  H   UNL d   1       3.198  -6.129  -4.851  0.00  0.00     0.127 HD
ATOM     27  H   UNL d   1       2.881  -4.601  -5.569  0.00  0.00     0.127 HD
ENDBRANCH  18  25
ENDBRANCH  15  16
ENDBRANCH   1  15
TORSDOF 6
