REMARK  7 active torsions:
REMARK  status: ('A' for Active; 'I' for Inactive)
REMARK    1  A    between atoms: S_3  and  C_1 
REMARK    2  A    between atoms: N_10  and  C_2 
REMARK    3  A    between atoms: C_22  and  S_3 
REMARK    4  A    between atoms: C_9  and  C_4 
REMARK    5  A    between atoms: S_5  and  N_11 
REMARK    6  A    between atoms: C_7  and  S_5 
REMARK       I    between atoms: N_12  and  C_9 
REMARK    7  A    between atoms: N_11  and  N_12 
ROOT
ATOM      1  C   UNL d   1      -0.349   2.699  -0.286  0.00  0.00     0.279 C 
ATOM      2  N   UNL d   1      -1.511   3.206   0.267  0.00  0.00    -0.256 N 
ATOM      3  O   UNL d   1       0.239   3.455  -1.069  0.00  0.00    -0.265 OA
ATOM      4  H   UNL d   1      -1.810   4.091  -0.134  0.00  0.00     0.191 HD
ENDROOT
BRANCH   1   5
ATOM      5  C   UNL d   1       0.133   1.344  -0.008  0.00  0.00     0.102 A 
ATOM      6  C   UNL d   1       1.450   0.852  -0.033  0.00  0.00     0.083 A 
ATOM      7  C   UNL d   1       1.463  -0.605  -0.020  0.00  0.00     0.094 A 
ATOM      8  C   UNL d   1       0.182  -1.119   0.035  0.00  0.00     0.076 A 
ATOM      9  S   UNL d   1      -1.015   0.073   0.091  0.00  0.00    -0.092 SA
BRANCH   6  10
ATOM     10  N   UNL d   1       2.595   1.732  -0.082  0.00  0.00    -0.330 N 
ATOM     11  C   UNL d   1       2.683   2.979   0.518  0.00  0.00     0.097 A 
ATOM     12  C   UNL d   1       3.938   3.508   0.317  0.00  0.00     0.019 A 
ATOM     13  C   UNL d   1       4.663   2.570  -0.437  0.00  0.00     0.019 A 
ATOM     14  C   UNL d   1       3.811   1.515  -0.695  0.00  0.00     0.097 A 
ENDBRANCH   6  10
BRANCH   7  15
ATOM     15  S   UNL d   1       2.810  -1.731  -0.027  0.00  0.00     0.181 S 
ATOM     16  O   UNL d   1       2.200  -3.020   0.246  0.00  0.00    -0.222 OA
ATOM     17  O   UNL d   1       3.470  -1.491  -1.289  0.00  0.00    -0.222 OA
BRANCH  15  18
ATOM     18  C   UNL d   1       3.876  -1.321   1.358  0.00  0.00     0.105 C 
ATOM     19  C   UNL d   1       3.163  -1.522   2.691  0.00  0.00     0.026 C 
ATOM     20  C   UNL d   1       5.134  -2.192   1.307  0.00  0.00     0.026 C 
ENDBRANCH  15  18
ENDBRANCH   7  15
ENDBRANCH   1   5
BRANCH   2  21
ATOM     21  N   UNL d   1      -2.377   2.596   1.246  0.00  0.00    -0.220 N 
ATOM     22  H   UNL d   1      -2.183   1.687   1.677  0.00  0.00     0.200 HD
BRANCH  21  23
ATOM     23  S   UNL d   1      -3.995   3.102   1.336  0.00  0.00     0.279 S 
ATOM     24  O   UNL d   1      -4.478   3.180  -0.029  0.00  0.00    -0.199 OA
ATOM     25  O   UNL d   1      -4.665   2.295   2.329  0.00  0.00    -0.199 OA
BRANCH  23  26
ATOM     26  C   UNL d   1      -3.867   4.750   1.944  0.00  0.00     0.119 A 
ATOM     27  C   UNL d   1      -3.307   4.977   3.195  0.00  0.00     0.142 A 
ATOM     28  C   UNL d   1      -3.171   6.276   3.675  0.00  0.00     0.086 A 
ATOM     29  F   UNL d   1      -2.866   3.963   3.950  0.00  0.00    -0.204 F 
ATOM     30  C   UNL d   1      -3.601   7.340   2.890  0.00  0.00     0.119 A 
ATOM     31  C   UNL d   1      -4.169   7.126   1.637  0.00  0.00     0.044 A 
ATOM     32  F   UNL d   1      -3.461   8.591   3.342  0.00  0.00    -0.206 F 
ATOM     33  C   UNL d   1      -4.308   5.823   1.158  0.00  0.00     0.031 A 
ENDBRANCH  23  26
ENDBRANCH  21  23
ENDBRANCH   2  21
TORSDOF 7
