REMARK  4 active torsions:
REMARK  status: ('A' for Active; 'I' for Inactive)
REMARK    1  A    between atoms: C_3  and  C_1 
REMARK    2  A    between atoms: O_14  and  C_1 
REMARK    3  A    between atoms: N_2  and  C_9 
REMARK    4  A    between atoms: C_10  and  C_8 
ROOT
ATOM      1  C   UNL d   1      -1.258  -0.016  -0.141  0.00  0.00     0.233 C 
ATOM      2  N   UNL d   1      -0.306   1.060   0.171  0.00  0.00    -0.198 NA
ATOM      3  N   UNL d   1       0.984   0.678  -0.001  0.00  0.00    -0.322 N 
ATOM      4  HN  UNL d   1       1.797   1.288  -0.089  1.00  0.00     0.180 HD
ATOM      5  C   UNL d   1      -0.388  -1.238   0.135  0.00  0.00     0.124 C 
ATOM      6  C   UNL d   1       0.976  -0.621  -0.032  0.00  0.00     0.035 C 
ATOM      7  H   UNL d   1      -0.519   1.928  -0.318  0.00  0.00     0.150 HD
ENDROOT
BRANCH   6   8
ATOM      8  C   UNL d   1       2.200  -1.440  -0.202  0.00  0.00    -0.010 A 
ATOM      9  C   UNL d   1       3.443  -0.795  -0.277  0.00  0.00     0.049 A 
ATOM     10  C   UNL d   1       4.605  -1.554  -0.458  0.00  0.00     0.103 A 
ATOM     11  C   UNL d   1       4.542  -2.949  -0.569  0.00  0.00     0.036 A 
ATOM     12  C   UNL d   1       3.303  -3.587  -0.491  0.00  0.00     0.003 A 
ATOM     13  C   UNL d   1       2.138  -2.838  -0.304  0.00  0.00     0.013 A 
BRANCH  10  14
ATOM     14  N   UNL d   1       5.911  -0.885  -0.535  0.00  0.00    -0.116 N 
ATOM     15  O   UNL d   1       5.936   0.349  -0.416  0.00  0.00    -0.532 OA
ATOM     16  O   UNL d   1       6.911  -1.593  -0.715  0.00  0.00    -0.532 OA
ENDBRANCH  10  14
ENDBRANCH   6   8
BRANCH   1  17
ATOM     17  C   UNL d   1      -2.551  -0.031   0.722  0.00  0.00     0.434 C 
ATOM     18  F   UNL d   1      -2.341   0.345   2.002  0.00  0.00    -0.166 F 
ATOM     19  F   UNL d   1      -3.470   0.819   0.192  0.00  0.00    -0.166 F 
ATOM     20  F   UNL d   1      -3.116  -1.262   0.749  0.00  0.00    -0.166 F 
ENDBRANCH   1  17
BRANCH   1  21
ATOM     21  O   UNL d   1      -1.553   0.010  -1.545  0.00  0.00    -0.366 OA
ATOM     22  H   UNL d   1      -2.195   0.732  -1.677  0.00  0.00     0.212 HD
ENDBRANCH   1  21
TORSDOF 4
