REMARK  8 active torsions:
REMARK  status: ('A' for Active; 'I' for Inactive)
REMARK    1  A    between atoms: C_3  and  S_1 
REMARK    2  A    between atoms: O_4  and  S_1 
REMARK    3  A    between atoms: S_2  and  C_3 
REMARK    4  A    between atoms: O_5  and  S_2 
REMARK    5  A    between atoms: C_20  and  O_4 
REMARK    6  A    between atoms: C_21  and  O_5 
REMARK    7  A    between atoms: C_10  and  C_13 
REMARK    8  A    between atoms: C_11  and  C_12 
ROOT
ATOM      1  C   UNL d   1       0.562  -0.824  -1.595  0.00  0.00     0.341 C 
ENDROOT
BRANCH   1   2
ATOM      2  S   UNL d   1       0.955   0.194  -2.961  0.00  0.00     0.285 S 
ATOM      3  O   UNL d   1       0.089   1.356  -2.935  0.00  0.00    -0.197 OA
ATOM      4  O   UNL d   1       2.393   0.309  -3.089  0.00  0.00    -0.197 OA
BRANCH   2   5
ATOM      5  O   UNL d   1       0.427  -0.797  -4.161  0.00  0.00    -0.232 OA
BRANCH   5   6
ATOM      6  C   UNL d   1       0.594  -0.423  -5.480  0.00  0.00     0.089 A 
ATOM      7  C   UNL d   1       0.662  -1.440  -6.436  0.00  0.00     0.039 A 
ATOM      8  C   UNL d   1       0.872  -1.121  -7.787  0.00  0.00     0.018 A 
ATOM      9  C   UNL d   1       0.993   0.216  -8.196  0.00  0.00     0.009 A 
ATOM     10  C   UNL d   1       0.911   1.226  -7.238  0.00  0.00     0.018 A 
ATOM     11  C   UNL d   1       0.698   0.908  -5.897  0.00  0.00     0.039 A 
BRANCH   9  12
ATOM     12  C   UNL d   1       1.229   0.524  -9.631  0.00  0.00     0.155 C 
ATOM     13  O   UNL d   1       1.765  -0.319 -10.347  0.00  0.00    -0.293 OA
ATOM     14  C   UNL d   1       0.790   1.856 -10.192  0.00  0.00     0.096 C 
ENDBRANCH   9  12
ENDBRANCH   5   6
ENDBRANCH   2   5
ENDBRANCH   1   2
BRANCH   1  15
ATOM     15  S   UNL d   1       0.973   0.006  -0.094  0.00  0.00     0.285 S 
ATOM     16  O   UNL d   1       2.364   0.396  -0.101  0.00  0.00    -0.197 OA
ATOM     17  O   UNL d   1       0.446  -0.812   0.986  0.00  0.00    -0.197 OA
BRANCH  15  18
ATOM     18  O   UNL d   1       0.019   1.314  -0.258  0.00  0.00    -0.232 OA
BRANCH  18  19
ATOM     19  C   UNL d   1       0.068   2.382   0.600  0.00  0.00     0.089 A 
ATOM     20  C   UNL d   1      -0.239   3.623   0.035  0.00  0.00     0.039 A 
ATOM     21  C   UNL d   1      -0.322   4.763   0.837  0.00  0.00     0.018 A 
ATOM     22  C   UNL d   1      -0.122   4.668   2.218  0.00  0.00     0.009 A 
ATOM     23  C   UNL d   1       0.217   3.432   2.779  0.00  0.00     0.018 A 
ATOM     24  C   UNL d   1       0.309   2.289   1.970  0.00  0.00     0.039 A 
BRANCH  22  25
ATOM     25  C   UNL d   1      -0.296   5.902   3.035  0.00  0.00     0.155 C 
ATOM     26  O   UNL d   1      -0.073   6.999   2.528  0.00  0.00    -0.293 OA
ATOM     27  C   UNL d   1      -0.811   5.793   4.449  0.00  0.00     0.096 C 
ENDBRANCH  22  25
ENDBRANCH  18  19
ENDBRANCH  15  18
ENDBRANCH   1  15
TORSDOF 8
