REMARK  1 active torsions:
REMARK  status: ('A' for Active; 'I' for Inactive)
REMARK    1  A    between atoms: N_3  and  C_2 
ROOT
ATOM      1  C   UNL d   1       2.205   0.798  -0.699  0.00  0.00     0.092 A 
ATOM      2  C   UNL d   1       1.175   1.577  -0.107  0.00  0.00     0.052 A 
ATOM      3  C   UNL d   1       3.532   1.340  -0.839  0.00  0.00     0.103 C 
ATOM      4  N   UNL d   1       4.595   1.788  -0.971  0.00  0.00    -0.191 NA
ATOM      5  C   UNL d   1       1.943  -0.518  -1.113  0.00  0.00     0.057 A 
ATOM      6 CL   UNL d   1       3.147  -1.506  -1.869  0.00  0.00    -0.083 Cl
ATOM      7  C   UNL d   1      -0.080   0.971   0.083  0.00  0.00     0.031 A 
ATOM      8  C   UNL d   1      -0.326  -0.344  -0.317  0.00  0.00     0.004 A 
ATOM      9  C   UNL d   1       0.681  -1.084  -0.924  0.00  0.00     0.025 A 
ENDROOT
BRANCH   2  10
ATOM     10  N   UNL d   1       1.413   2.907   0.291  0.00  0.00    -0.378 N 
ATOM     11  C   UNL d   1       0.639   3.441   1.432  0.00  0.00     0.133 C 
ATOM     12  C   UNL d   1       1.402   4.588   2.102  0.00  0.00     0.093 C 
ATOM     13  S   UNL d   1       1.631   6.004   0.972  0.00  0.00    -0.166 SA
ATOM     14  C   UNL d   1       2.361   5.088  -0.432  0.00  0.00     0.093 C 
ATOM     15  C   UNL d   1       1.527   3.866  -0.837  0.00  0.00     0.133 C 
ENDBRANCH   2  10
TORSDOF 1
