REMARK  5 active torsions:
REMARK  status: ('A' for Active; 'I' for Inactive)
REMARK    1  A    between atoms: C_4  and  C_1 
REMARK       I    between atoms: N_10  and  C_4 
REMARK    2  A    between atoms: C_12  and  C_5 
REMARK    3  A    between atoms: C_6  and  C_11 
REMARK    4  A    between atoms: C_7  and  C_12 
REMARK    5  A    between atoms: C_16  and  N_10 
ROOT
ATOM      1  C   UNL d   1       1.173   0.809  -0.166  0.00  0.00     0.108 A 
ATOM      2  N   UNL d   1       1.357  -0.522   0.222  0.00  0.00    -0.349 N 
ATOM      3  HN  UNL d   1       2.193  -0.893   0.673  1.00  0.00     0.166 HD
ATOM      4  C   UNL d   1       0.279  -1.227  -0.084  0.00  0.00     0.055 A 
ATOM      5  C   UNL d   1      -0.059   1.076  -0.736  0.00  0.00     0.086 A 
ATOM      6  S   UNL d   1      -1.000  -0.336  -0.822  0.00  0.00    -0.086 SA
ENDROOT
BRANCH   1   7
ATOM      7  C   UNL d   1       2.197   1.851  -0.023  0.00  0.00     0.273 C 
ATOM      8  N   UNL d   1       3.352   1.432   0.610  0.00  0.00    -0.322 N 
ATOM      9  H   UNL d   1       3.358   0.454   0.888  0.00  0.00     0.169 HD
ATOM     10  O   UNL d   1       1.990   2.977  -0.469  0.00  0.00    -0.266 OA
BRANCH   8  11
ATOM     11  C   UNL d   1       4.523   2.199   0.813  0.00  0.00     0.035 A 
ATOM     12  C   UNL d   1       4.622   3.553   0.473  0.00  0.00     0.045 A 
ATOM     13  C   UNL d   1       5.827   4.264   0.616  0.00  0.00     0.050 A 
ATOM     14  C   UNL d   1       6.944   3.600   1.134  0.00  0.00     0.016 A 
ATOM     15  C   UNL d   1       6.850   2.260   1.511  0.00  0.00     0.003 A 
ATOM     16  C   UNL d   1       5.645   1.564   1.353  0.00  0.00     0.029 A 
BRANCH  13  17
ATOM     17  C   UNL d   1       5.921   5.707   0.184  0.00  0.00     0.417 C 
ATOM     18  F   UNL d   1       4.734   6.247  -0.211  0.00  0.00    -0.166 F 
ATOM     19  F   UNL d   1       6.384   6.520   1.175  0.00  0.00    -0.166 F 
ATOM     20  F   UNL d   1       6.773   5.878  -0.865  0.00  0.00    -0.166 F 
ENDBRANCH  13  17
ENDBRANCH   8  11
ENDBRANCH   1   7
BRANCH   4  21
ATOM     21  C   UNL d   1       0.126  -2.714   0.091  0.00  0.00     0.107 C 
BRANCH  21  22
ATOM     22  C   UNL d   1      -0.231  -3.136   1.502  0.00  0.00    -0.009 A 
ATOM     23  C   UNL d   1      -1.572  -3.233   1.928  0.00  0.00     0.042 A 
ATOM     24 CL   UNL d   1      -2.907  -2.897   0.880  0.00  0.00    -0.084 Cl
ATOM     25  C   UNL d   1      -1.895  -3.634   3.231  0.00  0.00     0.024 A 
ATOM     26  C   UNL d   1      -0.890  -3.954   4.136  0.00  0.00     0.003 A 
ATOM     27  C   UNL d   1       0.440  -3.862   3.741  0.00  0.00     0.024 A 
ATOM     28  C   UNL d   1       0.769  -3.450   2.443  0.00  0.00     0.042 A 
ATOM     29 CL   UNL d   1       2.455  -3.368   2.062  0.00  0.00    -0.084 Cl
ENDBRANCH  21  22
ENDBRANCH   4  21
TORSDOF 5
