REMARK  3 active torsions:
REMARK  status: ('A' for Active; 'I' for Inactive)
REMARK    1  A    between atoms: C_5  and  N_1 
REMARK    2  A    between atoms: C_6  and  C_2 
REMARK    3  A    between atoms: C_7  and  C_3 
REMARK       I    between atoms: N_14  and  C_6 
REMARK       I    between atoms: N_15  and  C_7 
ROOT
ATOM      1  C   UNL d   1       0.054  -2.815  -2.442  0.00  0.00     0.049 A 
ATOM      2  C   UNL d   1      -1.184  -2.321  -2.907  0.00  0.00     0.047 A 
ATOM      3  C   UNL d   1       0.801  -2.060  -1.508  0.00  0.00     0.054 A 
ATOM      4  C   UNL d   1       0.332  -0.823  -1.047  0.00  0.00     0.103 A 
ATOM      5  C   UNL d   1      -1.606  -1.047  -2.450  0.00  0.00     0.020 A 
ATOM      6  C   UNL d   1      -0.863  -0.300  -1.532  0.00  0.00     0.037 A 
ENDROOT
BRANCH   1   7
ATOM      7  C   UNL d   1       0.695  -4.055  -2.954  0.00  0.00     0.250 C 
ATOM      8  O   UNL d   1       0.560  -4.420  -4.117  0.00  0.00    -0.268 OA
ATOM      9  N   UNL d   1       1.476  -4.781  -2.100  0.00  0.00    -0.366 N 
ATOM     10  H   UNL d   1       1.592  -4.596  -1.113  0.00  0.00     0.159 HD
ATOM     11  H   UNL d   1       1.914  -5.617  -2.471  0.00  0.00     0.159 HD
ENDBRANCH   1   7
BRANCH   2  12
ATOM     12  C   UNL d   1      -2.188  -3.006  -3.787  0.00  0.00     0.250 C 
ATOM     13  O   UNL d   1      -3.224  -2.433  -4.118  0.00  0.00    -0.268 OA
ATOM     14  N   UNL d   1      -2.001  -4.290  -4.201  0.00  0.00    -0.366 N 
ATOM     15  H   UNL d   1      -1.058  -4.655  -4.329  0.00  0.00     0.159 HD
ATOM     16  H   UNL d   1      -2.675  -4.620  -4.880  0.00  0.00     0.159 HD
ENDBRANCH   2  12
BRANCH   4  17
ATOM     17  N   UNL d   1       1.103  -0.077  -0.045  0.00  0.00    -0.116 N 
ATOM     18  O   UNL d   1       2.114  -0.623   0.419  0.00  0.00    -0.532 OA
ATOM     19  O   UNL d   1       0.691   1.043   0.285  0.00  0.00    -0.532 OA
ENDBRANCH   4  17
TORSDOF 3
