REMARK  7 active torsions:
REMARK  status: ('A' for Active; 'I' for Inactive)
REMARK       I    between atoms: N_6  and  C_1 
REMARK       I    between atoms: N_9  and  C_1 
REMARK       I    between atoms: C_2  and  N_4 
REMARK    1  A    between atoms: C_5  and  C_2 
REMARK    2  A    between atoms: C_3  and  C_10 
REMARK    3  A    between atoms: N_4  and  N_6 
REMARK    4  A    between atoms: C_22  and  N_9 
REMARK    5  A    between atoms: O_16  and  C_19 
REMARK    6  A    between atoms: C_17  and  O_16 
REMARK    7  A    between atoms: C_19  and  C_18 
ROOT
ATOM      1  C   UNL d   1      -1.176  -1.985   3.350  0.00  0.00     0.034 A 
ATOM      2  C   UNL d   1      -1.882  -2.427   2.221  0.00  0.00     0.026 A 
ATOM      3  C   UNL d   1      -3.289  -2.493   2.229  0.00  0.00    -0.033 A 
ATOM      4  C   UNL d   1      -1.893  -1.640   4.510  0.00  0.00     0.017 A 
ATOM      5  C   UNL d   1      -3.287  -1.751   4.542  0.00  0.00     0.002 A 
ATOM      6  C   UNL d   1      -3.980  -2.175   3.408  0.00  0.00     0.009 A 
ENDROOT
BRANCH   1   7
ATOM      7  C   UNL d   1       0.305  -1.791   3.343  0.00  0.00     0.270 C 
ATOM      8  N   UNL d   1       1.042  -2.675   2.565  0.00  0.00    -0.262 N 
ATOM      9  H   UNL d   1       0.666  -3.544   2.194  0.00  0.00     0.190 HD
ATOM     10  O   UNL d   1       0.825  -0.900   4.004  0.00  0.00    -0.266 OA
BRANCH   8  11
ATOM     11  N   UNL d   1       2.449  -2.553   2.557  0.00  0.00    -0.249 N 
ATOM     12  C   UNL d   1       3.191  -3.363   1.716  0.00  0.00     0.335 C 
ATOM     13  N   UNL d   1       4.534  -3.064   1.742  0.00  0.00    -0.338 N 
ATOM     14  O   UNL d   1       2.695  -4.258   1.040  0.00  0.00    -0.246 OA
ATOM     15  H   UNL d   1       4.850  -2.432   2.461  0.00  0.00     0.164 HD
ATOM     16  H   UNL d   1       2.816  -1.690   2.944  0.00  0.00     0.192 HD
BRANCH  13  17
ATOM     17  C   UNL d   1       5.549  -3.843   1.029  0.00  0.00     0.078 C 
ATOM     18  C   UNL d   1       6.758  -2.964   0.710  0.00  0.00     0.032 C 
ATOM     19  C   UNL d   1       6.007  -5.056   1.840  0.00  0.00     0.032 C 
ENDBRANCH  13  17
ENDBRANCH   8  11
ENDBRANCH   1   7
BRANCH   3  20
ATOM     20  C   UNL d   1      -4.060  -2.911   0.996  0.00  0.00     0.214 C 
BRANCH  20  21
ATOM     21  O   UNL d   1      -4.200  -4.328   1.027  0.00  0.00    -0.347 OA
BRANCH  21  22
ATOM     22  C   UNL d   1      -4.802  -4.899  -0.061  0.00  0.00     0.069 A 
ATOM     23  C   UNL d   1      -4.416  -6.214  -0.318  0.00  0.00     0.037 A 
ATOM     24  C   UNL d   1      -4.971  -6.927  -1.384  0.00  0.00     0.012 A 
ATOM     25  C   UNL d   1      -5.944  -6.342  -2.208  0.00  0.00    -0.035 A 
ATOM     26  C   UNL d   1      -6.338  -5.021  -1.929  0.00  0.00     0.012 A 
ATOM     27  C   UNL d   1      -5.772  -4.304  -0.865  0.00  0.00     0.037 A 
BRANCH  25  28
ATOM     28  C   UNL d   1      -6.547  -7.146  -3.343  0.00  0.00     0.141 C 
ATOM     29  S   UNL d   1      -6.292  -6.361  -4.969  0.00  0.00    -0.148 SA
ATOM     30  C   UNL d   1      -7.929  -6.736  -5.638  0.00  0.00     0.085 C 
ATOM     31  C   UNL d   1      -8.932  -6.562  -4.516  0.00  0.00     0.085 C 
ATOM     32  S   UNL d   1      -8.323  -7.483  -3.082  0.00  0.00    -0.148 SA
ENDBRANCH  25  28
ENDBRANCH  21  22
ENDBRANCH  20  21
ENDBRANCH   3  20
TORSDOF 7
