REMARK  21 active torsions:
REMARK  status: ('A' for Active; 'I' for Inactive)
REMARK    1  A    between atoms: N_2  and  C_1 
REMARK    2  A    between atoms: C_7  and  C_1 
REMARK    3  A    between atoms: C_9  and  C_1 
REMARK       I    between atoms: C_3  and  N_2 
REMARK    4  A    between atoms: C_4  and  C_3 
REMARK    5  A    between atoms: N_6  and  C_4 
REMARK    6  A    between atoms: C_13  and  C_4 
REMARK       I    between atoms: C_5  and  N_6 
REMARK    7  A    between atoms: C_10  and  C_5 
REMARK    8  A    between atoms: O_25  and  C_7 
REMARK       I    between atoms: C10_45  and  N_8 
REMARK    9  A    between atoms: N_8  and  C_10 
REMARK   10  A    between atoms: O_11  and  C_9 
REMARK   11  A    between atoms: C_23  and  C_10 
REMARK   12  A    between atoms: C_19  and  O_11 
REMARK   13  A    between atoms: C_12  and  C_24 
REMARK   14  A    between atoms: O_17  and  C_12 
REMARK   15  A    between atoms: S_16  and  C_13 
REMARK   16  A    between atoms: C_21  and  S_16 
REMARK   17  A    between atoms: C_22  and  O_17 
REMARK   18  A    between atoms: C_24  and  C_23 
REMARK   19  A    between atoms: C2_40  and  C13_46 
REMARK   20  A    between atoms: O2_47  and  C10_45 
REMARK   21  A    between atoms: C13_46  and  O2_47 
ROOT
ATOM      1  C   UNK d   1       0.990  -5.500   1.869  0.00  0.00     0.179 C 
ENDROOT
BRANCH   1   2
ATOM      2  N   UNK d   1       1.535  -6.804   2.206  0.00  0.00    -0.324 N 
ATOM      3  C10 <1> d   1       0.738  -7.900   2.350  0.00  0.00     0.361 C 
ATOM      4  O6  <1> d   1      -0.439  -7.979   2.061  0.00  0.00    -0.239 OA
ATOM      5  H   UNK d   1       2.404  -6.872   2.733  0.00  0.00     0.165 HD
BRANCH   3   6
ATOM      6  O2  <1> d   1       1.484  -8.873   2.906  0.00  0.00    -0.303 OA
BRANCH   6   7
ATOM      7  C13 <1> d   1       0.811 -10.085   3.269  0.00  0.00     0.194 C 
BRANCH   7   8
ATOM      8  C2  <1> d   1       0.372 -10.966   2.085  0.00  0.00     0.078 C 
ATOM      9  C6  <1> d   1       1.544 -11.302   1.170  0.00  0.00    -0.036 A 
ATOM     10  C4  <1> d   1       1.903 -12.659   1.313  0.00  0.00    -0.018 A 
ATOM     11  C25 <1> d   1       2.245 -10.449   0.331  0.00  0.00     0.009 A 
ATOM     12  C22 <1> d   1       3.018 -13.155   0.661  0.00  0.00     0.013 A 
ATOM     13  C5  <1> d   1       0.966 -13.298   2.215  0.00  0.00    -0.018 A 
ATOM     14  C39 <1> d   1       3.764 -12.284  -0.143  0.00  0.00     0.001 A 
ATOM     15  C36 <1> d   1       3.373 -10.947  -0.317  0.00  0.00     0.001 A 
ATOM     16  C7  <1> d   1       0.015 -12.343   2.639  0.00  0.00    -0.036 A 
ATOM     17  C23 <1> d   1       0.921 -14.591   2.706  0.00  0.00     0.013 A 
ATOM     18  C24 <1> d   1      -0.994 -12.666   3.534  0.00  0.00     0.009 A 
ATOM     19  C37 <1> d   1      -1.028 -13.967   4.038  0.00  0.00     0.001 A 
ATOM     20  C38 <1> d   1      -0.077 -14.918   3.631  0.00  0.00     0.001 A 
ENDBRANCH   7   8
ENDBRANCH   6   7
ENDBRANCH   3   6
ENDBRANCH   1   2
BRANCH   1  21
ATOM     21  C   UNK d   1       0.977  -5.244   0.275  0.00  0.00     0.241 C 
ATOM     22  N   UNK d   1       1.893  -5.932  -0.509  0.00  0.00    -0.345 N 
ATOM     23  H   UNK d   1       2.646  -6.380   0.000  0.00  0.00     0.163 HD
ATOM     24  O   UNK d   1       0.204  -4.429  -0.229  0.00  0.00    -0.271 OA
BRANCH  22  25
ATOM     25  C   UNK d   1       1.983  -5.982  -2.032  0.00  0.00     0.185 C 
BRANCH  25  26
ATOM     26  C   UNK d   1       2.985  -4.946  -2.692  0.00  0.00     0.242 C 
ATOM     27  N   UNK d   1       2.941  -4.748  -4.071  0.00  0.00    -0.343 N 
ATOM     28  H   UNK d   1       2.320  -5.340  -4.623  0.00  0.00     0.163 HD
ATOM     29  O   UNK d   1       3.957  -4.519  -2.063  0.00  0.00    -0.271 OA
BRANCH  27  30
ATOM     30  C   UNK d   1       4.020  -4.064  -4.859  0.00  0.00     0.211 C 
BRANCH  30  31
ATOM     31  C   UNK d   1       5.186  -5.028  -5.168  0.00  0.00     0.166 C 
ATOM     32  O   UNK d   1       5.883  -4.997  -6.174  0.00  0.00    -0.648 OA
BRANCH  31  33
ATOM     33  O   UNK d   1       5.511  -5.838  -4.125  0.00  0.00    -0.775 OA
ATOM     34  H   UNK d   1       5.069  -5.553  -3.296  0.00  0.00     0.167 HD
ENDBRANCH  31  33
ENDBRANCH  30  31
BRANCH  30  35
ATOM     35  C   UNK d   1       3.568  -3.299  -6.173  0.00  0.00     0.151 C 
ATOM     36  C   UNK d   1       2.592  -2.196  -5.776  0.00  0.00     0.042 C 
BRANCH  35  37
ATOM     37  O   UNK d   1       2.974  -4.168  -7.152  0.00  0.00    -0.374 OA
BRANCH  37  38
ATOM     38  C   UNK d   1       2.815  -3.741  -8.535  0.00  0.00     0.050 C 
ATOM     39  C   UNK d   1       4.093  -3.196  -9.200  0.00  0.00     0.045 C 
ATOM     40  C   UNK d   1       2.393  -5.025  -9.276  0.00  0.00     0.045 C 
ATOM     41  C   UNK d   1       1.678  -2.724  -8.744  0.00  0.00     0.045 C 
ENDBRANCH  37  38
ENDBRANCH  35  37
ENDBRANCH  30  35
ENDBRANCH  27  30
ENDBRANCH  25  26
BRANCH  25  42
ATOM     42  C   UNK d   1       0.617  -6.109  -2.762  0.00  0.00     0.109 C 
BRANCH  42  43
ATOM     43  S   UNK d   1       0.744  -6.898  -4.473  0.00  0.00    -0.158 SA
BRANCH  43  44
ATOM     44  C   UNK d   1      -1.023  -6.891  -5.079  0.00  0.00    -0.003 C 
ATOM     45  C   UNK d   1      -1.555  -5.455  -5.101  0.00  0.00     0.026 C 
ATOM     46  C   UNK d   1      -1.119  -7.433  -6.526  0.00  0.00     0.026 C 
ATOM     47  C   UNK d   1      -1.860  -7.818  -4.193  0.00  0.00     0.026 C 
ENDBRANCH  43  44
ENDBRANCH  42  43
ENDBRANCH  25  42
ENDBRANCH  22  25
ENDBRANCH   1  21
BRANCH   1  48
ATOM     48  C   UNK d   1       1.696  -4.413   2.719  0.00  0.00     0.044 C 
BRANCH  48  49
ATOM     49  C   UNK d   1       1.376  -4.396   4.245  0.00  0.00     0.113 C 
BRANCH  49  50
ATOM     50  C   UNK d   1       2.003  -5.472   5.120  0.00  0.00     0.259 C 
ATOM     51  O   UNK d   1       2.946  -6.172   4.736  0.00  0.00    -0.265 OA
BRANCH  50  52
ATOM     52  O   UNK d   1       1.496  -5.461   6.402  0.00  0.00    -0.311 OA
BRANCH  52  53
ATOM     53  C   UNK d   1       2.277  -5.880   7.555  0.00  0.00     0.060 C 
ATOM     54  C   UNK d   1       3.372  -4.830   7.787  0.00  0.00     0.045 C 
ATOM     55  C   UNK d   1       1.325  -5.871   8.778  0.00  0.00     0.045 C 
ATOM     56  C   UNK d   1       2.884  -7.287   7.475  0.00  0.00     0.045 C 
ENDBRANCH  52  53
ENDBRANCH  50  52
ENDBRANCH  49  50
ENDBRANCH  48  49
ENDBRANCH   1  48
TORSDOF 21
