REMARK  4 active torsions:
REMARK  status: ('A' for Active; 'I' for Inactive)
REMARK    1  A    between atoms: N_5  and  C_2 
REMARK       I    between atoms: C_3  and  N_4 
REMARK    2  A    between atoms: N_4  and  C_6 
REMARK    3  A    between atoms: C_10  and  N_5 
REMARK    4  A    between atoms: C_11  and  N_5 
ROOT
ATOM      1  C   UNL d   1       1.458  -0.255  -0.079  0.00  0.00     0.058 A 
ATOM      2  C   UNL d   1       0.496  -1.273   0.062  0.00  0.00     0.032 A 
ATOM      3  C   UNL d   1       1.116   1.101  -0.147  0.00  0.00     0.036 A 
ATOM      4  C   UNL d   1      -0.846  -0.867   0.105  0.00  0.00     0.029 A 
ATOM      5  C   UNL d   1      -1.211   0.479   0.027  0.00  0.00     0.004 A 
ATOM      6  C   UNL d   1      -0.232   1.461  -0.091  0.00  0.00     0.029 A 
ENDROOT
BRANCH   2   7
ATOM      7  N   UNL d   1       0.869  -2.608   0.180  0.00  0.00    -0.382 N 
BRANCH   7   8
ATOM      8  C   UNL d   1       1.997  -3.129  -0.601  0.00  0.00     0.118 C 
ATOM      9  C   UNL d   1       3.244  -3.304   0.254  0.00  0.00     0.026 C 
ENDBRANCH   7   8
BRANCH   7  10
ATOM     10  C   UNL d   1       0.049  -3.572   0.920  0.00  0.00     0.118 C 
ATOM     11  C   UNL d   1       0.027  -3.250   2.409  0.00  0.00     0.026 C 
ENDBRANCH   7  10
ENDBRANCH   2   7
BRANCH   3  12
ATOM     12  N   UNL d   1       2.058   2.148  -0.265  0.00  0.00    -0.327 N 
ATOM     13  C   UNL d   1       3.434   2.039  -0.341  0.00  0.00     0.218 C 
ATOM     14  O   UNL d   1       4.099   1.007  -0.308  0.00  0.00    -0.274 OA
ATOM     15  C   UNL d   1       4.125   3.372  -0.485  0.00  0.00     0.117 C 
ATOM     16  H   UNL d   1       1.669   3.081  -0.294  0.00  0.00     0.169 HD
ENDBRANCH   3  12
TORSDOF 4
