REMARK  5 active torsions:
REMARK  status: ('A' for Active; 'I' for Inactive)
REMARK       I    between atoms: N_2  and  C_1 
REMARK    1  A    between atoms: C_4  and  C_1 
REMARK    2  A    between atoms: C_5  and  N_2 
REMARK    3  A    between atoms: S_15  and  C_5 
REMARK    4  A    between atoms: C_7  and  C_16 
REMARK    5  A    between atoms: C_16  and  N_9 
ROOT
ATOM      1  C   UNL d   1      -1.153  -0.268   1.302  0.00  0.00     0.261 C 
ATOM      2  N   UNL d   1       0.219  -0.317   1.309  0.00  0.00    -0.303 N 
ATOM      3  HN  UNL d   1       0.719  -0.299   0.420  1.00  0.00     0.171 HD
ATOM      4  O   UNL d   1      -1.904  -0.888   2.042  0.00  0.00    -0.267 OA
ENDROOT
BRANCH   2   5
ATOM      5  C   UNL d   1       0.899  -0.385   2.410  0.00  0.00     0.142 C 
ATOM      6  N   UNL d   1       2.263  -0.351   2.429  0.00  0.00    -0.366 N 
ATOM      7  H   UNL d   1       2.702  -0.526   3.324  0.00  0.00     0.162 HD
BRANCH   6   8
ATOM      8  C   UNL d   1       3.081  -0.568   1.260  0.00  0.00     0.167 C 
BRANCH   8   9
ATOM      9  C   UNL d   1       4.551  -0.386   1.514  0.00  0.00     0.000 A 
ATOM     10  S   UNL d   1       5.490  -1.689   2.115  0.00  0.00    -0.105 SA
ATOM     11  C   UNL d   1       6.922  -0.754   2.089  0.00  0.00     0.050 A 
ATOM     12  C   UNL d   1       6.692   0.530   1.650  0.00  0.00     0.008 A 
ATOM     13  C   UNL d   1       5.321   0.746   1.327  0.00  0.00     0.017 A 
ENDBRANCH   8   9
ENDBRANCH   6   8
BRANCH   5  14
ATOM     14  S   UNL d   1       0.261  -0.475   4.041  0.00  0.00    -0.099 SA
ATOM     15  C   UNL d   1       0.049  -2.271   4.137  0.00  0.00     0.099 C 
ENDBRANCH   5  14
ENDBRANCH   2   5
BRANCH   1  16
ATOM     16  C   UNL d   1      -1.750   0.549   0.212  0.00  0.00     0.075 A 
ATOM     17  C   UNL d   1      -1.325   1.867  -0.026  0.00  0.00     0.051 A 
ATOM     18 CL   UNL d   1      -0.143   2.686   0.938  0.00  0.00    -0.083 Cl
ATOM     19  C   UNL d   1      -1.899   2.619  -1.062  0.00  0.00     0.025 A 
ATOM     20  C   UNL d   1      -2.910   2.081  -1.852  0.00  0.00     0.003 A 
ATOM     21  C   UNL d   1      -3.351   0.783  -1.611  0.00  0.00     0.025 A 
ATOM     22  C   UNL d   1      -2.774   0.015  -0.589  0.00  0.00     0.051 A 
ATOM     23 CL   UNL d   1      -3.367  -1.605  -0.438  0.00  0.00    -0.083 Cl
ENDBRANCH   1  16
TORSDOF 5
