REMARK  1 active torsions:
REMARK  status: ('A' for Active; 'I' for Inactive)
REMARK    1  A    between atoms: S_13  and  C_6 
ROOT
ATOM      1  C   UNL d   1       0.280   0.778   0.037  0.00  0.00     0.111 A 
ATOM      2  C   UNL d   1       0.171  -0.603   0.011  0.00  0.00     0.137 A 
ATOM      3  N   UNL d   1       1.612   1.149   0.051  0.00  0.00    -0.347 N 
ATOM      4  HN  UNL d   1       1.992   2.095   0.071  1.00  0.00     0.167 HD
ATOM      5  N   UNL d   1       1.455  -1.067   0.008  0.00  0.00    -0.337 N 
ATOM      6  C   UNL d   1      -0.930   1.482   0.046  0.00  0.00     0.101 A 
ATOM      7  N   UNL d   1      -0.947  -1.341  -0.009  0.00  0.00    -0.337 N 
ATOM      8  HN  UNL d   1      -0.967  -2.361  -0.028  1.00  0.00     0.168 HD
ATOM      9  C   UNL d   1       2.285   0.018   0.032  0.00  0.00     0.182 A 
ATOM     10  N   UNL d   1      -2.102   0.793   0.026  0.00  0.00    -0.345 N 
ATOM     11  HN  UNL d   1      -2.998   1.280   0.030  1.00  0.00     0.167 HD
ATOM     12  C   UNL d   1      -2.042  -0.555   0.000  0.00  0.00     0.183 A 
ATOM     13  H   UNL d   1       1.724  -2.039  -0.008  0.00  0.00     0.168 HD
ENDROOT
BRANCH   6  14
ATOM     14  S   UNL d   1      -0.905   3.250   0.086  0.00  0.00    -0.114 SA
ATOM     15  C   UNL d   1      -2.677   3.614   0.086  0.00  0.00     0.097 C 
ENDBRANCH   6  14
TORSDOF 1
