REMARK  6 active torsions:
REMARK  status: ('A' for Active; 'I' for Inactive)
REMARK    1  A    between atoms: C_5  and  C_1 
REMARK    2  A    between atoms: C_2  and  C_4 
REMARK    3  A    between atoms: C_3  and  C_6 
REMARK    4  A    between atoms: O_7  and  C_3 
REMARK    5  A    between atoms: C_9  and  O_7 
REMARK    6  A    between atoms: C_13  and  C_8 
ROOT
ATOM      1  C   UNL d   1       0.931   1.453   1.125  0.00  0.00     0.049 A 
ATOM      2  C   UNL d   1       1.236   3.752   0.348  0.00  0.00     0.049 A 
ATOM      3  C   UNL d   1      -1.002   2.919   0.867  0.00  0.00     0.041 A 
ATOM      4  C   UNL d   1       1.766   2.499   0.693  0.00  0.00     0.032 A 
ATOM      5  C   UNL d   1      -0.455   1.673   1.198  0.00  0.00     0.034 A 
ATOM      6  C   UNL d   1      -0.149   3.950   0.440  0.00  0.00     0.034 A 
ENDROOT
BRANCH   3   7
ATOM      7  C   UNL d   1      -2.464   3.135   1.067  0.00  0.00     0.298 C 
ATOM      8  O   UNL d   1      -3.247   2.261   1.387  0.00  0.00    -0.259 OA
BRANCH   7   9
ATOM      9  O   UNL d   1      -2.727   4.489   0.917  0.00  0.00    -0.274 OA
BRANCH   9  10
ATOM     10  C   UNL d   1      -3.644   5.234   1.701  0.00  0.00     0.093 A 
ATOM     11  C   UNL d   1      -3.674   6.624   1.503  0.00  0.00     0.043 A 
ATOM     12  C   UNL d   1      -4.348   7.433   2.430  0.00  0.00     0.018 A 
ATOM     13  C   UNL d   1      -5.016   6.860   3.512  0.00  0.00     0.001 A 
ATOM     14  C   UNL d   1      -5.030   5.476   3.667  0.00  0.00     0.003 A 
ATOM     15  C   UNL d   1      -4.342   4.660   2.767  0.00  0.00     0.038 A 
BRANCH  11  16
ATOM     16  C   UNL d   1      -2.972   7.319   0.389  0.00  0.00     0.158 C 
ATOM     17  O   UNL d   1      -2.479   8.428   0.590  0.00  0.00    -0.293 OA
ATOM     18  C   UNL d   1      -2.908   6.682  -0.974  0.00  0.00     0.097 C 
ENDBRANCH  11  16
ENDBRANCH   9  10
ENDBRANCH   7   9
ENDBRANCH   3   7
BRANCH   2  19
ATOM     19  C   UNL d   1       2.117   4.897  -0.096  0.00  0.00     0.417 C 
ATOM     20  F   UNL d   1       3.437   4.576  -0.155  0.00  0.00    -0.166 F 
ATOM     21  F   UNL d   1       2.022   5.969   0.734  0.00  0.00    -0.166 F 
ATOM     22  F   UNL d   1       1.780   5.348  -1.336  0.00  0.00    -0.166 F 
ENDBRANCH   2  19
BRANCH   1  23
ATOM     23  C   UNL d   1       1.507   0.112   1.522  0.00  0.00     0.417 C 
ATOM     24  F   UNL d   1       2.868   0.087   1.518  0.00  0.00    -0.166 F 
ATOM     25  F   UNL d   1       1.130  -0.263   2.774  0.00  0.00    -0.166 F 
ATOM     26  F   UNL d   1       1.110  -0.888   0.690  0.00  0.00    -0.166 F 
ENDBRANCH   1  23
TORSDOF 6
