REMARK  2 active torsions:
REMARK  status: ('A' for Active; 'I' for Inactive)
REMARK    1  A    between atoms: C_2  and  N_1 
REMARK       I    between atoms: C_3  and  N_1 
REMARK    2  A    between atoms: C_7  and  C_3 
ROOT
ATOM      1  N   UNL d   1       1.207   0.057   0.132  0.00  0.00    -0.308 N 
ATOM      2  C   UNL d   1       2.575   0.148  -0.001  0.00  0.00     0.257 C 
ATOM      3  O   UNL d   1       3.316   1.013   0.451  0.00  0.00    -0.267 OA
ATOM      4  H   UNL d   1       0.751  -0.805  -0.133  0.00  0.00     0.170 HD
ENDROOT
BRANCH   1   5
ATOM      5  C   UNL d   1       0.375   1.003   0.755  0.00  0.00     0.125 A 
ATOM      6  N   UNL d   1       0.866   2.209   1.095  0.00  0.00    -0.351 N 
ATOM      7  C   UNL d   1       0.037   3.088   1.700  0.00  0.00     0.096 A 
ATOM      8  HN  UNL d   1       1.838   2.453   0.901  1.00  0.00     0.166 HD
ATOM      9  C   UNL d   1      -1.294   2.828   1.994  0.00  0.00    -0.045 A 
ATOM     10  C   UNL d   1      -1.799   1.582   1.625  0.00  0.00     0.031 A 
ATOM     11  C   UNL d   1      -2.140   3.855   2.676  0.00  0.00     0.049 C 
ATOM     12  C   UNL d   1      -0.961   0.662   0.994  0.00  0.00     0.055 A 
ATOM     13 BR   UNL d   1      -1.678  -1.029   0.509  0.00  0.00    -0.047 Br
ENDBRANCH   1   5
BRANCH   2  14
ATOM     14  C   UNL d   1       3.196  -1.000  -0.719  0.00  0.00     0.032 A 
ATOM     15  C   UNL d   1       2.558  -1.625  -1.800  0.00  0.00     0.018 A 
ATOM     16  C   UNL d   1       3.159  -2.720  -2.427  0.00  0.00     0.025 A 
ATOM     17  C   UNL d   1       4.398  -3.182  -1.982  0.00  0.00     0.034 A 
ATOM     18  C   UNL d   1       5.051  -2.550  -0.925  0.00  0.00     0.025 A 
ATOM     19 CL   UNL d   1       5.125  -4.540  -2.747  0.00  0.00    -0.084 Cl
ATOM     20  C   UNL d   1       4.453  -1.455  -0.296  0.00  0.00     0.018 A 
ENDBRANCH   2  14
TORSDOF 2
