REMARK  4 active torsions:
REMARK  status: ('A' for Active; 'I' for Inactive)
REMARK    1  A    between atoms: C_4  and  C_1 
REMARK    2  A    between atoms: N_7  and  N_2 
REMARK    3  A    between atoms: C_9  and  C_4 
REMARK    4  A    between atoms: C_10  and  N_7 
ROOT
ATOM      1  C   UNL d   1       1.137   0.012   0.022  0.00  0.00     0.175 C 
ATOM      2  N   UNL d   1       0.476   0.029  -1.102  0.00  0.00    -0.287 N 
ATOM      3  HN  UNL d   1      -0.542   0.085  -1.094  1.00  0.00     0.188 HD
ATOM      4  C   UNL d   1       2.576  -0.074  -0.012  0.00  0.00     0.123 C 
ATOM      5  N   UNL d   1       3.732  -0.181  -0.098  0.00  0.00    -0.190 NA
ENDROOT
BRANCH   1   6
ATOM      6  C   UNL d   1       0.397   0.092   1.331  0.00  0.00     0.191 C 
ATOM      7  O   UNL d   1       0.975   0.618   2.276  0.00  0.00    -0.290 OA
BRANCH   6   8
ATOM      8  C   UNL d   1      -1.024  -0.452   1.389  0.00  0.00     0.055 C 
ATOM      9  C   UNL d   1      -1.071  -1.936   1.035  0.00  0.00     0.018 C 
ATOM     10  C   UNL d   1      -1.612  -0.240   2.787  0.00  0.00     0.018 C 
ENDBRANCH   6   8
ENDBRANCH   1   6
BRANCH   2  11
ATOM     11  N   UNL d   1       1.148  -0.026  -2.291  0.00  0.00    -0.300 N 
ATOM     12  H   UNL d   1       2.059  -0.485  -2.376  0.00  0.00     0.187 HD
BRANCH  11  13
ATOM     13  C   UNL d   1       0.398  -0.058  -3.487  0.00  0.00     0.048 A 
ATOM     14  C   UNL d   1      -0.992   0.137  -3.504  0.00  0.00     0.034 A 
ATOM     15  C   UNL d   1      -1.701   0.155  -4.707  0.00  0.00     0.044 A 
ATOM     16  C   UNL d   1      -1.017   0.005  -5.906  0.00  0.00     0.116 A 
ATOM     17  C   UNL d   1       0.362  -0.150  -5.923  0.00  0.00     0.044 A 
ATOM     18  F   UNL d   1      -1.696   0.024  -7.060  0.00  0.00    -0.206 F 
ATOM     19  C   UNL d   1       1.069  -0.172  -4.717  0.00  0.00     0.034 A 
ENDBRANCH  11  13
ENDBRANCH   2  11
TORSDOF 4
