REMARK  3 active torsions:
REMARK  status: ('A' for Active; 'I' for Inactive)
REMARK    1  A    between atoms: C_2  and  C_1 
REMARK       I    between atoms: N_4  and  C_2 
REMARK    2  A    between atoms: N_10  and  C_3 
REMARK    3  A    between atoms: C_6  and  N_4 
ROOT
ATOM      1  C   UNL d   1       0.191   0.562  -0.395  0.00  0.00     0.134 C 
ATOM      2  C   UNL d   1       1.117  -0.402  -0.111  0.00  0.00     0.029 C 
ATOM      3  C   UNL d   1      -1.090   0.227  -0.915  0.00  0.00     0.107 C 
ATOM      4  N   UNL d   1      -2.147   0.046  -1.368  0.00  0.00    -0.191 NA
ATOM      5  C   UNL d   1       2.565  -0.017   0.190  0.00  0.00     0.070 C 
ENDROOT
BRANCH   1   6
ATOM      6  C   UNL d   1       0.435   2.037  -0.169  0.00  0.00     0.268 C 
ATOM      7  N   UNL d   1      -0.274   2.895  -1.005  0.00  0.00    -0.320 N 
ATOM      8  H   UNL d   1      -1.042   2.517  -1.548  0.00  0.00     0.169 HD
ATOM      9  O   UNL d   1       1.100   2.412   0.793  0.00  0.00    -0.266 OA
BRANCH   7  10
ATOM     10  C   UNL d   1      -0.201   4.309  -0.960  0.00  0.00     0.074 A 
ATOM     11  C   UNL d   1       0.936   5.031  -0.564  0.00  0.00     0.146 A 
ATOM     12  C   UNL d   1       0.926   6.422  -0.510  0.00  0.00     0.086 A 
ATOM     13  F   UNL d   1       2.101   4.415  -0.318  0.00  0.00    -0.204 F 
ATOM     14  C   UNL d   1      -0.227   7.102  -0.873  0.00  0.00     0.119 A 
ATOM     15  C   UNL d   1      -1.355   6.417  -1.310  0.00  0.00     0.044 A 
ATOM     16  F   UNL d   1      -0.249   8.441  -0.819  0.00  0.00    -0.206 F 
ATOM     17  C   UNL d   1      -1.340   5.022  -1.367  0.00  0.00     0.036 A 
ENDBRANCH   7  10
ENDBRANCH   1   6
BRANCH   2  18
ATOM     18  N   UNL d   1       0.861  -1.806  -0.100  0.00  0.00    -0.392 N 
ATOM     19  C   UNL d   1      -0.423  -2.378   0.352  0.00  0.00     0.148 C 
ATOM     20  C   UNL d   1       1.910  -2.835  -0.163  0.00  0.00     0.148 C 
ENDBRANCH   2  18
TORSDOF 3
