REMARK  2 active torsions:
REMARK  status: ('A' for Active; 'I' for Inactive)
REMARK       I    between atoms: N_2  and  C_1 
REMARK       I    between atoms: N_5  and  C_1 
REMARK    1  A    between atoms: C_4  and  N_3 
REMARK    2  A    between atoms: C_17  and  N_5 
ROOT
ATOM      1  C   UNL d   1      -1.218  -5.159   0.621  0.00  0.00     0.072 A 
ATOM      2  N   UNL d   1      -2.160  -5.608  -2.813  0.00  0.00    -0.191 NA
ATOM      3  N   UNL d   1       0.030  -4.242   3.861  0.00  0.00    -0.191 NA
ATOM      4  C   UNL d   1      -2.067  -5.769  -1.666  0.00  0.00     0.102 C 
ATOM      5  C   UNL d   1      -0.530  -4.805   3.014  0.00  0.00     0.102 C 
ATOM      6  C   UNL d   1      -2.004  -5.972  -0.244  0.00  0.00     0.072 A 
ATOM      7  C   UNL d   1      -1.212  -5.550   1.991  0.00  0.00     0.072 A 
ATOM      8  C   UNL d   1      -1.938  -6.668   2.450  0.00  0.00     0.025 A 
ATOM      9  C   UNL d   1      -2.747  -7.068   0.241  0.00  0.00     0.025 A 
ATOM     10  C   UNL d   1      -2.713  -7.418   1.582  0.00  0.00     0.003 A 
ENDROOT
BRANCH   1  11
ATOM     11  N   UNL d   1      -0.533  -4.028   0.184  0.00  0.00    -0.375 N 
ATOM     12  C   UNL d   1      -1.032  -3.119  -0.868  0.00  0.00     0.143 C 
ATOM     13  C   UNL d   1      -0.843  -1.644  -0.450  0.00  0.00     0.147 C 
ATOM     14  N   UNL d   1       0.516  -1.347   0.034  0.00  0.00    -0.331 N 
ATOM     15  C   UNL d   1       1.150  -0.105  -0.004  0.00  0.00     0.323 C 
ATOM     16  C   UNL d   1       1.010  -2.308   1.037  0.00  0.00     0.147 C 
ATOM     17  N   UNL d   1       0.625   0.799  -0.898  0.00  0.00    -0.309 N 
ATOM     18  O   UNL d   1       2.123   0.120   0.716  0.00  0.00    -0.247 OA
ATOM     19  H   UNL d   1      -0.070   0.464  -1.538  0.00  0.00     0.170 HD
ATOM     20  C   UNL d   1       0.879  -3.760   0.543  0.00  0.00     0.143 C 
BRANCH  17  21
ATOM     21  C   UNL d   1       1.040   2.131  -1.122  0.00  0.00     0.036 A 
ATOM     22  C   UNL d   1       2.075   2.761  -0.426  0.00  0.00     0.029 A 
ATOM     23  C   UNL d   1       2.421   4.086  -0.709  0.00  0.00     0.002 A 
ATOM     24  C   UNL d   1       1.730   4.798  -1.685  0.00  0.00     0.000 A 
ATOM     25  C   UNL d   1       0.698   4.184  -2.386  0.00  0.00     0.002 A 
ATOM     26  C   UNL d   1       0.358   2.857  -2.109  0.00  0.00     0.029 A 
ENDBRANCH  17  21
ENDBRANCH   1  11
TORSDOF 2
