REMARK  4 active torsions:
REMARK  status: ('A' for Active; 'I' for Inactive)
REMARK    1  A    between atoms: S_12  and  C_3 
REMARK    2  A    between atoms: S_13  and  C_4 
REMARK    3  A    between atoms: C_15  and  S_12 
REMARK    4  A    between atoms: C_14  and  S_13 
ROOT
ATOM      1  N   UNL d   1       3.262  -2.793   2.253  0.00  0.00    -0.197 NA
ATOM      2  C   UNL d   1       2.695  -3.134   1.298  0.00  0.00     0.069 C 
ATOM      3  C   UNL d   1       1.993  -3.562   0.084  0.00  0.00     0.205 C 
ENDROOT
BRANCH   3   4
ATOM      4  S   UNL d   1       0.276  -3.003  -0.011  0.00  0.00    -0.089 SA
BRANCH   4   5
ATOM      5  C   UNL d   1       0.424  -1.265  -0.002  0.00  0.00     0.131 A 
ATOM      6  N   UNL d   1       1.556  -0.591   0.028  0.00  0.00    -0.324 N 
ATOM      7  C   UNL d   1       1.242   0.765   0.033  0.00  0.00     0.152 A 
ATOM      8  HN  UNL d   1       2.494  -0.992   0.043  1.00  0.00     0.169 HD
ATOM      9  N   UNL d   1      -0.035   1.150   0.017  0.00  0.00    -0.305 N 
ATOM     10  S   UNL d   1      -0.951  -0.237  -0.020  0.00  0.00     0.013 SA
ATOM     11  HN  UNL d   1      -0.382   2.109   0.026  1.00  0.00     0.176 HD
BRANCH   7  12
ATOM     12  S   UNL d   1       2.452   2.035   0.054  0.00  0.00    -0.079 SA
BRANCH  12  13
ATOM     13  C   UNL d   1       4.004   1.119  -0.012  0.00  0.00     0.206 C 
ATOM     14  C   UNL d   1       4.170   0.302  -1.217  0.00  0.00     0.069 C 
ATOM     15  N   UNL d   1       4.310  -0.362  -2.163  0.00  0.00    -0.197 NA
ENDBRANCH  12  13
ENDBRANCH   7  12
ENDBRANCH   4   5
ENDBRANCH   3   4
TORSDOF 4
