REMARK  2 active torsions:
REMARK  status: ('A' for Active; 'I' for Inactive)
REMARK    1  A    between atoms: C_7  and  C_1 
REMARK    2  A    between atoms: N_4  and  C_3 
ROOT
ATOM      1  C   UNL d   1       1.592  -0.183  -0.051  0.00  0.00     0.126 A 
ATOM      2  S   UNL d   1       0.470  -0.663  -1.254  0.00  0.00    -0.031 SA
ATOM      3  N   UNL d   1       1.089   0.615   0.868  0.00  0.00    -0.289 N 
ATOM      4  HN  UNL d   1       1.628   1.011   1.638  1.00  0.00     0.188 HD
ATOM      5  C   UNL d   1      -0.722   0.228  -0.393  0.00  0.00     0.159 A 
ATOM      6  N   UNL d   1      -0.256   0.853   0.664  0.00  0.00    -0.279 N 
ATOM      7  HN  UNL d   1      -0.824   1.447   1.268  1.00  0.00     0.189 HD
ATOM      8  N   UNL d   1      -2.005   0.261  -0.791  0.00  0.00    -0.379 N 
ATOM      9  H   UNL d   1      -2.250  -0.019  -1.732  0.00  0.00     0.158 HD
ATOM     10  H   UNL d   1      -2.605   0.965  -0.375  0.00  0.00     0.158 HD
ENDROOT
BRANCH   1  11
ATOM     11  C   UNL d   1       2.961  -0.614  -0.029  0.00  0.00     0.113 A 
ATOM     12  O   UNL d   1       3.521  -1.458  -0.965  0.00  0.00    -0.286 OA
ATOM     13  C   UNL d   1       4.818  -1.643  -0.604  0.00  0.00     0.215 A 
ATOM     14  C   UNL d   1       5.132  -0.952   0.539  0.00  0.00     0.066 A 
ATOM     15  C   UNL d   1       3.936  -0.288   0.907  0.00  0.00     0.045 A 
BRANCH  13  16
ATOM     16  N   UNL d   1       5.604  -2.490  -1.444  0.00  0.00    -0.090 N 
ATOM     17  O   UNL d   1       6.790  -2.634  -1.119  0.00  0.00    -0.530 OA
ATOM     18  O   UNL d   1       5.051  -3.009  -2.420  0.00  0.00    -0.530 OA
ENDBRANCH  13  16
ENDBRANCH   1  11
TORSDOF 2
