REMARK  5 active torsions:
REMARK  status: ('A' for Active; 'I' for Inactive)
REMARK    1  A    between atoms: N_5  and  C_1 
REMARK    2  A    between atoms: C_3  and  C_2 
REMARK       I    between atoms: N_6  and  C_3 
REMARK    3  A    between atoms: O_20  and  C_4 
REMARK       I    between atoms: C_8  and  N_6 
REMARK       I    between atoms: N_11  and  C_8 
REMARK    4  A    between atoms: O_24  and  C_9 
REMARK    5  A    between atoms: C_17  and  N_11 
ROOT
ATOM      1  C   UNL d   1       3.117  -2.540  -0.755  0.00  0.00     0.265 C 
ATOM      2  N   UNL d   1       4.172  -1.951  -1.459  0.00  0.00    -0.275 N 
ATOM      3  C   UNL d   1       5.197  -2.389  -2.256  0.00  0.00     0.327 C 
ATOM      4  N   UNL d   1       5.341  -3.733  -2.427  0.00  0.00    -0.309 N 
ATOM      5  O   UNL d   1       2.980  -3.750  -0.612  0.00  0.00    -0.267 OA
ATOM      6  O   UNL d   1       5.889  -1.513  -2.774  0.00  0.00    -0.247 OA
ATOM      7  H   UNL d   1       4.212  -0.944  -1.457  0.00  0.00     0.173 HD
ATOM      8  H   UNL d   1       4.836  -4.323  -1.771  0.00  0.00     0.170 HD
ENDROOT
BRANCH   1   9
ATOM      9  C   UNL d   1       2.177  -1.504  -0.164  0.00  0.00     0.102 C 
ATOM     10  C   UNL d   1       2.767  -0.327   0.335  0.00  0.00     0.119 C 
ATOM     11  C   UNL d   1       2.010   0.825   0.503  0.00  0.00     0.138 C 
ATOM     12  C   UNL d   1       0.625   0.751   0.419  0.00  0.00     0.061 C 
ATOM     13  C   UNL d   1      -0.007  -0.472   0.122  0.00  0.00     0.048 C 
ATOM     14  C   UNL d   1       0.758  -1.614  -0.225  0.00  0.00     0.104 C 
ATOM     15 BR   UNL d   1      -1.906  -0.335   0.201  0.00  0.00    -0.048 Br
BRANCH  10  16
ATOM     16  O   UNL d   1       4.099  -0.329   0.659  0.00  0.00    -0.352 OA
ATOM     17  C   UNL d   1       4.263  -0.683   2.041  0.00  0.00     0.210 C 
ENDBRANCH  10  16
BRANCH  11  18
ATOM     18  N   UNL d   1       2.650   2.124   0.703  0.00  0.00    -0.113 N 
ATOM     19  O   UNL d   1       3.745   2.320   0.163  0.00  0.00    -0.532 OA
ATOM     20  O   UNL d   1       2.020   2.963   1.359  0.00  0.00    -0.532 OA
ENDBRANCH  11  18
BRANCH  14  21
ATOM     21  O   UNL d   1       0.313  -2.832  -0.656  0.00  0.00    -0.353 OA
ATOM     22  C   UNL d   1      -1.047  -3.219  -0.552  0.00  0.00     0.210 C 
ENDBRANCH  14  21
ENDBRANCH   1   9
BRANCH   4  23
ATOM     23  C   UNL d   1       6.097  -4.352  -3.455  0.00  0.00     0.038 A 
ATOM     24  C   UNL d   1       6.662  -3.641  -4.524  0.00  0.00     0.055 A 
ATOM     25  C   UNL d   1       7.227  -4.307  -5.618  0.00  0.00     0.058 A 
ATOM     26 CL   UNL d   1       7.816  -3.344  -6.930  0.00  0.00    -0.082 Cl
ATOM     27  C   UNL d   1       7.261  -5.700  -5.639  0.00  0.00     0.055 A 
ATOM     28  C   UNL d   1       6.775  -6.416  -4.542  0.00  0.00     0.028 A 
ATOM     29 CL   UNL d   1       7.849  -6.593  -6.996  0.00  0.00    -0.083 Cl
ATOM     30  C   UNL d   1       6.197  -5.746  -3.455  0.00  0.00     0.031 A 
ENDBRANCH   4  23
TORSDOF 5
