REMARK  14 active torsions:
REMARK  status: ('A' for Active; 'I' for Inactive)
REMARK    1  A    between atoms: C_15  and  C_6 
REMARK    2  A    between atoms: N_7  and  C_9 
REMARK    3  A    between atoms: N_8  and  C_14 
REMARK    4  A    between atoms: O_27  and  C_15 
REMARK    5  A    between atoms: C_28  and  O_27 
REMARK    6  A    between atoms: C_29  and  C_28 
REMARK    7  A    between atoms: C_34  and  C_29 
REMARK    8  A    between atoms: C_30  and  C_31 
REMARK    9  A    between atoms: C_31  and  C_33 
REMARK   10  A    between atoms: C_32  and  C_37 
REMARK   11  A    between atoms: C_33  and  C_32 
REMARK   12  A    between atoms: C_35  and  C_34 
REMARK   13  A    between atoms: C_36  and  C_35 
REMARK   14  A    between atoms: C_37  and  C_36 
ROOT
ATOM      1  C   UNL d   1      -3.504   3.366   2.558  0.00  0.00     0.003 A 
ATOM      2  C   UNL d   1      -2.218   4.519   4.176  0.00  0.00     0.018 A 
ATOM      3  C   UNL d   1      -2.163   3.707   2.907  0.00  0.00    -0.008 A 
ATOM      4  C   UNL d   1      -3.669   4.763   4.476  0.00  0.00    -0.009 A 
ATOM      5  C   UNL d   1      -4.414   4.042   3.504  0.00  0.00    -0.013 A 
ATOM      6  C   UNL d   1      -3.740   2.538   1.442  0.00  0.00     0.053 A 
ATOM      7  C   UNL d   1      -1.346   2.540   0.966  0.00  0.00     0.104 A 
ATOM      8  C   UNL d   1      -1.165   4.891   4.948  0.00  0.00     0.136 C 
ATOM      9  C   UNL d   1      -1.092   3.313   2.107  0.00  0.00     0.049 A 
ATOM     10  C   UNL d   1      -2.651   2.140   0.640  0.00  0.00     0.054 A 
ATOM     11  C   UNL d   1      -4.313   5.545   5.438  0.00  0.00     0.049 A 
ATOM     12  C   UNL d   1      -5.715   5.581   5.454  0.00  0.00     0.103 A 
ATOM     13  C   UNL d   1       0.185   4.553   4.645  0.00  0.00     0.111 C 
ATOM     14  C   UNL d   1      -1.301   5.626   6.164  0.00  0.00     0.111 C 
ATOM     15  N   UNL d   1       1.287   4.280   4.407  0.00  0.00    -0.191 NA
ATOM     16  N   UNL d   1      -1.392   6.224   7.151  0.00  0.00    -0.191 NA
ATOM     17  C   UNL d   1      -5.806   4.120   3.521  0.00  0.00     0.015 A 
ATOM     18  C   UNL d   1      -6.459   4.865   4.509  0.00  0.00     0.037 A 
ENDROOT
BRANCH   6  19
ATOM     19  C   UNL d   1      -5.066   1.937   1.152  0.00  0.00     0.294 C 
ATOM     20  O   UNL d   1      -5.850   1.607   2.025  0.00  0.00    -0.259 OA
BRANCH  19  21
ATOM     21  O   UNL d   1      -5.259   1.767  -0.183  0.00  0.00    -0.317 OA
BRANCH  21  22
ATOM     22  C   UNL d   1      -6.514   1.144  -0.518  0.00  0.00     0.179 C 
BRANCH  22  23
ATOM     23  C   UNL d   1      -7.615   2.197  -0.562  0.00  0.00     0.027 C 
BRANCH  23  24
ATOM     24  C   UNL d   1      -8.976   1.571  -0.841  0.00  0.00     0.002 C 
BRANCH  24  25
ATOM     25  C   UNL d   1     -10.061   2.643  -0.859  0.00  0.00     0.000 C 
BRANCH  25  26
ATOM     26  C   UNL d   1     -11.431   2.036  -1.139  0.00  0.00     0.000 C 
BRANCH  26  27
ATOM     27  C   UNL d   1     -12.498   3.125  -1.157  0.00  0.00     0.000 C 
BRANCH  27  28
ATOM     28  C   UNL d   1     -13.874   2.535  -1.439  0.00  0.00     0.000 C 
BRANCH  28  29
ATOM     29  C   UNL d   1     -14.936   3.631  -1.456  0.00  0.00     0.000 C 
BRANCH  29  30
ATOM     30  C   UNL d   1     -16.314   3.041  -1.740  0.00  0.00    -0.000 C 
BRANCH  30  31
ATOM     31  C   UNL d   1     -17.383   4.129  -1.759  0.00  0.00    -0.005 C 
ATOM     32  C   UNL d   1     -18.754   3.539  -2.042  0.00  0.00     0.005 C 
ENDBRANCH  30  31
ENDBRANCH  29  30
ENDBRANCH  28  29
ENDBRANCH  27  28
ENDBRANCH  26  27
ENDBRANCH  25  26
ENDBRANCH  24  25
ENDBRANCH  23  24
ENDBRANCH  22  23
ENDBRANCH  21  22
ENDBRANCH  19  21
ENDBRANCH   6  19
BRANCH   7  33
ATOM     33  N   UNL d   1      -0.220   2.127   0.110  0.00  0.00    -0.116 N 
ATOM     34  O   UNL d   1       0.913   2.514   0.424  0.00  0.00    -0.532 OA
ATOM     35  O   UNL d   1      -0.477   1.424  -0.875  0.00  0.00    -0.532 OA
ENDBRANCH   7  33
BRANCH  12  36
ATOM     36  N   UNL d   1      -6.416   6.403   6.452  0.00  0.00    -0.116 N 
ATOM     37  O   UNL d   1      -5.727   7.073   7.232  0.00  0.00    -0.532 OA
ATOM     38  O   UNL d   1      -7.655   6.384   6.444  0.00  0.00    -0.532 OA
ENDBRANCH  12  36
TORSDOF 14
