REMARK  2 active torsions:
REMARK  status: ('A' for Active; 'I' for Inactive)
REMARK    1  A    between atoms: C_8  and  C_6 
REMARK    2  A    between atoms: O_15  and  C_11 
ROOT
ATOM      1  C   UNL d   1      -1.097  -0.857   0.091  0.00  0.00     0.045 A 
ATOM      2  C   UNL d   1       0.404  -0.969   0.041  0.00  0.00     0.257 A 
ATOM      3  N   UNL d   1       0.854   0.327  -0.144  0.00  0.00    -0.322 N 
ATOM      4  C   UNL d   1      -1.430   0.568  -0.019  0.00  0.00     0.006 A 
ATOM      5  C   UNL d   1      -0.206   1.231  -0.178  0.00  0.00     0.046 A 
ATOM      6  C   UNL d   1      -1.853  -1.965   0.144  0.00  0.00     0.029 C 
ATOM      7  O   UNL d   1       1.076  -1.981   0.120  0.00  0.00    -0.267 OA
ATOM      8  C   UNL d   1      -2.607   1.292   0.026  0.00  0.00     0.015 A 
ATOM      9  C   UNL d   1      -0.114   2.601  -0.331  0.00  0.00     0.030 A 
ATOM     10  C   UNL d   1      -2.538   2.683  -0.118  0.00  0.00     0.001 A 
ATOM     11  C   UNL d   1      -1.304   3.330  -0.303  0.00  0.00     0.002 A 
ATOM     12  H   UNL d   1       1.830   0.560  -0.229  0.00  0.00     0.169 HD
ENDROOT
BRANCH   6  13
ATOM     13  C   UNL d   1      -3.308  -1.970   0.024  0.00  0.00    -0.034 A 
ATOM     14  C   UNL d   1      -3.886  -2.053  -1.246  0.00  0.00     0.033 A 
ATOM     15  C   UNL d   1      -5.277  -1.956  -1.427  0.00  0.00     0.045 A 
ATOM     16 BR   UNL d   1      -5.818  -2.048  -3.248  0.00  0.00    -0.048 Br
ATOM     17  C   UNL d   1      -6.110  -1.787  -0.313  0.00  0.00     0.085 A 
ATOM     18  C   UNL d   1      -5.511  -1.739   0.962  0.00  0.00     0.039 A 
ATOM     19  C   UNL d   1      -4.128  -1.828   1.137  0.00  0.00     0.014 A 
BRANCH  17  20
ATOM     20  O   UNL d   1      -7.464  -1.647  -0.210  0.00  0.00    -0.355 OA
ATOM     21  C   UNL d   1      -8.290  -1.627  -1.358  0.00  0.00     0.210 C 
ENDBRANCH  17  20
ENDBRANCH   6  13
TORSDOF 2
