REMARK  4 active torsions:
REMARK  status: ('A' for Active; 'I' for Inactive)
REMARK    1  A    between atoms: C_4  and  C_1 
REMARK    2  A    between atoms: C_7  and  O_10 
REMARK    3  A    between atoms: O_16  and  C_8 
REMARK    4  A    between atoms: O_10  and  C_9 
ROOT
ATOM      1  C   UNL d   1      -0.903   0.937   0.253  0.00  0.00     0.120 A 
ATOM      2  N   UNL d   1      -0.632   0.511   1.502  0.00  0.00    -0.322 N 
ATOM      3  HN  UNL d   1      -0.835   1.074   2.329  1.00  0.00     0.169 HD
ATOM      4  N   UNL d   1      -0.659   0.225  -0.864  0.00  0.00    -0.345 N 
ATOM      5  HN  UNL d   1      -0.886   0.595  -1.787  1.00  0.00     0.167 HD
ATOM      6  C   UNL d   1      -0.078  -0.701   1.578  0.00  0.00     0.143 A 
ATOM      7  C   UNL d   1       0.210  -1.514   0.520  0.00  0.00     0.080 A 
ATOM      8  C   UNL d   1      -0.103  -0.997  -0.716  0.00  0.00     0.011 A 
ATOM      9  C   UNL d   1       0.146  -1.780  -1.969  0.00  0.00     0.068 C 
ENDROOT
BRANCH   1  10
ATOM     10  C   UNL d   1      -1.494   2.280   0.113  0.00  0.00     0.042 A 
ATOM     11  C   UNL d   1      -1.296   3.122  -1.001  0.00  0.00     0.092 A 
ATOM     12  C   UNL d   1      -1.942   4.367  -1.084  0.00  0.00     0.038 A 
ATOM     13  C   UNL d   1      -2.778   4.803  -0.057  0.00  0.00     0.003 A 
ATOM     14  C   UNL d   1      -2.979   3.998   1.057  0.00  0.00     0.001 A 
ATOM     15  C   UNL d   1      -2.338   2.760   1.139  0.00  0.00     0.018 A 
BRANCH  11  16
ATOM     16  O   UNL d   1      -0.616   2.745  -2.129  0.00  0.00    -0.254 OA
BRANCH  16  17
ATOM     17  C   UNL d   1       0.800   2.674  -1.995  0.00  0.00     0.530 C 
ATOM     18  F   UNL d   1       1.225   2.499  -0.726  0.00  0.00    -0.144 F 
ATOM     19  F   UNL d   1       1.264   1.654  -2.753  0.00  0.00    -0.144 F 
ATOM     20  F   UNL d   1       1.348   3.818  -2.468  0.00  0.00    -0.144 F 
ENDBRANCH  16  17
ENDBRANCH  11  16
ENDBRANCH   1  10
BRANCH   6  21
ATOM     21  O   UNL d   1       0.199  -1.097   2.846  0.00  0.00    -0.346 OA
ATOM     22  H   UNL d   1      -0.088  -0.314   3.345  0.00  0.00     0.219 HD
ENDBRANCH   6  21
TORSDOF 4
