REMARK  3 active torsions:
REMARK  status: ('A' for Active; 'I' for Inactive)
REMARK    1  A    between atoms: C_5  and  N_1 
REMARK    2  A    between atoms: S_12  and  C_13 
REMARK    3  A    between atoms: C_14  and  S_12 
ROOT
ATOM      1  C   UNL d   1       2.102  -1.504   0.003  0.00  0.00     0.141 A 
ATOM      2  N   UNL d   1       3.076  -1.353   0.924  0.00  0.00    -0.283 N 
ATOM      3  HN  UNL d   1       2.984  -0.635   1.642  1.00  0.00     0.188 HD
ATOM      4  N   UNL d   1       4.193  -2.161   0.904  0.00  0.00    -0.292 N 
ATOM      5  HN  UNL d   1       4.926  -2.030   1.602  1.00  0.00     0.187 HD
ATOM      6  C   UNL d   1       4.323  -3.123  -0.033  0.00  0.00     0.090 A 
ATOM      7  C   UNL d   1       2.222  -2.468  -0.992  0.00  0.00     0.054 A 
ATOM      8  C   UNL d   1       3.354  -3.285  -1.010  0.00  0.00     0.042 A 
ENDROOT
BRANCH   1   9
ATOM      9  N   UNL d   1       0.921  -0.701   0.083  0.00  0.00    -0.243 N 
ATOM     10  N   UNL d   1      -0.122  -0.938  -0.772  0.00  0.00    -0.297 N 
ATOM     11  C   UNL d   1      -1.111  -0.146  -0.354  0.00  0.00     0.024 A 
ATOM     12  HN  UNL d   1      -0.139  -1.584  -1.561  1.00  0.00     0.187 HD
ATOM     13  C   UNL d   1      -2.439  -0.173  -1.012  0.00  0.00     0.070 C 
ATOM     14  C   UNL d   1      -0.710   0.658   0.724  0.00  0.00     0.052 A 
ATOM     15  C   UNL d   1       0.608   0.328   0.970  0.00  0.00     0.034 A 
ATOM     16  C   UNL d   1       1.507   0.934   1.987  0.00  0.00     0.070 C 
ENDBRANCH   1   9
BRANCH   6  17
ATOM     17  S   UNL d   1       5.801  -4.099   0.029  0.00  0.00    -0.053 SA
BRANCH  17  18
ATOM     18  C   UNL d   1       5.133  -5.710   0.381  0.00  0.00     0.075 A 
ATOM     19  N   UNL d   1       4.353  -6.279  -0.565  0.00  0.00    -0.360 N 
ATOM     20  C   UNL d   1       3.893  -7.526  -0.325  0.00  0.00     0.089 A 
ATOM     21  HN  UNL d   1       4.120  -5.785  -1.427  1.00  0.00     0.166 HD
ATOM     22  C   UNL d   1       4.184  -8.246   0.823  0.00  0.00     0.017 A 
ATOM     23  C   UNL d   1       4.989  -7.650   1.783  0.00  0.00     0.004 A 
ATOM     24  C   UNL d   1       5.475  -6.362   1.564  0.00  0.00     0.037 A 
ENDBRANCH  17  18
ENDBRANCH   6  17
TORSDOF 3
