REMARK  7 active torsions:
REMARK  status: ('A' for Active; 'I' for Inactive)
REMARK    1  A    between atoms: N_4  and  C_1 
REMARK    2  A    between atoms: C_2  and  C_3 
REMARK       I    between atoms: N_6  and  C_2 
REMARK    3  A    between atoms: O_19  and  C_5 
REMARK       I    between atoms: C_7  and  N_6 
REMARK       I    between atoms: N_8  and  C_7 
REMARK    4  A    between atoms: C_9  and  N_8 
REMARK    5  A    between atoms: O_20  and  C_11 
REMARK    6  A    between atoms: C_25  and  C_17 
REMARK    7  A    between atoms: C_24  and  C_18 
ROOT
ATOM      1  C   UNL d   1      -2.137  -2.026   1.396  0.00  0.00     0.264 C 
ATOM      2  N   UNL d   1      -3.359  -1.733   1.997  0.00  0.00    -0.279 N 
ATOM      3  C   UNL d   1      -4.231  -0.666   1.917  0.00  0.00     0.305 C 
ATOM      4  N   UNL d   1      -3.850   0.431   1.166  0.00  0.00    -0.209 NA
ATOM      5  O   UNL d   1      -1.536  -1.170   0.753  0.00  0.00    -0.267 OA
ATOM      6  O   UNL d   1      -5.311  -0.793   2.484  0.00  0.00    -0.253 OA
ATOM      7  H   UNL d   1      -3.773  -2.469   2.550  0.00  0.00     0.173 HD
ATOM      8  H   UNL d   1      -3.097   0.181   0.534  0.00  0.00     0.138 HD
ENDROOT
BRANCH   1   9
ATOM      9  C   UNL d   1      -1.575  -3.439   1.615  0.00  0.00     0.101 C 
ATOM     10  C   UNL d   1      -2.002  -4.283   2.675  0.00  0.00     0.119 C 
ATOM     11  C   UNL d   1      -1.284  -5.469   2.950  0.00  0.00     0.137 C 
ATOM     12  C   UNL d   1      -0.252  -5.910   2.121  0.00  0.00     0.042 C 
ATOM     13  C   UNL d   1       0.090  -5.146   1.014  0.00  0.00     0.040 C 
ATOM     14  C   UNL d   1      -0.559  -3.928   0.738  0.00  0.00     0.086 C 
BRANCH  10  15
ATOM     15  O   UNL d   1      -3.095  -3.900   3.416  0.00  0.00    -0.352 OA
ATOM     16  C   UNL d   1      -4.136  -4.887   3.524  0.00  0.00     0.210 C 
ENDBRANCH  10  15
BRANCH  11  17
ATOM     17  N   UNL d   1      -1.545  -6.265   4.135  0.00  0.00    -0.113 N 
ATOM     18  O   UNL d   1      -1.552  -5.682   5.228  0.00  0.00    -0.532 OA
ATOM     19  O   UNL d   1      -1.734  -7.473   3.962  0.00  0.00    -0.532 OA
ENDBRANCH  11  17
BRANCH  14  20
ATOM     20  O   UNL d   1      -0.216  -3.161  -0.336  0.00  0.00    -0.355 OA
ATOM     21  C   UNL d   1       0.290  -3.773  -1.517  0.00  0.00     0.210 C 
ENDBRANCH  14  20
ENDBRANCH   1   9
BRANCH   4  22
ATOM     22  C   UNL d   1      -4.904   1.248   0.643  0.00  0.00     0.029 C 
ATOM     23  C   UNL d   1      -5.612   2.154   1.479  0.00  0.00    -0.036 C 
ATOM     24  C   UNL d   1      -6.844   2.669   1.030  0.00  0.00     0.009 C 
ATOM     25  C   UNL d   1      -7.350   2.341  -0.218  0.00  0.00     0.001 C 
ATOM     26  C   UNL d   1      -6.604   1.536  -1.066  0.00  0.00     0.009 C 
ATOM     27  C   UNL d   1      -5.346   1.027  -0.685  0.00  0.00    -0.036 C 
BRANCH  23  28
ATOM     28  C   UNL d   1      -5.148   2.551   2.870  0.00  0.00     0.036 C 
ATOM     29  C   UNL d   1      -5.300   4.040   3.220  0.00  0.00     0.010 C 
ENDBRANCH  23  28
BRANCH  27  30
ATOM     30  C   UNL d   1      -4.594   0.170  -1.683  0.00  0.00     0.036 C 
ATOM     31  C   UNL d   1      -4.558   0.767  -3.091  0.00  0.00     0.010 C 
ENDBRANCH  27  30
ENDBRANCH   4  22
TORSDOF 7
