REMARK  4 active torsions:
REMARK  status: ('A' for Active; 'I' for Inactive)
REMARK    1  A    between atoms: C_2  and  C_1 
REMARK    2  A    between atoms: C_6  and  C_2 
REMARK    3  A    between atoms: C_14  and  C_3 
REMARK    4  A    between atoms: C_7  and  C_8 
ROOT
ATOM      1  C   UNL d   1       2.334  -1.325   0.909  0.00  0.00     0.096 C 
ATOM      2  C   UNL d   1       2.079  -1.248   2.231  0.00  0.00     0.038 C 
ATOM      3  C   UNL d   1       2.459  -2.574   0.234  0.00  0.00     0.103 C 
ATOM      4  N   UNL d   1       2.591  -3.591  -0.313  0.00  0.00    -0.191 NA
ENDROOT
BRANCH   1   5
ATOM      5  C   UNL d   1       2.484  -0.038   0.154  0.00  0.00     0.202 C 
ATOM      6  O   UNL d   1       1.932   0.996   0.520  0.00  0.00    -0.286 OA
BRANCH   5   7
ATOM      7  C   UNL d   1       3.313  -0.029  -1.086  0.00  0.00     0.015 A 
ATOM      8  C   UNL d   1       2.927   0.756  -2.174  0.00  0.00     0.016 A 
ATOM      9  C   UNL d   1       3.647   0.692  -3.377  0.00  0.00     0.009 A 
ATOM     10  C   UNL d   1       4.766  -0.153  -3.522  0.00  0.00    -0.051 A 
ATOM     11  C   UNL d   1       5.177  -0.870  -2.386  0.00  0.00     0.009 A 
ATOM     12  C   UNL d   1       4.476  -0.793  -1.181  0.00  0.00     0.016 A 
BRANCH  10  13
ATOM     13  C   UNL d   1       5.492  -0.291  -4.872  0.00  0.00    -0.024 C 
ATOM     14  C   UNL d   1       6.655  -1.313  -4.845  0.00  0.00     0.019 C 
ATOM     15  C   UNL d   1       4.500  -0.771  -5.955  0.00  0.00     0.019 C 
ATOM     16  C   UNL d   1       6.087   1.066  -5.297  0.00  0.00     0.019 C 
ENDBRANCH  10  13
ENDBRANCH   5   7
ENDBRANCH   1   5
BRANCH   2  17
ATOM     17  C   UNL d   1       1.976  -2.426   3.101  0.00  0.00    -0.035 A 
ATOM     18  C   UNL d   1       3.112  -2.897   3.772  0.00  0.00     0.013 A 
ATOM     19  C   UNL d   1       3.043  -4.061   4.543  0.00  0.00     0.024 A 
ATOM     20  C   UNL d   1       1.838  -4.753   4.645  0.00  0.00     0.034 A 
ATOM     21  C   UNL d   1       0.700  -4.288   3.987  0.00  0.00     0.024 A 
ATOM     22 CL   UNL d   1       1.756  -6.192   5.584  0.00  0.00    -0.084 Cl
ATOM     23  C   UNL d   1       0.768  -3.125   3.216  0.00  0.00     0.013 A 
ENDBRANCH   2  17
TORSDOF 4
