REMARK  7 active torsions:
REMARK  status: ('A' for Active; 'I' for Inactive)
REMARK    1  A    between atoms: S_14  and  C_1 
REMARK    2  A    between atoms: C_2  and  S_13 
REMARK    3  A    between atoms: S_13  and  C_20 
REMARK    4  A    between atoms: C_19  and  S_14 
REMARK    5  A    between atoms: C_22  and  C_19 
REMARK    6  A    between atoms: C_20  and  C_21 
REMARK    7  A    between atoms: C_21  and  C_22 
ROOT
ATOM      1  C   UNL d   1      -7.307   0.366  -0.138  0.00  0.00     0.011 C 
ENDROOT
BRANCH   1   2
ATOM      2  C   UNL d   1      -8.738  -0.178  -0.176  0.00  0.00     0.081 C 
BRANCH   2   3
ATOM      3  S   UNL d   1      -9.913   1.208  -0.202  0.00  0.00    -0.105 SA
BRANCH   3   4
ATOM      4  C   UNL d   1     -11.450   0.365  -0.225  0.00  0.00     0.113 A 
ATOM      5  N   UNL d   1     -11.536  -0.945  -0.230  0.00  0.00    -0.344 N 
ATOM      6  C   UNL d   1     -12.870  -1.323  -0.245  0.00  0.00     0.050 A 
ATOM      7  HN  UNL d   1     -10.742  -1.586  -0.224  1.00  0.00     0.167 HD
ATOM      8  C   UNL d   1     -13.357  -2.647  -0.252  0.00  0.00     0.031 A 
ATOM      9  C   UNL d   1     -13.792  -0.273  -0.252  0.00  0.00     0.034 A 
ATOM     10  C   UNL d   1     -14.737  -2.883  -0.265  0.00  0.00     0.002 A 
ATOM     11  C   UNL d   1     -15.635  -1.821  -0.272  0.00  0.00     0.002 A 
ATOM     12  C   UNL d   1     -15.179  -0.499  -0.266  0.00  0.00     0.021 A 
ATOM     13  S   UNL d   1     -12.935   1.219  -0.241  0.00  0.00    -0.063 SA
ENDBRANCH   3   4
ENDBRANCH   2   3
ENDBRANCH   1   2
BRANCH   1  14
ATOM     14  C   UNL d   1      -6.277  -0.770  -0.124  0.00  0.00     0.011 C 
BRANCH  14  15
ATOM     15  C   UNL d   1      -4.846  -0.226  -0.085  0.00  0.00     0.081 C 
BRANCH  15  16
ATOM     16  S   UNL d   1      -3.671  -1.613  -0.080  0.00  0.00    -0.105 SA
BRANCH  16  17
ATOM     17  C   UNL d   1      -2.135  -0.772  -0.017  0.00  0.00     0.113 A 
ATOM     18  N   UNL d   1      -2.047   0.537   0.003  0.00  0.00    -0.344 N 
ATOM     19  C   UNL d   1      -0.713   0.913   0.058  0.00  0.00     0.050 A 
ATOM     20  HN  UNL d   1      -2.839   1.180  -0.020  1.00  0.00     0.167 HD
ATOM     21  C   UNL d   1      -0.225   2.236   0.094  0.00  0.00     0.031 A 
ATOM     22  C   UNL d   1       0.207  -0.138   0.079  0.00  0.00     0.034 A 
ATOM     23  C   UNL d   1       1.154   2.471   0.151  0.00  0.00     0.002 A 
ATOM     24  C   UNL d   1       2.050   1.407   0.171  0.00  0.00     0.002 A 
ATOM     25  C   UNL d   1       1.593   0.086   0.135  0.00  0.00     0.021 A 
ATOM     26  S   UNL d   1      -0.651  -1.629   0.025  0.00  0.00    -0.063 SA
ENDBRANCH  16  17
ENDBRANCH  15  16
ENDBRANCH  14  15
ENDBRANCH   1  14
TORSDOF 7
