REMARK  7 active torsions:
REMARK  status: ('A' for Active; 'I' for Inactive)
REMARK    1  A    between atoms: C_3  and  C_1 
REMARK    2  A    between atoms: C_4  and  C_2 
REMARK       I    between atoms: N_5  and  C_3 
REMARK    3  A    between atoms: O_21  and  C_4 
REMARK    4  A    between atoms: C_14  and  N_5 
REMARK    5  A    between atoms: C_25  and  O_21 
REMARK    6  A    between atoms: O_24  and  C_26 
REMARK    7  A    between atoms: C_26  and  C_25 
ROOT
ATOM      1  C   UNL d   1      -0.919  -1.215  -0.268  0.00  0.00     0.134 A 
ATOM      2  C   UNL d   1       0.020  -1.027   0.736  0.00  0.00     0.141 A 
ATOM      3  N   UNL d   1      -1.508  -0.141  -0.875  0.00  0.00    -0.358 N 
ATOM      4  HN  UNL d   1      -2.217  -0.254  -1.600  1.00  0.00     0.165 HD
ATOM      5  N   UNL d   1       0.397   0.207   1.193  0.00  0.00    -0.358 N 
ATOM      6  HN  UNL d   1       1.058   0.329   1.960  1.00  0.00     0.165 HD
ATOM      7  C   UNL d   1      -1.101   1.081  -0.461  0.00  0.00     0.105 A 
ATOM      8  C   UNL d   1      -0.173   1.252   0.554  0.00  0.00     0.105 A 
ENDROOT
BRANCH   1   9
ATOM      9  C   UNL d   1      -1.243  -2.557  -0.862  0.00  0.00     0.275 C 
ATOM     10  N   UNL d   1      -1.364  -3.639   0.007  0.00  0.00    -0.322 N 
ATOM     11  H   UNL d   1      -1.362  -3.470   1.008  0.00  0.00     0.169 HD
ATOM     12  O   UNL d   1      -1.390  -2.607  -2.078  0.00  0.00    -0.266 OA
BRANCH  10  13
ATOM     13  C   UNL d   1      -1.494  -5.003  -0.367  0.00  0.00     0.037 A 
ATOM     14  C   UNL d   1      -1.489  -5.456  -1.692  0.00  0.00     0.069 A 
ATOM     15  C   UNL d   1      -1.597  -6.815  -1.926  0.00  0.00     0.107 A 
ATOM     16  O   UNL d   1      -1.608  -7.414  -3.149  0.00  0.00    -0.323 OA
ATOM     17  C   UNL d   1      -1.704  -7.724  -0.901  0.00  0.00     0.105 A 
ATOM     18  C   UNL d   1      -1.765  -8.796  -2.776  0.00  0.00     0.352 A 
ATOM     19  O   UNL d   1      -1.793  -9.004  -1.347  0.00  0.00    -0.323 OA
ATOM     20  C   UNL d   1      -1.708  -7.322   0.415  0.00  0.00     0.042 A 
ATOM     21  C   UNL d   1      -1.603  -5.949   0.679  0.00  0.00     0.032 A 
ENDBRANCH  10  13
ENDBRANCH   1   9
BRANCH   2  22
ATOM     22  C   UNL d   1       0.782  -2.166   1.269  0.00  0.00     0.312 C 
ATOM     23  O   UNL d   1       0.604  -2.675   2.360  0.00  0.00    -0.258 OA
BRANCH  22  24
ATOM     24  O   UNL d   1       1.614  -2.546   0.284  0.00  0.00    -0.314 OA
BRANCH  24  25
ATOM     25  C   UNL d   1       2.503  -3.645   0.542  0.00  0.00     0.205 C 
BRANCH  25  26
ATOM     26  C   UNL d   1       3.917  -3.097   0.711  0.00  0.00     0.193 C 
BRANCH  26  27
ATOM     27  O   UNL d   1       4.269  -2.358  -0.463  0.00  0.00    -0.394 OA
ATOM     28  C   UNL d   1       5.559  -1.777  -0.361  0.00  0.00     0.201 C 
ENDBRANCH  26  27
ENDBRANCH  25  26
ENDBRANCH  24  25
ENDBRANCH  22  24
ENDBRANCH   2  22
TORSDOF 7
