REMARK  1 active torsions:
REMARK  status: ('A' for Active; 'I' for Inactive)
REMARK    1  A    between atoms: C_7  and  C_3 
ROOT
ATOM      1  N   UNL d   1       0.195   0.996   0.560  0.00  0.00    -0.299 N 
ATOM      2  HN  UNL d   1      -0.038   1.853   1.062  1.00  0.00     0.187 HD
ATOM      3  C   UNL d   1       1.353   0.690  -0.049  0.00  0.00     0.059 A 
ATOM      4  N   UNL d   1      -0.587  -0.078   0.360  0.00  0.00    -0.307 N 
ATOM      5  C   UNL d   1       1.292  -0.619  -0.602  0.00  0.00     0.050 A 
ATOM      6  C   UNL d   1       0.030  -1.085  -0.317  0.00  0.00     0.112 A 
ATOM      7  C   UNL d   1      -1.951  -0.081   0.829  0.00  0.00     0.177 C 
ENDROOT
BRANCH   3   8
ATOM      8  C   UNL d   1       2.475   1.629  -0.097  0.00  0.00    -0.008 A 
ATOM      9  C   UNL d   1       2.663   2.572   0.924  0.00  0.00     0.015 A 
ATOM     10  C   UNL d   1       3.740   3.464   0.883  0.00  0.00     0.020 A 
ATOM     11  C   UNL d   1       4.630   3.422  -0.187  0.00  0.00     0.011 A 
ATOM     12  C   UNL d   1       4.454   2.499  -1.215  0.00  0.00     0.020 A 
ATOM     13 BR   UNL d   1       6.085   4.627  -0.249  0.00  0.00    -0.051 Br
ATOM     14  C   UNL d   1       3.381   1.605  -1.169  0.00  0.00     0.015 A 
ENDBRANCH   3   8
TORSDOF 1
