REMARK  8 active torsions:
REMARK  status: ('A' for Active; 'I' for Inactive)
REMARK    1  A    between atoms: C_4  and  N_1 
REMARK    2  A    between atoms: C_2  and  C_3 
REMARK    3  A    between atoms: C_6  and  C_5 
REMARK    4  A    between atoms: S_10  and  C_7 
REMARK    5  A    between atoms: C_13  and  S_10 
REMARK    6  A    between atoms: C_11  and  C_14 
REMARK    7  A    between atoms: O_19  and  C_11 
REMARK    8  A    between atoms: C_26  and  O_19 
ROOT
ATOM      1  C   UNL d   1       0.086   1.069  -0.654  0.00  0.00     0.103 A 
ATOM      2  C   UNL d   1      -0.322   2.319  -2.707  0.00  0.00    -0.017 A 
ATOM      3  C   UNL d   1      -1.529   2.840  -2.143  0.00  0.00     0.017 A 
ATOM      4  C   UNL d   1       0.464   1.425  -1.953  0.00  0.00     0.048 A 
ATOM      5  C   UNL d   1      -1.068   1.611  -0.081  0.00  0.00     0.037 A 
ATOM      6  C   UNL d   1      -1.874   2.477  -0.831  0.00  0.00     0.022 A 
ENDROOT
BRANCH   2   7
ATOM      7  C   UNL d   1       0.196   2.781  -4.022  0.00  0.00     0.019 C 
ATOM      8  C   UNL d   1       0.987   2.096  -4.868  0.00  0.00     0.083 C 
BRANCH   8   9
ATOM      9  C   UNL d   1       1.553   2.668  -6.120  0.00  0.00     0.288 C 
ATOM     10  O   UNL d   1       2.163   1.991  -6.928  0.00  0.00    -0.260 OA
BRANCH   9  11
ATOM     11  O   UNL d   1       1.323   4.040  -6.165  0.00  0.00    -0.276 OA
BRANCH  11  12
ATOM     12  C   UNL d   1       1.783   4.966  -7.133  0.00  0.00     0.079 A 
ATOM     13  C   UNL d   1       2.592   4.644  -8.219  0.00  0.00     0.039 A 
ATOM     14  C   UNL d   1       2.994   5.659  -9.095  0.00  0.00     0.026 A 
ATOM     15  C   UNL d   1       2.586   6.976  -8.878  0.00  0.00     0.034 A 
ATOM     16  C   UNL d   1       1.777   7.295  -7.788  0.00  0.00     0.026 A 
ATOM     17 CL   UNL d   1       3.087   8.218  -9.958  0.00  0.00    -0.084 Cl
ATOM     18  C   UNL d   1       1.375   6.286  -6.912  0.00  0.00     0.039 A 
ENDBRANCH  11  12
ENDBRANCH   9  11
ENDBRANCH   8   9
ENDBRANCH   2   7
BRANCH   3  19
ATOM     19  S   UNL d   1      -2.679   3.724  -3.196  0.00  0.00    -0.072 SA
BRANCH  19  20
ATOM     20  C   UNL d   1      -3.644   4.939  -2.316  0.00  0.00     0.074 A 
ATOM     21  N   UNL d   1      -3.468   5.215  -1.006  0.00  0.00    -0.359 N 
ATOM     22  C   UNL d   1      -4.240   6.206  -0.468  0.00  0.00     0.105 A 
ATOM     23  HN  UNL d   1      -2.788   4.705  -0.443  1.00  0.00     0.166 HD
ATOM     24  C   UNL d   1      -5.178   6.951  -1.171  0.00  0.00     0.063 A 
ATOM     25  C   UNL d   1      -5.353   6.635  -2.518  0.00  0.00     0.020 A 
ATOM     26  C   UNL d   1      -4.584   5.624  -3.089  0.00  0.00     0.038 A 
BRANCH  24  27
ATOM     27  C   UNL d   1      -5.952   8.070  -0.542  0.00  0.00     0.418 C 
ATOM     28  F   UNL d   1      -5.737   8.206   0.794  0.00  0.00    -0.166 F 
ATOM     29  F   UNL d   1      -5.649   9.280  -1.094  0.00  0.00    -0.166 F 
ATOM     30  F   UNL d   1      -7.299   7.926  -0.692  0.00  0.00    -0.166 F 
ENDBRANCH  24  27
ENDBRANCH  19  20
ENDBRANCH   3  19
BRANCH   1  31
ATOM     31  N   UNL d   1       0.911   0.122   0.109  0.00  0.00    -0.116 N 
ATOM     32  O   UNL d   1       1.825  -0.460  -0.495  0.00  0.00    -0.532 OA
ATOM     33  O   UNL d   1       0.642  -0.042   1.306  0.00  0.00    -0.532 OA
ENDBRANCH   1  31
TORSDOF 8
