REMARK  2 active torsions:
REMARK  status: ('A' for Active; 'I' for Inactive)
REMARK    1  A    between atoms: C_8  and  C_1 
REMARK    2  A    between atoms: C_7  and  C_2 
ROOT
ATOM      1  C   UNL d   1      -0.785  -1.165   0.014  0.00  0.00     0.088 A 
ATOM      2  C   UNL d   1       0.621  -1.248  -0.026  0.00  0.00     0.088 A 
ATOM      3  N   UNL d   1      -1.419   0.053   0.041  0.00  0.00    -0.361 N 
ATOM      4  HN  UNL d   1      -2.436   0.125   0.048  1.00  0.00     0.165 HD
ATOM      5  N   UNL d   1       1.394  -0.110   0.014  0.00  0.00    -0.361 N 
ATOM      6  HN  UNL d   1       2.413  -0.157   0.015  1.00  0.00     0.165 HD
ATOM      7  C   UNL d   1      -0.634   1.151   0.057  0.00  0.00     0.105 A 
ATOM      8  C   UNL d   1       0.742   1.069   0.052  0.00  0.00     0.105 A 
ENDROOT
BRANCH   1   9
ATOM      9  C   UNL d   1      -1.697  -2.329   0.035  0.00  0.00     0.061 A 
ATOM     10  N   UNL d   1      -1.351  -3.386   0.816  0.00  0.00    -0.364 N 
ATOM     11  C   UNL d   1      -2.112  -4.501   0.739  0.00  0.00     0.088 A 
ATOM     12  HN  UNL d   1      -0.544  -3.341   1.439  1.00  0.00     0.165 HD
ATOM     13  C   UNL d   1      -3.256  -4.603  -0.032  0.00  0.00     0.017 A 
ATOM     14  C   UNL d   1      -3.656  -3.490  -0.756  0.00  0.00     0.004 A 
ATOM     15  C   UNL d   1      -2.872  -2.340  -0.725  0.00  0.00     0.032 A 
ENDBRANCH   1   9
BRANCH   2  16
ATOM     16  C   UNL d   1       1.392  -2.503  -0.158  0.00  0.00     0.061 A 
ATOM     17  N   UNL d   1       0.898  -3.460  -0.990  0.00  0.00    -0.364 N 
ATOM     18  C   UNL d   1       1.555  -4.638  -1.059  0.00  0.00     0.088 A 
ATOM     19  HN  UNL d   1       0.058  -3.292  -1.544  1.00  0.00     0.165 HD
ATOM     20  C   UNL d   1       2.738  -4.902  -0.393  0.00  0.00     0.017 A 
ATOM     21  C   UNL d   1       3.282  -3.896   0.393  0.00  0.00     0.004 A 
ATOM     22  C   UNL d   1       2.603  -2.686   0.516  0.00  0.00     0.032 A 
ENDBRANCH   2  16
TORSDOF 2
