REMARK  7 active torsions:
REMARK  status: ('A' for Active; 'I' for Inactive)
REMARK    1  A    between atoms: C_2  and  S_1 
REMARK    2  A    between atoms: N_7  and  S_1 
REMARK    3  A    between atoms: C_8  and  C_4 
REMARK    4  A    between atoms: C_13  and  N_7 
REMARK    5  A    between atoms: O_20  and  C_8 
REMARK    6  A    between atoms: C_14  and  N_11 
REMARK    7  A    between atoms: C_21  and  C_14 
ROOT
ATOM      1  N   UNL d   1       0.436   1.618   0.224  0.00  0.00    -0.309 N 
ATOM      2  H   UNL d   1       0.919   1.750  -0.664  0.00  0.00     0.172 HD
ENDROOT
BRANCH   1   3
ATOM      3  S   UNL d   1      -1.208   1.386  -0.054  0.00  0.00     0.275 S 
ATOM      4  O   UNL d   1      -1.978   2.469   0.507  0.00  0.00    -0.199 OA
ATOM      5  O   UNL d   1      -1.327   1.000  -1.442  0.00  0.00    -0.199 OA
BRANCH   3   6
ATOM      6  C   UNL d   1      -1.754  -0.041   0.844  0.00  0.00     0.151 A 
ATOM      7  N   UNL d   1      -3.066  -0.495   0.822  0.00  0.00    -0.336 N 
ATOM      8  C   UNL d   1      -3.188  -1.655   1.578  0.00  0.00     0.111 A 
ATOM      9  C   UNL d   1      -4.179   0.147   0.144  0.00  0.00     0.157 C 
ATOM     10  C   UNL d   1      -1.928  -1.902   2.112  0.00  0.00     0.039 A 
ATOM     11  C   UNL d   1      -1.051  -0.895   1.673  0.00  0.00     0.046 A 
BRANCH   8  12
ATOM     12  C   UNL d   1      -4.403  -2.430   1.772  0.00  0.00     0.309 C 
ATOM     13  O   UNL d   1      -5.502  -2.176   1.310  0.00  0.00    -0.258 OA
BRANCH  12  14
ATOM     14  O   UNL d   1      -4.123  -3.504   2.568  0.00  0.00    -0.321 OA
ATOM     15  C   UNL d   1      -5.236  -4.345   2.865  0.00  0.00     0.213 C 
ENDBRANCH  12  14
ENDBRANCH   8  12
ENDBRANCH   3   6
ENDBRANCH   1   3
BRANCH   1  16
ATOM     16  C   UNL d   1       0.915   2.440   1.364  0.00  0.00     0.096 C 
ATOM     17  C   UNL d   1       0.543   3.917   1.241  0.00  0.00     0.056 C 
ATOM     18  C   UNL d   1       1.294   4.621   0.117  0.00  0.00     0.275 C 
ATOM     19  N   UNL d   1       2.753   4.501   0.263  0.00  0.00     0.092 N 
ATOM     20  C   UNL d   1       3.163   3.090   0.333  0.00  0.00     0.275 C 
ATOM     21  C   UNL d   1       2.445   2.348   1.471  0.00  0.00     0.056 C 
BRANCH  19  22
ATOM     22  C   UNL d   1       3.402   5.221  -0.857  0.00  0.00     0.311 C 
BRANCH  22  23
ATOM     23  C   UNL d   1       4.915   5.241  -0.809  0.00  0.00    -0.030 A 
ATOM     24  C   UNL d   1       5.661   4.645  -1.838  0.00  0.00     0.009 A 
ATOM     25  C   UNL d   1       7.055   4.616  -1.780  0.00  0.00     0.001 A 
ATOM     26  C   UNL d   1       7.720   5.206  -0.708  0.00  0.00     0.000 A 
ATOM     27  C   UNL d   1       6.992   5.835   0.301  0.00  0.00     0.001 A 
ATOM     28  C   UNL d   1       5.597   5.850   0.254  0.00  0.00     0.009 A 
ENDBRANCH  22  23
ENDBRANCH  19  22
ENDBRANCH   1  16
TORSDOF 7
