REMARK  2 active torsions:
REMARK  status: ('A' for Active; 'I' for Inactive)
REMARK       I    between atoms: N_2  and  C_1 
REMARK    1  A    between atoms: C_3  and  C_1 
REMARK    2  A    between atoms: C_4  and  N_2 
ROOT
ATOM      1  C   UNL d   1       1.107   0.099   0.140  0.00  0.00     0.274 C 
ATOM      2  N   UNL d   1       0.589  -1.150   0.431  0.00  0.00    -0.320 N 
ATOM      3  O   UNL d   1       2.199   0.536   0.480  0.00  0.00    -0.266 OA
ATOM      4  H   UNL d   1      -0.280  -1.385  -0.046  0.00  0.00     0.169 HD
ENDROOT
BRANCH   1   5
ATOM      5  C   UNL d   1       0.216   0.932  -0.711  0.00  0.00     0.116 A 
ATOM      6  N   UNL d   1      -1.075   0.516  -0.864  0.00  0.00    -0.359 N 
ATOM      7  C   UNL d   1      -1.848   1.337  -1.615  0.00  0.00     0.105 A 
ATOM      8  HN  UNL d   1      -1.429  -0.344  -0.446  1.00  0.00     0.165 HD
ATOM      9  C   UNL d   1      -1.360   2.493  -2.207  0.00  0.00     0.104 A 
ATOM     10  N   UNL d   1      -0.073   2.890  -2.075  0.00  0.00    -0.372 N 
ATOM     11  C   UNL d   1       0.705   2.087  -1.306  0.00  0.00     0.122 A 
ATOM     12  HN  UNL d   1       0.286   3.734  -2.521  1.00  0.00     0.164 HD
ENDBRANCH   1   5
BRANCH   2  13
ATOM     13  C   UNL d   1       1.172  -2.159   1.229  0.00  0.00     0.057 A 
ATOM     14  C   UNL d   1       0.646  -3.464   1.171  0.00  0.00     0.062 A 
ATOM     15  C   UNL d   1       1.194  -4.496   1.936  0.00  0.00     0.050 A 
ATOM     16 CL   UNL d   1      -0.678  -3.846   0.121  0.00  0.00    -0.082 Cl
ATOM     17  C   UNL d   1       2.262  -4.225   2.785  0.00  0.00     0.035 A 
ATOM     18  C   UNL d   1       2.783  -2.937   2.873  0.00  0.00     0.026 A 
ATOM     19 CL   UNL d   1       2.942  -5.486   3.736  0.00  0.00    -0.084 Cl
ATOM     20  C   UNL d   1       2.243  -1.909   2.093  0.00  0.00     0.033 A 
ENDBRANCH   2  13
TORSDOF 2
