REMARK  9 active torsions:
REMARK  status: ('A' for Active; 'I' for Inactive)
REMARK    1  A    between atoms: C_2  and  S_1 
REMARK    2  A    between atoms: C_16  and  S_1 
REMARK    3  A    between atoms: N_5  and  C_3 
REMARK       I    between atoms: C_6  and  N_5 
REMARK    4  A    between atoms: C_19  and  C_6 
REMARK    5  A    between atoms: O_18  and  C_9 
REMARK    6  A    between atoms: C_10  and  C_20 
REMARK    7  A    between atoms: O_17  and  C_10 
REMARK    8  A    between atoms: S_15  and  C_19 
REMARK    9  A    between atoms: C_20  and  S_15 
ROOT
ATOM      1  C   UNL d   1       0.333   1.690   0.021  0.00  0.00     0.061 A 
ATOM      2  C   UNL d   1       0.733   4.070  -0.010  0.00  0.00     0.069 A 
ATOM      3  C   UNL d   1       1.215   2.769   0.130  0.00  0.00     0.055 A 
ATOM      4  C   UNL d   1      -0.646   4.266  -0.199  0.00  0.00     0.092 A 
ATOM      5  C   UNL d   1      -1.035   1.891  -0.184  0.00  0.00     0.026 A 
ATOM      6  C   UNL d   1      -1.529   3.190  -0.292  0.00  0.00     0.040 A 
ENDROOT
BRANCH   2   7
ATOM      7  N   UNL d   1       1.554   5.221   0.014  0.00  0.00    -0.324 N 
ATOM      8  C   UNL d   1       2.937   5.250  -0.008  0.00  0.00     0.231 C 
ATOM      9  O   UNL d   1       3.668   4.265  -0.091  0.00  0.00    -0.272 OA
ATOM     10  H   UNL d   1       1.030   6.091  -0.078  0.00  0.00     0.169 HD
BRANCH   8  11
ATOM     11  C   UNL d   1       3.525   6.654   0.025  0.00  0.00     0.177 C 
BRANCH  11  12
ATOM     12  S   UNL d   1       4.535   6.984  -1.470  0.00  0.00    -0.149 SA
BRANCH  12  13
ATOM     13  C   UNL d   1       3.245   6.816  -2.747  0.00  0.00     0.184 C 
BRANCH  13  14
ATOM     14  C   UNL d   1       2.243   7.939  -2.614  0.00  0.00     0.149 C 
ATOM     15  O   UNL d   1       1.044   7.769  -2.444  0.00  0.00    -0.649 OA
BRANCH  14  16
ATOM     16  O   UNL d   1       2.804   9.174  -2.667  0.00  0.00    -0.776 OA
ATOM     17  H   UNL d   1       3.783   9.125  -2.703  0.00  0.00     0.167 HD
ENDBRANCH  14  16
ENDBRANCH  13  14
ENDBRANCH  12  13
ENDBRANCH  11  12
ENDBRANCH   8  11
ENDBRANCH   2   7
BRANCH   4  18
ATOM     18  O   UNL d   1      -1.107   5.553  -0.297  0.00  0.00    -0.358 OA
ATOM     19  H   UNL d   1      -2.067   5.535  -0.441  0.00  0.00     0.217 HD
ENDBRANCH   4  18
BRANCH   1  20
ATOM     20  S   UNL d   1       0.967   0.034   0.168  0.00  0.00     0.175 S 
ATOM     21  O   UNL d   1      -0.145  -0.808   0.571  0.00  0.00    -0.223 OA
ATOM     22  O   UNL d   1       2.178   0.092   0.959  0.00  0.00    -0.223 OA
BRANCH  20  23
ATOM     23  C   UNL d   1       1.397  -0.371  -1.516  0.00  0.00     0.141 C 
ATOM     24  C   UNL d   1       1.908  -1.793  -1.634  0.00  0.00     0.021 C 
ENDBRANCH  20  23
ENDBRANCH   1  20
TORSDOF 9
