REMARK  2 active torsions:
REMARK  status: ('A' for Active; 'I' for Inactive)
REMARK    1  A    between atoms: S_9  and  C_2 
REMARK    2  A    between atoms: O_11  and  C_8 
ROOT
ATOM      1  C   UNL d   1       0.084  -0.727  -0.025  0.00  0.00     0.002 A 
ATOM      2  C   UNL d   1       1.219  -1.523   0.058  0.00  0.00     0.051 A 
ATOM      3  S   UNL d   1       2.650  -0.575   0.118  0.00  0.00    -0.071 SA
ATOM      4  C   UNL d   1       0.427   0.686   0.009  0.00  0.00    -0.020 A 
ATOM      5  C   UNL d   1       1.797   0.891   0.046  0.00  0.00     0.093 A 
ATOM      6  C   UNL d   1       2.455   2.164   0.015  0.00  0.00     0.107 C 
ATOM      7  N   UNL d   1       2.953   3.211  -0.025  0.00  0.00    -0.191 NA
ATOM      8  C   UNL d   1      -1.359  -1.169  -0.124  0.00  0.00     0.153 C 
ATOM      9  C   UNL d   1      -0.615   1.772  -0.035  0.00  0.00     0.041 C 
ATOM     10  C   UNL d   1      -1.996   1.246   0.364  0.00  0.00     0.007 C 
ATOM     11  C   UNL d   1      -2.328  -0.016  -0.427  0.00  0.00     0.037 C 
ENDROOT
BRANCH   2  12
ATOM     12  S   UNL d   1       1.409  -3.274   0.023  0.00  0.00    -0.126 SA
ATOM     13  C   UNL d   1       0.047  -3.911   1.015  0.00  0.00     0.096 C 
ENDBRANCH   2  12
BRANCH   8  14
ATOM     14  O   UNL d   1      -1.552  -2.151  -1.138  0.00  0.00    -0.391 OA
ATOM     15  H   UNL d   1      -1.000  -1.896  -1.897  0.00  0.00     0.210 HD
ENDBRANCH   8  14
TORSDOF 2
