REMARK  6 active torsions:
REMARK  status: ('A' for Active; 'I' for Inactive)
REMARK    1  A    between atoms: S_16  and  C_3 
REMARK    2  A    between atoms: C_7  and  C_8 
REMARK    3  A    between atoms: C_8  and  O_18 
REMARK    4  A    between atoms: C_24  and  S_16 
REMARK    5  A    between atoms: O_18  and  C_25 
REMARK    6  A    between atoms: C_25  and  C_24 
ROOT
ATOM      1  C   UNL d   1       0.014  -0.700   0.031  0.00  0.00     0.042 A 
ATOM      2  C   UNL d   1       0.340   0.712  -0.052  0.00  0.00    -0.014 A 
ATOM      3  C   UNL d   1       1.133  -1.509  -0.022  0.00  0.00     0.057 A 
ATOM      4  C   UNL d   1       1.706   0.913  -0.125  0.00  0.00     0.093 A 
ATOM      5  S   UNL d   1       2.564  -0.563  -0.127  0.00  0.00    -0.071 SA
ATOM      6  C   UNL d   1      -1.378  -1.110   0.190  0.00  0.00     0.162 C 
ATOM      7  C   UNL d   1       2.359   2.183  -0.190  0.00  0.00     0.107 C 
ATOM      8  N   UNL d   1       2.859   3.232  -0.238  0.00  0.00    -0.191 NA
ATOM      9  C   UNL d   1      -0.733   1.787  -0.042  0.00  0.00     0.050 C 
ATOM     10  C   UNL d   1      -2.136   1.246   0.363  0.00  0.00    -0.037 C 
ATOM     11  C   UNL d   1      -2.387  -0.111  -0.324  0.00  0.00     0.093 C 
ATOM     12  O   UNL d   1      -1.736  -2.126   0.776  0.00  0.00    -0.292 OA
ATOM     13  C   UNL d   1      -3.232   2.224  -0.085  0.00  0.00     0.015 C 
ATOM     14  C   UNL d   1      -2.233   1.089   1.898  0.00  0.00     0.015 C 
ENDROOT
BRANCH   3  15
ATOM     15  S   UNL d   1       1.281  -3.266   0.038  0.00  0.00    -0.119 SA
BRANCH  15  16
ATOM     16  C   UNL d   1      -0.049  -3.851  -1.067  0.00  0.00     0.107 C 
BRANCH  16  17
ATOM     17  C   UNL d   1       0.029  -5.359  -1.289  0.00  0.00     0.189 C 
BRANCH  17  18
ATOM     18  O   UNL d   1       1.222  -5.718  -1.991  0.00  0.00    -0.317 OA
BRANCH  18  19
ATOM     19  C   UNL d   1       1.186  -5.590  -3.336  0.00  0.00     0.295 C 
ATOM     20  O   UNL d   1       0.248  -5.177  -3.997  0.00  0.00    -0.259 OA
BRANCH  19  21
ATOM     21  C   UNL d   1       2.533  -5.853  -3.885  0.00  0.00     0.061 A 
ATOM     22  C   UNL d   1       3.401  -6.843  -3.408  0.00  0.00     0.050 A 
ATOM     23 CL   UNL d   1       2.953  -8.032  -2.234  0.00  0.00    -0.083 Cl
ATOM     24  C   UNL d   1       4.696  -6.939  -3.932  0.00  0.00     0.025 A 
ATOM     25  C   UNL d   1       5.114  -6.078  -4.948  0.00  0.00     0.002 A 
ATOM     26  C   UNL d   1       4.236  -5.127  -5.461  0.00  0.00     0.001 A 
ATOM     27  C   UNL d   1       2.950  -5.013  -4.932  0.00  0.00     0.019 A 
ENDBRANCH  19  21
ENDBRANCH  18  19
ENDBRANCH  17  18
ENDBRANCH  16  17
ENDBRANCH  15  16
ENDBRANCH   3  15
TORSDOF 6
