REMARK  2 active torsions:
REMARK  status: ('A' for Active; 'I' for Inactive)
REMARK    1  A    between atoms: C_7  and  C_3 
REMARK    2  A    between atoms: C_14  and  C_4 
ROOT
ATOM      1  N   UNL d   1       1.399  -0.607  -0.010  0.00  0.00    -0.349 N 
ATOM      2  HN  UNL d   1       2.285  -1.111  -0.026  1.00  0.00     0.166 HD
ATOM      3  C   UNL d   1       0.208  -1.178  -0.020  0.00  0.00     0.085 A 
ATOM      4  C   UNL d   1       1.275   0.776   0.024  0.00  0.00     0.050 A 
ATOM      5  S   UNL d   1      -1.118  -0.078   0.053  0.00  0.00    -0.081 SA
ATOM      6  C   UNL d   1      -0.027   1.236   0.051  0.00  0.00     0.082 A 
ENDROOT
BRANCH   3   7
ATOM      7  C   UNL d   1      -0.021  -2.633  -0.052  0.00  0.00     0.001 A 
ATOM      8  C   UNL d   1      -1.141  -3.197  -0.689  0.00  0.00     0.054 A 
ATOM      9  C   UNL d   1      -1.277  -4.570  -0.686  0.00  0.00     0.105 A 
ATOM     10  O   UNL d   1      -2.293  -5.264  -1.266  0.00  0.00    -0.323 OA
ATOM     11  C   UNL d   1      -0.358  -5.392  -0.081  0.00  0.00     0.105 A 
ATOM     12  C   UNL d   1      -1.885  -6.620  -0.991  0.00  0.00     0.352 A 
ATOM     13  O   UNL d   1      -0.682  -6.707  -0.199  0.00  0.00    -0.323 OA
ATOM     14  C   UNL d   1       0.754  -4.886   0.554  0.00  0.00     0.040 A 
ATOM     15  C   UNL d   1       0.923  -3.495   0.559  0.00  0.00     0.017 A 
ENDBRANCH   3   7
BRANCH   4  16
ATOM     16  C   UNL d   1       2.439   1.655  -0.023  0.00  0.00    -0.009 A 
ATOM     17  C   UNL d   1       3.600   1.237  -0.688  0.00  0.00     0.014 A 
ATOM     18  C   UNL d   1       4.703   2.089  -0.797  0.00  0.00     0.001 A 
ATOM     19  C   UNL d   1       4.662   3.362  -0.232  0.00  0.00     0.000 A 
ATOM     20  C   UNL d   1       3.524   3.780   0.455  0.00  0.00     0.001 A 
ATOM     21  C   UNL d   1       2.420   2.931   0.562  0.00  0.00     0.014 A 
ENDBRANCH   4  16
TORSDOF 2
