REMARK  3 active torsions:
REMARK  status: ('A' for Active; 'I' for Inactive)
REMARK    1  A    between atoms: S_4  and  C_1 
REMARK    2  A    between atoms: C_6  and  C_2 
REMARK       I    between atoms: N_8  and  C_6 
REMARK    3  A    between atoms: C_9  and  N_8 
ROOT
ATOM      1  C   UNL d   1       0.003   2.522   0.518  0.00  0.00     0.264 C 
ATOM      2  N   UNL d   1       0.916   3.306  -0.173  0.00  0.00    -0.321 N 
ATOM      3  O   UNL d   1      -0.910   3.008   1.182  0.00  0.00    -0.267 OA
ATOM      4  H   UNL d   1       1.484   2.848  -0.877  0.00  0.00     0.169 HD
ENDROOT
BRANCH   1   5
ATOM      5  C   UNL d   1       0.168   1.072   0.385  0.00  0.00     0.096 A 
ATOM      6  C   UNL d   1      -0.579   0.073   0.998  0.00  0.00     0.078 A 
ATOM      7  C   UNL d   1      -0.099  -1.236   0.678  0.00  0.00     0.088 A 
ATOM      8 CL   UNL d   1      -1.915   0.355   2.046  0.00  0.00    -0.081 Cl
ATOM      9  C   UNL d   1       0.990  -1.193  -0.168  0.00  0.00     0.075 A 
ATOM     10  S   UNL d   1       1.415   0.402  -0.589  0.00  0.00    -0.093 SA
BRANCH   7  11
ATOM     11  S   UNL d   1      -0.745  -2.722   1.296  0.00  0.00     0.174 S 
ATOM     12  O   UNL d   1       0.046  -3.755   0.654  0.00  0.00    -0.223 OA
ATOM     13  O   UNL d   1      -0.752  -2.554   2.733  0.00  0.00    -0.223 OA
ATOM     14  C   UNL d   1      -2.403  -2.826   0.678  0.00  0.00     0.167 C 
ENDBRANCH   7  11
ENDBRANCH   1   5
BRANCH   2  15
ATOM     15  C   UNL d   1       1.056   4.714  -0.081  0.00  0.00     0.056 A 
ATOM     16  C   UNL d   1       1.771   5.402  -1.076  0.00  0.00     0.060 A 
ATOM     17 CL   UNL d   1       2.466   4.559  -2.418  0.00  0.00    -0.082 Cl
ATOM     18  C   UNL d   1       1.917   6.792  -1.022  0.00  0.00     0.026 A 
ATOM     19  C   UNL d   1       1.373   7.510   0.042  0.00  0.00     0.002 A 
ATOM     20  C   UNL d   1       0.692   6.837   1.052  0.00  0.00     0.002 A 
ATOM     21  C   UNL d   1       0.534   5.450   0.990  0.00  0.00     0.031 A 
ENDBRANCH   2  15
TORSDOF 3
