REMARK  4 active torsions:
REMARK  status: ('A' for Active; 'I' for Inactive)
REMARK    1  A    between atoms: C_3  and  C_1 
REMARK    2  A    between atoms: C_10  and  C_2 
REMARK    3  A    between atoms: N_16  and  C_10 
REMARK    4  A    between atoms: O_17  and  N_14 
ROOT
ATOM      1  C   UNL d   1       2.322  -4.204   0.137  0.00  0.00     0.142 A 
ATOM      2  C   UNL d   1       1.783  -2.923   0.028  0.00  0.00     0.066 A 
ATOM      3  O   UNL d   1       3.660  -4.099   0.364  0.00  0.00    -0.234 OA
ATOM      4  N   UNL d   1       4.055  -2.786   0.285  0.00  0.00    -0.264 N 
ATOM      5  HN  UNL d   1       5.006  -2.424   0.362  1.00  0.00     0.194 HD
ATOM      6  C   UNL d   1       2.937  -2.079   0.085  0.00  0.00     0.045 A 
ATOM      7  C   UNL d   1       3.090  -0.604   0.011  0.00  0.00     0.071 C 
ENDROOT
BRANCH   2   8
ATOM      8  C   UNL d   1       0.371  -2.610  -0.044  0.00  0.00     0.113 C 
ATOM      9  N   UNL d   1      -0.468  -3.348   0.613  0.00  0.00    -0.257 N 
ATOM     10  HN  UNL d   1      -0.203  -4.138   1.202  1.00  0.00     0.195 HD
BRANCH   9  11
ATOM     11  O   UNL d   1      -1.790  -2.917   0.407  0.00  0.00    -0.289 OA
ATOM     12  H   UNL d   1      -2.299  -3.581   0.914  0.00  0.00     0.244 HD
ENDBRANCH   9  11
BRANCH   8  13
ATOM     13  N   UNL d   1       0.011  -1.554  -0.833  0.00  0.00    -0.286 NA
ATOM     14  H   UNL d   1       0.488  -0.688  -0.644  0.00  0.00     0.125 HD
ATOM     15  H   UNL d   1      -0.993  -1.414  -0.726  0.00  0.00     0.125 HD
ENDBRANCH   8  13
ENDBRANCH   2   8
BRANCH   1  16
ATOM     16  C   UNL d   1       1.650  -5.535   0.018  0.00  0.00     0.094 A 
ATOM     17  N   UNL d   1       2.197  -6.637   0.547  0.00  0.00    -0.258 N 
ATOM     18  O   UNL d   1       1.308  -7.666   0.281  0.00  0.00    -0.242 OA
ATOM     19  HN  UNL d   1       3.086  -6.705   1.043  1.00  0.00     0.195 HD
ATOM     20  C   UNL d   1       0.276  -7.190  -0.460  0.00  0.00     0.074 A 
ATOM     21  C   UNL d   1       0.460  -5.845  -0.677  0.00  0.00     0.068 A 
ATOM     22  C   UNL d   1      -0.762  -8.157  -0.850  0.00  0.00     0.079 C 
ENDBRANCH   1  16
TORSDOF 4
