REMARK  4 active torsions:
REMARK  status: ('A' for Active; 'I' for Inactive)
REMARK    1  A    between atoms: N_6  and  C_1 
REMARK    2  A    between atoms: C_10  and  N_2 
REMARK       I    between atoms: C_7  and  N_6 
REMARK    3  A    between atoms: C_9  and  C_7 
REMARK    4  A    between atoms: C_13  and  C_10 
ROOT
ATOM      1  C   UNL d   1      -0.366  -1.395   0.160  0.00  0.00     0.132 A 
ATOM      2  N   UNL d   1       0.863  -0.771   0.058  0.00  0.00    -0.331 N 
ATOM      3  C   UNL d   1      -1.332  -0.413   0.254  0.00  0.00     0.096 A 
ATOM      4  C   UNL d   1       0.687   0.599   0.022  0.00  0.00     0.017 A 
ATOM      5  C   UNL d   1      -0.677   0.852   0.127  0.00  0.00    -0.015 A 
ATOM      6  C   UNL d   1      -2.747  -0.644   0.339  0.00  0.00     0.104 C 
ATOM      7  N   UNL d   1      -3.896  -0.799   0.366  0.00  0.00    -0.191 NA
ATOM      8  C   UNL d   1       1.798   1.589  -0.111  0.00  0.00     0.069 C 
ATOM      9  C   UNL d   1      -1.310   2.202   0.092  0.00  0.00     0.052 C 
ENDROOT
BRANCH   1  10
ATOM     10  N   UNL d   1      -0.490  -2.778   0.123  0.00  0.00    -0.307 N 
ATOM     11  C   UNL d   1      -0.750  -3.457   1.313  0.00  0.00     0.264 C 
ATOM     12  O   UNL d   1      -1.083  -2.889   2.351  0.00  0.00    -0.267 OA
ATOM     13  H   UNL d   1       0.136  -3.291  -0.490  0.00  0.00     0.170 HD
BRANCH  11  14
ATOM     14  C   UNL d   1      -0.487  -4.896   1.266  0.00  0.00     0.072 A 
ATOM     15  S   UNL d   1      -0.142  -5.722  -0.199  0.00  0.00    -0.097 SA
ATOM     16  C   UNL d   1       0.004  -7.228   0.597  0.00  0.00     0.050 A 
ATOM     17  C   UNL d   1      -0.185  -7.112   1.956  0.00  0.00     0.009 A 
ATOM     18  C   UNL d   1      -0.467  -5.769   2.340  0.00  0.00     0.025 A 
ENDBRANCH  11  14
ENDBRANCH   1  10
BRANCH   2  19
ATOM     19  C   UNL d   1       2.143  -1.482   0.068  0.00  0.00     0.176 C 
BRANCH  19  20
ATOM     20  C   UNL d   1       2.450  -2.060  -1.281  0.00  0.00     0.001 A 
ATOM     21  S   UNL d   1       3.449  -3.451  -1.385  0.00  0.00    -0.105 SA
ATOM     22  C   UNL d   1       3.301  -3.509  -3.086  0.00  0.00     0.050 A 
ATOM     23  C   UNL d   1       2.514  -2.490  -3.573  0.00  0.00     0.008 A 
ATOM     24  C   UNL d   1       2.034  -1.646  -2.533  0.00  0.00     0.017 A 
ENDBRANCH  19  20
ENDBRANCH   2  19
TORSDOF 4
