REMARK  7 active torsions:
REMARK  status: ('A' for Active; 'I' for Inactive)
REMARK    1  A    between atoms: C_6  and  C_1 
REMARK    2  A    between atoms: C_11  and  N_2 
REMARK    3  A    between atoms: C_19  and  C_3 
REMARK       I    between atoms: N_8  and  C_6 
REMARK    4  A    between atoms: C_10  and  N_9 
REMARK    5  A    between atoms: C_17  and  C_10 
REMARK    6  A    between atoms: C_18  and  C_10 
REMARK    7  A    between atoms: C_26  and  C_19 
ROOT
ATOM      1  C   UNL d   1      -0.568   2.423   0.198  0.00  0.00     0.257 C 
ATOM      2  N   UNL d   1       0.306   3.486  -0.035  0.00  0.00    -0.344 N 
ATOM      3  N   UNL d   1       2.780   5.114   0.223  0.00  0.00     0.105 N 
ATOM      4  O   UNL d   1      -1.204   2.342   1.254  0.00  0.00    -0.267 OA
ATOM      5  C   UNL d   1       1.292   3.558  -1.117  0.00  0.00     0.156 C 
ATOM      6  C   UNL d   1       0.337   4.631   0.886  0.00  0.00     0.156 C 
ATOM      7  C   UNL d   1       1.774   5.015   1.318  0.00  0.00     0.293 C 
ATOM      8  C   UNL d   1       2.687   3.870  -0.570  0.00  0.00     0.293 C 
ENDROOT
BRANCH   1   9
ATOM      9  C   UNL d   1      -0.752   1.423  -0.853  0.00  0.00     0.073 A 
ATOM     10  C   UNL d   1      -1.093   0.064  -0.727  0.00  0.00     0.051 A 
ATOM     11  N   UNL d   1      -1.220  -0.422  -2.035  0.00  0.00    -0.260 N 
ATOM     12  N   UNL d   1      -1.118   0.582  -2.945  0.00  0.00    -0.304 N 
ATOM     13  C   UNL d   1      -0.815   1.658  -2.239  0.00  0.00     0.126 A 
ATOM     14  HN  UNL d   1      -1.246   0.519  -3.955  1.00  0.00     0.186 HD
BRANCH  10  15
ATOM     15  C   UNL d   1      -1.534  -0.683   0.508  0.00  0.00     0.060 C 
BRANCH  15  16
ATOM     16  C   UNL d   1      -0.477  -1.425   1.331  0.00  0.00     0.002 C 
ATOM     17  C   UNL d   1       0.643  -0.577   1.901  0.00  0.00     0.005 C 
ENDBRANCH  15  16
ENDBRANCH  10  15
BRANCH  11  18
ATOM     18  C   UNL d   1      -1.407  -1.736  -2.557  0.00  0.00     0.056 A 
ATOM     19  C   UNL d   1      -2.022  -1.885  -3.810  0.00  0.00     0.031 A 
ATOM     20  C   UNL d   1      -2.105  -3.136  -4.421  0.00  0.00     0.002 A 
ATOM     21  C   UNL d   1      -1.555  -4.250  -3.793  0.00  0.00     0.000 A 
ATOM     22  C   UNL d   1      -0.950  -4.113  -2.546  0.00  0.00     0.002 A 
ATOM     23  C   UNL d   1      -0.879  -2.861  -1.927  0.00  0.00     0.031 A 
ENDBRANCH  11  18
ENDBRANCH   1   9
BRANCH   3  24
ATOM     24  C   UNL d   1       2.640   6.362  -0.588  0.00  0.00     0.289 C 
BRANCH  24  25
ATOM     25  C   UNL d   1       2.866   7.616   0.269  0.00  0.00    -0.021 A 
ATOM     26  C   UNL d   1       4.070   7.803   0.968  0.00  0.00     0.010 A 
ATOM     27  C   UNL d   1       4.279   8.947   1.736  0.00  0.00     0.001 A 
ATOM     28  C   UNL d   1       3.285   9.918   1.821  0.00  0.00     0.000 A 
ATOM     29  C   UNL d   1       2.081   9.746   1.143  0.00  0.00     0.001 A 
ATOM     30  C   UNL d   1       1.871   8.602   0.367  0.00  0.00     0.010 A 
ENDBRANCH  24  25
BRANCH  24  31
ATOM     31  C   UNL d   1       3.545   6.424  -1.836  0.00  0.00    -0.021 A 
ATOM     32  C   UNL d   1       3.087   7.061  -3.002  0.00  0.00     0.010 A 
ATOM     33  C   UNL d   1       3.874   7.093  -4.158  0.00  0.00     0.001 A 
ATOM     34  C   UNL d   1       5.130   6.491  -4.167  0.00  0.00     0.000 A 
ATOM     35  C   UNL d   1       5.618   5.889  -3.011  0.00  0.00     0.001 A 
ATOM     36  C   UNL d   1       4.843   5.878  -1.850  0.00  0.00     0.010 A 
ENDBRANCH  24  31
ENDBRANCH   3  24
TORSDOF 7
