REMARK  4 active torsions:
REMARK  status: ('A' for Active; 'I' for Inactive)
REMARK    1  A    between atoms: C_5  and  C_1 
REMARK    2  A    between atoms: C_11  and  C_4 
REMARK    3  A    between atoms: O_15  and  C_11 
REMARK    4  A    between atoms: C_17  and  O_15 
ROOT
ATOM      1  N   UNL d   1       1.988  -3.405  -0.984  0.00  0.00    -0.343 N 
ATOM      2  HN  UNL d   1       1.330  -3.388  -1.763  1.00  0.00     0.167 HD
ATOM      3  C   UNL d   1       2.985  -4.365  -0.801  0.00  0.00     0.115 A 
ATOM      4  C   UNL d   1       2.018  -2.523  -0.005  0.00  0.00     0.102 A 
ATOM      5  S   UNL d   1       3.182  -2.827   1.221  0.00  0.00    -0.080 SA
ATOM      6  C   UNL d   1       3.709  -4.214   0.368  0.00  0.00     0.087 A 
ENDROOT
BRANCH   4   7
ATOM      7  C   UNL d   1       1.113  -1.323   0.014  0.00  0.00     0.073 A 
ATOM      8  N   UNL d   1       1.211  -0.331   0.977  0.00  0.00    -0.352 N 
ATOM      9  C   UNL d   1       0.338   0.622   0.723  0.00  0.00     0.047 A 
ATOM     10  HN  UNL d   1       1.860  -0.337   1.763  1.00  0.00     0.166 HD
ATOM     11  C   UNL d   1       0.193   1.862   1.532  0.00  0.00     0.076 C 
ATOM     12  S   UNL d   1      -0.674   0.359  -0.641  0.00  0.00    -0.087 SA
ATOM     13  C   UNL d   1       0.140  -1.118  -0.944  0.00  0.00     0.083 A 
ENDBRANCH   4   7
BRANCH   3  14
ATOM     14  C   UNL d   1       3.275  -5.396  -1.799  0.00  0.00     0.310 C 
ATOM     15  O   UNL d   1       4.189  -6.204  -1.682  0.00  0.00    -0.258 OA
BRANCH  14  16
ATOM     16  O   UNL d   1       2.466  -5.293  -2.894  0.00  0.00    -0.317 OA
BRANCH  16  17
ATOM     17  C   UNL d   1       2.888  -6.019  -4.053  0.00  0.00     0.175 C 
ATOM     18  C   UNL d   1       3.806  -5.129  -4.872  0.00  0.00     0.034 C 
ENDBRANCH  16  17
ENDBRANCH  14  16
ENDBRANCH   3  14
TORSDOF 4
