REMARK  4 active torsions:
REMARK  status: ('A' for Active; 'I' for Inactive)
REMARK    1  A    between atoms: C_18  and  C_10 
REMARK    2  A    between atoms: C_12  and  C_19 
REMARK    3  A    between atoms: S_17  and  C_18 
REMARK    4  A    between atoms: C_19  and  S_17 
ROOT
ATOM      1  C   UNL d   1      -0.395   0.296  -1.194  0.00  0.00     0.085 A 
ATOM      2  C   UNL d   1       0.253   0.603   0.073  0.00  0.00     0.085 A 
ATOM      3  O   UNL d   1       1.543   1.204  -1.567  0.00  0.00    -0.156 OA
ATOM      4  N   UNL d   1       0.420   0.676  -2.185  0.00  0.00    -0.240 N 
ATOM      5  HN  UNL d   1       0.251   0.593  -3.187  1.00  0.00     0.197 HD
ATOM      6  N   UNL d   1       1.443   1.157  -0.186  0.00  0.00    -0.240 N 
ATOM      7  HN  UNL d   1       2.133   1.479   0.492  1.00  0.00     0.197 HD
ATOM      8  C   UNL d   1      -1.667  -0.301  -1.266  0.00  0.00     0.041 A 
ATOM      9  C   UNL d   1      -0.349   0.324   1.313  0.00  0.00     0.034 A 
ATOM     10  C   UNL d   1      -2.267  -0.588  -0.015  0.00  0.00    -0.046 A 
ATOM     11  C   UNL d   1      -1.622  -0.274   1.223  0.00  0.00     0.010 A 
ENDROOT
BRANCH  10  12
ATOM     12  C   UNL d   1      -3.645  -1.221   0.017  0.00  0.00     0.112 C 
BRANCH  12  13
ATOM     13  S   UNL d   1      -4.945   0.053   0.066  0.00  0.00    -0.158 SA
BRANCH  13  14
ATOM     14  C   UNL d   1      -6.414  -1.022   0.011  0.00  0.00     0.139 C 
BRANCH  14  15
ATOM     15  C   UNL d   1      -6.525  -1.876   1.219  0.00  0.00     0.061 A 
ATOM     16  O   UNL d   1      -6.018  -3.140   1.121  0.00  0.00    -0.326 OA
ATOM     17  C   UNL d   1      -6.207  -3.738   2.325  0.00  0.00     0.142 A 
ATOM     18  C   UNL d   1      -6.840  -2.881   3.194  0.00  0.00     0.027 A 
ATOM     19  C   UNL d   1      -7.051  -1.677   2.479  0.00  0.00     0.035 A 
ENDBRANCH  14  15
ENDBRANCH  13  14
ENDBRANCH  12  13
ENDBRANCH  10  12
TORSDOF 4
