REMARK  6 active torsions:
REMARK  status: ('A' for Active; 'I' for Inactive)
REMARK    1  A    between atoms: C_8  and  N_1 
REMARK    2  A    between atoms: S_12  and  C_2 
REMARK    3  A    between atoms: C_17  and  C_7 
REMARK    4  A    between atoms: C_21  and  C_17 
REMARK    5  A    between atoms: O_18  and  C_20 
REMARK    6  A    between atoms: C_20  and  C_21 
ROOT
ATOM      1  N   UNL d   1      -0.260  -1.302  -0.089  0.00  0.00    -0.277 N 
ATOM      2  C   UNL d   1       0.977  -0.670  -0.132  0.00  0.00     0.167 A 
ATOM      3  N   UNL d   1       0.831   0.634  -0.161  0.00  0.00    -0.278 N 
ATOM      4  HN  UNL d   1       1.583   1.322  -0.199  1.00  0.00     0.189 HD
ATOM      5  N   UNL d   1      -0.502   0.906  -0.129  0.00  0.00    -0.286 N 
ATOM      6  HN  UNL d   1      -0.919   1.837  -0.145  1.00  0.00     0.188 HD
ATOM      7  C   UNL d   1      -1.170  -0.235  -0.073  0.00  0.00     0.105 A 
ENDROOT
BRANCH   1   8
ATOM      8  C   UNL d   1      -0.532  -2.702   0.037  0.00  0.00     0.065 A 
ATOM      9  C   UNL d   1      -1.542  -3.356  -0.691  0.00  0.00     0.062 A 
ATOM     10  C   UNL d   1      -1.827  -4.708  -0.447  0.00  0.00     0.050 A 
ATOM     11 CL   UNL d   1      -2.347  -2.668  -2.058  0.00  0.00    -0.082 Cl
ATOM     12  C   UNL d   1      -1.058  -5.434   0.454  0.00  0.00     0.035 A 
ATOM     13  C   UNL d   1      -0.009  -4.824   1.129  0.00  0.00     0.026 A 
ATOM     14 CL   UNL d   1      -1.385  -7.104   0.708  0.00  0.00    -0.084 Cl
ATOM     15  C   UNL d   1       0.238  -3.460   0.940  0.00  0.00     0.033 A 
ENDBRANCH   1   8
BRANCH   2  16
ATOM     16  S   UNL d   1       2.518  -1.466  -0.283  0.00  0.00    -0.096 SA
ATOM     17  C   UNL d   1       3.646  -0.061  -0.128  0.00  0.00     0.099 C 
ENDBRANCH   2  16
BRANCH   7  18
ATOM     18  C   UNL d   1      -2.654  -0.323   0.069  0.00  0.00     0.080 C 
BRANCH  18  19
ATOM     19  C   UNL d   1      -3.272   0.894   0.767  0.00  0.00     0.033 C 
BRANCH  19  20
ATOM     20  C   UNL d   1      -4.795   0.816   0.748  0.00  0.00     0.164 C 
BRANCH  20  21
ATOM     21  O   UNL d   1      -5.227  -0.349   1.436  0.00  0.00    -0.401 OA
ATOM     22  H   UNL d   1      -6.199  -0.351   1.409  0.00  0.00     0.209 HD
ENDBRANCH  20  21
ENDBRANCH  19  20
ENDBRANCH  18  19
ENDBRANCH   7  18
TORSDOF 6
