REMARK  4 active torsions:
REMARK  status: ('A' for Active; 'I' for Inactive)
REMARK    1  A    between atoms: C_3  and  C_1 
REMARK    2  A    between atoms: C_4  and  C_2 
REMARK       I    between atoms: N_6  and  C_4 
REMARK       I    between atoms: C_16  and  N_6 
REMARK    3  A    between atoms: O_21  and  C_16 
REMARK    4  A    between atoms: C_23  and  O_21 
ROOT
ATOM      1  C   UNL d   1       0.387  -7.598   1.358  0.00  0.00    -0.091 C 
ATOM      2  C   UNL d   1      -0.213  -8.203   2.205  0.00  0.00     0.014 C 
ATOM      3  C   UNL d   1       1.122  -6.883   0.295  0.00  0.00     0.273 C 
ENDROOT
BRANCH   3   4
ATOM      4  O   UNL d   1       0.787  -5.484   0.315  0.00  0.00    -0.292 OA
BRANCH   4   5
ATOM      5  C   UNL d   1       1.787  -4.585   0.481  0.00  0.00     0.368 C 
ATOM      6  N   UNL d   1       1.381  -3.259   0.460  0.00  0.00    -0.269 N 
ATOM      7  C   UNL d   1       0.207  -2.736  -0.062  0.00  0.00     0.264 C 
ATOM      8  H   UNL d   1       2.120  -2.642   0.741  0.00  0.00     0.174 HD
ATOM      9  O   UNL d   1      -0.649  -3.437  -0.592  0.00  0.00    -0.267 OA
ATOM     10  O   UNL d   1       2.965  -4.866   0.655  0.00  0.00    -0.238 OA
BRANCH   7  11
ATOM     11  C   UNL d   1       0.019  -1.281   0.013  0.00  0.00     0.093 A 
ATOM     12  C   UNL d   1      -1.230  -0.638   0.071  0.00  0.00     0.137 A 
ATOM     13  O   UNL d   1      -1.011   0.709  -0.016  0.00  0.00    -0.235 OA
ATOM     14  N   UNL d   1       0.321   0.987  -0.060  0.00  0.00    -0.264 N 
ATOM     15  C   UNL d   1       0.953  -0.189  -0.022  0.00  0.00     0.047 A 
ATOM     16  HN  UNL d   1       0.752   1.910  -0.113  1.00  0.00     0.194 HD
ATOM     17  C   UNL d   1       2.434  -0.118  -0.051  0.00  0.00     0.071 C 
BRANCH  12  18
ATOM     18  C   UNL d   1      -2.584  -1.104   0.231  0.00  0.00     0.083 A 
ATOM     19  C   UNL d   1      -3.784  -0.491  -0.132  0.00  0.00     0.043 A 
ATOM     20  N   UNL d   1      -4.932  -1.196   0.226  0.00  0.00    -0.298 N 
ATOM     21  C   UNL d   1      -4.007   0.815  -0.810  0.00  0.00     0.071 C 
ATOM     22  N   UNL d   1      -4.650  -2.296   0.895  0.00  0.00    -0.269 N 
ATOM     23  HN  UNL d   1      -5.879  -0.896  -0.004  1.00  0.00     0.187 HD
ATOM     24  S   UNL d   1      -3.015  -2.509   1.126  0.00  0.00     0.006 SA
ATOM     25  HN  UNL d   1      -5.357  -2.946   1.236  1.00  0.00     0.195 HD
ENDBRANCH  12  18
ENDBRANCH   7  11
ENDBRANCH   4   5
ENDBRANCH   3   4
TORSDOF 4
