REMARK  4 active torsions:
REMARK  status: ('A' for Active; 'I' for Inactive)
REMARK    1  A    between atoms: C_2  and  C_1 
REMARK       I    between atoms: N_3  and  C_2 
REMARK       I    between atoms: C_4  and  N_3 
REMARK       I    between atoms: N_8  and  C_4 
REMARK    2  A    between atoms: O_18  and  C_5 
REMARK    3  A    between atoms: O_19  and  C_6 
REMARK    4  A    between atoms: C_7  and  N_8 
ROOT
ATOM      1  C   UNL d   1       0.686  -4.472   0.689  0.00  0.00     0.265 C 
ATOM      2  N   UNL d   1      -0.584  -4.696   1.207  0.00  0.00    -0.275 N 
ATOM      3  C   UNL d   1      -1.098  -5.766   1.892  0.00  0.00     0.327 C 
ATOM      4  N   UNL d   1      -0.543  -6.990   1.663  0.00  0.00    -0.303 N 
ATOM      5  O   UNL d   1       1.405  -5.398   0.339  0.00  0.00    -0.267 OA
ATOM      6  O   UNL d   1      -1.991  -5.514   2.701  0.00  0.00    -0.247 OA
ATOM      7  H   UNL d   1      -1.086  -3.875   1.524  0.00  0.00     0.173 HD
ATOM      8  H   UNL d   1       0.413  -6.985   1.308  0.00  0.00     0.171 HD
ENDROOT
BRANCH   1   9
ATOM      9  C   UNL d   1       1.095  -3.006   0.575  0.00  0.00     0.102 C 
ATOM     10  C   UNL d   1       0.230  -1.950   0.951  0.00  0.00     0.104 C 
ATOM     11  C   UNL d   1       0.707  -0.634   1.099  0.00  0.00     0.047 C 
ATOM     12 BR   UNL d   1      -0.391   0.764   1.770  0.00  0.00    -0.048 Br
ATOM     13  C   UNL d   1       2.023  -0.325   0.781  0.00  0.00     0.048 C 
ATOM     14  C   UNL d   1       2.855  -1.326   0.289  0.00  0.00     0.069 C 
ATOM     15  C   UNL d   1       2.393  -2.652   0.156  0.00  0.00     0.108 C 
ATOM     16 CL   UNL d   1       4.468  -0.878  -0.147  0.00  0.00    -0.081 Cl
BRANCH  10  17
ATOM     17  O   UNL d   1      -1.096  -2.200   1.219  0.00  0.00    -0.353 OA
ATOM     18  C   UNL d   1      -1.929  -1.859   0.099  0.00  0.00     0.210 C 
ENDBRANCH  10  17
BRANCH  15  19
ATOM     19  O   UNL d   1       3.259  -3.575  -0.378  0.00  0.00    -0.353 OA
ATOM     20  C   UNL d   1       3.048  -3.677  -1.791  0.00  0.00     0.210 C 
ENDBRANCH  15  19
ENDBRANCH   1   9
BRANCH   4  21
ATOM     21  C   UNL d   1      -1.026  -8.194   2.244  0.00  0.00     0.114 A 
ATOM     22  C   UNL d   1      -2.364  -8.411   2.609  0.00  0.00     0.146 A 
ATOM     23  F   UNL d   1      -3.328  -7.536   2.289  0.00  0.00    -0.204 F 
ATOM     24  C   UNL d   1      -2.768  -9.589   3.242  0.00  0.00     0.045 A 
ATOM     25  C   UNL d   1      -1.842 -10.597   3.497  0.00  0.00     0.006 A 
ATOM     26  C   UNL d   1      -0.519 -10.427   3.091  0.00  0.00     0.045 A 
ATOM     27  C   UNL d   1      -0.127  -9.240   2.465  0.00  0.00     0.146 A 
ATOM     28  F   UNL d   1       1.158  -9.102   2.103  0.00  0.00    -0.204 F 
ENDBRANCH   4  21
TORSDOF 4
