REMARK  3 active torsions:
REMARK  status: ('A' for Active; 'I' for Inactive)
REMARK    1  A    between atoms: C_11  and  C_5 
REMARK    2  A    between atoms: C_7  and  S_10 
REMARK    3  A    between atoms: S_10  and  C_11 
ROOT
ATOM      1  S   UNL d   1      -2.558   2.733  -0.057  0.00  0.00    -0.105 SA
ENDROOT
BRANCH   1   2
ATOM      2  C   UNL d   1      -2.821   4.492  -0.002  0.00  0.00     0.069 A 
ATOM      3  N   UNL d   1      -1.743   5.299   0.096  0.00  0.00    -0.361 N 
ATOM      4  C   UNL d   1      -1.973   6.634   0.074  0.00  0.00     0.089 A 
ATOM      5  HN  UNL d   1      -0.799   4.921   0.181  1.00  0.00     0.165 HD
ATOM      6  C   UNL d   1      -3.232   7.200  -0.038  0.00  0.00     0.017 A 
ATOM      7  C   UNL d   1      -4.326   6.350  -0.136  0.00  0.00     0.004 A 
ATOM      8  C   UNL d   1      -4.120   4.974  -0.123  0.00  0.00     0.037 A 
ENDBRANCH   1   2
BRANCH   1   9
ATOM      9  C   UNL d   1      -1.054   2.601   0.965  0.00  0.00     0.159 C 
BRANCH   9  10
ATOM     10  C   UNL d   1      -0.677   1.176   1.127  0.00  0.00     0.116 A 
ATOM     11  N   UNL d   1      -0.563   0.474   2.236  0.00  0.00    -0.273 N 
ATOM     12  N   UNL d   1      -0.198  -0.794   1.850  0.00  0.00    -0.007 NA
ATOM     13  HN  UNL d   1      -0.715   0.804   3.189  1.00  0.00     0.185 HD
ATOM     14  N   UNL d   1      -0.080  -0.875   0.532  0.00  0.00    -0.007 NA
ATOM     15  N   UNL d   1      -0.375   0.350   0.081  0.00  0.00    -0.273 N 
ATOM     16  H   UNL d   1      -0.376   0.537  -0.915  0.00  0.00     0.185 HD
ENDBRANCH   9  10
ENDBRANCH   1   9
TORSDOF 3
