REMARK  3 active torsions:
REMARK  status: ('A' for Active; 'I' for Inactive)
REMARK    1  A    between atoms: O_2  and  S_1 
REMARK    2  A    between atoms: C_3  and  S_1 
REMARK    3  A    between atoms: C_6  and  O_2 
ROOT
ATOM      1  S   UNL d   1       1.051   0.066  -0.174  0.00  0.00     0.303 S 
ATOM      2  O   UNL d   1       0.587  -0.814  -1.229  0.00  0.00    -0.193 OA
ATOM      3  O   UNL d   1       2.473   0.262   0.051  0.00  0.00    -0.193 OA
ENDROOT
BRANCH   1   4
ATOM      4  O   UNL d   1       0.352  -0.393   1.229  0.00  0.00    -0.228 OA
BRANCH   4   5
ATOM      5  C   UNL d   1       0.588  -1.642   1.744  0.00  0.00     0.106 A 
ATOM      6  C   UNL d   1       1.797  -2.329   1.643  0.00  0.00     0.065 A 
ATOM      7  C   UNL d   1       1.920  -3.588   2.224  0.00  0.00     0.052 A 
ATOM      8 CL   UNL d   1       3.395  -4.459   2.111  0.00  0.00    -0.083 Cl
ATOM      9  C   UNL d   1       0.831  -4.117   2.900  0.00  0.00     0.111 A 
ATOM     10  N   UNL d   1      -0.352  -3.472   3.034  0.00  0.00    -0.371 N 
ATOM     11  C   UNL d   1      -0.442  -2.248   2.455  0.00  0.00     0.125 A 
ATOM     12  HN  UNL d   1      -1.134  -3.884   3.543  1.00  0.00     0.164 HD
ENDBRANCH   4   5
ENDBRANCH   1   4
BRANCH   1  13
ATOM     13  C   UNL d   1       0.377   1.684  -0.498  0.00  0.00     0.086 A 
ATOM     14  C   UNL d   1       0.996   2.803   0.069  0.00  0.00     0.026 A 
ATOM     15  C   UNL d   1       0.589   4.082  -0.314  0.00  0.00     0.008 A 
ATOM     16  C   UNL d   1      -0.427   4.250  -1.264  0.00  0.00    -0.062 A 
ATOM     17  C   UNL d   1      -1.057   3.121  -1.804  0.00  0.00     0.008 A 
ATOM     18  C   UNL d   1      -0.793   5.632  -1.725  0.00  0.00     0.048 C 
ATOM     19  C   UNL d   1      -0.655   1.837  -1.427  0.00  0.00     0.026 A 
ENDBRANCH   1  13
TORSDOF 3
