REMARK  3 active torsions:
REMARK  status: ('A' for Active; 'I' for Inactive)
REMARK    1  A    between atoms: C_3  and  N_1 
REMARK       I    between atoms: C_2  and  N_4 
REMARK    2  A    between atoms: C_16  and  C_2 
REMARK    3  A    between atoms: N_5  and  C_6 
ROOT
ATOM      1  C   UNL d   1      -4.870   6.846   3.499  0.00  0.00     0.253 C 
ATOM      2  N   UNL d   1      -4.597   5.530   3.119  0.00  0.00    -0.346 N 
ATOM      3  N   UNL d   1      -2.407   3.943   1.938  0.00  0.00    -0.366 N 
ATOM      4  C   UNL d   1      -3.633   4.763   3.931  0.00  0.00     0.146 C 
ATOM      5  C   UNL d   1      -2.256   4.565   3.269  0.00  0.00     0.144 C 
ATOM      6  O   UNL d   1      -4.357   7.378   4.482  0.00  0.00    -0.267 OA
ATOM      7  C   UNL d   1      -4.414   4.682   0.738  0.00  0.00     0.040 C 
ATOM      8  C   UNL d   1      -5.236   4.788   2.028  0.00  0.00     0.127 C 
ATOM      9  C   UNL d   1      -2.908   4.851   0.902  0.00  0.00     0.126 C 
ENDROOT
BRANCH   3  10
ATOM     10  C   UNL d   1      -1.399   3.061   1.543  0.00  0.00     0.103 A 
ATOM     11  C   UNL d   1      -1.634   2.189   0.475  0.00  0.00     0.051 A 
ATOM     12  C   UNL d   1      -0.677   1.241   0.111  0.00  0.00     0.041 A 
ATOM     13  C   UNL d   1       0.510   1.192   0.833  0.00  0.00     0.118 A 
ATOM     14  C   UNL d   1       0.693   2.086   1.871  0.00  0.00     0.125 A 
ATOM     15  N   UNL d   1      -0.240   3.006   2.234  0.00  0.00    -0.350 N 
ATOM     16  HN  UNL d   1      -0.067   3.642   3.013  1.00  0.00     0.166 HD
BRANCH  13  17
ATOM     17  N   UNL d   1       1.538   0.210   0.522  0.00  0.00    -0.114 N 
ATOM     18  O   UNL d   1       2.587   0.245   1.180  0.00  0.00    -0.532 OA
ATOM     19  O   UNL d   1       1.301  -0.603  -0.383  0.00  0.00    -0.532 OA
ENDBRANCH  13  17
ENDBRANCH   3  10
BRANCH   1  20
ATOM     20  C   UNL d   1      -5.839   7.659   2.728  0.00  0.00     0.032 A 
ATOM     21  C   UNL d   1      -6.883   8.286   3.416  0.00  0.00     0.017 A 
ATOM     22  C   UNL d   1      -7.801   9.076   2.722  0.00  0.00     0.001 A 
ATOM     23  C   UNL d   1      -7.676   9.242   1.343  0.00  0.00     0.000 A 
ATOM     24  C   UNL d   1      -6.614   8.649   0.660  0.00  0.00     0.001 A 
ATOM     25  C   UNL d   1      -5.680   7.879   1.357  0.00  0.00     0.017 A 
ENDBRANCH   1  20
TORSDOF 3
