REMARK  6 active torsions:
REMARK  status: ('A' for Active; 'I' for Inactive)
REMARK    1  A    between atoms: C_3  and  C_1 
REMARK    2  A    between atoms: C_6  and  C_2 
REMARK    3  A    between atoms: C_17  and  N_5 
REMARK    4  A    between atoms: O_21  and  C_6 
REMARK    5  A    between atoms: C_14  and  C_7 
REMARK    6  A    between atoms: N_10  and  C_14 
ROOT
ATOM      1  C   UNL d   1       3.666   2.746  -4.236  0.00  0.00     0.087 A 
ATOM      2  O   UNL d   1       3.915   2.891  -2.896  0.00  0.00    -0.312 OA
ATOM      3  C   UNL d   1       5.216   2.527  -2.676  0.00  0.00     0.082 A 
ATOM      4  C   UNL d   1       4.819   2.304  -4.864  0.00  0.00     0.040 A 
ATOM      5  C   UNL d   1       5.818   2.201  -3.872  0.00  0.00     0.037 A 
ENDROOT
BRANCH   3   6
ATOM      6  C   UNL d   1       5.703   2.495  -1.261  0.00  0.00     0.337 C 
BRANCH   6   7
ATOM      7  N   UNL d   1       6.402   3.727  -0.863  0.00  0.00     0.097 N 
ATOM      8  C   UNL d   1       5.469   4.870  -0.724  0.00  0.00     0.292 C 
ATOM      9  C   UNL d   1       4.455   4.732   0.430  0.00  0.00     0.153 C 
ATOM     10  N   UNL d   1       5.146   4.520   1.716  0.00  0.00    -0.378 N 
ATOM     11  C   UNL d   1       6.215   3.501   1.716  0.00  0.00     0.153 C 
ATOM     12  C   UNL d   1       7.096   3.564   0.436  0.00  0.00     0.292 C 
BRANCH  10  13
ATOM     13  C   UNL d   1       4.429   4.735   2.898  0.00  0.00     0.030 A 
ATOM     14  C   UNL d   1       5.097   4.955   4.114  0.00  0.00     0.029 A 
ATOM     15  C   UNL d   1       4.413   5.337   5.276  0.00  0.00     0.002 A 
ATOM     16  C   UNL d   1       3.032   5.489   5.257  0.00  0.00     0.000 A 
ATOM     17  C   UNL d   1       2.335   5.226   4.085  0.00  0.00     0.002 A 
ATOM     18  C   UNL d   1       3.028   4.851   2.926  0.00  0.00     0.029 A 
ENDBRANCH  10  13
ENDBRANCH   6   7
ENDBRANCH   3   6
BRANCH   1  19
ATOM     19  C   UNL d   1       2.342   2.972  -4.913  0.00  0.00     0.021 A 
ATOM     20  C   UNL d   1       1.333   3.794  -4.442  0.00  0.00     0.093 A 
ATOM     21  S   UNL d   1      -0.042   3.728  -5.495  0.00  0.00    -0.095 SA
ATOM     22  C   UNL d   1       0.713   2.633  -6.556  0.00  0.00     0.051 A 
ATOM     23  C   UNL d   1       1.985   2.322  -6.143  0.00  0.00     0.023 A 
BRANCH  20  24
ATOM     24  C   UNL d   1       1.319   4.710  -3.310  0.00  0.00     0.300 C 
ATOM     25  O   UNL d   1       2.300   5.194  -2.755  0.00  0.00    -0.259 OA
BRANCH  24  26
ATOM     26  O   UNL d   1       0.034   5.011  -2.941  0.00  0.00    -0.322 OA
ATOM     27  C   UNL d   1      -0.078   5.964  -1.887  0.00  0.00     0.213 C 
ENDBRANCH  24  26
ENDBRANCH  20  24
ENDBRANCH   1  19
TORSDOF 6
