REMARK  12 active torsions:
REMARK  status: ('A' for Active; 'I' for Inactive)
REMARK    1  A    between atoms: N_2  and  C_1 
REMARK    2  A    between atoms: C_4  and  C_1 
REMARK    3  A    between atoms: C_5  and  C_1 
REMARK    4  A    between atoms: N_8  and  C_1 
REMARK       I    between atoms: C_7  and  N_2 
REMARK    5  A    between atoms: C_3  and  C_10 
REMARK    6  A    between atoms: C_6  and  C_3 
REMARK    7  A    between atoms: C_9  and  C_3 
REMARK    8  A    between atoms: O_23  and  C_3 
REMARK    9  A    between atoms: C_11  and  C_7 
REMARK   10  A    between atoms: C_24  and  N_8 
REMARK   11  A    between atoms: O_29  and  C_9 
REMARK   12  A    between atoms: C_35  and  O_29 
ROOT
ATOM      1  C   UNL d   1       0.892   0.078   0.002  0.00  0.00     0.306 C 
ENDROOT
BRANCH   1   2
ATOM      2  N   UNL d   1       0.545   1.441   0.440  0.00  0.00    -0.315 N 
ATOM      3  C   UNL d   1      -0.734   1.889   0.575  0.00  0.00     0.254 C 
ATOM      4  O   UNL d   1      -1.683   1.154   0.342  0.00  0.00    -0.268 OA
ATOM      5  H   UNL d   1       1.318   1.946   0.839  0.00  0.00     0.165 HD
BRANCH   3   6
ATOM      6  C   UNL d   1      -0.904   3.311   1.032  0.00  0.00     0.032 A 
ATOM      7  C   UNL d   1       0.169   4.206   1.165  0.00  0.00     0.017 A 
ATOM      8  C   UNL d   1      -0.047   5.511   1.629  0.00  0.00     0.007 A 
ATOM      9  C   UNL d   1      -1.339   5.944   1.953  0.00  0.00    -0.062 A 
ATOM     10  C   UNL d   1      -2.408   5.063   1.792  0.00  0.00     0.007 A 
ATOM     11  C   UNL d   1      -1.545   7.324   2.511  0.00  0.00     0.048 C 
ATOM     12  C   UNL d   1      -2.195   3.757   1.330  0.00  0.00     0.017 A 
ENDBRANCH   3   6
ENDBRANCH   1   2
BRANCH   1  13
ATOM     13  C   UNL d   1       0.299  -0.397  -1.374  0.00  0.00     0.441 C 
ATOM     14  F   UNL d   1      -0.249   0.631  -2.074  0.00  0.00    -0.166 F 
ATOM     15  F   UNL d   1       1.294  -0.885  -2.173  0.00  0.00    -0.166 F 
ATOM     16  F   UNL d   1      -0.628  -1.371  -1.322  0.00  0.00    -0.166 F 
ENDBRANCH   1  13
BRANCH   1  17
ATOM     17  C   UNL d   1       0.525  -1.001   1.093  0.00  0.00     0.441 C 
ATOM     18  F   UNL d   1       0.191  -0.412   2.275  0.00  0.00    -0.166 F 
ATOM     19  F   UNL d   1      -0.464  -1.861   0.798  0.00  0.00    -0.166 F 
ATOM     20  F   UNL d   1       1.620  -1.770   1.376  0.00  0.00    -0.166 F 
ENDBRANCH   1  17
BRANCH   1  21
ATOM     21  N   UNL d   1       2.410   0.192  -0.062  0.00  0.00    -0.349 N 
ATOM     22  H   UNL d   1       2.862  -0.719  -0.181  0.00  0.00     0.162 HD
BRANCH  21  23
ATOM     23  C   UNL d   1       3.161   1.218  -0.614  0.00  0.00     0.030 A 
ATOM     24  C   UNL d   1       4.489   1.339  -0.197  0.00  0.00     0.030 A 
ATOM     25  C   UNL d   1       5.249   2.469  -0.509  0.00  0.00     0.013 A 
ATOM     26  C   UNL d   1       4.709   3.516  -1.272  0.00  0.00    -0.005 A 
ATOM     27  C   UNL d   1       3.401   3.351  -1.754  0.00  0.00     0.013 A 
ATOM     28  C   UNL d   1       2.646   2.220  -1.433  0.00  0.00     0.030 A 
BRANCH  26  29
ATOM     29  C   UNL d   1       5.517   4.788  -1.567  0.00  0.00     0.271 C 
BRANCH  29  30
ATOM     30  C   UNL d   1       6.019   5.526  -0.297  0.00  0.00     0.432 C 
ATOM     31  F   UNL d   1       7.350   5.761  -0.283  0.00  0.00    -0.167 F 
ATOM     32  F   UNL d   1       5.418   6.752  -0.233  0.00  0.00    -0.167 F 
ATOM     33  F   UNL d   1       5.714   4.902   0.863  0.00  0.00    -0.167 F 
ENDBRANCH  29  30
BRANCH  29  34
ATOM     34  C   UNL d   1       6.794   4.462  -2.357  0.00  0.00     0.308 C 
ATOM     35  O   UNL d   1       7.423   3.418  -2.289  0.00  0.00    -0.261 OA
BRANCH  34  36
ATOM     36  O   UNL d   1       7.182   5.527  -3.136  0.00  0.00    -0.319 OA
BRANCH  36  37
ATOM     37  C   UNL d   1       8.369   5.316  -3.908  0.00  0.00     0.174 C 
ATOM     38  C   UNL d   1       9.601   5.560  -3.053  0.00  0.00     0.034 C 
ENDBRANCH  36  37
ENDBRANCH  34  36
ENDBRANCH  29  34
BRANCH  29  39
ATOM     39  O   UNL d   1       4.645   5.662  -2.344  0.00  0.00    -0.368 OA
ATOM     40  H   UNL d   1       4.603   6.521  -1.882  0.00  0.00     0.212 HD
ENDBRANCH  29  39
ENDBRANCH  26  29
ENDBRANCH  21  23
ENDBRANCH   1  21
TORSDOF 12
