REMARK  4 active torsions:
REMARK  status: ('A' for Active; 'I' for Inactive)
REMARK    1  A    between atoms: C_7  and  C_1 
REMARK    2  A    between atoms: S_10  and  C_8 
REMARK    3  A    between atoms: C_14  and  C_9 
REMARK    4  A    between atoms: C_15  and  S_10 
ROOT
ATOM      1  C   UNL d   1      -0.318   1.105  -0.450  0.00  0.00     0.165 A 
ATOM      2  N   UNL d   1       0.731   0.964  -1.198  0.00  0.00    -0.331 N 
ATOM      3  HN  UNL d   1       1.285   1.683  -1.664  1.00  0.00     0.168 HD
ATOM      4  O   UNL d   1      -0.881  -0.015   0.055  0.00  0.00    -0.255 OA
ATOM      5  C   UNL d   1       0.909  -0.395  -1.207  0.00  0.00     0.111 A 
ATOM      6  C   UNL d   1      -0.126  -1.060  -0.377  0.00  0.00     0.316 A 
ATOM      7  C   UNL d   1       1.813  -1.097  -1.896  0.00  0.00     0.047 C 
ATOM      8  O   UNL d   1      -0.293  -2.243  -0.148  0.00  0.00    -0.257 OA
ENDROOT
BRANCH   1   9
ATOM      9  C   UNL d   1      -1.037   2.360  -0.207  0.00  0.00     0.049 A 
ATOM     10  C   UNL d   1      -1.802   2.650   0.924  0.00  0.00     0.089 A 
ATOM     11  N   UNL d   1      -2.553   3.784   1.007  0.00  0.00    -0.359 N 
ATOM     12  C   UNL d   1      -2.531   4.646  -0.035  0.00  0.00     0.089 A 
ATOM     13  HN  UNL d   1      -3.117   3.978   1.834  1.00  0.00     0.166 HD
ATOM     14  C   UNL d   1      -1.762   4.460  -1.166  0.00  0.00     0.018 A 
ATOM     15  C   UNL d   1      -0.997   3.304  -1.247  0.00  0.00     0.020 A 
BRANCH  10  16
ATOM     16  S   UNL d   1      -1.949   1.583   2.346  0.00  0.00    -0.072 SA
BRANCH  16  17
ATOM     17  C   UNL d   1      -0.771   2.262   3.501  0.00  0.00     0.007 A 
ATOM     18  C   UNL d   1      -0.827   3.597   3.920  0.00  0.00     0.020 A 
ATOM     19  C   UNL d   1       0.049   4.068   4.904  0.00  0.00     0.025 A 
ATOM     20  C   UNL d   1       0.972   3.202   5.485  0.00  0.00     0.034 A 
ATOM     21  C   UNL d   1       1.040   1.872   5.079  0.00  0.00     0.025 A 
ATOM     22 CL   UNL d   1       2.015   3.771   6.730  0.00  0.00    -0.084 Cl
ATOM     23  C   UNL d   1       0.168   1.405   4.087  0.00  0.00     0.020 A 
ENDBRANCH  16  17
ENDBRANCH  10  16
ENDBRANCH   1   9
BRANCH   7  24
ATOM     24  C   UNL d   1       2.810  -0.502  -2.785  0.00  0.00    -0.034 A 
ATOM     25  C   UNL d   1       4.086  -0.186  -2.306  0.00  0.00     0.013 A 
ATOM     26  C   UNL d   1       5.064   0.292  -3.183  0.00  0.00     0.024 A 
ATOM     27  C   UNL d   1       4.761   0.466  -4.532  0.00  0.00     0.034 A 
ATOM     28  C   UNL d   1       3.480   0.191  -5.009  0.00  0.00     0.024 A 
ATOM     29 CL   UNL d   1       5.979   1.005  -5.620  0.00  0.00    -0.084 Cl
ATOM     30  C   UNL d   1       2.504  -0.293  -4.135  0.00  0.00     0.013 A 
ENDBRANCH   7  24
TORSDOF 4
