REMARK  9 active torsions:
REMARK  status: ('A' for Active; 'I' for Inactive)
REMARK    1  A    between atoms: N_2  and  C_1 
REMARK    2  A    between atoms: N_3  and  C_5 
REMARK    3  A    between atoms: N_13  and  C_6 
REMARK    4  A    between atoms: N_11  and  N_13 
REMARK    5  A    between atoms: C_17  and  C_16 
REMARK    6  A    between atoms: C_18  and  C_17 
REMARK    7  A    between atoms: C_21  and  C_18 
REMARK    8  A    between atoms: C_19  and  C_20 
REMARK    9  A    between atoms: C_20  and  C_21 
ROOT
ATOM      1  C   UNL d   1      -0.124   1.089   0.803  0.00  0.00     0.133 A 
ATOM      2  C   UNL d   1      -0.676  -0.026   1.475  0.00  0.00     0.074 A 
ATOM      3  C   UNL d   1       0.077  -1.199   1.607  0.00  0.00     0.105 A 
ATOM      4  C   UNL d   1       1.184   1.042   0.273  0.00  0.00     0.081 A 
ATOM      5  C   UNL d   1       1.355  -1.285   1.059  0.00  0.00     0.038 A 
ATOM      6  C   UNL d   1       1.889  -0.176   0.405  0.00  0.00     0.036 A 
ENDROOT
BRANCH   4   7
ATOM      7  N   UNL d   1       1.849   2.146  -0.300  0.00  0.00    -0.299 N 
ATOM      8  H   UNL d   1       1.322   3.012  -0.453  0.00  0.00     0.187 HD
BRANCH   7   9
ATOM      9  N   UNL d   1       3.157   2.003  -0.598  0.00  0.00    -0.315 N 
ATOM     10  C   UNL d   1       3.874   3.073  -0.657  0.00  0.00     0.080 C 
ATOM     11  HN  UNL d   1       3.564   1.083  -0.769  1.00  0.00     0.185 HD
BRANCH  10  12
ATOM     12  C   UNL d   1       5.354   2.930  -0.907  0.00  0.00     0.046 C 
BRANCH  12  13
ATOM     13  C   UNL d   1       6.128   3.342   0.341  0.00  0.00     0.005 C 
BRANCH  13  14
ATOM     14  C   UNL d   1       7.630   3.088   0.191  0.00  0.00     0.000 C 
BRANCH  14  15
ATOM     15  C   UNL d   1       8.391   3.549   1.436  0.00  0.00    -0.000 C 
BRANCH  15  16
ATOM     16  C   UNL d   1       9.895   3.314   1.302  0.00  0.00    -0.005 C 
ATOM     17  C   UNL d   1      10.641   3.788   2.540  0.00  0.00     0.005 C 
ENDBRANCH  15  16
ENDBRANCH  14  15
ENDBRANCH  13  14
ENDBRANCH  12  13
ENDBRANCH  10  12
ENDBRANCH   7   9
ENDBRANCH   4   7
BRANCH   1  18
ATOM     18  N   UNL d   1      -0.957   2.296   0.679  0.00  0.00    -0.113 N 
ATOM     19  O   UNL d   1      -2.107   2.250   1.143  0.00  0.00    -0.532 OA
ATOM     20  O   UNL d   1      -0.476   3.292   0.117  0.00  0.00    -0.532 OA
ENDBRANCH   1  18
BRANCH   3  21
ATOM     21  N   UNL d   1      -0.464  -2.351   2.340  0.00  0.00    -0.116 N 
ATOM     22  O   UNL d   1      -1.592  -2.231   2.839  0.00  0.00    -0.532 OA
ATOM     23  O   UNL d   1       0.235  -3.366   2.420  0.00  0.00    -0.532 OA
ENDBRANCH   3  21
TORSDOF 9
