REMARK  10 active torsions:
REMARK  status: ('A' for Active; 'I' for Inactive)
REMARK    1  A    between atoms: O_16  and  C_1 
REMARK    2  A    between atoms: C_22  and  C_1 
REMARK    3  A    between atoms: C_2  and  C_23 
REMARK    4  A    between atoms: C_3  and  C_2 
REMARK    5  A    between atoms: S_8  and  C_22 
REMARK    6  A    between atoms: C_23  and  S_8 
REMARK    7  A    between atoms: O_9  and  C_10 
REMARK    8  A    between atoms: C_13  and  O_9 
REMARK    9  A    between atoms: C_12  and  C_13 
REMARK   10  A    between atoms: C_24  and  O_16 
ROOT
ATOM      1  C   UNL d   1       4.473   3.621   2.198  0.00  0.00     0.011 A 
ATOM      2  C   UNL d   1       3.375   3.222   2.965  0.00  0.00     0.018 A 
ATOM      3  C   UNL d   1       4.798   4.979   2.115  0.00  0.00     0.018 A 
ATOM      4  C   UNL d   1       2.852   5.548   3.431  0.00  0.00     0.069 A 
ATOM      5  C   UNL d   1       3.994   5.939   2.731  0.00  0.00     0.037 A 
ATOM      6  C   UNL d   1       2.570   4.187   3.581  0.00  0.00     0.037 A 
ENDROOT
BRANCH   1   7
ATOM      7  C   UNL d   1       5.329   2.659   1.461  0.00  0.00     0.168 C 
ATOM      8  O   UNL d   1       6.523   2.929   1.322  0.00  0.00    -0.292 OA
BRANCH   7   9
ATOM      9  C   UNL d   1       4.704   1.410   0.870  0.00  0.00     0.158 C 
BRANCH   9  10
ATOM     10  S   UNL d   1       4.769   1.429  -0.959  0.00  0.00    -0.151 SA
BRANCH  10  11
ATOM     11  C   UNL d   1       6.577   1.355  -1.258  0.00  0.00     0.185 C 
BRANCH  11  12
ATOM     12  C   UNL d   1       7.260   0.280  -0.442  0.00  0.00     0.268 C 
ATOM     13  O   UNL d   1       6.784  -0.815  -0.170  0.00  0.00    -0.264 OA
BRANCH  12  14
ATOM     14  O   UNL d   1       8.477   0.725  -0.018  0.00  0.00    -0.321 OA
BRANCH  14  15
ATOM     15  C   UNL d   1       9.059  -0.017   1.063  0.00  0.00     0.174 C 
ATOM     16  C   UNL d   1       8.542   0.542   2.377  0.00  0.00     0.034 C 
ENDBRANCH  14  15
ENDBRANCH  12  14
ENDBRANCH  11  12
ENDBRANCH  10  11
ENDBRANCH   9  10
ENDBRANCH   7   9
ENDBRANCH   1   7
BRANCH   4  17
ATOM     17  O   UNL d   1       1.951   6.404   4.004  0.00  0.00    -0.347 OA
BRANCH  17  18
ATOM     18  C   UNL d   1       1.923   7.719   3.444  0.00  0.00     0.214 C 
BRANCH  18  19
ATOM     19  C   UNL d   1       0.597   8.372   3.751  0.00  0.00    -0.034 A 
ATOM     20  C   UNL d   1       0.244   8.686   5.073  0.00  0.00     0.012 A 
ATOM     21  C   UNL d   1      -0.971   9.314   5.346  0.00  0.00     0.043 A 
ATOM     22  C   UNL d   1      -1.834   9.628   4.304  0.00  0.00     0.116 A 
ATOM     23  C   UNL d   1      -1.508   9.317   2.989  0.00  0.00     0.043 A 
ATOM     24  F   UNL d   1      -2.996  10.238   4.567  0.00  0.00    -0.206 F 
ATOM     25  C   UNL d   1      -0.295   8.687   2.712  0.00  0.00     0.012 A 
ENDBRANCH  18  19
ENDBRANCH  17  18
ENDBRANCH   4  17
TORSDOF 10
