REMARK  6 active torsions:
REMARK  status: ('A' for Active; 'I' for Inactive)
REMARK    1  A    between atoms: N_5  and  S_1 
REMARK    2  A    between atoms: C_13  and  S_1 
REMARK    3  A    between atoms: N_2  and  C_4 
REMARK    4  A    between atoms: C_6  and  C_3 
REMARK    5  A    between atoms: C_15  and  N_5 
REMARK    6  A    between atoms: O_20  and  C_6 
ROOT
ATOM      1  C   UNL d   1       2.386   0.575  -4.252  0.00  0.00     0.066 A 
ATOM      2  C   UNL d   1       1.462   0.459  -5.330  0.00  0.00     0.047 A 
ATOM      3  C   UNL d   1       2.035   0.153  -2.950  0.00  0.00     0.050 A 
ATOM      4  C   UNL d   1       0.161   0.034  -4.990  0.00  0.00     0.033 A 
ATOM      5  C   UNL d   1       0.774  -0.375  -2.698  0.00  0.00     0.043 A 
ATOM      6  C   UNL d   1      -0.182  -0.382  -3.699  0.00  0.00     0.032 A 
ENDROOT
BRANCH   5   7
ATOM      7  N   UNL d   1       0.463  -0.917  -1.426  0.00  0.00    -0.281 N 
ATOM      8  H   UNL d   1      -0.010  -1.817  -1.381  0.00  0.00     0.179 HD
BRANCH   7   9
ATOM      9  S   UNL d   1       0.101   0.083  -0.123  0.00  0.00     0.263 S 
ATOM     10  O   UNL d   1       1.201   1.007   0.068  0.00  0.00    -0.200 OA
ATOM     11  O   UNL d   1      -0.336  -0.795   0.943  0.00  0.00    -0.200 OA
BRANCH   9  12
ATOM     12  C   UNL d   1      -1.316   1.000  -0.679  0.00  0.00     0.079 A 
ATOM     13  C   UNL d   1      -2.600   0.481  -0.484  0.00  0.00     0.025 A 
ATOM     14  C   UNL d   1      -3.711   1.226  -0.884  0.00  0.00     0.002 A 
ATOM     15  C   UNL d   1      -3.540   2.484  -1.466  0.00  0.00     0.000 A 
ATOM     16  C   UNL d   1      -2.255   3.003  -1.647  0.00  0.00     0.002 A 
ATOM     17  C   UNL d   1      -1.137   2.266  -1.249  0.00  0.00     0.025 A 
ENDBRANCH   9  12
ENDBRANCH   7   9
ENDBRANCH   5   7
BRANCH   1  18
ATOM     18  C   UNL d   1       3.703   1.271  -4.422  0.00  0.00     0.178 C 
ATOM     19  O   UNL d   1       3.890   2.203  -5.187  0.00  0.00    -0.646 OA
BRANCH  18  20
ATOM     20  O   UNL d   1       4.706   0.781  -3.658  0.00  0.00    -0.773 OA
ATOM     21  H   UNL d   1       4.508   0.005  -3.106  0.00  0.00     0.167 HD
ENDBRANCH  18  20
ENDBRANCH   1  18
BRANCH   2  22
ATOM     22  N   UNL d   1       1.770   0.700  -6.660  0.00  0.00    -0.375 N 
ATOM     23  C   UNL d   1       0.804   1.177  -7.669  0.00  0.00     0.154 C 
ATOM     24  C   UNL d   1       0.576   0.103  -8.759  0.00  0.00     0.136 C 
ATOM     25  C   UNL d   1      -0.299   0.641  -9.886  0.00  0.00     0.041 C 
ATOM     26  O   UNL d   1       1.822  -0.318  -9.348  0.00  0.00    -0.378 OA
ATOM     27  C   UNL d   1       2.702  -0.856  -8.344  0.00  0.00     0.136 C 
ATOM     28  C   UNL d   1       3.025   0.197  -7.258  0.00  0.00     0.154 C 
ATOM     29  C   UNL d   1       3.973  -1.329  -9.037  0.00  0.00     0.041 C 
ENDBRANCH   2  22
TORSDOF 6
