REMARK  5 active torsions:
REMARK  status: ('A' for Active; 'I' for Inactive)
REMARK    1  A    between atoms: C_2  and  S_1 
REMARK    2  A    between atoms: N_7  and  S_1 
REMARK    3  A    between atoms: C_8  and  C_4 
REMARK    4  A    between atoms: C_9  and  N_7 
REMARK    5  A    between atoms: O_18  and  C_8 
ROOT
ATOM      1  S   UNL d   1       0.734  -0.017   0.209  0.00  0.00     0.257 S 
ATOM      2  O   UNL d   1       0.084  -0.968  -0.661  0.00  0.00    -0.204 OA
ATOM      3  O   UNL d   1       2.158  -0.034   0.447  0.00  0.00    -0.204 OA
ENDROOT
BRANCH   1   4
ATOM      4  C   UNL d   1      -0.005  -0.245   1.810  0.00  0.00     0.146 A 
ATOM      5  N   UNL d   1       0.299   0.500   2.943  0.00  0.00    -0.336 N 
ATOM      6  C   UNL d   1      -0.532   0.131   3.999  0.00  0.00     0.111 A 
ATOM      7  C   UNL d   1       1.352   1.490   3.065  0.00  0.00     0.157 C 
ATOM      8  C   UNL d   1      -1.292  -0.936   3.542  0.00  0.00     0.039 A 
ATOM      9  C   UNL d   1      -0.947  -1.183   2.203  0.00  0.00     0.046 A 
BRANCH   6  10
ATOM     10  C   UNL d   1      -0.569   0.745   5.315  0.00  0.00     0.309 C 
ATOM     11  O   UNL d   1       0.185   1.621   5.724  0.00  0.00    -0.258 OA
BRANCH  10  12
ATOM     12  O   UNL d   1      -1.591   0.207   6.037  0.00  0.00    -0.321 OA
ATOM     13  C   UNL d   1      -1.756   0.746   7.347  0.00  0.00     0.213 C 
ENDBRANCH  10  12
ENDBRANCH   6  10
ENDBRANCH   1   4
BRANCH   1  14
ATOM     14  N   UNL d   1       0.354   1.542  -0.309  0.00  0.00    -0.209 NA
ATOM     15  H   UNL d   1       1.203   1.942  -0.714  0.00  0.00     0.140 HD
BRANCH  14  16
ATOM     16  C   UNL d   1      -0.837   1.723  -1.184  0.00  0.00     0.080 C 
ATOM     17  C   UNL d   1      -0.873   3.187  -1.686  0.00  0.00     0.059 C 
ATOM     18  C   UNL d   1      -2.337   3.438  -1.842  0.00  0.00    -0.050 A 
ATOM     19  C   UNL d   1      -2.947   4.494  -2.502  0.00  0.00     0.007 A 
ATOM     20  C   UNL d   1      -3.084   2.471  -1.167  0.00  0.00    -0.050 A 
ATOM     21  C   UNL d   1      -4.341   4.563  -2.490  0.00  0.00     0.001 A 
ATOM     22  C   UNL d   1      -5.096   3.588  -1.821  0.00  0.00     0.001 A 
ATOM     23  C   UNL d   1      -4.469   2.535  -1.149  0.00  0.00     0.007 A 
ATOM     24  C   UNL d   1      -2.188   1.479  -0.479  0.00  0.00     0.059 C 
ENDBRANCH  14  16
ENDBRANCH   1  14
TORSDOF 5
