REMARK  6 active torsions:
REMARK  status: ('A' for Active; 'I' for Inactive)
REMARK    1  A    between atoms: C_6  and  C_1 
REMARK    2  A    between atoms: C_9  and  N_2 
REMARK    3  A    between atoms: C_15  and  C_3 
REMARK       I    between atoms: N_8  and  C_6 
REMARK    4  A    between atoms: C_12  and  N_8 
REMARK    5  A    between atoms: C_16  and  C_11 
REMARK    6  A    between atoms: C_23  and  C_15 
ROOT
ATOM      1  C   UNL d   1      -0.429   1.092  -0.030  0.00  0.00     0.073 C 
ATOM      2  N   UNL d   1       0.401  -0.985   0.115  0.00  0.00    -0.260 N 
ATOM      3  C   UNL d   1       0.763   0.361   0.079  0.00  0.00     0.051 C 
ATOM      4  N   UNL d   1      -0.945  -1.120   0.242  0.00  0.00    -0.304 N 
ATOM      5  HN  UNL d   1      -1.470  -1.972   0.441  1.00  0.00     0.186 HD
ATOM      6  C   UNL d   1      -1.428   0.104   0.049  0.00  0.00     0.126 C 
ENDROOT
BRANCH   1   7
ATOM      7  C   UNL d   1      -0.551   2.552  -0.145  0.00  0.00     0.259 C 
ATOM      8  N   UNL d   1      -1.822   3.033  -0.431  0.00  0.00    -0.323 N 
ATOM      9  H   UNL d   1      -2.576   2.365  -0.495  0.00  0.00     0.169 HD
ATOM     10  O   UNL d   1       0.445   3.262  -0.015  0.00  0.00    -0.267 OA
BRANCH   8  11
ATOM     11  C   UNL d   1      -2.153   4.356  -0.837  0.00  0.00     0.035 A 
ATOM     12  C   UNL d   1      -1.231   5.398  -0.922  0.00  0.00     0.030 A 
ATOM     13  C   UNL d   1      -1.569   6.618  -1.528  0.00  0.00     0.010 A 
ATOM     14  C   UNL d   1      -2.840   6.832  -2.073  0.00  0.00    -0.055 A 
ATOM     15  C   UNL d   1      -3.802   5.830  -1.867  0.00  0.00     0.010 A 
ATOM     16  C   UNL d   1      -3.465   4.611  -1.254  0.00  0.00     0.030 A 
BRANCH  14  17
ATOM     17  C   UNL d   1      -3.160   8.021  -2.976  0.00  0.00     0.010 C 
ATOM     18  C   UNL d   1      -4.250   8.939  -2.418  0.00  0.00     0.015 C 
ATOM     19  C   UNL d   1      -1.946   8.872  -3.380  0.00  0.00     0.015 C 
ENDBRANCH  14  17
ENDBRANCH   8  11
ENDBRANCH   1   7
BRANCH   3  20
ATOM     20  C   UNL d   1       2.165   0.862   0.301  0.00  0.00     0.060 C 
BRANCH  20  21
ATOM     21  C   UNL d   1       2.846   1.397  -0.961  0.00  0.00     0.002 C 
ATOM     22  C   UNL d   1       4.223   1.963  -0.641  0.00  0.00     0.005 C 
ENDBRANCH  20  21
ENDBRANCH   3  20
BRANCH   2  23
ATOM     23  C   UNL d   1       1.186  -2.168  -0.025  0.00  0.00     0.056 A 
ATOM     24  C   UNL d   1       0.764  -3.350   0.602  0.00  0.00     0.031 A 
ATOM     25  C   UNL d   1       1.444  -4.551   0.379  0.00  0.00     0.002 A 
ATOM     26  C   UNL d   1       2.528  -4.588  -0.494  0.00  0.00     0.000 A 
ATOM     27  C   UNL d   1       2.954  -3.419  -1.120  0.00  0.00     0.002 A 
ATOM     28  C   UNL d   1       2.294  -2.210  -0.877  0.00  0.00     0.031 A 
ENDBRANCH   2  23
TORSDOF 6
