REMARK  5 active torsions:
REMARK  status: ('A' for Active; 'I' for Inactive)
REMARK    1  A    between atoms: C_6  and  C_1 
REMARK    2  A    between atoms: C_2  and  O_5 
REMARK    3  A    between atoms: C_4  and  C_2 
REMARK    4  A    between atoms: O_5  and  C_3 
REMARK    5  A    between atoms: O_14  and  C_6 
ROOT
ATOM      1  C   UNL d   1       2.089   2.811  -0.615  0.00  0.00     0.304 C 
ATOM      2  O   UNL d   1       1.772   3.172   0.509  0.00  0.00    -0.259 OA
ENDROOT
BRANCH   1   3
ATOM      3  O   UNL d   1       1.820   1.595  -1.167  0.00  0.00    -0.273 OA
BRANCH   3   4
ATOM      4  C   UNL d   1       0.978   0.767  -0.509  0.00  0.00     0.103 A 
ATOM      5  C   UNL d   1      -0.391   0.971  -0.420  0.00  0.00     0.114 A 
ATOM      6  S   UNL d   1      -1.131  -0.345   0.409  0.00  0.00    -0.093 SA
ATOM      7  C   UNL d   1       0.346  -1.192   0.552  0.00  0.00     0.053 A 
ATOM      8  C   UNL d   1       1.397  -0.483   0.020  0.00  0.00     0.046 A 
BRANCH   5   9
ATOM      9  C   UNL d   1      -1.169   2.077  -0.957  0.00  0.00     0.302 C 
ATOM     10  O   UNL d   1      -0.708   3.007  -1.611  0.00  0.00    -0.259 OA
BRANCH   9  11
ATOM     11  O   UNL d   1      -2.498   1.926  -0.683  0.00  0.00    -0.322 OA
ATOM     12  C   UNL d   1      -3.394   2.898  -1.227  0.00  0.00     0.213 C 
ENDBRANCH   9  11
ENDBRANCH   5   9
ENDBRANCH   3   4
ENDBRANCH   1   3
BRANCH   1  13
ATOM     13  C   UNL d   1       2.849   3.638  -1.585  0.00  0.00     0.116 A 
ATOM     14  C   UNL d   1       3.283   4.911  -1.209  0.00  0.00     0.135 A 
ATOM     15  F   UNL d   1       3.061   5.391   0.023  0.00  0.00    -0.205 F 
ATOM     16  C   UNL d   1       3.979   5.734  -2.100  0.00  0.00     0.043 A 
ATOM     17  C   UNL d   1       4.253   5.294  -3.392  0.00  0.00     0.006 A 
ATOM     18  C   UNL d   1       3.834   4.026  -3.783  0.00  0.00     0.043 A 
ATOM     19  C   UNL d   1       3.140   3.211  -2.887  0.00  0.00     0.135 A 
ATOM     20  F   UNL d   1       2.775   2.000  -3.334  0.00  0.00    -0.205 F 
ENDBRANCH   1  13
TORSDOF 5
