REMARK  6 active torsions:
REMARK  status: ('A' for Active; 'I' for Inactive)
REMARK    1  A    between atoms: N_4  and  S_1 
REMARK    2  A    between atoms: C_6  and  S_1 
REMARK    3  A    between atoms: C_7  and  C_2 
REMARK    4  A    between atoms: C_3  and  N_4 
REMARK    5  A    between atoms: C_5  and  C_8 
REMARK    6  A    between atoms: O_20  and  C_7 
ROOT
ATOM      1  S   UNL d   1       1.000  -0.096  -0.080  0.00  0.00     0.245 S 
ATOM      2  O   UNL d   1       0.209  -0.574  -1.194  0.00  0.00    -0.206 OA
ATOM      3  O   UNL d   1       2.442  -0.213  -0.074  0.00  0.00    -0.206 OA
ENDROOT
BRANCH   1   4
ATOM      4  N   UNL d   1       0.384  -0.813   1.343  0.00  0.00    -0.180 NA
ATOM      5  H   UNL d   1      -0.636  -0.655   1.340  0.00  0.00     0.146 HD
BRANCH   4   6
ATOM      6  C   UNL d   1       0.662  -2.230   1.448  0.00  0.00     0.040 A 
ATOM      7  C   UNL d   1      -0.252  -3.208   1.008  0.00  0.00     0.061 A 
ATOM      8  C   UNL d   1       0.079  -4.568   1.121  0.00  0.00     0.021 A 
ATOM      9  C   UNL d   1       1.315  -4.949   1.647  0.00  0.00     0.025 A 
ATOM     10  C   UNL d   1       2.225  -3.974   2.051  0.00  0.00     0.035 A 
ATOM     11  C   UNL d   1       1.909  -2.620   1.947  0.00  0.00     0.049 A 
ATOM     12 CL   UNL d   1       3.748  -4.452   2.692  0.00  0.00    -0.084 Cl
BRANCH   7  13
ATOM     13  C   UNL d   1      -1.572  -2.799   0.467  0.00  0.00     0.294 C 
ATOM     14  O   UNL d   1      -2.084  -1.716   0.719  0.00  0.00    -0.259 OA
BRANCH  13  15
ATOM     15  O   UNL d   1      -2.075  -3.766  -0.336  0.00  0.00    -0.322 OA
ATOM     16  C   UNL d   1      -3.312  -3.429  -0.961  0.00  0.00     0.213 C 
ENDBRANCH  13  15
ENDBRANCH   7  13
ENDBRANCH   4   6
ENDBRANCH   1   4
BRANCH   1  17
ATOM     17  C   UNL d   1       0.587   1.613   0.195  0.00  0.00     0.075 A 
ATOM     18  C   UNL d   1       1.559   2.493   0.688  0.00  0.00     0.041 A 
ATOM     19  C   UNL d   1       1.252   3.852   0.863  0.00  0.00     0.049 A 
ATOM     20  C   UNL d   1      -0.038   4.305   0.537  0.00  0.00     0.016 A 
ATOM     21  C   UNL d   1      -1.001   3.422   0.039  0.00  0.00     0.002 A 
ATOM     22  C   UNL d   1      -0.689   2.075  -0.139  0.00  0.00     0.025 A 
BRANCH  19  23
ATOM     23  C   UNL d   1       2.281   4.830   1.380  0.00  0.00     0.417 C 
ATOM     24  F   UNL d   1       3.482   4.257   1.667  0.00  0.00    -0.166 F 
ATOM     25  F   UNL d   1       2.544   5.827   0.490  0.00  0.00    -0.166 F 
ATOM     26  F   UNL d   1       1.879   5.448   2.526  0.00  0.00    -0.166 F 
ENDBRANCH  19  23
ENDBRANCH   1  17
TORSDOF 6
