REMARK  5 active torsions:
REMARK  status: ('A' for Active; 'I' for Inactive)
REMARK    1  A    between atoms: C_2  and  C_1 
REMARK    2  A    between atoms: O_5  and  C_2 
REMARK    3  A    between atoms: N_3  and  O_5 
REMARK    4  A    between atoms: C_6  and  C_10 
REMARK    5  A    between atoms: C_12  and  C_7 
ROOT
ATOM      1  N   UNL d   1       1.573   3.715   0.017  0.00  0.00    -0.262 N 
ATOM      2  HN  UNL d   1       0.553   3.685   0.036  1.00  0.00     0.194 HD
ATOM      3  C   UNL d   1       2.258   4.820  -0.017  0.00  0.00     0.029 C 
ATOM      4  C   UNL d   1       3.770   4.854  -0.030  0.00  0.00     0.070 C 
ENDROOT
BRANCH   1   5
ATOM      5  O   UNL d   1       2.386   2.561   0.026  0.00  0.00    -0.195 OA
BRANCH   5   6
ATOM      6  C   UNL d   1       1.596   1.446   0.026  0.00  0.00     0.316 C 
ATOM      7  O   UNL d   1       0.369   1.438   0.054  0.00  0.00    -0.257 OA
BRANCH   6   8
ATOM      8  C   UNL d   1       2.358   0.158  -0.003  0.00  0.00     0.063 A 
ATOM      9  C   UNL d   1       3.750  -0.008  -0.074  0.00  0.00     0.050 A 
ATOM     10 CL   UNL d   1       4.897   1.282  -0.143  0.00  0.00    -0.083 Cl
ATOM     11  C   UNL d   1       4.305  -1.302  -0.098  0.00  0.00     0.025 A 
ATOM     12  C   UNL d   1       3.495  -2.436  -0.056  0.00  0.00     0.002 A 
ATOM     13  C   UNL d   1       2.118  -2.290   0.012  0.00  0.00     0.001 A 
ATOM     14  C   UNL d   1       1.559  -1.009   0.037  0.00  0.00     0.019 A 
ENDBRANCH   6   8
ENDBRANCH   5   6
ENDBRANCH   1   5
BRANCH   3  15
ATOM     15  C   UNL d   1       1.567   6.151  -0.067  0.00  0.00     0.027 C 
ATOM     16  C   UNL d   1       0.228   6.247  -0.070  0.00  0.00     0.013 C 
BRANCH  16  17
ATOM     17  C   UNL d   1      -0.531   7.507  -0.172  0.00  0.00    -0.036 A 
ATOM     18  C   UNL d   1      -0.053   8.627  -0.868  0.00  0.00     0.011 A 
ATOM     19  C   UNL d   1      -0.838   9.777  -1.001  0.00  0.00     0.001 A 
ATOM     20  C   UNL d   1      -2.116   9.820  -0.447  0.00  0.00     0.000 A 
ATOM     21  C   UNL d   1      -2.607   8.714   0.242  0.00  0.00     0.001 A 
ATOM     22  C   UNL d   1      -1.821   7.565   0.374  0.00  0.00     0.011 A 
ENDBRANCH  16  17
ENDBRANCH   3  15
TORSDOF 5
