REMARK  6 active torsions:
REMARK  status: ('A' for Active; 'I' for Inactive)
REMARK    1  A    between atoms: C_6  and  C_1 
REMARK    2  A    between atoms: N_2  and  C_5 
REMARK    3  A    between atoms: O_7  and  C_4 
REMARK    4  A    between atoms: O_18  and  C_6 
REMARK    5  A    between atoms: C_12  and  O_7 
REMARK    6  A    between atoms: C_22  and  O_18 
ROOT
ATOM      1  C   UNL d   1       1.403  -0.258   0.270  0.00  0.00     0.075 A 
ATOM      2  C   UNL d   1       0.533  -1.366   0.260  0.00  0.00     0.056 A 
ATOM      3  C   UNL d   1       0.885   1.030   0.033  0.00  0.00     0.092 A 
ATOM      4  C   UNL d   1      -0.844  -1.176   0.081  0.00  0.00     0.104 A 
ATOM      5  C   UNL d   1      -0.505   1.208  -0.071  0.00  0.00     0.041 A 
ATOM      6  C   UNL d   1      -1.369   0.112  -0.061  0.00  0.00     0.039 A 
ENDROOT
BRANCH   3   7
ATOM      7  O   UNL d   1       1.754   2.098  -0.031  0.00  0.00    -0.308 OA
BRANCH   7   8
ATOM      8  C   UNL d   1       1.490   3.146  -0.877  0.00  0.00     0.093 A 
ATOM      9  C   UNL d   1       0.925   3.024  -2.147  0.00  0.00     0.064 A 
ATOM     10  C   UNL d   1       0.686   4.175  -2.893  0.00  0.00     0.052 A 
ATOM     11 CL   UNL d   1      -0.077   4.074  -4.427  0.00  0.00    -0.083 Cl
ATOM     12  C   UNL d   1       1.061   5.402  -2.364  0.00  0.00     0.111 A 
ATOM     13  N   UNL d   1       1.657   5.548  -1.157  0.00  0.00    -0.371 N 
ATOM     14  C   UNL d   1       1.864   4.414  -0.446  0.00  0.00     0.124 A 
ATOM     15  HN  UNL d   1       1.936   6.463  -0.802  1.00  0.00     0.164 HD
ENDBRANCH   7   8
ENDBRANCH   3   7
BRANCH   1  16
ATOM     16  C   UNL d   1       2.832  -0.544   0.600  0.00  0.00     0.296 C 
ATOM     17  O   UNL d   1       3.320  -1.657   0.498  0.00  0.00    -0.259 OA
BRANCH  16  18
ATOM     18  O   UNL d   1       3.419   0.536   1.165  0.00  0.00    -0.318 OA
BRANCH  18  19
ATOM     19  C   UNL d   1       4.654   0.306   1.861  0.00  0.00     0.174 C 
ATOM     20  C   UNL d   1       5.849   0.332   0.928  0.00  0.00     0.034 C 
ENDBRANCH  18  19
ENDBRANCH  16  18
ENDBRANCH   1  16
BRANCH   4  21
ATOM     21  N   UNL d   1      -1.750  -2.333   0.068  0.00  0.00    -0.116 N 
ATOM     22  O   UNL d   1      -1.248  -3.458   0.180  0.00  0.00    -0.532 OA
ATOM     23  O   UNL d   1      -2.963  -2.108  -0.058  0.00  0.00    -0.532 OA
ENDBRANCH   4  21
TORSDOF 6
