REMARK  3 active torsions:
REMARK  status: ('A' for Active; 'I' for Inactive)
REMARK    1  A    between atoms: C_11  and  C_1 
REMARK    2  A    between atoms: S_3  and  C_7 
REMARK    3  A    between atoms: N_16  and  S_3 
ROOT
ATOM      1  C   UNL d   1       1.319   0.637  -0.017  0.00  0.00     0.134 A 
ATOM      2  C   UNL d   1       0.103  -1.252  -0.019  0.00  0.00     0.069 A 
ATOM      3  N   UNL d   1       0.034   1.029  -0.057  0.00  0.00    -0.294 N 
ATOM      4  HN  UNL d   1      -0.325   1.983  -0.100  1.00  0.00     0.187 HD
ATOM      5  C   UNL d   1       1.403  -0.780   0.031  0.00  0.00     0.068 A 
ATOM      6  C   UNL d   1      -0.620  -5.072   0.196  0.00  0.00     0.115 A 
ATOM      7  N   UNL d   1      -0.677  -0.116  -0.028  0.00  0.00    -0.295 N 
ATOM      8  C   UNL d   1      -0.371  -2.613  -0.059  0.00  0.00     0.034 A 
ATOM      9  S   UNL d   1       0.524  -3.893   0.665  0.00  0.00    -0.075 SA
ATOM     10  C   UNL d   1      -1.665  -4.511  -0.507  0.00  0.00     0.034 A 
ATOM     11  C   UNL d   1      -1.510  -3.105  -0.670  0.00  0.00     0.023 A 
ATOM     12  C   UNL d   1      -2.118  -0.012   0.014  0.00  0.00     0.178 C 
ENDROOT
BRANCH   1  13
ATOM     13  C   UNL d   1       2.477   1.600  -0.041  0.00  0.00     0.434 C 
ATOM     14  F   UNL d   1       2.106   2.905  -0.108  0.00  0.00    -0.165 F 
ATOM     15  F   UNL d   1       3.260   1.472   1.065  0.00  0.00    -0.165 F 
ATOM     16  F   UNL d   1       3.289   1.371  -1.111  0.00  0.00    -0.165 F 
ENDBRANCH   1  13
BRANCH   6  17
ATOM     17  S   UNL d   1      -0.265  -6.755   0.640  0.00  0.00     0.245 S 
ATOM     18  O   UNL d   1      -0.066  -6.759   2.068  0.00  0.00    -0.206 OA
ATOM     19  O   UNL d   1      -1.289  -7.530  -0.022  0.00  0.00    -0.206 OA
BRANCH  17  20
ATOM     20  N   UNL d   1       1.194  -7.152  -0.087  0.00  0.00    -0.225 NA
ATOM     21  H   UNL d   1       1.977  -6.631   0.302  0.00  0.00     0.136 HD
ATOM     22  H   UNL d   1       1.134  -7.172  -1.102  0.00  0.00     0.136 HD
ENDBRANCH  17  20
ENDBRANCH   6  17
TORSDOF 3
