REMARK  1 active torsions:
REMARK  status: ('A' for Active; 'I' for Inactive)
REMARK    1  A    between atoms: C_13  and  C_10 
ROOT
ATOM      1  N   UNL d   1      -0.284  -0.577  -0.014  0.00  0.00    -0.069 N 
ATOM      2  C   UNL d   1      -0.240   0.796  -0.016  0.00  0.00     0.162 A 
ATOM      3  C   UNL d   1       0.882  -1.370  -0.005  0.00  0.00     0.713 A 
ATOM      4  N   UNL d   1      -1.537  -1.080  -0.015  0.00  0.00    -0.281 N 
ATOM      5  HN  UNL d   1      -1.824  -2.059  -0.016  1.00  0.00     0.188 HD
ATOM      6  N   UNL d   1       0.976   1.400  -0.009  0.00  0.00    -0.174 N 
ATOM      7  N   UNL d   1       2.052  -0.647   0.000  0.00  0.00    -0.021 N 
ATOM      8  C   UNL d   1      -1.542   1.217  -0.019  0.00  0.00     0.079 A 
ATOM      9  C   UNL d   1       2.175   0.721  -0.000  0.00  0.00     0.692 A 
ATOM     10  C   UNL d   1      -2.319   0.015  -0.012  0.00  0.00     0.038 A 
ATOM     11  N   UNL d   1       0.830  -2.667  -0.001  0.00  0.00    -0.232 N 
ATOM     12  HN  UNL d   1       1.625  -3.305   0.006  1.00  0.00     0.174 HD
ATOM     13  N   UNL d   1       3.292   1.366   0.008  0.00  0.00    -0.234 N 
ATOM     14  HN  UNL d   1       3.378   2.382   0.008  1.00  0.00     0.174 HD
ATOM     15  H   UNL d   1       1.074   2.411  -0.006  0.00  0.00     0.186 HD
ATOM     16  H   UNL d   1       2.888  -1.211   0.008  0.00  0.00     0.203 HD
ATOM     17  H   UNL d   1      -0.171  -2.933  -0.005  0.00  0.00     0.174 HD
ATOM     18  H   UNL d   1       4.078   0.712   0.014  0.00  0.00     0.174 HD
ENDROOT
BRANCH  10  19
ATOM     19  C   UNL d   1      -3.839  -0.089   0.015  0.00  0.00    -0.007 C 
ATOM     20  C   UNL d   1      -4.323  -1.555   0.012  0.00  0.00     0.021 C 
ATOM     21  C   UNL d   1      -4.386   0.592   1.287  0.00  0.00     0.021 C 
ATOM     22  C   UNL d   1      -4.444   0.612  -1.219  0.00  0.00     0.021 C 
ENDBRANCH  10  19
TORSDOF 1
