REMARK  3 active torsions:
REMARK  status: ('A' for Active; 'I' for Inactive)
REMARK    1  A    between atoms: C_5  and  C_1 
REMARK    2  A    between atoms: C_2  and  C_5 
REMARK    3  A    between atoms: N_11  and  C_7 
ROOT
ATOM      1  C   UNL d   1      -0.050  -2.459  -0.013  0.00  0.00     0.206 C 
ATOM      2  O   UNL d   1      -0.095  -1.227  -0.020  0.00  0.00    -0.285 OA
ENDROOT
BRANCH   1   3
ATOM      3  C   UNL d   1      -1.329  -3.245  -0.019  0.00  0.00     0.074 C 
ATOM      4  C   UNL d   1      -2.516  -2.623  -0.036  0.00  0.00     0.088 C 
BRANCH   4   5
ATOM      5  N   UNL d   1      -3.803  -3.148  -0.045  0.00  0.00    -0.398 N 
ATOM      6  C   UNL d   1      -4.122  -4.574  -0.035  0.00  0.00     0.148 C 
ATOM      7  C   UNL d   1      -4.983  -2.278  -0.065  0.00  0.00     0.148 C 
ENDBRANCH   4   5
ENDBRANCH   1   3
BRANCH   1   8
ATOM      8  C   UNL d   1       1.193  -3.229   0.001  0.00  0.00     0.124 A 
ATOM      9  N   UNL d   1       1.256  -4.549   0.008  0.00  0.00    -0.357 N 
ATOM     10  C   UNL d   1       2.579  -4.950   0.020  0.00  0.00     0.096 A 
ATOM     11  HN  UNL d   1       0.451  -5.176   0.005  1.00  0.00     0.166 HD
ATOM     12  C   UNL d   1       3.511  -3.935   0.023  0.00  0.00     0.069 A 
ATOM     13  S   UNL d   1       2.712  -2.420   0.010  0.00  0.00    -0.079 SA
ENDBRANCH   1   8
TORSDOF 3
