REMARK  7 active torsions:
REMARK  status: ('A' for Active; 'I' for Inactive)
REMARK    1  A    between atoms: N_2  and  C_1 
REMARK    2  A    between atoms: C_3  and  C_1 
REMARK    3  A    between atoms: C_4  and  C_1 
REMARK    4  A    between atoms: N_7  and  C_1 
REMARK       I    between atoms: C_5  and  N_2 
REMARK    5  A    between atoms: C_12  and  C_5 
REMARK    6  A    between atoms: C_6  and  C_8 
REMARK    7  A    between atoms: C_9  and  N_7 
ROOT
ATOM      1  C   UNL d   1       0.828  -0.007  -0.109  0.00  0.00     0.306 C 
ENDROOT
BRANCH   1   2
ATOM      2  N   UNL d   1       0.216  -1.142   0.625  0.00  0.00    -0.315 N 
ATOM      3  C   UNL d   1       0.222  -1.259   1.988  0.00  0.00     0.254 C 
ATOM      4  O   UNL d   1       0.636  -0.395   2.740  0.00  0.00    -0.268 OA
ATOM      5  H   UNL d   1      -0.186  -1.885   0.066  0.00  0.00     0.165 HD
BRANCH   3   6
ATOM      6  C   UNL d   1      -0.355  -2.513   2.529  0.00  0.00     0.032 A 
ATOM      7  C   UNL d   1      -0.033  -3.761   1.978  0.00  0.00     0.017 A 
ATOM      8  C   UNL d   1      -0.580  -4.920   2.534  0.00  0.00     0.001 A 
ATOM      9  C   UNL d   1      -1.442  -4.832   3.628  0.00  0.00     0.000 A 
ATOM     10  C   UNL d   1      -1.756  -3.589   4.177  0.00  0.00     0.001 A 
ATOM     11  C   UNL d   1      -1.206  -2.428   3.633  0.00  0.00     0.017 A 
ENDBRANCH   3   6
ENDBRANCH   1   2
BRANCH   1  12
ATOM     12  C   UNL d   1       0.482   1.420   0.447  0.00  0.00     0.441 C 
ATOM     13  F   UNL d   1      -0.811   1.509   0.838  0.00  0.00    -0.166 F 
ATOM     14  F   UNL d   1       1.256   1.755   1.510  0.00  0.00    -0.166 F 
ATOM     15  F   UNL d   1       0.691   2.396  -0.472  0.00  0.00    -0.166 F 
ENDBRANCH   1  12
BRANCH   1  16
ATOM     16  C   UNL d   1       0.264   0.089  -1.563  0.00  0.00     0.441 C 
ATOM     17  F   UNL d   1      -0.073  -1.149  -2.027  0.00  0.00    -0.166 F 
ATOM     18  F   UNL d   1      -0.872   0.818  -1.653  0.00  0.00    -0.166 F 
ATOM     19  F   UNL d   1       1.151   0.603  -2.445  0.00  0.00    -0.166 F 
ENDBRANCH   1  16
BRANCH   1  20
ATOM     20  N   UNL d   1       2.309  -0.242  -0.025  0.00  0.00    -0.349 N 
ATOM     21  H   UNL d   1       2.678   0.133   0.855  0.00  0.00     0.162 HD
BRANCH  20  22
ATOM     22  C   UNL d   1       3.053  -1.303  -0.499  0.00  0.00     0.031 A 
ATOM     23  C   UNL d   1       2.531  -2.380  -1.215  0.00  0.00     0.045 A 
ATOM     24  C   UNL d   1       3.347  -3.408  -1.726  0.00  0.00     0.050 A 
ATOM     25  C   UNL d   1       4.729  -3.335  -1.541  0.00  0.00     0.016 A 
ATOM     26  C   UNL d   1       5.280  -2.257  -0.854  0.00  0.00     0.003 A 
ATOM     27  C   UNL d   1       4.447  -1.255  -0.347  0.00  0.00     0.029 A 
BRANCH  24  28
ATOM     28  C   UNL d   1       2.726  -4.576  -2.452  0.00  0.00     0.417 C 
ATOM     29  F   UNL d   1       1.367  -4.500  -2.533  0.00  0.00    -0.166 F 
ATOM     30  F   UNL d   1       3.171  -4.701  -3.731  0.00  0.00    -0.166 F 
ATOM     31  F   UNL d   1       2.989  -5.763  -1.840  0.00  0.00    -0.166 F 
ENDBRANCH  24  28
ENDBRANCH  20  22
ENDBRANCH   1  20
TORSDOF 7
