REMARK  7 active torsions:
REMARK  status: ('A' for Active; 'I' for Inactive)
REMARK    1  A    between atoms: C_2  and  S_1 
REMARK    2  A    between atoms: C_5  and  S_1 
REMARK    3  A    between atoms: C_3  and  C_2 
REMARK    4  A    between atoms: N_13  and  C_3 
REMARK    5  A    between atoms: C_4  and  O_11 
REMARK       I    between atoms: N_10  and  C_4 
REMARK    6  A    between atoms: O_11  and  N_6 
REMARK    7  A    between atoms: C_14  and  N_10 
ROOT
ATOM      1  C   UNL d   1       0.911   1.980   1.796  0.00  0.00     0.110 C 
ATOM      2  N   UNL d   1       1.693   1.193   2.477  0.00  0.00    -0.243 N 
ATOM      3  HN  UNL d   1       2.238   1.480   3.289  1.00  0.00     0.196 HD
ENDROOT
BRANCH   2   4
ATOM      4  O   UNL d   1       1.684  -0.117   1.936  0.00  0.00    -0.179 OA
BRANCH   4   5
ATOM      5  C   UNL d   1       2.943  -0.650   1.959  0.00  0.00     0.387 C 
ATOM      6  N   UNL d   1       3.093  -1.854   2.609  0.00  0.00    -0.301 N 
ATOM      7  H   UNL d   1       4.042  -2.191   2.524  0.00  0.00     0.171 HD
ATOM      8  O   UNL d   1       3.902  -0.145   1.377  0.00  0.00    -0.236 OA
BRANCH   6   9
ATOM      9  C   UNL d   1       2.241  -2.569   3.474  0.00  0.00     0.036 A 
ATOM     10  C   UNL d   1       0.915  -2.236   3.751  0.00  0.00     0.029 A 
ATOM     11  C   UNL d   1       0.169  -2.984   4.670  0.00  0.00     0.002 A 
ATOM     12  C   UNL d   1       0.741  -4.070   5.327  0.00  0.00     0.000 A 
ATOM     13  C   UNL d   1       2.060  -4.419   5.056  0.00  0.00     0.002 A 
ATOM     14  C   UNL d   1       2.801  -3.678   4.130  0.00  0.00     0.029 A 
ENDBRANCH   6   9
ENDBRANCH   4   5
ENDBRANCH   2   4
BRANCH   1  15
ATOM     15  C   UNL d   1       0.630   3.359   2.372  0.00  0.00     0.218 C 
BRANCH  15  16
ATOM     16  S   UNL d   1      -1.089   3.430   2.869  0.00  0.00     0.158 S 
ATOM     17  O   UNL d   1      -1.275   2.509   3.967  0.00  0.00    -0.227 OA
ATOM     18  O   UNL d   1      -1.882   3.286   1.660  0.00  0.00    -0.227 OA
BRANCH  16  19
ATOM     19  C   UNL d   1      -1.394   5.125   3.521  0.00  0.00     0.053 C 
ATOM     20  C   UNL d   1      -1.161   6.175   2.429  0.00  0.00     0.031 C 
ATOM     21  C   UNL d   1      -2.867   5.188   3.969  0.00  0.00     0.031 C 
ATOM     22  C   UNL d   1      -0.491   5.416   4.727  0.00  0.00     0.031 C 
ENDBRANCH  16  19
ENDBRANCH  15  16
ENDBRANCH   1  15
BRANCH   1  23
ATOM     23  N   UNL d   1       0.372   1.660   0.574  0.00  0.00    -0.387 N 
ATOM     24  H   UNL d   1      -0.455   2.150   0.238  0.00  0.00     0.157 HD
ATOM     25  H   UNL d   1       0.471   0.699   0.265  0.00  0.00     0.157 HD
ENDBRANCH   1  23
TORSDOF 7
