REMARK  2 active torsions:
REMARK  status: ('A' for Active; 'I' for Inactive)
REMARK    1  A    between atoms: C_2  and  S_1 
REMARK    2  A    between atoms: N_3  and  S_1 
ROOT
ATOM      1  C   UNL d   1       0.428   1.596   0.382  0.00  0.00     0.098 A 
ATOM      2  C   UNL d   1      -0.373   1.837   1.512  0.00  0.00     0.050 A 
ATOM      3  C   UNL d   1       0.853   2.658  -0.418  0.00  0.00     0.057 A 
ATOM      4  C   UNL d   1       0.472   3.964  -0.080  0.00  0.00     0.027 A 
ATOM      5  C   UNL d   1      -0.747   3.140   1.831  0.00  0.00     0.035 A 
ATOM      6 CL   UNL d   1       1.826   2.479  -1.831  0.00  0.00    -0.083 Cl
ATOM      7  C   UNL d   1      -0.326   4.205   1.042  0.00  0.00     0.025 A 
ATOM      8 CL   UNL d   1      -1.728   3.434   3.212  0.00  0.00    -0.084 Cl
ENDROOT
BRANCH   1   9
ATOM      9  S   UNL d   1       0.948  -0.069   0.078  0.00  0.00     0.245 S 
ATOM     10  O   UNL d   1       0.278  -0.920   1.038  0.00  0.00    -0.206 OA
ATOM     11  O   UNL d   1       2.393  -0.059   0.006  0.00  0.00    -0.206 OA
BRANCH   9  12
ATOM     12  N   UNL d   1       0.321  -0.455  -1.462  0.00  0.00    -0.206 NA
ATOM     13  C   UNL d   1      -1.155  -0.517  -1.599  0.00  0.00     0.107 C 
ATOM     14  C   UNL d   1      -1.494  -1.972  -1.338  0.00  0.00     0.017 C 
ATOM     15  C   UNL d   1      -0.346  -2.724  -1.986  0.00  0.00     0.017 C 
ATOM     16  C   UNL d   1       0.833  -1.752  -2.001  0.00  0.00     0.107 C 
ENDBRANCH   9  12
ENDBRANCH   1   9
TORSDOF 2
