REMARK  8 active torsions:
REMARK  status: ('A' for Active; 'I' for Inactive)
REMARK    1  A    between atoms: C_2  and  S_1 
REMARK    2  A    between atoms: N_12  and  S_1 
REMARK       I    between atoms: C_10  and  N_11 
REMARK    3  A    between atoms: N_11  and  C_13 
REMARK    4  A    between atoms: C_22  and  N_12 
REMARK    5  A    between atoms: C_16  and  O_20 
REMARK    6  A    between atoms: C_19  and  C_22 
REMARK    7  A    between atoms: C_25  and  C_19 
REMARK    8  A    between atoms: O_20  and  C_25 
ROOT
ATOM      1  C   UNL d   1       4.689  -0.775  -1.162  0.00  0.00     0.042 C 
ENDROOT
BRANCH   1   2
ATOM      2  C   UNL d   1       3.168  -0.850  -1.236  0.00  0.00     0.106 C 
BRANCH   2   3
ATOM      3  N   UNL d   1       2.581  -0.155  -0.084  0.00  0.00    -0.215 NA
ATOM      4  H   UNL d   1       2.957  -0.412   0.829  0.00  0.00     0.139 HD
BRANCH   3   5
ATOM      5  S   UNL d   1       0.894  -0.043  -0.051  0.00  0.00     0.246 S 
ATOM      6  O   UNL d   1       0.559   0.771   1.092  0.00  0.00    -0.206 OA
ATOM      7  O   UNL d   1       0.409   0.254  -1.377  0.00  0.00    -0.206 OA
BRANCH   5   8
ATOM      8  C   UNL d   1       0.274  -1.593   0.319  0.00  0.00     0.129 A 
ATOM      9  C   UNL d   1      -0.025  -2.622  -0.544  0.00  0.00     0.097 A 
ATOM     10  O   UNL d   1      -0.458  -3.688   0.184  0.00  0.00    -0.241 OA
ATOM     11  C   UNL d   1       0.016  -2.841  -2.003  0.00  0.00     0.081 C 
ATOM     12  N   UNL d   1      -0.440  -3.375   1.528  0.00  0.00    -0.264 N 
ATOM     13  C   UNL d   1      -0.007  -2.110   1.607  0.00  0.00     0.054 A 
ATOM     14  HN  UNL d   1      -0.703  -3.983   2.303  1.00  0.00     0.194 HD
ATOM     15  C   UNL d   1       0.129  -1.470   2.938  0.00  0.00     0.072 C 
ENDBRANCH   5   8
ENDBRANCH   3   5
ENDBRANCH   2   3
ENDBRANCH   1   2
BRANCH   1  16
ATOM     16  C   UNL d   1       5.299  -1.561  -2.315  0.00  0.00     0.176 C 
BRANCH  16  17
ATOM     17  O   UNL d   1       4.902  -0.975  -3.564  0.00  0.00    -0.351 OA
BRANCH  17  18
ATOM     18  C   UNL d   1       5.367  -1.636  -4.672  0.00  0.00     0.070 A 
ATOM     19  C   UNL d   1       5.636  -3.003  -4.690  0.00  0.00     0.066 A 
ATOM     20  C   UNL d   1       6.193  -3.626  -5.805  0.00  0.00     0.037 A 
ATOM     21  C   UNL d   1       6.399  -2.866  -6.960  0.00  0.00     0.029 A 
ATOM     22  C   UNL d   1       6.064  -1.503  -6.978  0.00  0.00     0.005 A 
ATOM     23  C   UNL d   1       5.553  -0.889  -5.831  0.00  0.00     0.037 A 
BRANCH  20  24
ATOM     24  N   UNL d   1       6.574  -4.987  -5.792  0.00  0.00    -0.327 N 
ATOM     25  C   UNL d   1       6.497  -5.855  -4.710  0.00  0.00     0.218 C 
ATOM     26  O   UNL d   1       6.048  -5.614  -3.594  0.00  0.00    -0.274 OA
ATOM     27  C   UNL d   1       7.041  -7.231  -4.994  0.00  0.00     0.117 C 
ATOM     28  H   UNL d   1       6.997  -5.337  -6.643  0.00  0.00     0.169 HD
ENDBRANCH  20  24
ENDBRANCH  17  18
ENDBRANCH  16  17
ENDBRANCH   1  16
TORSDOF 8
