REMARK  9 active torsions:
REMARK  status: ('A' for Active; 'I' for Inactive)
REMARK    1  A    between atoms: C_16  and  C_1 
REMARK    2  A    between atoms: C_3  and  C_2 
REMARK    3  A    between atoms: S_4  and  C_13 
REMARK    4  A    between atoms: C_20  and  S_4 
REMARK    5  A    between atoms: C_13  and  C_10 
REMARK    6  A    between atoms: C_12  and  C_17 
REMARK    7  A    between atoms: O_27  and  C_16 
REMARK    8  A    between atoms: C_23  and  C_20 
REMARK    9  A    between atoms: C_31  and  O_27 
ROOT
ATOM      1  C   UNL d   1      -1.038   3.273  -0.275  0.00  0.00     0.075 A 
ATOM      2  N   UNL d   1      -1.667   3.881   0.800  0.00  0.00    -0.350 N 
ATOM      3  HN  UNL d   1      -1.198   4.420   1.527  1.00  0.00     0.166 HD
ATOM      4  C   UNL d   1      -2.965   3.655   0.741  0.00  0.00     0.065 A 
ATOM      5  S   UNL d   1      -3.487   2.705  -0.599  0.00  0.00    -0.085 SA
ATOM      6  C   UNL d   1      -1.863   2.574  -1.129  0.00  0.00     0.084 A 
ENDROOT
BRANCH   4   7
ATOM      7  C   UNL d   1      -3.953   4.229   1.689  0.00  0.00     0.205 C 
BRANCH   7   8
ATOM      8  S   UNL d   1      -4.196   3.112   3.056  0.00  0.00     0.154 S 
ATOM      9  O   UNL d   1      -5.148   3.767   3.941  0.00  0.00    -0.227 OA
ATOM     10  O   UNL d   1      -4.487   1.793   2.528  0.00  0.00    -0.227 OA
BRANCH   8  11
ATOM     11  C   UNL d   1      -2.606   3.089   3.883  0.00  0.00     0.179 C 
BRANCH  11  12
ATOM     12  C   UNL d   1      -2.668   2.170   5.077  0.00  0.00    -0.043 A 
ATOM     13  C   UNL d   1      -3.085   2.640   6.333  0.00  0.00     0.024 A 
ATOM     14  C   UNL d   1      -3.107   1.790   7.453  0.00  0.00     0.048 A 
ATOM     15  C   UNL d   1      -2.712   0.453   7.298  0.00  0.00     0.016 A 
ATOM     16  C   UNL d   1      -2.317  -0.028   6.052  0.00  0.00     0.001 A 
ATOM     17  C   UNL d   1      -2.299   0.823   4.948  0.00  0.00     0.008 A 
BRANCH  14  18
ATOM     18  C   UNL d   1      -3.540   2.288   8.811  0.00  0.00     0.417 C 
ATOM     19  F   UNL d   1      -3.899   3.602   8.824  0.00  0.00    -0.166 F 
ATOM     20  F   UNL d   1      -4.607   1.602   9.307  0.00  0.00    -0.166 F 
ATOM     21  F   UNL d   1      -2.554   2.166   9.744  0.00  0.00    -0.166 F 
ENDBRANCH  14  18
ENDBRANCH  11  12
ENDBRANCH   8  11
ENDBRANCH   7   8
ENDBRANCH   4   7
BRANCH   1  22
ATOM     22  C   UNL d   1       0.425   3.383  -0.494  0.00  0.00     0.128 A 
ATOM     23  C   UNL d   1       1.317   4.053   0.308  0.00  0.00     0.079 A 
ATOM     24  C   UNL d   1       2.571   3.906  -0.337  0.00  0.00     0.132 A 
ATOM     25  N   UNL d   1       2.443   3.175  -1.457  0.00  0.00    -0.255 N 
ATOM     26  O   UNL d   1       1.103   2.851  -1.548  0.00  0.00    -0.235 OA
ATOM     27  HN  UNL d   1       3.183   2.913  -2.108  1.00  0.00     0.195 HD
BRANCH  24  28
ATOM     28  C   UNL d   1       3.833   4.509   0.076  0.00  0.00     0.311 C 
ATOM     29  O   UNL d   1       3.939   5.197   1.086  0.00  0.00    -0.258 OA
BRANCH  28  30
ATOM     30  O   UNL d   1       4.836   4.311  -0.830  0.00  0.00    -0.317 OA
BRANCH  30  31
ATOM     31  C   UNL d   1       5.911   5.255  -0.773  0.00  0.00     0.175 C 
ATOM     32  C   UNL d   1       5.503   6.482  -1.572  0.00  0.00     0.034 C 
ENDBRANCH  30  31
ENDBRANCH  28  30
ENDBRANCH  24  28
ENDBRANCH   1  22
TORSDOF 9
