REMARK  1 active torsions:
REMARK  status: ('A' for Active; 'I' for Inactive)
REMARK       I    between atoms: N_3  and  C_1 
REMARK       I    between atoms: N_5  and  C_1 
REMARK    1  A    between atoms: C_10  and  N_5 
ROOT
ATOM      1  C   UNL d   1       0.756   0.144  -0.378  0.00  0.00     0.323 C 
ATOM      2  C   UNL d   1      -1.872   4.772   0.860  0.00  0.00     0.680 A 
ATOM      3  N   UNL d   1       0.172   1.312   0.086  0.00  0.00    -0.331 N 
ATOM      4  N   UNL d   1      -0.926   3.791   0.946  0.00  0.00    -0.214 N 
ATOM      5  N   UNL d   1       0.708  -0.905   0.518  0.00  0.00    -0.306 N 
ATOM      6  N   UNL d   1      -2.985   4.668   1.607  0.00  0.00    -0.201 N 
ATOM      7  HN  UNL d   1      -3.135   3.864   2.216  1.00  0.00     0.183 HD
ATOM      8  N   UNL d   1      -1.657   5.814   0.038  0.00  0.00    -0.201 N 
ATOM      9  HN  UNL d   1      -0.811   5.871  -0.529  1.00  0.00     0.183 HD
ATOM     10  O   UNL d   1       1.347   0.102  -1.455  0.00  0.00    -0.247 OA
ATOM     11  C   UNL d   1       0.378   2.527  -0.718  0.00  0.00     0.148 C 
ATOM     12  C   UNL d   1      -1.040   1.335   0.921  0.00  0.00     0.148 C 
ATOM     13  C   UNL d   1       0.280   3.812   0.120  0.00  0.00     0.161 C 
ATOM     14  C   UNL d   1      -1.121   2.608   1.781  0.00  0.00     0.161 C 
ATOM     15  C   UNL d   1      -3.751   6.760   0.722  0.00  0.00     0.042 A 
ATOM     16  C   UNL d   1      -3.898   5.661   1.527  0.00  0.00     0.126 A 
ATOM     17  C   UNL d   1      -2.596   6.785  -0.014  0.00  0.00     0.126 A 
ATOM     18 BR   UNL d   1      -5.033   8.125   0.637  0.00  0.00    -0.048 Br
ATOM     19  H   UNL d   1       0.682  -0.613   1.486  0.00  0.00     0.171 HD
ENDROOT
BRANCH   5  20
ATOM     20  C   UNL d   1       1.389  -2.125   0.293  0.00  0.00     0.075 A 
ATOM     21  C   UNL d   1       2.031  -2.728   1.381  0.00  0.00     0.146 A 
ATOM     22  C   UNL d   1       2.836  -3.848   1.212  0.00  0.00     0.086 A 
ATOM     23  F   UNL d   1       1.926  -2.177   2.601  0.00  0.00    -0.204 F 
ATOM     24  C   UNL d   1       2.962  -4.392  -0.058  0.00  0.00     0.119 A 
ATOM     25  C   UNL d   1       2.279  -3.852  -1.145  0.00  0.00     0.044 A 
ATOM     26  F   UNL d   1       3.761  -5.450  -0.245  0.00  0.00    -0.206 F 
ATOM     27  C   UNL d   1       1.487  -2.716  -0.969  0.00  0.00     0.036 A 
ENDBRANCH   5  20
TORSDOF 1
