REMARK  10 active torsions:
REMARK  status: ('A' for Active; 'I' for Inactive)
REMARK    1  A    between atoms: C_5  and  O_7 
REMARK    2  A    between atoms: C_10  and  C_5 
REMARK    3  A    between atoms: O_7  and  C_13 
REMARK    4  A    between atoms: C_24  and  C_19 
REMARK    5  A    between atoms: O_23  and  C_20 
REMARK    6  A    between atoms: C_25  and  O_23 
REMARK    7  A    between atoms: C_27  and  C_24 
REMARK    8  A    between atoms: C_26  and  C_25 
REMARK    9  A    between atoms: C_29  and  C_27 
REMARK   10  A    between atoms: C_28  and  C_29 
ROOT
ATOM      1  C   UNL d   1       1.198   0.781   0.029  0.00  0.00    -0.040 A 
ATOM      2  C   UNL d   1      -1.156   0.884  -0.046  0.00  0.00    -0.042 A 
ATOM      3  C   UNL d   1       0.679  -0.525   0.135  0.00  0.00    -0.019 A 
ATOM      4  C   UNL d   1      -0.762  -0.463   0.056  0.00  0.00    -0.019 A 
ATOM      5  C   UNL d   1       0.065   1.785  -0.100  0.00  0.00     0.078 A 
ATOM      6  C   UNL d   1       1.517  -1.610   0.336  0.00  0.00     0.015 A 
ATOM      7  C   UNL d   1      -1.703  -1.477   0.082  0.00  0.00     0.013 A 
ATOM      8  C   UNL d   1       2.561   1.017   0.086  0.00  0.00     0.045 A 
ATOM      9  C   UNL d   1      -2.496   1.242  -0.073  0.00  0.00     0.015 A 
ATOM     10  C   UNL d   1       3.401  -0.088   0.278  0.00  0.00     0.080 A 
ATOM     11  C   UNL d   1       2.893  -1.386   0.421  0.00  0.00     0.038 A 
ATOM     12  C   UNL d   1      -3.055  -1.128   0.037  0.00  0.00     0.008 A 
ATOM     13  C   UNL d   1      -3.463   0.223  -0.025  0.00  0.00    -0.058 A 
ENDROOT
BRANCH  10  14
ATOM     14  O   UNL d   1       4.772   0.217   0.435  0.00  0.00    -0.275 OA
BRANCH  14  15
ATOM     15  C   UNL d   1       5.830  -0.684   0.364  0.00  0.00     0.298 C 
ATOM     16  O   UNL d   1       5.797  -1.842  -0.016  0.00  0.00    -0.259 OA
BRANCH  15  17
ATOM     17  C   UNL d   1       7.044  -0.015   0.904  0.00  0.00     0.040 A 
ATOM     18  C   UNL d   1       8.201  -0.766   1.143  0.00  0.00     0.020 A 
ATOM     19  C   UNL d   1       9.322  -0.165   1.732  0.00  0.00     0.038 A 
ATOM     20  C   UNL d   1       9.297   1.186   2.088  0.00  0.00     0.068 A 
ATOM     21  C   UNL d   1       8.155   1.941   1.808  0.00  0.00     0.038 A 
ATOM     22  C   UNL d   1       7.039   1.348   1.222  0.00  0.00     0.020 A 
BRANCH  20  23
ATOM     23  O   UNL d   1      10.421   1.674   2.710  0.00  0.00    -0.351 OA
BRANCH  23  24
ATOM     24  C   UNL d   1      10.300   3.017   3.188  0.00  0.00     0.175 C 
BRANCH  24  25
ATOM     25  C   UNL d   1      11.543   3.433   3.962  0.00  0.00     0.022 C 
ATOM     26  C   UNL d   1      11.405   4.876   4.424  0.00  0.00     0.007 C 
ENDBRANCH  24  25
ENDBRANCH  23  24
ENDBRANCH  20  23
ENDBRANCH  15  17
ENDBRANCH  14  15
ENDBRANCH  10  14
BRANCH  13  27
ATOM     27  C   UNL d   1      -4.938   0.554   0.001  0.00  0.00     0.038 C 
BRANCH  27  28
ATOM     28  C   UNL d   1      -5.403   1.302  -1.249  0.00  0.00     0.005 C 
BRANCH  28  29
ATOM     29  C   UNL d   1      -6.910   1.565  -1.210  0.00  0.00    -0.000 C 
BRANCH  29  30
ATOM     30  C   UNL d   1      -7.358   2.354  -2.439  0.00  0.00    -0.005 C 
ATOM     31  C   UNL d   1      -8.852   2.633  -2.413  0.00  0.00     0.005 C 
ENDBRANCH  29  30
ENDBRANCH  28  29
ENDBRANCH  27  28
ENDBRANCH  13  27
TORSDOF 10
