REMARK  4 active torsions:
REMARK  status: ('A' for Active; 'I' for Inactive)
REMARK    1  A    between atoms: C_5  and  C_1 
REMARK    2  A    between atoms: O_4  and  C_2 
REMARK    3  A    between atoms: C_3  and  O_4 
REMARK    4  A    between atoms: C_6  and  C_3 
ROOT
ATOM      1  C   UNL d   1       1.208  -1.412  -0.018  0.00  0.00     0.010 A 
ATOM      2  C   UNL d   1       2.358  -0.619  -0.244  0.00  0.00     0.088 A 
ATOM      3  C   UNL d   1      -0.077  -0.765  -0.053  0.00  0.00    -0.015 A 
ATOM      4  C   UNL d   1       2.277   0.756  -0.458  0.00  0.00     0.039 A 
ATOM      5  C   UNL d   1      -0.132   0.646  -0.231  0.00  0.00    -0.025 A 
ATOM      6  C   UNL d   1       1.038   1.380  -0.443  0.00  0.00     0.015 A 
ATOM      7  C   UNL d   1      -1.328  -1.422   0.092  0.00  0.00     0.013 A 
ATOM      8  C   UNL d   1      -1.357   1.331  -0.185  0.00  0.00     0.012 A 
ATOM      9  C   UNL d   1      -2.543  -0.729   0.123  0.00  0.00     0.001 A 
ATOM     10  C   UNL d   1      -2.555   0.650   0.003  0.00  0.00     0.001 A 
ENDROOT
BRANCH   2  11
ATOM     11  O   UNL d   1       3.634  -1.203  -0.061  0.00  0.00    -0.274 OA
BRANCH  11  12
ATOM     12  C   UNL d   1       4.739  -0.812  -0.821  0.00  0.00     0.305 C 
ATOM     13  O   UNL d   1       4.674  -0.298  -1.930  0.00  0.00    -0.258 OA
BRANCH  12  14
ATOM     14  C   UNL d   1       5.942  -1.054  -0.042  0.00  0.00     0.080 A 
ATOM     15  S   UNL d   1       7.475  -0.679  -0.708  0.00  0.00    -0.096 SA
ATOM     16  C   UNL d   1       8.286  -1.092   0.740  0.00  0.00     0.050 A 
ATOM     17  C   UNL d   1       7.415  -1.531   1.711  0.00  0.00     0.009 A 
ATOM     18  C   UNL d   1       6.065  -1.522   1.255  0.00  0.00     0.025 A 
ENDBRANCH  12  14
ENDBRANCH  11  12
ENDBRANCH   2  11
BRANCH   1  19
ATOM     19  C   UNL d   1       1.330  -2.896   0.288  0.00  0.00     0.145 C 
ATOM     20  S   UNL d   1       2.300  -3.298   1.776  0.00  0.00    -0.148 SA
ATOM     21  C   UNL d   1       2.651  -4.998   1.277  0.00  0.00     0.085 C 
ATOM     22  C   UNL d   1       3.049  -4.970  -0.186  0.00  0.00     0.085 C 
ATOM     23  S   UNL d   1       1.923  -3.892  -1.119  0.00  0.00    -0.148 SA
ENDBRANCH   1  19
TORSDOF 4
