REMARK  4 active torsions:
REMARK  status: ('A' for Active; 'I' for Inactive)
REMARK    1  A    between atoms: C_9  and  C_1 
REMARK    2  A    between atoms: C_8  and  C_3 
REMARK    3  A    between atoms: O_22  and  C_9 
REMARK    4  A    between atoms: N_18  and  C_12 
ROOT
ATOM      1  C   UNL d   1       2.809  -0.829   0.076  0.00  0.00     0.052 C 
ATOM      2  C   UNL d   1       0.274  -0.704   0.056  0.00  0.00     0.024 C 
ATOM      3  C   UNL d   1       1.486  -1.533   0.449  0.00  0.00     0.100 C 
ATOM      4  C   UNL d   1       0.371   0.623  -0.131  0.00  0.00     0.021 C 
ATOM      5  C   UNL d   1       2.820   0.512  -0.137  0.00  0.00     0.018 C 
ATOM      6  N   UNL d   1       1.618   1.224  -0.106  0.00  0.00    -0.362 N 
ATOM      7  C   UNL d   1      -1.032  -1.395  -0.155  0.00  0.00     0.159 C 
ATOM      8  C   UNL d   1      -0.824   1.522  -0.353  0.00  0.00     0.067 C 
ATOM      9  C   UNL d   1      -2.177   0.854  -0.014  0.00  0.00    -0.036 C 
ATOM     10  C   UNL d   1      -2.209  -0.555  -0.622  0.00  0.00     0.092 C 
ATOM     11  O   UNL d   1      -1.131  -2.613  -0.035  0.00  0.00    -0.293 OA
ATOM     12  C   UNL d   1       4.028   1.373  -0.420  0.00  0.00     0.069 C 
ATOM     13  C   UNL d   1      -3.313   1.702  -0.612  0.00  0.00     0.015 C 
ATOM     14  C   UNL d   1      -2.396   0.772   1.512  0.00  0.00     0.015 C 
ATOM     15  H   UNL d   1       1.665   2.212  -0.339  0.00  0.00     0.165 HD
ENDROOT
BRANCH   3  16
ATOM     16  C   UNL d   1       1.456  -1.821   1.962  0.00  0.00    -0.023 A 
ATOM     17  C   UNL d   1       1.429  -3.106   2.509  0.00  0.00     0.043 A 
ATOM     18  C   UNL d   1       1.420  -3.292   3.908  0.00  0.00     0.053 A 
ATOM     19 CL   UNL d   1       1.407  -4.539   1.541  0.00  0.00    -0.084 Cl
ATOM     20  C   UNL d   1       1.423  -2.223   4.818  0.00  0.00     0.031 A 
ATOM     21  C   UNL d   1       1.444  -0.947   4.257  0.00  0.00     0.030 A 
ATOM     22  C   UNL d   1       1.469  -0.745   2.870  0.00  0.00     0.012 A 
BRANCH  20  23
ATOM     23  N   UNL d   1       1.415  -2.430   6.187  0.00  0.00    -0.390 N 
ATOM     24  C   UNL d   1       0.789  -3.605   6.783  0.00  0.00     0.149 C 
ATOM     25  C   UNL d   1       1.919  -1.441   7.133  0.00  0.00     0.149 C 
ENDBRANCH  20  23
ENDBRANCH   3  16
BRANCH   1  26
ATOM     26  C   UNL d   1       4.025  -1.696   0.025  0.00  0.00     0.291 C 
ATOM     27  O   UNL d   1       5.176  -1.320   0.172  0.00  0.00    -0.260 OA
BRANCH  26  28
ATOM     28  O   UNL d   1       3.656  -2.981  -0.200  0.00  0.00    -0.323 OA
ATOM     29  C   UNL d   1       4.701  -3.951  -0.121  0.00  0.00     0.213 C 
ENDBRANCH  26  28
ENDBRANCH   1  26
TORSDOF 4
