REMARK  2 active torsions:
REMARK  status: ('A' for Active; 'I' for Inactive)
REMARK    1  A    between atoms: N_2  and  C_1 
REMARK    2  A    between atoms: C_3  and  C_1 
ROOT
ATOM      1  C   UNL d   1       0.909  -0.027  -0.012  0.00  0.00     0.109 C 
ATOM      2  S   UNL d   1       1.859  -0.572   1.268  0.00  0.00    -0.060 SA
ENDROOT
BRANCH   1   3
ATOM      3  N   UNL d   1       0.079   1.097   0.081  0.00  0.00    -0.371 N 
ATOM      4  C   UNL d   1       0.518   2.321  -0.592  0.00  0.00     0.123 C 
ATOM      5  C   UNL d   1      -0.671   3.191  -0.984  0.00  0.00     0.020 C 
ATOM      6  C   UNL d   1      -1.608   3.436   0.200  0.00  0.00     0.003 C 
ATOM      7  C   UNL d   1      -1.993   2.123   0.882  0.00  0.00     0.020 C 
ATOM      8  C   UNL d   1      -0.753   1.319   1.264  0.00  0.00     0.123 C 
ENDBRANCH   1   3
BRANCH   1   9
ATOM      9  C   UNL d   1       0.808  -0.749  -1.325  0.00  0.00     0.002 A 
ATOM     10  C   UNL d   1       1.887  -1.459  -1.873  0.00  0.00     0.016 A 
ATOM     11  C   UNL d   1       1.727  -2.177  -3.063  0.00  0.00     0.024 A 
ATOM     12  C   UNL d   1       0.492  -2.188  -3.711  0.00  0.00     0.034 A 
ATOM     13  C   UNL d   1      -0.585  -1.479  -3.185  0.00  0.00     0.024 A 
ATOM     14 CL   UNL d   1       0.293  -3.089  -5.162  0.00  0.00    -0.084 Cl
ATOM     15  C   UNL d   1      -0.426  -0.763  -1.995  0.00  0.00     0.016 A 
ENDBRANCH   1   9
TORSDOF 2
