REMARK  6 active torsions:
REMARK  status: ('A' for Active; 'I' for Inactive)
REMARK    1  A    between atoms: C_5  and  C_1 
REMARK    2  A    between atoms: O_19  and  C_5 
REMARK    3  A    between atoms: C_22  and  C_14 
REMARK    4  A    between atoms: C_17  and  O_21 
REMARK    5  A    between atoms: C_23  and  O_19 
REMARK    6  A    between atoms: O_21  and  C_22 
ROOT
ATOM      1  C   UNL d   1       1.333   0.733  -0.095  0.00  0.00     0.116 A 
ATOM      2  N   UNL d   1       1.440  -0.628   0.216  0.00  0.00    -0.347 N 
ATOM      3  HN  UNL d   1       2.285  -1.077   0.569  1.00  0.00     0.166 HD
ATOM      4  C   UNL d   1       0.072   1.109  -0.523  0.00  0.00     0.087 A 
ATOM      5  C   UNL d   1       0.299  -1.251  -0.008  0.00  0.00     0.075 A 
ATOM      6  S   UNL d   1      -0.996  -0.233  -0.502  0.00  0.00    -0.084 SA
ENDROOT
BRANCH   5   7
ATOM      7  C   UNL d   1       0.129  -2.745   0.029  0.00  0.00     0.240 C 
BRANCH   7   8
ATOM      8  O   UNL d   1      -0.204  -3.132   1.365  0.00  0.00    -0.345 OA
BRANCH   8   9
ATOM      9  C   UNL d   1      -0.396  -4.483   1.565  0.00  0.00     0.071 A 
ATOM     10  C   UNL d   1      -1.285  -4.782   2.617  0.00  0.00     0.070 A 
ATOM     11  C   UNL d   1      -1.486  -6.155   2.857  0.00  0.00     0.087 A 
ATOM     12  N   UNL d   1      -2.268  -6.756   3.762  0.00  0.00    -0.239 N 
ATOM     13  C   UNL d   1      -0.811  -7.187   2.084  0.00  0.00     0.085 A 
ATOM     14  O   UNL d   1      -2.092  -8.117   3.569  0.00  0.00    -0.156 OA
ATOM     15  HN  UNL d   1      -2.869  -6.305   4.452  1.00  0.00     0.197 HD
ATOM     16  N   UNL d   1      -1.201  -8.382   2.542  0.00  0.00    -0.240 N 
ATOM     17  HN  UNL d   1      -0.904  -9.297   2.204  1.00  0.00     0.197 HD
ATOM     18  C   UNL d   1       0.088  -6.879   1.050  0.00  0.00     0.036 A 
ATOM     19  C   UNL d   1       0.275  -5.498   0.823  0.00  0.00     0.039 A 
ENDBRANCH   8   9
ENDBRANCH   7   8
ENDBRANCH   5   7
BRANCH   1  20
ATOM     20  C   UNL d   1       2.491   1.634  -0.032  0.00  0.00     0.315 C 
ATOM     21  O   UNL d   1       2.588   2.665  -0.684  0.00  0.00    -0.257 OA
BRANCH  20  22
ATOM     22  O   UNL d   1       3.453   1.145   0.853  0.00  0.00    -0.274 OA
BRANCH  22  23
ATOM     23  C   UNL d   1       4.796   1.559   0.767  0.00  0.00     0.079 A 
ATOM     24  C   UNL d   1       5.468   1.774   1.971  0.00  0.00     0.039 A 
ATOM     25  C   UNL d   1       6.857   1.924   1.965  0.00  0.00     0.026 A 
ATOM     26  C   UNL d   1       7.555   1.848   0.759  0.00  0.00     0.034 A 
ATOM     27  C   UNL d   1       6.874   1.669  -0.446  0.00  0.00     0.026 A 
ATOM     28 CL   UNL d   1       9.275   1.927   0.763  0.00  0.00    -0.084 Cl
ATOM     29  C   UNL d   1       5.484   1.524  -0.446  0.00  0.00     0.039 A 
ENDBRANCH  22  23
ENDBRANCH  20  22
ENDBRANCH   1  20
TORSDOF 6
