REMARK  8 active torsions:
REMARK  status: ('A' for Active; 'I' for Inactive)
REMARK    1  A    between atoms: N_2  and  S_1 
REMARK    2  A    between atoms: C_11  and  S_1 
REMARK    3  A    between atoms: C_5  and  N_2 
REMARK    4  A    between atoms: C_4  and  C_8 
REMARK    5  A    between atoms: S_15  and  C_5 
REMARK    6  A    between atoms: N_13  and  C_6 
REMARK    7  A    between atoms: N_14  and  C_7 
REMARK    8  A    between atoms: C_8  and  N_12 
ROOT
ATOM      1  C   UNL d   1       0.154   0.222  -2.687  0.00  0.00     0.149 C 
ATOM      2  N   UNL d   1       0.838   1.395  -2.602  0.00  0.00    -0.366 N 
ATOM      3  H   UNL d   1       0.275   2.230  -2.460  0.00  0.00     0.162 HD
ENDROOT
BRANCH   2   4
ATOM      4  C   UNL d   1       2.066   1.538  -1.841  0.00  0.00     0.164 C 
BRANCH   4   5
ATOM      5  C   UNL d   1       2.807   2.841  -2.084  0.00  0.00     0.007 A 
ATOM      6  C   UNL d   1       2.131   4.103  -2.012  0.00  0.00     0.020 A 
ATOM      7  C   UNL d   1       2.912   5.267  -2.147  0.00  0.00     0.024 A 
ATOM      8  C   UNL d   1       4.281   5.216  -2.393  0.00  0.00     0.004 A 
ATOM      9  C   UNL d   1       4.916   3.989  -2.524  0.00  0.00     0.030 A 
ATOM     10  C   UNL d   1       4.219   2.779  -2.385  0.00  0.00     0.039 A 
BRANCH   6  11
ATOM     11  N   UNL d   1       0.707   4.197  -1.930  0.00  0.00    -0.291 NA
ATOM     12  C   UNL d   1       0.120   5.425  -2.501  0.00  0.00     0.116 C 
ATOM     13  C   UNL d   1       0.136   3.885  -0.610  0.00  0.00     0.116 C 
ENDBRANCH   6  11
BRANCH  10  14
ATOM     14  N   UNL d   1       4.883   1.567  -2.646  0.00  0.00    -0.389 N 
ATOM     15  C   UNL d   1       5.083   0.618  -1.545  0.00  0.00     0.149 C 
ATOM     16  C   UNL d   1       5.983   1.552  -3.617  0.00  0.00     0.149 C 
ENDBRANCH  10  14
ENDBRANCH   4   5
ENDBRANCH   2   4
BRANCH   1  17
ATOM     17  N   UNL d   1       0.455  -0.994  -2.961  0.00  0.00    -0.260 N 
ATOM     18  HN  UNL d   1      -0.342  -1.628  -3.024  1.00  0.00     0.181 HD
BRANCH  17  19
ATOM     19  S   UNL d   1       1.876  -1.676  -3.219  0.00  0.00     0.264 S 
ATOM     20  O   UNL d   1       1.592  -3.050  -3.614  0.00  0.00    -0.200 OA
ATOM     21  O   UNL d   1       2.729  -1.484  -2.066  0.00  0.00    -0.200 OA
BRANCH  19  22
ATOM     22  C   UNL d   1       2.717  -0.986  -4.652  0.00  0.00     0.079 A 
ATOM     23  C   UNL d   1       2.644   0.360  -5.013  0.00  0.00     0.025 A 
ATOM     24  C   UNL d   1       3.357   0.845  -6.114  0.00  0.00     0.002 A 
ATOM     25  C   UNL d   1       4.122  -0.024  -6.886  0.00  0.00     0.000 A 
ATOM     26  C   UNL d   1       4.185  -1.373  -6.549  0.00  0.00     0.002 A 
ATOM     27  C   UNL d   1       3.491  -1.853  -5.434  0.00  0.00     0.025 A 
ENDBRANCH  19  22
ENDBRANCH  17  19
ENDBRANCH   1  17
BRANCH   1  28
ATOM     28  S   UNL d   1      -1.560   0.384  -2.241  0.00  0.00    -0.098 SA
ATOM     29  C   UNL d   1      -2.128   1.689  -3.330  0.00  0.00     0.099 C 
ENDBRANCH   1  28
TORSDOF 8
