REMARK  5 active torsions:
REMARK  status: ('A' for Active; 'I' for Inactive)
REMARK    1  A    between atoms: N_5  and  C_1 
REMARK    2  A    between atoms: C_4  and  C_7 
REMARK       I    between atoms: C_6  and  N_10 
REMARK    3  A    between atoms: O_11  and  C_6 
REMARK    4  A    between atoms: N_10  and  C_21 
REMARK    5  A    between atoms: C_15  and  O_11 
ROOT
ATOM      1  N   UNL d   1      -0.093   2.341   0.518  0.00  0.00    -0.217 N 
ATOM      2  C   UNL d   1      -0.400   2.812  -0.829  0.00  0.00     0.143 C 
ATOM      3  C   UNL d   1      -0.757   3.087   1.580  0.00  0.00     0.143 C 
ATOM      4  C   UNL d   1       0.118   4.237  -0.986  0.00  0.00     0.045 C 
ATOM      5  C   UNL d   1      -0.261   4.529   1.557  0.00  0.00     0.045 C 
ATOM      6  C   UNL d   1      -0.237   5.178   0.170  0.00  0.00     0.089 C 
ENDROOT
BRANCH   1   7
ATOM      7  C   UNL d   1      -0.019   0.963   0.674  0.00  0.00     0.680 A 
ATOM      8  N   UNL d   1      -0.358   0.419   1.853  0.00  0.00    -0.186 N 
ATOM      9  C   UNL d   1      -0.200  -0.918   2.032  0.00  0.00     0.133 A 
ATOM     10  HN  UNL d   1      -0.729   1.001   2.604  1.00  0.00     0.184 HD
ATOM     11  C   UNL d   1       0.311  -1.729   1.041  0.00  0.00     0.052 A 
ATOM     12  C   UNL d   1       0.631  -1.099  -0.132  0.00  0.00     0.108 A 
ATOM     13  N   UNL d   1       0.469   0.221  -0.333  0.00  0.00    -0.202 N 
ATOM     14  HN  UNL d   1       0.711   0.647  -1.227  1.00  0.00     0.183 HD
BRANCH   9  15
ATOM     15  C   UNL d   1      -0.589  -1.536   3.363  0.00  0.00     0.433 C 
ATOM     16  F   UNL d   1      -1.118  -0.657   4.260  0.00  0.00    -0.165 F 
ATOM     17  F   UNL d   1      -1.520  -2.525   3.221  0.00  0.00    -0.165 F 
ATOM     18  F   UNL d   1       0.469  -2.123   3.995  0.00  0.00    -0.165 F 
ENDBRANCH   9  15
ENDBRANCH   1   7
BRANCH   6  19
ATOM     19  N   UNL d   1      -1.345   6.088  -0.114  0.00  0.00    -0.332 N 
ATOM     20  C   UNL d   1      -2.685   5.923  -0.237  0.00  0.00     0.361 C 
ATOM     21  O   UNL d   1      -3.375   6.876  -0.569  0.00  0.00    -0.238 OA
ATOM     22  H   UNL d   1      -1.088   7.042  -0.345  0.00  0.00     0.165 HD
BRANCH  20  23
ATOM     23  O   UNL d   1      -3.141   4.679   0.030  0.00  0.00    -0.294 OA
BRANCH  23  24
ATOM     24  C   UNL d   1      -4.568   4.413  -0.101  0.00  0.00     0.061 C 
ATOM     25  C   UNL d   1      -5.057   4.664  -1.537  0.00  0.00     0.046 C 
ATOM     26  C   UNL d   1      -4.739   2.921   0.224  0.00  0.00     0.046 C 
ATOM     27  C   UNL d   1      -5.393   5.217   0.918  0.00  0.00     0.046 C 
ENDBRANCH  23  24
ENDBRANCH  20  23
ENDBRANCH   6  19
TORSDOF 5
