REMARK  2 active torsions:
REMARK  status: ('A' for Active; 'I' for Inactive)
REMARK       I    between atoms: N_2  and  C_1 
REMARK    1  A    between atoms: C_8  and  C_1 
REMARK       I    between atoms: C_4  and  N_2 
REMARK    2  A    between atoms: C_3  and  N_5 
REMARK       I    between atoms: N_5  and  C_4 
ROOT
ATOM      1  C   UNL d   1       0.760  -0.455   0.329  0.00  0.00     0.260 C 
ATOM      2  N   UNL d   1       0.073   0.483   1.076  0.00  0.00    -0.275 N 
ATOM      3  C   UNL d   1       0.538   1.200   2.155  0.00  0.00     0.327 C 
ATOM      4  N   UNL d   1       1.638   0.674   2.780  0.00  0.00    -0.305 N 
ATOM      5  O   UNL d   1       1.873  -0.884   0.608  0.00  0.00    -0.267 OA
ATOM      6  O   UNL d   1      -0.028   2.246   2.461  0.00  0.00    -0.247 OA
ATOM      7  H   UNL d   1      -0.794   0.850   0.715  0.00  0.00     0.173 HD
ATOM      8  H   UNL d   1       2.285   0.199   2.147  0.00  0.00     0.171 HD
ENDROOT
BRANCH   4   9
ATOM      9  C   UNL d   1       2.153   1.072   4.039  0.00  0.00     0.080 A 
ATOM     10  C   UNL d   1       1.352   1.380   5.159  0.00  0.00     0.064 A 
ATOM     11  C   UNL d   1       1.940   1.721   6.383  0.00  0.00     0.050 A 
ATOM     12 CL   UNL d   1      -0.368   1.170   5.194  0.00  0.00    -0.082 Cl
ATOM     13  C   UNL d   1       3.324   1.731   6.518  0.00  0.00     0.037 A 
ATOM     14  C   UNL d   1       4.135   1.402   5.440  0.00  0.00     0.050 A 
ATOM     15 CL   UNL d   1       4.031   2.107   8.039  0.00  0.00    -0.084 Cl
ATOM     16  C   UNL d   1       3.553   1.067   4.215  0.00  0.00     0.064 A 
ATOM     17 CL   UNL d   1       4.618   0.672   2.907  0.00  0.00    -0.082 Cl
ENDBRANCH   4   9
BRANCH   1  18
ATOM     18  C   UNL d   1       0.040  -0.955  -0.875  0.00  0.00     0.044 A 
ATOM     19  C   UNL d   1      -0.356  -0.063  -1.899  0.00  0.00    -0.046 A 
ATOM     20  C   UNL d   1      -1.007  -0.578  -3.031  0.00  0.00     0.008 A 
ATOM     21  C   UNL d   1      -0.144   1.427  -1.842  0.00  0.00     0.049 C 
ATOM     22  C   UNL d   1      -1.232  -1.945  -3.169  0.00  0.00     0.001 A 
ATOM     23  C   UNL d   1      -0.832  -2.819  -2.163  0.00  0.00     0.008 A 
ATOM     24  C   UNL d   1      -0.209  -2.342  -0.999  0.00  0.00    -0.046 A 
ATOM     25  C   UNL d   1       0.190  -3.355   0.042  0.00  0.00     0.049 C 
ENDBRANCH   1  18
TORSDOF 2
