REMARK  5 active torsions:
REMARK  status: ('A' for Active; 'I' for Inactive)
REMARK    1  A    between atoms: S_5  and  C_1 
REMARK    2  A    between atoms: C_12  and  S_5 
REMARK    3  A    between atoms: C_7  and  C_12 
REMARK       I    between atoms: N_9  and  C_7 
REMARK    4  A    between atoms: C_15  and  N_9 
REMARK    5  A    between atoms: C_16  and  C_10 
ROOT
ATOM      1  C   UNL d   1       2.356   6.495  -0.685  0.00  0.00     0.231 C 
ATOM      2  N   UNL d   1       1.716   5.527   0.076  0.00  0.00    -0.327 N 
ATOM      3  O   UNL d   1       1.786   7.399  -1.300  0.00  0.00    -0.272 OA
ATOM      4  H   UNL d   1       2.305   4.917   0.626  0.00  0.00     0.169 HD
ENDROOT
BRANCH   1   5
ATOM      5  C   UNL d   1       3.874   6.498  -0.650  0.00  0.00     0.185 C 
BRANCH   5   6
ATOM      6  S   UNL d   1       4.639   4.851  -0.686  0.00  0.00    -0.084 SA
BRANCH   6   7
ATOM      7  C   UNL d   1       6.308   5.342  -0.727  0.00  0.00     0.146 A 
ATOM      8  N   UNL d   1       7.362   4.491  -0.936  0.00  0.00    -0.341 N 
ATOM      9  C   UNL d   1       8.511   5.235  -0.828  0.00  0.00     0.109 A 
ATOM     10  C   UNL d   1       7.337   3.078  -1.222  0.00  0.00     0.158 C 
ATOM     11  C   UNL d   1       8.088   6.521  -0.602  0.00  0.00     0.107 A 
ATOM     12  N   UNL d   1       6.720   6.576  -0.540  0.00  0.00    -0.345 N 
ATOM     13  HN  UNL d   1       6.142   7.401  -0.382  1.00  0.00     0.167 HD
ENDBRANCH   6   7
ENDBRANCH   5   6
ENDBRANCH   1   5
BRANCH   2  14
ATOM     14  C   UNL d   1       0.317   5.304   0.137  0.00  0.00     0.034 A 
ATOM     15  C   UNL d   1      -0.603   5.963  -0.683  0.00  0.00     0.030 A 
ATOM     16  C   UNL d   1      -1.967   5.667  -0.632  0.00  0.00     0.010 A 
ATOM     17  C   UNL d   1      -2.463   4.695   0.243  0.00  0.00    -0.055 A 
ATOM     18  C   UNL d   1      -1.550   4.053   1.092  0.00  0.00     0.010 A 
ATOM     19  C   UNL d   1      -0.177   4.350   1.037  0.00  0.00     0.030 A 
BRANCH  17  20
ATOM     20  C   UNL d   1      -3.933   4.312   0.231  0.00  0.00     0.010 C 
ATOM     21  C   UNL d   1      -4.849   5.497   0.555  0.00  0.00     0.015 C 
ATOM     22  C   UNL d   1      -4.321   3.696  -1.119  0.00  0.00     0.015 C 
ENDBRANCH  17  20
ENDBRANCH   2  14
TORSDOF 5
