REMARK  3 active torsions:
REMARK  status: ('A' for Active; 'I' for Inactive)
REMARK    1  A    between atoms: C_6  and  C_2 
REMARK    2  A    between atoms: C_7  and  C_3 
REMARK    3  A    between atoms: O_9  and  C_6 
ROOT
ATOM      1  S   UNL d   1       0.381  -0.405  -1.552  0.00  0.00    -0.083 SA
ATOM      2  C   UNL d   1       0.746   1.084  -0.798  0.00  0.00     0.079 A 
ATOM      3  C   UNL d   1       0.162  -1.223  -0.057  0.00  0.00     0.016 A 
ATOM      4  C   UNL d   1       0.741   0.956   0.577  0.00  0.00     0.027 A 
ATOM      5  C   UNL d   1       0.409  -0.364   1.001  0.00  0.00     0.021 A 
ENDROOT
BRANCH   3   6
ATOM      6  C   UNL d   1      -0.212  -2.649  -0.029  0.00  0.00    -0.019 A 
ATOM      7  C   UNL d   1       0.232  -3.476   1.016  0.00  0.00     0.013 A 
ATOM      8  C   UNL d   1      -0.117  -4.830   1.060  0.00  0.00     0.001 A 
ATOM      9  C   UNL d   1      -0.915  -5.379   0.061  0.00  0.00     0.000 A 
ATOM     10  C   UNL d   1      -1.370  -4.576  -0.980  0.00  0.00     0.001 A 
ATOM     11  C   UNL d   1      -1.025  -3.222  -1.021  0.00  0.00     0.013 A 
ENDBRANCH   3   6
BRANCH   2  12
ATOM     12  C   UNL d   1       1.020   2.289  -1.561  0.00  0.00     0.183 C 
ATOM     13  O   UNL d   1       1.301   3.378  -1.080  0.00  0.00    -0.646 OA
BRANCH  12  14
ATOM     14  O   UNL d   1       0.929   2.106  -2.904  0.00  0.00    -0.772 OA
ATOM     15  H   UNL d   1       0.696   1.183  -3.123  0.00  0.00     0.167 HD
ENDBRANCH  12  14
ENDBRANCH   2  12
TORSDOF 3
