REMARK  5 active torsions:
REMARK  status: ('A' for Active; 'I' for Inactive)
REMARK    1  A    between atoms: C_2  and  C_1 
REMARK    2  A    between atoms: C_3  and  C_1 
REMARK    3  A    between atoms: N_4  and  C_1 
REMARK    4  A    between atoms: N_5  and  C_1 
REMARK       I    between atoms: C_6  and  N_4 
REMARK    5  A    between atoms: C_14  and  N_5 
ROOT
ATOM      1  C   UNL d   1       0.745  -0.070  -0.149  0.00  0.00     0.290 C 
ENDROOT
BRANCH   1   2
ATOM      2  C   UNL d   1      -0.002  -1.070  -1.106  0.00  0.00     0.435 C 
ATOM      3  F   UNL d   1      -1.135  -1.608  -0.615  0.00  0.00    -0.167 F 
ATOM      4  F   UNL d   1      -0.360  -0.469  -2.275  0.00  0.00    -0.167 F 
ATOM      5  F   UNL d   1       0.803  -2.112  -1.447  0.00  0.00    -0.167 F 
ENDBRANCH   1   2
BRANCH   1   6
ATOM      6  C   UNL d   1       0.519  -0.636   1.309  0.00  0.00     0.435 C 
ATOM      7  F   UNL d   1      -0.240  -1.740   1.418  0.00  0.00    -0.167 F 
ATOM      8  F   UNL d   1       1.732  -0.977   1.849  0.00  0.00    -0.167 F 
ATOM      9  F   UNL d   1       0.010   0.300   2.150  0.00  0.00    -0.167 F 
ENDBRANCH   1   6
BRANCH   1  10
ATOM     10  N   UNL d   1       0.379   1.341  -0.294  0.00  0.00    -0.324 N 
ATOM     11  C   UNL d   1      -0.904   1.767  -0.181  0.00  0.00     0.215 C 
ATOM     12  O   UNL d   1      -1.828   0.991   0.017  0.00  0.00    -0.274 OA
ATOM     13  C   UNL d   1      -1.106   3.246  -0.359  0.00  0.00     0.117 C 
ATOM     14  H   UNL d   1       1.159   1.984  -0.390  0.00  0.00     0.165 HD
ENDBRANCH   1  10
BRANCH   1  15
ATOM     15  N   UNL d   1       2.250   0.046  -0.395  0.00  0.00    -0.251 NA
ATOM     16  H   UNL d   1       2.747  -0.586   0.244  0.00  0.00     0.130 HD
BRANCH  15  17
ATOM     17  C   UNL d   1       2.830   0.020  -1.666  0.00  0.00     0.011 A 
ATOM     18  C   UNL d   1       2.219   0.552  -2.805  0.00  0.00     0.026 A 
ATOM     19  C   UNL d   1       2.844   0.497  -4.056  0.00  0.00     0.044 A 
ATOM     20  C   UNL d   1       4.117  -0.039  -4.160  0.00  0.00     0.116 A 
ATOM     21  C   UNL d   1       4.785  -0.501  -3.039  0.00  0.00     0.044 A 
ATOM     22  F   UNL d   1       4.715  -0.095  -5.357  0.00  0.00    -0.206 F 
ATOM     23  C   UNL d   1       4.145  -0.457  -1.794  0.00  0.00     0.026 A 
ENDBRANCH  15  17
ENDBRANCH   1  15
TORSDOF 5
