REMARK  6 active torsions:
REMARK  status: ('A' for Active; 'I' for Inactive)
REMARK    1  A    between atoms: S_8  and  C_1 
REMARK    2  A    between atoms: C_6  and  C_3 
REMARK    3  A    between atoms: C_10  and  C_5 
REMARK    4  A    between atoms: O_14  and  C_6 
REMARK    5  A    between atoms: C_19  and  S_8 
REMARK    6  A    between atoms: C_20  and  O_14 
ROOT
ATOM      1  C   UNL d   1       0.221   0.914   0.060  0.00  0.00     0.064 A 
ATOM      2  C   UNL d   1      -0.701  -0.110  -0.040  0.00  0.00     0.081 A 
ATOM      3  C   UNL d   1       1.306  -1.317  -0.073  0.00  0.00     0.094 A 
ATOM      4  S   UNL d   1       1.817   0.309   0.095  0.00  0.00    -0.075 SA
ATOM      5  C   UNL d   1      -0.085  -1.425  -0.068  0.00  0.00     0.020 A 
ATOM      6  C   UNL d   1      -2.115   0.126  -0.120  0.00  0.00     0.102 C 
ATOM      7  N   UNL d   1      -3.257   0.311  -0.192  0.00  0.00    -0.191 NA
ENDROOT
BRANCH   1   8
ATOM      8  S   UNL d   1      -0.028   2.662   0.070  0.00  0.00    -0.117 SA
BRANCH   8   9
ATOM      9  C   UNL d   1      -1.165   2.947   1.472  0.00  0.00     0.045 C 
ATOM     10  C   UNL d   1      -0.553   2.504   2.797  0.00  0.00     0.021 C 
ATOM     11  C   UNL d   1      -1.506   4.436   1.515  0.00  0.00     0.021 C 
ENDBRANCH   8   9
ENDBRANCH   1   8
BRANCH   5  12
ATOM     12  C   UNL d   1      -0.773  -2.731  -0.113  0.00  0.00    -0.023 A 
ATOM     13  C   UNL d   1      -1.891  -2.933  -0.937  0.00  0.00     0.014 A 
ATOM     14  C   UNL d   1      -2.541  -4.173  -0.976  0.00  0.00     0.024 A 
ATOM     15  C   UNL d   1      -2.057  -5.237  -0.221  0.00  0.00     0.034 A 
ATOM     16  C   UNL d   1      -0.951  -5.061   0.602  0.00  0.00     0.024 A 
ATOM     17 CL   UNL d   1      -2.826  -6.772  -0.308  0.00  0.00    -0.084 Cl
ATOM     18  C   UNL d   1      -0.334  -3.808   0.678  0.00  0.00     0.014 A 
ENDBRANCH   5  12
BRANCH   3  19
ATOM     19  C   UNL d   1       2.303  -2.363  -0.249  0.00  0.00     0.301 C 
ATOM     20  O   UNL d   1       2.148  -3.378  -0.914  0.00  0.00    -0.259 OA
BRANCH  19  21
ATOM     21  O   UNL d   1       3.420  -2.110   0.497  0.00  0.00    -0.317 OA
BRANCH  21  22
ATOM     22  C   UNL d   1       4.372  -3.187   0.560  0.00  0.00     0.174 C 
ATOM     23  C   UNL d   1       5.229  -3.247  -0.692  0.00  0.00     0.034 C 
ENDBRANCH  21  22
ENDBRANCH  19  21
ENDBRANCH   3  19
TORSDOF 6
