REMARK  4 active torsions:
REMARK  status: ('A' for Active; 'I' for Inactive)
REMARK    1  A    between atoms: C_2  and  S_1 
REMARK    2  A    between atoms: N_5  and  S_1 
REMARK    3  A    between atoms: C_14  and  N_5 
REMARK    4  A    between atoms: C_11  and  C_14 
ROOT
ATOM      1  C   UNL d   1       0.399   0.013  -2.041  0.00  0.00     0.096 A 
ATOM      2  C   UNL d   1       0.814  -0.824  -3.074  0.00  0.00     0.058 A 
ATOM      3  C   UNL d   1      -0.443   1.103  -2.329  0.00  0.00     0.035 A 
ATOM      4  C   UNL d   1       0.340  -0.599  -4.373  0.00  0.00     0.050 A 
ATOM      5  C   UNL d   1      -0.507   0.476  -4.655  0.00  0.00     0.041 A 
ATOM      6  C   UNL d   1      -0.897   1.354  -3.638  0.00  0.00    -0.039 A 
ATOM      7 CL   UNL d   1       1.915  -2.138  -2.904  0.00  0.00    -0.083 Cl
ATOM      8 CL   UNL d   1      -1.021   0.668  -6.291  0.00  0.00    -0.084 Cl
ATOM      9  C   UNL d   1      -1.734   2.582  -3.868  0.00  0.00     0.050 C 
ENDROOT
BRANCH   1  10
ATOM     10  S   UNL d   1       0.950  -0.191  -0.365  0.00  0.00     0.243 S 
ATOM     11  O   UNL d   1       0.364   0.879   0.416  0.00  0.00    -0.206 OA
ATOM     12  O   UNL d   1       2.377  -0.415  -0.360  0.00  0.00    -0.206 OA
BRANCH  10  13
ATOM     13  N   UNL d   1       0.137  -1.576   0.158  0.00  0.00    -0.215 NA
ATOM     14  H   UNL d   1      -0.480  -1.313   0.930  0.00  0.00     0.139 HD
BRANCH  13  15
ATOM     15  C   UNL d   1       0.972  -2.745   0.462  0.00  0.00     0.109 C 
BRANCH  15  16
ATOM     16  C   UNL d   1       0.090  -3.837   0.984  0.00  0.00    -0.001 A 
ATOM     17  C   UNL d   1      -0.324  -3.872   2.433  0.00  0.00     0.006 A 
ATOM     18  C   UNL d   1       0.662  -4.881   1.909  0.00  0.00     0.006 A 
ENDBRANCH  15  16
ENDBRANCH  13  15
ENDBRANCH  10  13
ENDBRANCH   1  10
TORSDOF 4
