REMARK  11 active torsions:
REMARK  status: ('A' for Active; 'I' for Inactive)
REMARK    1  A    between atoms: C_7  and  C_1 
REMARK    2  A    between atoms: O_8  and  C_1 
REMARK    3  A    between atoms: C_15  and  C_2 
REMARK    4  A    between atoms: N_16  and  C_2 
REMARK    5  A    between atoms: N_3  and  O_8 
REMARK    6  A    between atoms: N_5  and  O_12 
REMARK    7  A    between atoms: O_12  and  C_7 
REMARK    8  A    between atoms: C_10  and  C_9 
REMARK    9  A    between atoms: O_17  and  C_15 
REMARK   10  A    between atoms: C_18  and  O_17 
REMARK   11  A    between atoms: O_28  and  C_20 
ROOT
ATOM      1  C   UNL d   1       2.158   2.968   2.268  0.00  0.00     0.100 C 
ATOM      2  N   UNL d   1       2.341   2.014   1.406  0.00  0.00    -0.249 N 
ATOM      3  HN  UNL d   1       1.611   1.394   1.057  1.00  0.00     0.196 HD
ENDROOT
BRANCH   2   4
ATOM      4  O   UNL d   1       3.690   1.962   1.024  0.00  0.00    -0.196 OA
BRANCH   4   5
ATOM      5  C   UNL d   1       3.846   1.083  -0.022  0.00  0.00     0.307 C 
ATOM      6  O   UNL d   1       3.212   0.054  -0.210  0.00  0.00    -0.261 OA
BRANCH   5   7
ATOM      7  C   UNL d   1       4.892   1.673  -0.945  0.00  0.00     0.314 C 
BRANCH   7   8
ATOM      8  O   UNL d   1       5.463   0.671  -1.765  0.00  0.00    -0.270 OA
BRANCH   8   9
ATOM      9  N   UNL d   1       6.349   1.271  -2.674  0.00  0.00    -0.270 N 
ATOM     10  C   UNL d   1       6.972   0.375  -3.384  0.00  0.00     0.038 C 
ATOM     11  C   UNL d   1       6.781  -1.122  -3.198  0.00  0.00     0.071 C 
ATOM     12  HN  UNL d   1       6.486   2.278  -2.766  1.00  0.00     0.194 HD
BRANCH  10  13
ATOM     13  C   UNL d   1       7.934   0.826  -4.448  0.00  0.00    -0.012 A 
ATOM     14  C   UNL d   1       8.173   2.195  -4.639  0.00  0.00     0.015 A 
ATOM     15  C   UNL d   1       9.061   2.630  -5.629  0.00  0.00     0.024 A 
ATOM     16  C   UNL d   1       9.714   1.702  -6.433  0.00  0.00     0.034 A 
ATOM     17  C   UNL d   1       9.484   0.337  -6.258  0.00  0.00     0.024 A 
ATOM     18 CL   UNL d   1      10.806   2.231  -7.651  0.00  0.00    -0.084 Cl
ATOM     19  C   UNL d   1       8.598  -0.098  -5.271  0.00  0.00     0.015 A 
ENDBRANCH  10  13
ENDBRANCH   8   9
ENDBRANCH   7   8
ENDBRANCH   5   7
ENDBRANCH   4   5
ENDBRANCH   2   4
BRANCH   1  20
ATOM     20  C   UNL d   1       0.718   3.312   2.648  0.00  0.00     0.247 C 
BRANCH  20  21
ATOM     21  O   UNL d   1       0.387   2.740   3.905  0.00  0.00    -0.344 OA
BRANCH  21  22
ATOM     22  C   UNL d   1      -0.891   2.981   4.341  0.00  0.00     0.069 A 
ATOM     23  C   UNL d   1      -1.802   3.862   3.754  0.00  0.00     0.039 A 
ATOM     24  C   UNL d   1      -3.072   4.052   4.313  0.00  0.00     0.039 A 
ATOM     25  C   UNL d   1      -3.446   3.361   5.463  0.00  0.00     0.068 A 
ATOM     26  C   UNL d   1      -2.540   2.470   6.042  0.00  0.00     0.039 A 
ATOM     27  C   UNL d   1      -1.270   2.281   5.486  0.00  0.00     0.039 A 
BRANCH  25  28
ATOM     28  O   UNL d   1      -4.645   3.469   6.111  0.00  0.00    -0.356 OA
ATOM     29  C   UNL d   1      -5.596   4.369   5.555  0.00  0.00     0.210 C 
ENDBRANCH  25  28
ENDBRANCH  21  22
ENDBRANCH  20  21
ENDBRANCH   1  20
BRANCH   1  30
ATOM     30  N   UNL d   1       3.170   3.710   2.838  0.00  0.00    -0.289 NA
ATOM     31  H   UNL d   1       4.069   3.241   2.800  0.00  0.00     0.125 HD
ATOM     32  H   UNL d   1       2.964   4.084   3.760  0.00  0.00     0.125 HD
ENDBRANCH   1  30
TORSDOF 11
