REMARK  4 active torsions:
REMARK  status: ('A' for Active; 'I' for Inactive)
REMARK    1  A    between atoms: C_5  and  C_1 
REMARK    2  A    between atoms: C_7  and  C_2 
REMARK       I    between atoms: N_12  and  C_7 
REMARK    3  A    between atoms: C_9  and  C_16 
REMARK    4  A    between atoms: C_16  and  N_12 
ROOT
ATOM      1  C   UNL d   1       0.332  -2.745  -0.214  0.00  0.00     0.256 C 
ATOM      2  N   UNL d   1      -0.722  -3.554  -0.561  0.00  0.00    -0.352 N 
ATOM      3  O   UNL d   1       1.469  -3.195  -0.098  0.00  0.00    -0.267 OA
ATOM      4  H   UNL d   1      -1.633  -3.174  -0.777  0.00  0.00     0.163 HD
ENDROOT
BRANCH   1   5
ATOM      5  C   UNL d   1       0.045  -1.335  -0.025  0.00  0.00     0.092 A 
ATOM      6  C   UNL d   1      -1.098  -0.614   0.469  0.00  0.00     0.086 A 
ATOM      7  N   UNL d   1      -0.826   0.702   0.508  0.00  0.00    -0.259 N 
ATOM      8  O   UNL d   1       0.448   0.866   0.041  0.00  0.00    -0.241 OA
ATOM      9  HN  UNL d   1      -1.453   1.441   0.826  1.00  0.00     0.195 HD
ATOM     10  C   UNL d   1       0.985  -0.340  -0.249  0.00  0.00     0.090 A 
ATOM     11  C   UNL d   1       2.388  -0.295  -0.710  0.00  0.00     0.080 C 
BRANCH   6  12
ATOM     12  C   UNL d   1      -2.405  -1.057   0.989  0.00  0.00     0.037 A 
ATOM     13  C   UNL d   1      -2.515  -2.059   1.974  0.00  0.00     0.048 A 
ATOM     14 CL   UNL d   1      -1.155  -2.878   2.667  0.00  0.00    -0.083 Cl
ATOM     15  C   UNL d   1      -3.761  -2.403   2.523  0.00  0.00     0.025 A 
ATOM     16  C   UNL d   1      -4.913  -1.716   2.158  0.00  0.00     0.003 A 
ATOM     17  C   UNL d   1      -4.828  -0.704   1.211  0.00  0.00     0.025 A 
ATOM     18  C   UNL d   1      -3.598  -0.393   0.612  0.00  0.00     0.048 A 
ATOM     19 CL   UNL d   1      -3.666   0.830  -0.620  0.00  0.00    -0.083 Cl
ENDBRANCH   6  12
ENDBRANCH   1   5
BRANCH   2  20
ATOM     20  C   UNL d   1      -0.512  -4.971  -0.737  0.00  0.00     0.164 C 
BRANCH  20  21
ATOM     21  C   UNL d   1      -1.657  -5.753  -1.340  0.00  0.00    -0.004 A 
ATOM     22  C   UNL d   1      -2.765  -5.190  -1.997  0.00  0.00     0.088 A 
ATOM     23  C   UNL d   1      -3.770  -6.003  -2.548  0.00  0.00     0.003 A 
ATOM     24  O   UNL d   1      -2.854  -3.821  -2.065  0.00  0.00    -0.325 OA
ATOM     25  C   UNL d   1      -4.950  -5.380  -3.229  0.00  0.00     0.212 C 
ATOM     26  C   UNL d   1      -3.647  -7.397  -2.487  0.00  0.00     0.054 A 
ATOM     27  O   UNL d   1      -5.089  -4.018  -2.843  0.00  0.00    -0.362 OA
ATOM     28  C   UNL d   1      -3.842  -3.357  -2.985  0.00  0.00     0.345 C 
ATOM     29  C   UNL d   1      -2.544  -7.962  -1.861  0.00  0.00     0.117 A 
ATOM     30  C   UNL d   1      -1.561  -7.158  -1.292  0.00  0.00     0.054 A 
ATOM     31  F   UNL d   1      -2.423  -9.291  -1.807  0.00  0.00    -0.206 F 
ENDBRANCH  20  21
ENDBRANCH   2  20
TORSDOF 4
