REMARK  5 active torsions:
REMARK  status: ('A' for Active; 'I' for Inactive)
REMARK    1  A    between atoms: N_5  and  C_1 
REMARK    2  A    between atoms: C_3  and  C_2 
REMARK       I    between atoms: N_6  and  C_3 
REMARK    3  A    between atoms: O_22  and  C_4 
REMARK       I    between atoms: C_9  and  N_6 
REMARK    4  A    between atoms: C_8  and  N_12 
REMARK       I    between atoms: N_12  and  C_9 
REMARK    5  A    between atoms: O_26  and  C_10 
ROOT
ATOM      1  C   UNL d   1       3.031  -2.850  -0.350  0.00  0.00     0.244 C 
ATOM      2  N   UNL d   1       4.414  -2.684  -0.165  0.00  0.00    -0.175 NA
ATOM      3  C   UNL d   1       5.249  -3.692   0.278  0.00  0.00     0.305 C 
ATOM      4  N   UNL d   1       5.823  -4.373  -0.775  0.00  0.00    -0.310 N 
ATOM      5  O   UNL d   1       2.558  -3.903  -0.747  0.00  0.00    -0.273 OA
ATOM      6  O   UNL d   1       5.601  -3.716   1.451  0.00  0.00    -0.253 OA
ATOM      7  H   UNL d   1       4.595  -1.883   0.428  0.00  0.00     0.141 HD
ATOM      8  H   UNL d   1       5.688  -3.888  -1.656  0.00  0.00     0.170 HD
ENDROOT
BRANCH   1   9
ATOM      9  C   UNL d   1       2.179  -1.578  -0.193  0.00  0.00     0.097 C 
ATOM     10  C   UNL d   1       2.719  -0.417   0.418  0.00  0.00     0.119 C 
ATOM     11  C   UNL d   1       2.049   0.814   0.328  0.00  0.00     0.138 C 
ATOM     12  C   UNL d   1       0.799   0.908  -0.280  0.00  0.00     0.061 C 
ATOM     13  C   UNL d   1       0.207  -0.239  -0.800  0.00  0.00     0.048 C 
ATOM     14  C   UNL d   1       0.858  -1.495  -0.720  0.00  0.00     0.103 C 
ATOM     15 BR   UNL d   1      -1.432   0.055  -1.730  0.00  0.00    -0.048 Br
BRANCH  10  16
ATOM     16  O   UNL d   1       3.928  -0.506   1.064  0.00  0.00    -0.352 OA
ATOM     17  C   UNL d   1       3.798  -0.457   2.492  0.00  0.00     0.210 C 
ENDBRANCH  10  16
BRANCH  11  18
ATOM     18  N   UNL d   1       2.662   2.053   0.794  0.00  0.00    -0.113 N 
ATOM     19  O   UNL d   1       3.878   2.205   0.617  0.00  0.00    -0.532 OA
ATOM     20  O   UNL d   1       1.911   2.890   1.314  0.00  0.00    -0.532 OA
ENDBRANCH  11  18
BRANCH  14  21
ATOM     21  O   UNL d   1       0.262  -2.627  -1.219  0.00  0.00    -0.353 OA
ATOM     22  C   UNL d   1      -1.005  -2.945  -0.628  0.00  0.00     0.210 C 
ENDBRANCH  14  21
ENDBRANCH   1   9
BRANCH   4  23
ATOM     23  C   UNL d   1       6.895  -5.309  -0.768  0.00  0.00     0.079 A 
ATOM     24  C   UNL d   1       7.117  -6.316   0.193  0.00  0.00     0.064 A 
ATOM     25  C   UNL d   1       8.139  -7.269   0.003  0.00  0.00     0.050 A 
ATOM     26 CL   UNL d   1       6.104  -6.596   1.562  0.00  0.00    -0.082 Cl
ATOM     27  C   UNL d   1       8.950  -7.227  -1.131  0.00  0.00     0.037 A 
ATOM     28  C   UNL d   1       8.782  -6.218  -2.070  0.00  0.00     0.050 A 
ATOM     29 CL   UNL d   1      10.128  -8.448  -1.390  0.00  0.00    -0.084 Cl
ATOM     30  C   UNL d   1       7.767  -5.275  -1.879  0.00  0.00     0.064 A 
ATOM     31 CL   UNL d   1       7.635  -4.018  -3.072  0.00  0.00    -0.082 Cl
ENDBRANCH   4  23
TORSDOF 5
