REMARK  5 active torsions:
REMARK  status: ('A' for Active; 'I' for Inactive)
REMARK    1  A    between atoms: N_6  and  S_1 
REMARK    2  A    between atoms: C_13  and  S_1 
REMARK    3  A    between atoms: C_2  and  N_8 
REMARK    4  A    between atoms: C_11  and  O_19 
REMARK    5  A    between atoms: O_19  and  C_26 
ROOT
ATOM      1  C   UNL d   1      -4.310   2.417   5.529  0.00  0.00     0.100 A 
ATOM      2  C   UNL d   1      -3.608   2.498   4.314  0.00  0.00     0.098 A 
ATOM      3  C   UNL d   1      -3.596   2.360   6.774  0.00  0.00     0.104 C 
ATOM      4  N   UNL d   1      -3.024   2.330   7.782  0.00  0.00    -0.191 NA
ATOM      5  C   UNL d   1      -5.713   2.408   5.502  0.00  0.00     0.057 A 
ATOM      6 CL   UNL d   1      -6.664   2.292   6.942  0.00  0.00    -0.083 Cl
ATOM      7  C   UNL d   1      -4.308   2.656   3.108  0.00  0.00     0.039 A 
ATOM      8  C   UNL d   1      -5.700   2.630   3.091  0.00  0.00     0.005 A 
ATOM      9  C   UNL d   1      -6.402   2.495   4.286  0.00  0.00     0.025 A 
ENDROOT
BRANCH   2  10
ATOM     10  O   UNL d   1      -2.226   2.480   4.356  0.00  0.00    -0.309 OA
BRANCH  10  11
ATOM     11  C   UNL d   1      -1.530   1.853   3.342  0.00  0.00     0.076 A 
ATOM     12  C   UNL d   1      -0.294   2.408   3.004  0.00  0.00     0.039 A 
ATOM     13  C   UNL d   1       0.483   1.836   1.990  0.00  0.00     0.027 A 
ATOM     14  C   UNL d   1       0.004   0.719   1.295  0.00  0.00     0.074 A 
ATOM     15  C   UNL d   1      -1.209   0.131   1.666  0.00  0.00     0.027 A 
ATOM     16  C   UNL d   1      -1.964   0.685   2.705  0.00  0.00     0.039 A 
BRANCH  14  17
ATOM     17  S   UNL d   1       1.034  -0.106   0.093  0.00  0.00     0.243 S 
ATOM     18  O   UNL d   1       2.408   0.265   0.358  0.00  0.00    -0.206 OA
ATOM     19  O   UNL d   1       0.628  -1.497   0.082  0.00  0.00    -0.206 OA
BRANCH  17  20
ATOM     20  N   UNL d   1       0.593   0.590  -1.442  0.00  0.00    -0.205 NA
ATOM     21  C   UNL d   1       1.031   2.034  -1.545  0.00  0.00     0.127 C 
ATOM     22  C   UNL d   1       0.491   2.754  -2.786  0.00  0.00     0.140 C 
ATOM     23  N   UNL d   1       0.960   2.155  -4.035  0.00  0.00    -0.360 N 
ATOM     24  C   UNL d   1       0.134   1.093  -4.584  0.00  0.00     0.126 C 
ATOM     25  C   UNL d   1       0.299  -0.225  -3.826  0.00  0.00     0.035 C 
ATOM     26  C   UNL d   1       1.176  -0.225  -2.575  0.00  0.00     0.109 C 
BRANCH  23  27
ATOM     27  C   UNL d   1       2.016   2.649  -4.748  0.00  0.00     0.147 A 
ATOM     28  N   UNL d   1       2.162   2.482  -6.044  0.00  0.00    -0.336 N 
ATOM     29  C   UNL d   1       3.301   3.110  -6.513  0.00  0.00     0.051 A 
ATOM     30  HN  UNL d   1       1.515   1.955  -6.631  1.00  0.00     0.168 HD
ATOM     31  C   UNL d   1       3.717   3.188  -7.859  0.00  0.00     0.032 A 
ATOM     32  C   UNL d   1       4.090   3.712  -5.535  0.00  0.00     0.036 A 
ATOM     33  C   UNL d   1       4.909   3.848  -8.183  0.00  0.00     0.026 A 
ATOM     34  C   UNL d   1       5.689   4.413  -7.181  0.00  0.00     0.035 A 
ATOM     35  C   UNL d   1       5.300   4.358  -5.841  0.00  0.00     0.045 A 
ATOM     36 CL   UNL d   1       7.161   5.206  -7.596  0.00  0.00    -0.084 Cl
ATOM     37  S   UNL d   1       3.320   3.522  -4.013  0.00  0.00    -0.052 SA
ENDBRANCH  23  27
ENDBRANCH  17  20
ENDBRANCH  14  17
ENDBRANCH  10  11
ENDBRANCH   2  10
TORSDOF 5
