REMARK  1 active torsions:
REMARK  status: ('A' for Active; 'I' for Inactive)
REMARK    1  A    between atoms: C_11  and  C_7 
ROOT
ATOM      1  C   UNL d   1       1.186   0.122  -0.017  0.00  0.00     0.101 A 
ATOM      2  N   UNL d   1      -0.803  -1.242   0.008  0.00  0.00    -0.275 N 
ATOM      3  N   UNL d   1      -1.032   1.060   0.003  0.00  0.00    -0.275 N 
ATOM      4  C   UNL d   1       0.562  -1.227  -0.003  0.00  0.00     0.265 A 
ATOM      5  C   UNL d   1       0.307   1.321  -0.064  0.00  0.00     0.265 A 
ATOM      6  C   UNL d   1      -1.628  -0.163   0.007  0.00  0.00     0.329 A 
ATOM      7  C   UNL d   1       2.534   0.167   0.020  0.00  0.00     0.034 C 
ATOM      8  O   UNL d   1       0.704   2.475  -0.170  0.00  0.00    -0.267 OA
ATOM      9  O   UNL d   1       1.205  -2.272  -0.002  0.00  0.00    -0.267 OA
ATOM     10  O   UNL d   1      -2.848  -0.284  -0.001  0.00  0.00    -0.246 OA
ATOM     11  H   UNL d   1      -1.247  -2.150   0.011  0.00  0.00     0.173 HD
ATOM     12  H   UNL d   1      -1.647   1.862  -0.030  0.00  0.00     0.173 HD
ENDROOT
BRANCH   7  13
ATOM     13  C   UNL d   1       3.358   1.377   0.034  0.00  0.00    -0.034 A 
ATOM     14  C   UNL d   1       3.709   1.974   1.249  0.00  0.00     0.035 A 
ATOM     15  C   UNL d   1       4.451   3.156   1.250  0.00  0.00     0.034 A 
ATOM     16 CL   UNL d   1       4.861   3.904   2.745  0.00  0.00    -0.084 Cl
ATOM     17  C   UNL d   1       4.857   3.740   0.052  0.00  0.00     0.024 A 
ATOM     18  C   UNL d   1       4.525   3.135  -1.161  0.00  0.00     0.003 A 
ATOM     19  C   UNL d   1       3.778   1.955  -1.170  0.00  0.00     0.011 A 
ENDBRANCH   7  13
TORSDOF 1
