REMARK  3 active torsions:
REMARK  status: ('A' for Active; 'I' for Inactive)
REMARK    1  A    between atoms: C_10  and  C_1 
REMARK    2  A    between atoms: C_5  and  C_4 
REMARK       I    between atoms: N_16  and  C_10 
REMARK    3  A    between atoms: N_17  and  N_16 
ROOT
ATOM      1  C   UNL d   1       0.596  -1.004   0.024  0.00  0.00     0.241 A 
ATOM      2  N   UNL d   1       1.302   0.111  -0.029  0.00  0.00    -0.313 N 
ATOM      3  HN  UNL d   1       2.314   0.232  -0.082  1.00  0.00     0.170 HD
ATOM      4  C   UNL d   1       0.310   1.069   0.006  0.00  0.00     0.155 A 
ATOM      5  N   UNL d   1      -0.939   0.585   0.051  0.00  0.00    -0.241 N 
ATOM      6  HN  UNL d   1      -1.817   1.103   0.072  1.00  0.00     0.196 HD
ATOM      7  O   UNL d   1      -0.750  -0.798   0.064  0.00  0.00    -0.212 OA
ENDROOT
BRANCH   1   8
ATOM      8  C   UNL d   1       1.109  -2.355   0.086  0.00  0.00     0.309 C 
ATOM      9  O   UNL d   1       0.415  -3.369   0.192  0.00  0.00    -0.262 OA
ATOM     10  N   UNL d   1       2.503  -2.429   0.035  0.00  0.00    -0.287 N 
ATOM     11  H   UNL d   1       3.037  -1.578  -0.142  0.00  0.00     0.183 HD
BRANCH  10  12
ATOM     12  N   UNL d   1       3.160  -3.682   0.067  0.00  0.00    -0.247 NA
ATOM     13  H   UNL d   1       2.434  -4.410   0.000  0.00  0.00     0.143 HD
ATOM     14  H   UNL d   1       3.556  -3.811   1.003  0.00  0.00     0.143 HD
ENDBRANCH  10  12
ENDBRANCH   1   8
BRANCH   4  15
ATOM     15  C   UNL d   1       0.652   2.500   0.035  0.00  0.00     0.085 A 
ATOM     16  N   UNL d   1      -0.359   3.445   0.139  0.00  0.00    -0.351 N 
ATOM     17  C   UNL d   1       0.157   4.654   0.183  0.00  0.00     0.047 A 
ATOM     18  HN  UNL d   1      -1.356   3.233   0.175  1.00  0.00     0.166 HD
ATOM     19  C   UNL d   1      -0.641   5.904   0.315  0.00  0.00     0.076 C 
ATOM     20  S   UNL d   1       1.871   4.730   0.085  0.00  0.00    -0.087 SA
ATOM     21  C   UNL d   1       1.930   3.019  -0.008  0.00  0.00     0.084 A 
ENDBRANCH   4  15
TORSDOF 3
