REMARK  6 active torsions:
REMARK  status: ('A' for Active; 'I' for Inactive)
REMARK    1  A    between atoms: C_9  and  C_1 
REMARK    2  A    between atoms: S_5  and  N_10 
REMARK    3  A    between atoms: C_14  and  S_5 
REMARK    4  A    between atoms: S_13  and  C_6 
REMARK       I    between atoms: N_10  and  C_12 
REMARK    5  A    between atoms: C_12  and  C_17 
REMARK    6  A    between atoms: C_17  and  S_13 
ROOT
ATOM      1  N   UNL d   1       1.642  -5.062   0.079  0.00  0.00    -0.283 N 
ATOM      2  HN  UNL d   1       1.039  -4.673   0.804  1.00  0.00     0.178 HD
ATOM      3  C   UNL d   1       2.675  -4.264  -0.450  0.00  0.00     0.238 C 
ATOM      4  O   UNL d   1       3.752  -4.743  -0.805  0.00  0.00    -0.272 OA
ENDROOT
BRANCH   3   5
ATOM      5  C   UNL d   1       2.424  -2.753  -0.449  0.00  0.00     0.186 C 
BRANCH   5   6
ATOM      6  S   UNL d   1       3.823  -1.811  -1.147  0.00  0.00    -0.083 SA
BRANCH   6   7
ATOM      7  C   UNL d   1       3.169  -0.214  -1.155  0.00  0.00     0.163 A 
ATOM      8  N   UNL d   1       3.826   0.881  -1.661  0.00  0.00    -0.312 N 
ATOM      9  C   UNL d   1       2.896   1.900  -1.653  0.00  0.00     0.209 A 
ATOM     10  C   UNL d   1       5.213   0.921  -2.050  0.00  0.00     0.160 C 
ATOM     11  N   UNL d   1       1.812   1.464  -1.028  0.00  0.00    -0.279 N 
ATOM     12  N   UNL d   1       1.984   0.138  -0.726  0.00  0.00    -0.278 N 
ATOM     13  HN  UNL d   1       0.988   2.022  -0.807  1.00  0.00     0.188 HD
ATOM     14  HN  UNL d   1       1.310  -0.465  -0.254  1.00  0.00     0.189 HD
BRANCH   9  15
ATOM     15  C   UNL d   1       3.056   3.249  -2.259  0.00  0.00     0.450 C 
ATOM     16  F   UNL d   1       4.082   3.324  -3.147  0.00  0.00    -0.163 F 
ATOM     17  F   UNL d   1       1.948   3.628  -2.949  0.00  0.00    -0.163 F 
ATOM     18  F   UNL d   1       3.287   4.206  -1.325  0.00  0.00    -0.163 F 
ENDBRANCH   9  15
ENDBRANCH   6   7
ENDBRANCH   5   6
ENDBRANCH   3   5
BRANCH   1  19
ATOM     19  S   UNL d   1       1.395  -6.502  -0.403  0.00  0.00     0.055 S 
ATOM     20  O   UNL d   1       2.315  -7.324  -1.167  0.00  0.00    -0.245 OA
ATOM     21  C   UNL d   1       0.942  -7.473   1.016  0.00  0.00     0.142 C 
BRANCH  19  22
ATOM     22  C   UNL d   1      -0.116  -6.439  -1.353  0.00  0.00     0.038 A 
ATOM     23  C   UNL d   1      -0.108  -6.866  -2.686  0.00  0.00     0.023 A 
ATOM     24  C   UNL d   1      -1.301  -6.869  -3.414  0.00  0.00     0.025 A 
ATOM     25  C   UNL d   1      -2.485  -6.447  -2.808  0.00  0.00     0.034 A 
ATOM     26  C   UNL d   1      -2.488  -6.010  -1.484  0.00  0.00     0.025 A 
ATOM     27 CL   UNL d   1      -3.955  -6.471  -3.701  0.00  0.00    -0.084 Cl
ATOM     28  C   UNL d   1      -1.300  -5.999  -0.750  0.00  0.00     0.023 A 
ENDBRANCH  19  22
ENDBRANCH   1  19
TORSDOF 6
