REMARK  5 active torsions:
REMARK  status: ('A' for Active; 'I' for Inactive)
REMARK    1  A    between atoms: C_2  and  C_1 
REMARK    2  A    between atoms: C_6  and  C_9 
REMARK    3  A    between atoms: C_8  and  C_6 
REMARK    4  A    between atoms: C_20  and  C_7 
REMARK       I    between atoms: C_9  and  N_14 
REMARK    5  A    between atoms: N_14  and  C_20 
ROOT
ATOM      1  C   UNL d   1       1.257   0.603  -1.129  0.00  0.00     0.089 A 
ATOM      2  O   UNL d   1       0.649  -0.601  -1.361  0.00  0.00    -0.312 OA
ATOM      3  C   UNL d   1       1.553   0.713   0.213  0.00  0.00     0.041 A 
ATOM      4  C   UNL d   1       0.504  -1.232  -0.159  0.00  0.00     0.071 A 
ATOM      5  C   UNL d   1       1.085  -0.471   0.838  0.00  0.00     0.037 A 
ENDROOT
BRANCH   4   6
ATOM      6  C   UNL d   1      -0.356  -2.439  -0.150  0.00  0.00     0.187 C 
BRANCH   6   7
ATOM      7  N   UNL d   1       0.385  -3.679  -0.218  0.00  0.00    -0.355 N 
ATOM      8  C   UNL d   1      -0.321  -4.840  -0.426  0.00  0.00     0.222 C 
ATOM      9  O   UNL d   1      -1.515  -4.801  -0.749  0.00  0.00    -0.273 OA
ATOM     10  H   UNL d   1       1.331  -3.721   0.142  0.00  0.00     0.162 HD
BRANCH   8  11
ATOM     11  C   UNL d   1       0.295  -6.183  -0.081  0.00  0.00     0.148 C 
BRANCH  11  12
ATOM     12  C   UNL d   1       1.748  -6.450  -0.353  0.00  0.00    -0.009 A 
ATOM     13  S   UNL d   1       3.009  -5.405   0.146  0.00  0.00    -0.106 SA
ATOM     14  C   UNL d   1       4.218  -6.511  -0.337  0.00  0.00     0.050 A 
ATOM     15  C   UNL d   1       3.684  -7.672  -0.847  0.00  0.00     0.008 A 
ATOM     16  C   UNL d   1       2.262  -7.629  -0.868  0.00  0.00     0.015 A 
ENDBRANCH  11  12
ENDBRANCH   8  11
ENDBRANCH   6   7
ENDBRANCH   4   6
BRANCH   1  17
ATOM     17  C   UNL d   1       1.387   1.481  -2.289  0.00  0.00     0.036 A 
ATOM     18  C   UNL d   1       1.415   2.880  -2.147  0.00  0.00     0.132 A 
ATOM     19  C   UNL d   1       1.510   3.722  -3.253  0.00  0.00     0.085 A 
ATOM     20  F   UNL d   1       1.325   3.443  -0.933  0.00  0.00    -0.205 F 
ATOM     21  C   UNL d   1       1.589   3.167  -4.521  0.00  0.00     0.119 A 
ATOM     22  C   UNL d   1       1.571   1.788  -4.699  0.00  0.00     0.043 A 
ATOM     23  F   UNL d   1       1.681   3.969  -5.589  0.00  0.00    -0.206 F 
ATOM     24  C   UNL d   1       1.465   0.948  -3.587  0.00  0.00     0.020 A 
ENDBRANCH   1  17
TORSDOF 5
