REMARK  4 active torsions:
REMARK  status: ('A' for Active; 'I' for Inactive)
REMARK    1  A    between atoms: C_11  and  C_4 
REMARK    2  A    between atoms: C_12  and  C_6 
REMARK    3  A    between atoms: C_13  and  C_9 
REMARK    4  A    between atoms: O_16  and  C_11 
ROOT
ATOM      1  C   UNL d   1       0.376  -0.885   0.030  0.00  0.00     0.097 A 
ATOM      2  C   UNL d   1      -0.009   0.459   0.023  0.00  0.00     0.049 A 
ATOM      3  O   UNL d   1      -0.561  -1.890   0.029  0.00  0.00    -0.302 OA
ATOM      4  C   UNL d   1      -1.903  -1.568  -0.013  0.00  0.00     0.153 A 
ATOM      5  C   UNL d   1      -2.391  -0.321  -0.015  0.00  0.00     0.100 A 
ATOM      6  C   UNL d   1       1.740  -1.244   0.028  0.00  0.00    -0.015 A 
ATOM      7  C   UNL d   1      -1.445   0.799   0.019  0.00  0.00     0.187 A 
ATOM      8  C   UNL d   1       0.943   1.484   0.007  0.00  0.00     0.026 A 
ATOM      9  C   UNL d   1       2.309   1.185  -0.004  0.00  0.00    -0.049 A 
ATOM     10  C   UNL d   1       2.673  -0.181   0.012  0.00  0.00     0.018 A 
ATOM     11  O   UNL d   1      -1.845   1.956   0.035  0.00  0.00    -0.287 OA
ENDROOT
BRANCH   4  12
ATOM     12  C   UNL d   1      -2.869  -2.697  -0.066  0.00  0.00     0.201 C 
ATOM     13  O   UNL d   1      -4.083  -2.576  -0.093  0.00  0.00    -0.645 OA
BRANCH  12  14
ATOM     14  O   UNL d   1      -2.241  -3.893  -0.088  0.00  0.00    -0.771 OA
ATOM     15  H   UNL d   1      -1.268  -3.804  -0.062  0.00  0.00     0.167 HD
ENDBRANCH  12  14
ENDBRANCH   4  12
BRANCH   6  16
ATOM     16  C   UNL d   1       2.216  -2.717   0.026  0.00  0.00    -0.021 C 
ATOM     17  C   UNL d   1       1.722  -3.441  -1.248  0.00  0.00     0.019 C 
ATOM     18  C   UNL d   1       3.759  -2.868   0.038  0.00  0.00     0.019 C 
ATOM     19  C   UNL d   1       1.706  -3.465   1.279  0.00  0.00     0.019 C 
ENDBRANCH   6  16
BRANCH   9  20
ATOM     20  C   UNL d   1       3.400   2.272  -0.043  0.00  0.00    -0.024 C 
ATOM     21  C   UNL d   1       4.260   2.101  -1.315  0.00  0.00     0.019 C 
ATOM     22  C   UNL d   1       2.837   3.711  -0.059  0.00  0.00     0.019 C 
ATOM     23  C   UNL d   1       4.312   2.151   1.198  0.00  0.00     0.019 C 
ENDBRANCH   9  20
TORSDOF 4
