REMARK  5 active torsions:
REMARK  status: ('A' for Active; 'I' for Inactive)
REMARK    1  A    between atoms: C_13  and  C_3 
REMARK    2  A    between atoms: C_7  and  C_4 
REMARK    3  A    between atoms: C_12  and  C_5 
REMARK    4  A    between atoms: C_14  and  C_7 
REMARK    5  A    between atoms: C_9  and  C_16 
ROOT
ATOM      1  C   UNL d   1      -0.430  -7.745   1.135  0.00  0.00     0.096 C 
ATOM      2  C   UNL d   1      -0.642  -7.180  -0.072  0.00  0.00     0.038 C 
ATOM      3  C   UNL d   1      -0.928  -9.024   1.506  0.00  0.00     0.103 C 
ATOM      4  N   UNL d   1      -1.328 -10.060   1.837  0.00  0.00    -0.191 NA
ENDROOT
BRANCH   1   5
ATOM      5  C   UNL d   1       0.377  -6.972   2.136  0.00  0.00     0.202 C 
ATOM      6  O   UNL d   1       1.209  -6.140   1.783  0.00  0.00    -0.286 OA
BRANCH   5   7
ATOM      7  C   UNL d   1       0.189  -7.246   3.590  0.00  0.00     0.016 A 
ATOM      8  C   UNL d   1       1.305  -7.174   4.436  0.00  0.00     0.017 A 
ATOM      9  C   UNL d   1       1.173  -7.456   5.800  0.00  0.00     0.025 A 
ATOM     10  C   UNL d   1      -0.071  -7.806   6.321  0.00  0.00     0.034 A 
ATOM     11  C   UNL d   1      -1.192  -7.849   5.495  0.00  0.00     0.025 A 
ATOM     12 CL   UNL d   1      -0.230  -8.178   7.992  0.00  0.00    -0.084 Cl
ATOM     13  C   UNL d   1      -1.067  -7.547   4.136  0.00  0.00     0.017 A 
ENDBRANCH   5   7
ENDBRANCH   1   5
BRANCH   2  14
ATOM     14  C   UNL d   1      -1.458  -7.690  -1.199  0.00  0.00    -0.035 A 
ATOM     15  C   UNL d   1      -2.075  -6.762  -2.055  0.00  0.00     0.012 A 
ATOM     16  C   UNL d   1      -2.891  -7.185  -3.119  0.00  0.00     0.015 A 
ATOM     17  C   UNL d   1      -3.112  -8.547  -3.352  0.00  0.00    -0.002 A 
ATOM     18  C   UNL d   1      -2.479  -9.468  -2.509  0.00  0.00     0.015 A 
ATOM     19  C   UNL d   1      -1.641  -9.048  -1.472  0.00  0.00     0.012 A 
BRANCH  17  20
ATOM     20  C   UNL d   1      -3.977  -9.066  -4.420  0.00  0.00     0.084 A 
ATOM     21  N   UNL d   1      -4.688 -10.171  -4.308  0.00  0.00    -0.352 N 
ATOM     22  C   UNL d   1      -5.347 -10.470  -5.491  0.00  0.00     0.024 A 
ATOM     23  HN  UNL d   1      -4.747 -10.733  -3.459  1.00  0.00     0.166 HD
ATOM     24  C   UNL d   1      -5.090  -9.572  -6.512  0.00  0.00     0.077 A 
ATOM     25  S   UNL d   1      -4.052  -8.323  -5.968  0.00  0.00    -0.081 SA
BRANCH  22  26
ATOM     26  C   UNL d   1      -6.243 -11.700  -5.553  0.00  0.00    -0.008 C 
ATOM     27  C   UNL d   1      -6.312 -12.418  -4.187  0.00  0.00     0.021 C 
ATOM     28  C   UNL d   1      -7.676 -11.290  -5.946  0.00  0.00     0.021 C 
ATOM     29  C   UNL d   1      -5.705 -12.705  -6.590  0.00  0.00     0.021 C 
ENDBRANCH  22  26
ENDBRANCH  17  20
ENDBRANCH   2  14
TORSDOF 5
