REMARK  4 active torsions:
REMARK  status: ('A' for Active; 'I' for Inactive)
REMARK    1  A    between atoms: C_2  and  C_1 
REMARK    2  A    between atoms: C_14  and  N_3 
REMARK    3  A    between atoms: C_16  and  N_6 
REMARK    4  A    between atoms: S_15  and  C_7 
ROOT
ATOM      1  C   UNL d   1      -0.115  -1.307   0.162  0.00  0.00     0.158 A 
ATOM      2  N   UNL d   1       1.139  -0.685   0.131  0.00  0.00    -0.274 N 
ATOM      3  N   UNL d   1      -1.062  -0.394   0.233  0.00  0.00    -0.281 N 
ATOM      4  HN  UNL d   1      -2.066  -0.575   0.249  1.00  0.00     0.188 HD
ATOM      5  C   UNL d   1       0.829   0.666   0.213  0.00  0.00     0.165 A 
ATOM      6  N   UNL d   1      -0.472   0.837   0.279  0.00  0.00    -0.278 N 
ATOM      7  HN  UNL d   1      -0.957   1.732   0.353  1.00  0.00     0.189 HD
ENDROOT
BRANCH   1   8
ATOM      8  C   UNL d   1      -0.409  -2.712   0.213  0.00  0.00     0.098 C 
ATOM      9  N   UNL d   1      -1.492  -3.318  -0.380  0.00  0.00    -0.289 N 
ATOM     10  N   UNL d   1      -1.428  -4.670  -0.326  0.00  0.00    -0.303 N 
ATOM     11  C   UNL d   1      -0.335  -4.922   0.399  0.00  0.00     0.024 C 
ATOM     12  HN  UNL d   1      -2.070  -5.343  -0.744  1.00  0.00     0.186 HD
ATOM     13  C   UNL d   1       0.281  -3.731   0.834  0.00  0.00     0.061 C 
ATOM     14  C   UNL d   1       0.126  -6.314   0.614  0.00  0.00     0.070 C 
BRANCH   9  15
ATOM     15  C   UNL d   1      -2.571  -2.715  -1.143  0.00  0.00     0.145 C 
ATOM     16  C   UNL d   1      -3.785  -2.376  -0.294  0.00  0.00     0.028 C 
ENDBRANCH   9  15
ENDBRANCH   1   8
BRANCH   2  17
ATOM     17  C   UNL d   1       2.423  -1.303   0.012  0.00  0.00     0.043 A 
ATOM     18  C   UNL d   1       2.592  -2.436  -0.798  0.00  0.00     0.030 A 
ATOM     19  C   UNL d   1       3.835  -3.068  -0.883  0.00  0.00     0.002 A 
ATOM     20  C   UNL d   1       4.930  -2.552  -0.196  0.00  0.00     0.000 A 
ATOM     21  C   UNL d   1       4.779  -1.417   0.595  0.00  0.00     0.002 A 
ATOM     22  C   UNL d   1       3.529  -0.804   0.716  0.00  0.00     0.030 A 
ENDBRANCH   2  17
BRANCH   5  23
ATOM     23  S   UNL d   1       1.918   2.007   0.037  0.00  0.00    -0.105 SA
ATOM     24  H   UNL d   1       2.979   1.380  -0.488  0.00  0.00     0.110 HD
ENDBRANCH   5  23
TORSDOF 4
