REMARK  5 active torsions:
REMARK  status: ('A' for Active; 'I' for Inactive)
REMARK    1  A    between atoms: N_2  and  S_1 
REMARK    2  A    between atoms: C_7  and  S_1 
REMARK       I    between atoms: C_4  and  N_2 
REMARK    3  A    between atoms: C_8  and  C_4 
REMARK    4  A    between atoms: C_5  and  O_9 
REMARK    5  A    between atoms: O_9  and  C_17 
ROOT
ATOM      1  N   UNL d   1       0.334   1.288   0.799  0.00  0.00    -0.279 N 
ATOM      2  HN  UNL d   1      -0.407   1.855   0.385  1.00  0.00     0.179 HD
ATOM      3  C   UNL d   1       0.877   1.764   1.996  0.00  0.00     0.262 C 
ATOM      4  O   UNL d   1       1.970   1.403   2.419  0.00  0.00    -0.267 OA
ENDROOT
BRANCH   3   5
ATOM      5  C   UNL d   1       0.134   2.817   2.774  0.00  0.00     0.033 A 
ATOM      6  C   UNL d   1       0.755   3.492   3.834  0.00  0.00     0.020 A 
ATOM      7  C   UNL d   1       0.053   4.457   4.571  0.00  0.00     0.038 A 
ATOM      8  C   UNL d   1      -1.286   4.722   4.283  0.00  0.00     0.078 A 
ATOM      9  C   UNL d   1      -1.891   4.088   3.197  0.00  0.00     0.038 A 
ATOM     10  C   UNL d   1      -1.190   3.138   2.448  0.00  0.00     0.020 A 
BRANCH   8  11
ATOM     11  O   UNL d   1      -2.068   5.623   4.941  0.00  0.00    -0.255 OA
BRANCH  11  12
ATOM     12  C   UNL d   1      -1.949   5.723   6.356  0.00  0.00     0.530 C 
ATOM     13  F   UNL d   1      -1.097   4.832   6.906  0.00  0.00    -0.144 F 
ATOM     14  F   UNL d   1      -1.538   6.968   6.679  0.00  0.00    -0.144 F 
ATOM     15  F   UNL d   1      -3.168   5.525   6.907  0.00  0.00    -0.144 F 
ENDBRANCH  11  12
ENDBRANCH   8  11
ENDBRANCH   3   5
BRANCH   1  16
ATOM     16  S   UNL d   1       0.720   0.014   0.033  0.00  0.00     0.055 S 
ATOM     17  O   UNL d   1       0.133  -0.299  -1.259  0.00  0.00    -0.245 OA
ATOM     18  C   UNL d   1       2.468  -0.082  -0.243  0.00  0.00     0.142 C 
BRANCH  16  19
ATOM     19  C   UNL d   1       0.337  -1.381   1.078  0.00  0.00     0.038 A 
ATOM     20  C   UNL d   1      -0.750  -2.191   0.731  0.00  0.00     0.022 A 
ATOM     21  C   UNL d   1      -1.025  -3.338   1.476  0.00  0.00     0.001 A 
ATOM     22  C   UNL d   1      -0.222  -3.669   2.568  0.00  0.00     0.000 A 
ATOM     23  C   UNL d   1       0.853  -2.853   2.920  0.00  0.00     0.001 A 
ATOM     24  C   UNL d   1       1.138  -1.708   2.174  0.00  0.00     0.022 A 
ENDBRANCH  16  19
ENDBRANCH   1  16
TORSDOF 5
