REMARK  6 active torsions:
REMARK  status: ('A' for Active; 'I' for Inactive)
REMARK    1  A    between atoms: C_3  and  C_1 
REMARK    2  A    between atoms: C_4  and  C_1 
REMARK    3  A    between atoms: S_7  and  C_2 
REMARK    4  A    between atoms: S_8  and  C_2 
REMARK    5  A    between atoms: O_9  and  C_3 
REMARK    6  A    between atoms: O_10  and  C_4 
ROOT
ATOM      1  C   UNL d   1       1.137  -0.018  -0.036  0.00  0.00     0.137 C 
ATOM      2  C   UNL d   1       0.440   0.137   1.124  0.00  0.00     0.058 C 
ENDROOT
BRANCH   1   3
ATOM      3  C   UNL d   1       0.525  -0.304  -1.362  0.00  0.00     0.300 C 
ATOM      4  O   UNL d   1       1.000  -1.122  -2.140  0.00  0.00    -0.259 OA
BRANCH   3   5
ATOM      5  O   UNL d   1      -0.543   0.486  -1.632  0.00  0.00    -0.322 OA
ATOM      6  C   UNL d   1      -1.188   0.220  -2.883  0.00  0.00     0.213 C 
ENDBRANCH   3   5
ENDBRANCH   1   3
BRANCH   1   7
ATOM      7  C   UNL d   1       2.627  -0.064  -0.034  0.00  0.00     0.300 C 
ATOM      8  O   UNL d   1       3.311  -0.635   0.795  0.00  0.00    -0.259 OA
BRANCH   7   9
ATOM      9  O   UNL d   1       3.125   0.594  -1.119  0.00  0.00    -0.322 OA
ATOM     10  C   UNL d   1       4.544   0.470  -1.256  0.00  0.00     0.213 C 
ENDBRANCH   7   9
ENDBRANCH   1   7
BRANCH   2  11
ATOM     11  S   UNL d   1      -1.324  -0.026   1.167  0.00  0.00    -0.126 SA
ATOM     12  C   UNL d   1      -1.835   0.383   2.851  0.00  0.00     0.096 C 
ENDBRANCH   2  11
BRANCH   2  13
ATOM     13  S   UNL d   1       1.260   0.522   2.642  0.00  0.00    -0.126 SA
ATOM     14  C   UNL d   1       1.504  -1.153   3.298  0.00  0.00     0.096 C 
ENDBRANCH   2  13
TORSDOF 6
