REMARK  4 active torsions:
REMARK  status: ('A' for Active; 'I' for Inactive)
REMARK    1  A    between atoms: C_7  and  C_1 
REMARK    2  A    between atoms: C_12  and  C_6 
REMARK       I    between atoms: N_11  and  C_7 
REMARK    3  A    between atoms: C_8  and  C_14 
REMARK    4  A    between atoms: C_14  and  N_11 
ROOT
ATOM      1  C   UNL d   1      -0.284  -2.595   0.085  0.00  0.00     0.270 C 
ATOM      2  N   UNL d   1       0.729  -3.530   0.153  0.00  0.00    -0.351 N 
ATOM      3  O   UNL d   1      -1.462  -2.934   0.056  0.00  0.00    -0.266 OA
ATOM      4  H   UNL d   1       1.691  -3.234   0.145  0.00  0.00     0.163 HD
ENDROOT
BRANCH   2   5
ATOM      5  C   UNL d   1       0.491  -4.953   0.092  0.00  0.00     0.164 C 
BRANCH   5   6
ATOM      6  C   UNL d   1       1.089  -5.664   1.280  0.00  0.00    -0.004 A 
ATOM      7  C   UNL d   1       2.402  -6.166   1.276  0.00  0.00     0.088 A 
ATOM      8  C   UNL d   1       2.907  -6.869   2.381  0.00  0.00     0.003 A 
ATOM      9  O   UNL d   1       3.160  -5.966   0.151  0.00  0.00    -0.325 OA
ATOM     10  C   UNL d   1       4.298  -7.426   2.344  0.00  0.00     0.212 C 
ATOM     11  C   UNL d   1       2.113  -7.022   3.522  0.00  0.00     0.054 A 
ATOM     12  O   UNL d   1       4.755  -7.529   1.002  0.00  0.00    -0.362 OA
ATOM     13  C   UNL d   1       4.540  -6.297   0.328  0.00  0.00     0.345 C 
ATOM     14  C   UNL d   1       0.828  -6.496   3.541  0.00  0.00     0.117 A 
ATOM     15  C   UNL d   1       0.312  -5.823   2.439  0.00  0.00     0.054 A 
ATOM     16  F   UNL d   1       0.072  -6.648   4.635  0.00  0.00    -0.206 F 
ENDBRANCH   5   6
ENDBRANCH   2   5
BRANCH   1  17
ATOM     17  C   UNL d   1       0.163  -1.214   0.044  0.00  0.00     0.119 A 
ATOM     18  N   UNL d   1      -0.644  -0.095   0.009  0.00  0.00    -0.291 N 
ATOM     19  N   UNL d   1       0.043   1.069  -0.033  0.00  0.00    -0.302 N 
ATOM     20  C   UNL d   1      -2.086   0.005  -0.002  0.00  0.00     0.178 C 
ATOM     21  C   UNL d   1       1.329   0.712  -0.030  0.00  0.00     0.036 A 
ATOM     22  HN  UNL d   1      -0.338   2.015  -0.060  1.00  0.00     0.186 HD
ATOM     23  C   UNL d   1       1.450  -0.697   0.015  0.00  0.00     0.064 A 
BRANCH  21  24
ATOM     24  C   UNL d   1       2.455   1.732  -0.085  0.00  0.00    -0.007 C 
ATOM     25  C   UNL d   1       3.276   1.528  -1.375  0.00  0.00     0.021 C 
ATOM     26  C   UNL d   1       1.940   3.187  -0.070  0.00  0.00     0.021 C 
ATOM     27  C   UNL d   1       3.387   1.550   1.131  0.00  0.00     0.021 C 
ENDBRANCH  21  24
ENDBRANCH   1  17
TORSDOF 4
