REMARK  5 active torsions:
REMARK  status: ('A' for Active; 'I' for Inactive)
REMARK    1  A    between atoms: C_5  and  C_1 
REMARK    2  A    between atoms: O_6  and  C_2 
REMARK    3  A    between atoms: C_10  and  O_6 
REMARK    4  A    between atoms: O_12  and  C_8 
REMARK    5  A    between atoms: C_11  and  C_10 
ROOT
ATOM      1  C   UNL d   1       1.327  -0.174   0.021  0.00  0.00     0.043 A 
ATOM      2  C   UNL d   1       0.453  -1.273  -0.098  0.00  0.00     0.085 A 
ATOM      3  C   UNL d   1      -0.933  -1.019  -0.245  0.00  0.00     0.074 A 
ATOM      4  C   UNL d   1       0.765   1.123   0.057  0.00  0.00     0.021 A 
ATOM      5  C   UNL d   1      -1.472   0.264  -0.175  0.00  0.00     0.070 A 
ATOM      6  C   UNL d   1      -0.612   1.338  -0.023  0.00  0.00     0.038 A 
ENDROOT
BRANCH   2   7
ATOM      7  O   UNL d   1       0.934  -2.570  -0.049  0.00  0.00    -0.346 OA
BRANCH   7   8
ATOM      8  C   UNL d   1      -0.075  -3.579   0.148  0.00  0.00     0.214 C 
BRANCH   8   9
ATOM      9  C   UNL d   1       0.396  -4.951   0.568  0.00  0.00    -0.034 A 
ATOM     10  C   UNL d   1       1.681  -5.209   1.046  0.00  0.00     0.009 A 
ATOM     11  C   UNL d   1       2.010  -6.481   1.523  0.00  0.00     0.001 A 
ATOM     12  C   UNL d   1       1.057  -7.501   1.535  0.00  0.00     0.000 A 
ATOM     13  C   UNL d   1      -0.227  -7.257   1.057  0.00  0.00     0.001 A 
ATOM     14  C   UNL d   1      -0.552  -5.993   0.575  0.00  0.00     0.009 A 
ENDBRANCH   8   9
ENDBRANCH   7   8
ENDBRANCH   2   7
BRANCH   1  15
ATOM     15  C   UNL d   1       2.830  -0.195   0.118  0.00  0.00     0.158 C 
ATOM     16  O   UNL d   1       3.434   0.872   0.245  0.00  0.00    -0.293 OA
ATOM     17  C   UNL d   1       3.630  -1.462   0.011  0.00  0.00     0.097 C 
ENDBRANCH   1  15
BRANCH   5  18
ATOM     18  O   UNL d   1      -2.802   0.573  -0.242  0.00  0.00    -0.356 OA
ATOM     19  C   UNL d   1      -3.721  -0.516  -0.230  0.00  0.00     0.210 C 
ENDBRANCH   5  18
TORSDOF 5
