REMARK  7 active torsions:
REMARK  status: ('A' for Active; 'I' for Inactive)
REMARK    1  A    between atoms: C_6  and  C_1 
REMARK    2  A    between atoms: C_12  and  C_2 
REMARK    3  A    between atoms: O_11  and  C_6 
REMARK    4  A    between atoms: N_8  and  O_11 
REMARK    5  A    between atoms: C_13  and  C_10 
REMARK    6  A    between atoms: N_23  and  C_10 
REMARK    7  A    between atoms: C_14  and  C_15 
ROOT
ATOM      1  O   UNL d   1      -2.425  -1.992  -0.181  0.00  0.00    -0.193 OA
ENDROOT
BRANCH   1   2
ATOM      2  N   UNL d   1      -2.066  -3.283   0.281  0.00  0.00    -0.241 N 
ATOM      3  C   UNL d   1      -3.063  -4.118   0.347  0.00  0.00     0.129 C 
ATOM      4  HN  UNL d   1      -1.111  -3.535   0.538  1.00  0.00     0.196 HD
BRANCH   3   5
ATOM      5  C   UNL d   1      -2.773  -5.489   0.923  0.00  0.00     0.009 A 
ATOM      6  C   UNL d   1      -3.780  -6.417   1.202  0.00  0.00     0.016 A 
ATOM      7  C   UNL d   1      -3.467  -7.665   1.770  0.00  0.00     0.009 A 
ATOM      8  C   UNL d   1      -2.144  -8.032   2.080  0.00  0.00    -0.051 A 
ATOM      9  C   UNL d   1      -1.143  -7.098   1.769  0.00  0.00     0.009 A 
ATOM     10  C   UNL d   1      -1.451  -5.848   1.209  0.00  0.00     0.016 A 
BRANCH   8  11
ATOM     11  C   UNL d   1      -1.812  -9.414   2.678  0.00  0.00    -0.024 C 
ATOM     12  C   UNL d   1      -0.443  -9.454   3.399  0.00  0.00     0.019 C 
ATOM     13  C   UNL d   1      -2.863  -9.866   3.719  0.00  0.00     0.019 C 
ATOM     14  C   UNL d   1      -1.778 -10.445   1.533  0.00  0.00     0.019 C 
ENDBRANCH   8  11
ENDBRANCH   3   5
BRANCH   3  15
ATOM     15  N   UNL d   1      -4.333  -3.791  -0.060  0.00  0.00    -0.383 N 
ATOM     16  H   UNL d   1      -4.468  -2.799  -0.216  0.00  0.00     0.157 HD
ATOM     17  H   UNL d   1      -5.111  -4.223   0.420  0.00  0.00     0.157 HD
ENDBRANCH   3  15
ENDBRANCH   1   2
BRANCH   1  18
ATOM     18  C   UNL d   1      -1.421  -1.109   0.179  0.00  0.00     0.320 C 
ATOM     19  O   UNL d   1      -0.393  -1.419   0.778  0.00  0.00    -0.257 OA
BRANCH  18  20
ATOM     20  C   UNL d   1      -1.720   0.278  -0.107  0.00  0.00     0.102 A 
ATOM     21  C   UNL d   1      -2.347   0.867  -1.192  0.00  0.00     0.127 A 
ATOM     22  O   UNL d   1      -2.395   2.218  -0.972  0.00  0.00    -0.236 OA
ATOM     23  N   UNL d   1      -1.768   2.542   0.204  0.00  0.00    -0.264 N 
ATOM     24  C   UNL d   1      -1.327   1.388   0.704  0.00  0.00     0.048 A 
ATOM     25  HN  UNL d   1      -1.661   3.472   0.610  1.00  0.00     0.194 HD
ATOM     26  C   UNL d   1      -0.541   1.390   1.963  0.00  0.00     0.071 C 
BRANCH  21  27
ATOM     27  C   UNL d   1      -2.856   0.486  -2.509  0.00  0.00     0.001 A 
ATOM     28  C   UNL d   1      -3.731   1.351  -3.199  0.00  0.00     0.016 A 
ATOM     29  C   UNL d   1      -4.116   1.098  -4.519  0.00  0.00     0.024 A 
ATOM     30  C   UNL d   1      -3.642  -0.036  -5.165  0.00  0.00     0.034 A 
ATOM     31  C   UNL d   1      -2.802  -0.923  -4.496  0.00  0.00     0.024 A 
ATOM     32 CL   UNL d   1      -4.072  -0.328  -6.804  0.00  0.00    -0.084 Cl
ATOM     33  C   UNL d   1      -2.409  -0.663  -3.174  0.00  0.00     0.016 A 
ENDBRANCH  21  27
ENDBRANCH  18  20
ENDBRANCH   1  18
TORSDOF 7
