REMARK  7 active torsions:
REMARK  status: ('A' for Active; 'I' for Inactive)
REMARK    1  A    between atoms: N_4  and  S_1 
REMARK    2  A    between atoms: C_5  and  S_1 
REMARK    3  A    between atoms: C_6  and  C_2 
REMARK    4  A    between atoms: C_3  and  N_4 
REMARK    5  A    between atoms: O_19  and  C_6 
REMARK    6  A    between atoms: O_20  and  C_11 
REMARK    7  A    between atoms: O_22  and  C_13 
ROOT
ATOM      1  S   UNL d   1       1.093  -0.092   0.103  0.00  0.00     0.246 S 
ATOM      2  O   UNL d   1       0.473  -1.394   0.189  0.00  0.00    -0.206 OA
ATOM      3  O   UNL d   1       2.531   0.065   0.036  0.00  0.00    -0.206 OA
ENDROOT
BRANCH   1   4
ATOM      4  N   UNL d   1       0.498   0.843   1.407  0.00  0.00    -0.180 NA
ATOM      5  H   UNL d   1      -0.533   0.791   1.364  0.00  0.00     0.146 HD
BRANCH   4   6
ATOM      6  C   UNL d   1       0.967   0.407   2.705  0.00  0.00     0.040 A 
ATOM      7  C   UNL d   1       0.237  -0.499   3.497  0.00  0.00     0.061 A 
ATOM      8  C   UNL d   1       0.741  -0.893   4.749  0.00  0.00     0.021 A 
ATOM      9  C   UNL d   1       1.969  -0.407   5.197  0.00  0.00     0.025 A 
ATOM     10  C   UNL d   1       2.701   0.463   4.393  0.00  0.00     0.035 A 
ATOM     11  C   UNL d   1       2.213   0.865   3.148  0.00  0.00     0.049 A 
ATOM     12 CL   UNL d   1       4.216   1.058   4.953  0.00  0.00    -0.084 Cl
BRANCH   7  13
ATOM     13  C   UNL d   1      -1.083  -0.999   3.039  0.00  0.00     0.294 C 
ATOM     14  O   UNL d   1      -1.785  -0.390   2.244  0.00  0.00    -0.259 OA
BRANCH  13  15
ATOM     15  O   UNL d   1      -1.345  -2.196   3.613  0.00  0.00    -0.322 OA
ATOM     16  C   UNL d   1      -2.581  -2.790   3.219  0.00  0.00     0.213 C 
ENDBRANCH  13  15
ENDBRANCH   7  13
ENDBRANCH   4   6
ENDBRANCH   1   4
BRANCH   1  17
ATOM     17  C   UNL d   1       0.399   0.779  -1.282  0.00  0.00     0.077 A 
ATOM     18  C   UNL d   1       0.851   2.074  -1.566  0.00  0.00     0.064 A 
ATOM     19  C   UNL d   1       0.321   2.795  -2.647  0.00  0.00     0.102 A 
ATOM     20  C   UNL d   1      -0.674   2.194  -3.443  0.00  0.00     0.101 A 
ATOM     21  C   UNL d   1      -1.097   0.885  -3.153  0.00  0.00     0.041 A 
ATOM     22  C   UNL d   1      -0.567   0.172  -2.079  0.00  0.00     0.028 A 
BRANCH  19  23
ATOM     23  O   UNL d   1       0.731   4.061  -2.970  0.00  0.00    -0.353 OA
ATOM     24  C   UNL d   1       1.721   4.683  -2.162  0.00  0.00     0.210 C 
ENDBRANCH  19  23
BRANCH  20  25
ATOM     25  O   UNL d   1      -1.338   2.714  -4.525  0.00  0.00    -0.353 OA
ATOM     26  C   UNL d   1      -1.078   4.052  -4.923  0.00  0.00     0.210 C 
ENDBRANCH  20  25
ENDBRANCH   1  17
TORSDOF 7
