REMARK  4 active torsions:
REMARK  status: ('A' for Active; 'I' for Inactive)
REMARK    1  A    between atoms: C_9  and  C_1 
REMARK    2  A    between atoms: C_7  and  C_3 
REMARK    3  A    between atoms: C_8  and  C_9 
REMARK    4  A    between atoms: N_16  and  C_11 
ROOT
ATOM      1  C   UNL d   1      -0.142  -1.043   0.012  0.00  0.00     0.079 A 
ATOM      2  S   UNL d   1       1.379  -0.248  -0.019  0.00  0.00    -0.065 SA
ATOM      3  C   UNL d   1       0.611   1.286  -0.035  0.00  0.00     0.092 A 
ATOM      4  N   UNL d   1      -0.703   1.241   0.034  0.00  0.00    -0.352 N 
ATOM      5  HN  UNL d   1      -1.311   2.058   0.083  1.00  0.00     0.166 HD
ATOM      6  C   UNL d   1      -1.145  -0.078   0.029  0.00  0.00     0.027 A 
ATOM      7  C   UNL d   1      -2.617  -0.320   0.026  0.00  0.00     0.070 C 
ENDROOT
BRANCH   1   8
ATOM      8  C   UNL d   1      -0.295  -2.496   0.012  0.00  0.00     0.192 C 
ATOM      9  O   UNL d   1      -1.408  -3.028   0.032  0.00  0.00    -0.287 OA
BRANCH   8  10
ATOM     10  C   UNL d   1       0.919  -3.381  -0.013  0.00  0.00     0.073 C 
ATOM     11  C   UNL d   1       0.807  -4.718  -0.010  0.00  0.00     0.088 C 
BRANCH  11  12
ATOM     12  N   UNL d   1       1.796  -5.696  -0.029  0.00  0.00    -0.398 N 
ATOM     13  C   UNL d   1       3.234  -5.433  -0.064  0.00  0.00     0.148 C 
ATOM     14  C   UNL d   1       1.461  -7.123  -0.015  0.00  0.00     0.148 C 
ENDBRANCH  11  12
ENDBRANCH   8  10
ENDBRANCH   1   8
BRANCH   3  15
ATOM     15  C   UNL d   1       1.334   2.536  -0.097  0.00  0.00     0.038 A 
ATOM     16  S   UNL d   1       2.866   2.683  -0.865  0.00  0.00    -0.099 SA
ATOM     17  C   UNL d   1       2.959   4.356  -0.537  0.00  0.00     0.050 A 
ATOM     18  C   UNL d   1       1.855   4.808   0.148  0.00  0.00     0.008 A 
ATOM     19  C   UNL d   1       0.914   3.762   0.390  0.00  0.00     0.022 A 
ENDBRANCH   3  15
TORSDOF 4
