REMARK  8 active torsions:
REMARK  status: ('A' for Active; 'I' for Inactive)
REMARK       I    between atoms: N_3  and  C_1 
REMARK    1  A    between atoms: O_6  and  C_1 
REMARK    2  A    between atoms: C_2  and  C_4 
REMARK       I    between atoms: N_5  and  C_2 
REMARK    3  A    between atoms: C_4  and  N_3 
REMARK    4  A    between atoms: C_9  and  C_4 
REMARK    5  A    between atoms: C_11  and  N_5 
REMARK    6  A    between atoms: C_10  and  O_6 
REMARK    7  A    between atoms: C_13  and  C_9 
REMARK    8  A    between atoms: C_12  and  C_11 
ROOT
ATOM      1  C   UNL d   1       1.322  -0.278   2.585  0.00  0.00     0.179 C 
ENDROOT
BRANCH   1   2
ATOM      2  C   UNL d   1       1.860   1.124   2.925  0.00  0.00     0.240 C 
ATOM      3  N   UNL d   1       3.149   1.349   2.491  0.00  0.00    -0.355 N 
ATOM      4  H   UNL d   1       3.640   0.620   1.988  0.00  0.00     0.162 HD
ATOM      5  O   UNL d   1       1.163   1.997   3.437  0.00  0.00    -0.271 OA
BRANCH   3   6
ATOM      6  C   UNL d   1       3.832   2.607   2.690  0.00  0.00     0.161 C 
BRANCH   6   7
ATOM      7  C   UNL d   1       5.151   2.398   3.389  0.00  0.00    -0.041 A 
ATOM      8  C   UNL d   1       6.333   2.208   2.659  0.00  0.00     0.009 A 
ATOM      9  C   UNL d   1       7.551   2.022   3.317  0.00  0.00     0.001 A 
ATOM     10  C   UNL d   1       7.599   2.017   4.709  0.00  0.00     0.000 A 
ATOM     11  C   UNL d   1       6.430   2.190   5.447  0.00  0.00     0.001 A 
ATOM     12  C   UNL d   1       5.211   2.373   4.791  0.00  0.00     0.009 A 
ENDBRANCH   6   7
ENDBRANCH   3   6
ENDBRANCH   1   2
BRANCH   1  13
ATOM     13  N   UNL d   1       0.607  -0.184   1.316  0.00  0.00    -0.324 N 
ATOM     14  C   UNL d   1       0.417  -1.276   0.521  0.00  0.00     0.362 C 
ATOM     15  O   UNL d   1       0.868  -2.382   0.765  0.00  0.00    -0.238 OA
ATOM     16  H   UNL d   1       0.088   0.653   1.087  0.00  0.00     0.165 HD
BRANCH  14  17
ATOM     17  O   UNL d   1      -0.329  -0.936  -0.557  0.00  0.00    -0.294 OA
BRANCH  17  18
ATOM     18  C   UNL d   1      -0.660  -1.940  -1.555  0.00  0.00     0.061 C 
ATOM     19  C   UNL d   1      -1.590  -3.010  -0.972  0.00  0.00     0.046 C 
ATOM     20  C   UNL d   1      -1.420  -1.184  -2.657  0.00  0.00     0.046 C 
ATOM     21  C   UNL d   1       0.598  -2.557  -2.182  0.00  0.00     0.046 C 
ENDBRANCH  17  18
ENDBRANCH  14  17
ENDBRANCH   1  13
BRANCH   1  22
ATOM     22  C   UNL d   1       0.407  -0.825   3.694  0.00  0.00     0.038 C 
BRANCH  22  23
ATOM     23  C   UNL d   1       1.101  -1.047   5.056  0.00  0.00    -0.020 C 
ATOM     24  C   UNL d   1       0.111  -1.662   6.049  0.00  0.00     0.009 C 
ATOM     25  C   UNL d   1       2.340  -1.938   4.951  0.00  0.00     0.009 C 
ENDBRANCH  22  23
ENDBRANCH   1  22
TORSDOF 8
