REMARK  4 active torsions:
REMARK  status: ('A' for Active; 'I' for Inactive)
REMARK    1  A    between atoms: O_8  and  S_1 
REMARK    2  A    between atoms: C_9  and  S_1 
REMARK    3  A    between atoms: C_15  and  C_2 
REMARK    4  A    between atoms: C_14  and  O_8 
ROOT
ATOM      1  C   UNL d   1       0.975  -6.111  -4.558  0.00  0.00     0.048 A 
ATOM      2  C   UNL d   1       2.039  -5.192  -4.083  0.00  0.00     0.197 A 
ATOM      3  C   UNL d   1       1.640  -4.202  -3.067  0.00  0.00     0.049 A 
ATOM      4  C   UNL d   1      -0.245  -5.982  -4.015  0.00  0.00     0.159 A 
ATOM      5  C   UNL d   1       0.328  -4.188  -2.602  0.00  0.00     0.091 A 
ATOM      6  O   UNL d   1      -0.623  -5.072  -3.052  0.00  0.00    -0.321 OA
ATOM      7  C   UNL d   1      -0.060  -3.250  -1.638  0.00  0.00     0.076 A 
ATOM      8  C   UNL d   1       2.572  -3.289  -2.571  0.00  0.00     0.021 A 
ATOM      9  C   UNL d   1       0.866  -2.318  -1.151  0.00  0.00     0.092 A 
ATOM     10  O   UNL d   1       3.189  -5.237  -4.500  0.00  0.00    -0.286 OA
ATOM     11  C   UNL d   1       2.185  -2.352  -1.611  0.00  0.00     0.039 A 
ENDROOT
BRANCH   9  12
ATOM     12  O   UNL d   1       0.413  -1.446  -0.189  0.00  0.00    -0.229 OA
BRANCH  12  13
ATOM     13  S   UNL d   1       1.044   0.057  -0.037  0.00  0.00     0.303 S 
ATOM     14  O   UNL d   1       0.708   0.821  -1.224  0.00  0.00    -0.193 OA
ATOM     15  O   UNL d   1       2.414  -0.033   0.433  0.00  0.00    -0.193 OA
BRANCH  13  16
ATOM     16  C   UNL d   1       0.127   0.757   1.322  0.00  0.00     0.086 A 
ATOM     17  C   UNL d   1       0.260   0.178   2.590  0.00  0.00     0.027 A 
ATOM     18  C   UNL d   1      -0.424   0.731   3.673  0.00  0.00     0.020 A 
ATOM     19  C   UNL d   1      -1.228   1.857   3.483  0.00  0.00     0.011 A 
ATOM     20  C   UNL d   1      -1.346   2.443   2.221  0.00  0.00     0.020 A 
ATOM     21 BR   UNL d   1      -2.164   2.595   4.950  0.00  0.00    -0.051 Br
ATOM     22  C   UNL d   1      -0.663   1.895   1.133  0.00  0.00     0.027 A 
ENDBRANCH  13  16
ENDBRANCH  12  13
ENDBRANCH   9  12
BRANCH   1  23
ATOM     23  C   UNL d   1       1.242  -7.120  -5.589  0.00  0.00    -0.020 A 
ATOM     24  C   UNL d   1       1.087  -6.803  -6.945  0.00  0.00     0.012 A 
ATOM     25  C   UNL d   1       1.359  -7.756  -7.928  0.00  0.00     0.001 A 
ATOM     26  C   UNL d   1       1.787  -9.032  -7.564  0.00  0.00     0.000 A 
ATOM     27  C   UNL d   1       1.944  -9.357  -6.217  0.00  0.00     0.001 A 
ATOM     28  C   UNL d   1       1.672  -8.405  -5.232  0.00  0.00     0.012 A 
ENDBRANCH   1  23
TORSDOF 4
