REMARK  1 active torsions:
REMARK  status: ('A' for Active; 'I' for Inactive)
REMARK    1  A    between atoms: C_2  and  C_1 
ROOT
ATOM      1  C   UNL d   1       0.775   1.167   0.083  0.00  0.00    -0.019 A 
ATOM      2  C   UNL d   1      -0.550   1.001   0.581  0.00  0.00    -0.051 A 
ATOM      3  C   UNL d   1       1.421   0.005  -0.398  0.00  0.00     0.019 A 
ATOM      4  C   UNL d   1      -1.140  -0.279   0.589  0.00  0.00     0.008 A 
ATOM      5  C   UNL d   1       0.787  -1.244  -0.479  0.00  0.00    -0.061 A 
ATOM      6  C   UNL d   1      -0.491  -1.385   0.050  0.00  0.00     0.007 A 
ATOM      7  C   UNL d   1      -1.383   2.119   1.149  0.00  0.00     0.049 C 
ATOM      8  C   UNL d   1       1.464  -2.417  -1.123  0.00  0.00     0.048 C 
ENDROOT
BRANCH   1   9
ATOM      9  C   UNL d   1       1.482   2.486   0.027  0.00  0.00    -0.019 A 
ATOM     10  C   UNL d   1       2.161   2.964  -1.127  0.00  0.00    -0.051 A 
ATOM     11  C   UNL d   1       2.799   4.223  -1.094  0.00  0.00     0.008 A 
ATOM     12  C   UNL d   1       2.286   2.194  -2.417  0.00  0.00     0.049 C 
ATOM     13  C   UNL d   1       2.717   5.049   0.021  0.00  0.00     0.007 A 
ATOM     14  C   UNL d   1       2.024   4.622   1.150  0.00  0.00    -0.061 A 
ATOM     15  C   UNL d   1       1.473   3.331   1.159  0.00  0.00     0.019 A 
ATOM     16  C   UNL d   1       1.873   5.540   2.325  0.00  0.00     0.048 C 
ENDBRANCH   1   9
TORSDOF 1
