REMARK  7 active torsions:
REMARK  status: ('A' for Active; 'I' for Inactive)
REMARK    1  A    between atoms: C_8  and  C_1 
REMARK    2  A    between atoms: C_12  and  C_4 
REMARK    3  A    between atoms: S_15  and  C_6 
REMARK    4  A    between atoms: O_16  and  C_8 
REMARK    5  A    between atoms: O_17  and  C_12 
REMARK    6  A    between atoms: O_18  and  C_12 
REMARK    7  A    between atoms: C_19  and  S_15 
ROOT
ATOM      1  C   UNL d   1      -1.532   1.358   0.060  0.00  0.00     0.068 A 
ATOM      2  N   UNL d   1      -1.452  -1.040  -0.203  0.00  0.00    -0.348 N 
ATOM      3  HN  UNL d   1      -1.941  -1.928  -0.315  1.00  0.00     0.166 HD
ATOM      4  C   UNL d   1      -2.174   0.126  -0.080  0.00  0.00     0.082 A 
ATOM      5  C   UNL d   1       0.600   0.172  -0.046  0.00  0.00     0.079 A 
ATOM      6  C   UNL d   1      -0.102  -1.017  -0.178  0.00  0.00     0.092 A 
ATOM      7  C   UNL d   1      -0.126   1.364   0.071  0.00  0.00     0.045 A 
ATOM      8  C   UNL d   1       2.028   0.222   0.006  0.00  0.00     0.102 C 
ATOM      9  N   UNL d   1       3.184   0.307   0.065  0.00  0.00    -0.191 NA
ENDROOT
BRANCH   6  10
ATOM     10  S   UNL d   1       0.697  -2.613  -0.205  0.00  0.00    -0.097 SA
BRANCH  10  11
ATOM     11  C   UNL d   1      -0.552  -3.603  -1.103  0.00  0.00     0.204 C 
ATOM     12  C   UNL d   1      -0.678  -3.216  -2.515  0.00  0.00     0.069 C 
ATOM     13  N   UNL d   1      -0.752  -2.926  -3.635  0.00  0.00    -0.197 NA
ENDBRANCH  10  11
ENDBRANCH   6  10
BRANCH   1  14
ATOM     14  C   UNL d   1      -2.263   2.631   0.298  0.00  0.00     0.295 C 
ATOM     15  O   UNL d   1      -3.358   2.704   0.824  0.00  0.00    -0.259 OA
BRANCH  14  16
ATOM     16  O   UNL d   1      -1.499   3.683  -0.093  0.00  0.00    -0.322 OA
ATOM     17  C   UNL d   1      -2.034   4.975   0.216  0.00  0.00     0.213 C 
ENDBRANCH  14  16
ENDBRANCH   1  14
BRANCH   4  18
ATOM     18  C   UNL d   1      -3.696  -0.034  -0.153  0.00  0.00     0.310 C 
BRANCH  18  19
ATOM     19  O   UNL d   1      -4.034  -0.005  -1.546  0.00  0.00    -0.360 OA
ATOM     20  C   UNL d   1      -5.435  -0.097  -1.764  0.00  0.00     0.205 C 
ENDBRANCH  18  19
BRANCH  18  21
ATOM     21  O   UNL d   1      -4.125  -1.278   0.431  0.00  0.00    -0.360 OA
ATOM     22  C   UNL d   1      -3.882  -1.345   1.830  0.00  0.00     0.205 C 
ENDBRANCH  18  21
ENDBRANCH   4  18
TORSDOF 7
