REMARK  4 active torsions:
REMARK  status: ('A' for Active; 'I' for Inactive)
REMARK    1  A    between atoms: C_5  and  C_1 
REMARK    2  A    between atoms: C_2  and  C_4 
REMARK       I    between atoms: N_8  and  C_2 
REMARK       I    between atoms: N_7  and  C_5 
REMARK    3  A    between atoms: C_9  and  N_7 
REMARK    4  A    between atoms: C_13  and  N_8 
ROOT
ATOM      1  C   UNL d   1       1.679  -3.592  -0.914  0.00  0.00     0.058 A 
ATOM      2  C   UNL d   1       2.804  -3.680  -0.087  0.00  0.00     0.050 A 
ATOM      3  C   UNL d   1       0.692  -4.590  -0.854  0.00  0.00     0.019 A 
ATOM      4  C   UNL d   1       2.961  -4.795   0.753  0.00  0.00     0.030 A 
ATOM      5  C   UNL d   1       0.835  -5.674   0.016  0.00  0.00     0.001 A 
ATOM      6  C   UNL d   1       1.974  -5.781   0.811  0.00  0.00     0.002 A 
ENDROOT
BRANCH   1   7
ATOM      7  C   UNL d   1       1.505  -2.511  -1.926  0.00  0.00     0.254 C 
ATOM      8  N   UNL d   1       2.657  -2.026  -2.510  0.00  0.00    -0.344 N 
ATOM      9  H   UNL d   1       3.528  -2.538  -2.392  0.00  0.00     0.163 HD
ATOM     10  O   UNL d   1       0.384  -2.122  -2.230  0.00  0.00    -0.268 OA
BRANCH   8  11
ATOM     11  C   UNL d   1       2.614  -1.093  -3.638  0.00  0.00     0.177 C 
ATOM     12  C   UNL d   1       3.876  -1.327  -4.486  0.00  0.00     0.240 C 
ATOM     13  N   UNL d   1       3.955  -0.696  -5.694  0.00  0.00    -0.359 N 
ATOM     14  O   UNL d   1       4.812  -2.027  -4.098  0.00  0.00    -0.271 OA
ATOM     15  C   UNL d   1       2.953   0.173  -6.269  0.00  0.00     0.122 C 
ATOM     16  H   UNL d   1       4.814  -0.869  -6.204  0.00  0.00     0.162 HD
ATOM     17  C   UNL d   1       2.810   1.472  -5.486  0.00  0.00     0.020 C 
ATOM     18  C   UNL d   1       2.002   1.332  -4.193  0.00  0.00     0.004 C 
ATOM     19  C   UNL d   1       2.570   0.360  -3.156  0.00  0.00     0.035 C 
ENDBRANCH   8  11
ENDBRANCH   1   7
BRANCH   2  20
ATOM     20  N   UNL d   1       3.711  -2.606   0.006  0.00  0.00    -0.322 N 
ATOM     21  C   UNL d   1       5.079  -2.740   0.119  0.00  0.00     0.263 C 
ATOM     22  O   UNL d   1       5.657  -3.810  -0.075  0.00  0.00    -0.267 OA
ATOM     23  H   UNL d   1       3.366  -1.676  -0.214  0.00  0.00     0.169 HD
BRANCH  21  24
ATOM     24  C   UNL d   1       5.803  -1.526   0.457  0.00  0.00     0.074 C 
ATOM     25  S   UNL d   1       5.027  -0.119   1.035  0.00  0.00    -0.084 SA
ATOM     26  C   UNL d   1       6.518   0.608   1.496  0.00  0.00     0.016 A 
ATOM     27  C   UNL d   1       6.697   1.820   2.191  0.00  0.00     0.019 A 
ATOM     28  C   UNL d   1       7.605  -0.177   1.107  0.00  0.00    -0.018 A 
ATOM     29  C   UNL d   1       7.994   2.216   2.528  0.00  0.00     0.001 A 
ATOM     30  C   UNL d   1       9.088   1.445   2.162  0.00  0.00     0.001 A 
ATOM     31  C   UNL d   1       8.907   0.263   1.440  0.00  0.00     0.013 A 
ATOM     32  C   UNL d   1       7.173  -1.368   0.443  0.00  0.00     0.037 C 
ENDBRANCH  21  24
ENDBRANCH   2  20
TORSDOF 4
