REMARK  5 active torsions:
REMARK  status: ('A' for Active; 'I' for Inactive)
REMARK    1  A    between atoms: C_6  and  C_1 
REMARK    2  A    between atoms: C_5  and  C_2 
REMARK    3  A    between atoms: O_10  and  C_5 
REMARK    4  A    between atoms: C_9  and  C_16 
REMARK    5  A    between atoms: C_19  and  O_10 
ROOT
ATOM      1  C   UNL d   1       0.804  -0.284  -0.368  0.00  0.00     0.087 A 
ATOM      2  C   UNL d   1      -0.100  -1.343   0.026  0.00  0.00     0.100 A 
ATOM      3  N   UNL d   1       0.167   0.896  -0.316  0.00  0.00    -0.259 N 
ATOM      4  HN  UNL d   1       0.553   1.803  -0.576  1.00  0.00     0.195 HD
ATOM      5  O   UNL d   1      -1.094   0.657   0.150  0.00  0.00    -0.241 OA
ATOM      6  C   UNL d   1      -1.272  -0.670   0.337  0.00  0.00     0.091 A 
ATOM      7  C   UNL d   1      -2.619  -1.029   0.821  0.00  0.00     0.080 C 
ENDROOT
BRANCH   2   8
ATOM      8  C   UNL d   1       0.118  -2.776   0.105  0.00  0.00     0.303 C 
ATOM      9  O   UNL d   1       1.190  -3.286   0.414  0.00  0.00    -0.259 OA
BRANCH   8  10
ATOM     10  O   UNL d   1      -1.043  -3.495  -0.234  0.00  0.00    -0.275 OA
BRANCH  10  11
ATOM     11  C   UNL d   1      -1.309  -4.894  -0.227  0.00  0.00     0.079 A 
ATOM     12  C   UNL d   1      -0.356  -5.899  -0.134  0.00  0.00     0.038 A 
ATOM     13  C   UNL d   1      -0.779  -7.240  -0.031  0.00  0.00     0.012 A 
ATOM     14  C   UNL d   1      -2.149  -7.595  -0.018  0.00  0.00    -0.035 A 
ATOM     15  C   UNL d   1      -3.075  -6.557  -0.210  0.00  0.00     0.012 A 
ATOM     16  C   UNL d   1      -2.662  -5.224  -0.305  0.00  0.00     0.038 A 
BRANCH  14  17
ATOM     17  C   UNL d   1      -2.560  -9.038   0.288  0.00  0.00     0.141 C 
ATOM     18  S   UNL d   1      -2.087 -10.225  -1.020  0.00  0.00    -0.148 SA
ATOM     19  C   UNL d   1      -3.574 -11.265  -0.926  0.00  0.00     0.085 C 
ATOM     20  C   UNL d   1      -4.743 -10.326  -0.729  0.00  0.00     0.085 C 
ATOM     21  S   UNL d   1      -4.332  -9.292   0.699  0.00  0.00    -0.148 SA
ENDBRANCH  14  17
ENDBRANCH  10  11
ENDBRANCH   8  10
ENDBRANCH   2   8
BRANCH   1  22
ATOM     22  C   UNL d   1       2.194  -0.316  -0.857  0.00  0.00     0.037 A 
ATOM     23  C   UNL d   1       2.605  -1.217  -1.859  0.00  0.00     0.048 A 
ATOM     24 CL   UNL d   1       1.515  -2.274  -2.699  0.00  0.00    -0.083 Cl
ATOM     25  C   UNL d   1       3.931  -1.238  -2.321  0.00  0.00     0.025 A 
ATOM     26  C   UNL d   1       4.859  -0.314  -1.856  0.00  0.00     0.003 A 
ATOM     27  C   UNL d   1       4.464   0.632  -0.919  0.00  0.00     0.025 A 
ATOM     28  C   UNL d   1       3.155   0.624  -0.407  0.00  0.00     0.048 A 
ATOM     29 CL   UNL d   1       2.837   1.836   0.796  0.00  0.00    -0.083 Cl
ENDBRANCH   1  22
TORSDOF 5
