REMARK  5 active torsions:
REMARK  status: ('A' for Active; 'I' for Inactive)
REMARK    1  A    between atoms: C_2  and  N_1 
REMARK    2  A    between atoms: C_3  and  C_6 
REMARK    3  A    between atoms: C_4  and  C_7 
REMARK    4  A    between atoms: C_7  and  S_9 
REMARK    5  A    between atoms: S_9  and  C_8 
ROOT
ATOM      1  C   UNL d   1       0.319  -1.011  -0.968  0.00  0.00     0.120 A 
ATOM      2  C   UNL d   1       0.755  -2.348  -0.878  0.00  0.00     0.053 A 
ATOM      3  C   UNL d   1       0.168  -3.328  -1.685  0.00  0.00     0.050 A 
ATOM      4  C   UNL d   1      -0.694  -0.603  -1.854  0.00  0.00     0.034 A 
ATOM      5  C   UNL d   1      -0.855  -2.943  -2.560  0.00  0.00     0.017 A 
ATOM      6  C   UNL d   1      -1.265  -1.606  -2.651  0.00  0.00     0.022 A 
ENDROOT
BRANCH   4   7
ATOM      7  S   UNL d   1      -1.147   1.118  -2.097  0.00  0.00    -0.123 SA
BRANCH   7   8
ATOM      8  C   UNL d   1      -2.940   1.032  -2.458  0.00  0.00     0.123 C 
BRANCH   8   9
ATOM      9  C   UNL d   1      -3.508   2.378  -2.822  0.00  0.00     0.012 A 
ATOM     10  C   UNL d   1      -4.150   3.139  -1.839  0.00  0.00     0.125 A 
ATOM     11  F   UNL d   1      -4.251   2.664  -0.590  0.00  0.00    -0.205 F 
ATOM     12  C   UNL d   1      -4.714   4.381  -2.122  0.00  0.00     0.043 A 
ATOM     13  C   UNL d   1      -4.643   4.895  -3.413  0.00  0.00     0.005 A 
ATOM     14  C   UNL d   1      -4.002   4.161  -4.411  0.00  0.00     0.024 A 
ATOM     15  C   UNL d   1      -3.436   2.914  -4.117  0.00  0.00     0.044 A 
ATOM     16 CL   UNL d   1      -2.675   2.063  -5.417  0.00  0.00    -0.084 Cl
ENDBRANCH   8   9
ENDBRANCH   7   8
ENDBRANCH   4   7
BRANCH   1  17
ATOM     17  N   UNL d   1       0.979  -0.057  -0.091  0.00  0.00    -0.114 N 
ATOM     18  O   UNL d   1       2.199   0.091  -0.248  0.00  0.00    -0.532 OA
ATOM     19  O   UNL d   1       0.294   0.460   0.799  0.00  0.00    -0.532 OA
ENDBRANCH   1  17
BRANCH   3  20
ATOM     20  C   UNL d   1       0.620  -4.769  -1.648  0.00  0.00     0.417 C 
ATOM     21  F   UNL d   1       1.658  -4.991  -0.797  0.00  0.00    -0.166 F 
ATOM     22  F   UNL d   1      -0.375  -5.612  -1.258  0.00  0.00    -0.166 F 
ATOM     23  F   UNL d   1       1.031  -5.212  -2.868  0.00  0.00    -0.166 F 
ENDBRANCH   3  20
TORSDOF 5
