REMARK  3 active torsions:
REMARK  status: ('A' for Active; 'I' for Inactive)
REMARK    1  A    between atoms: C_15  and  C_9 
REMARK    2  A    between atoms: C_11  and  C_10 
REMARK    3  A    between atoms: C_13  and  C_14 
ROOT
ATOM      1  N   UNL d   1      -0.285  -0.583   0.025  0.00  0.00    -0.203 N 
ATOM      2  C   UNL d   1      -0.240   0.797  -0.014  0.00  0.00     0.133 A 
ATOM      3  N   UNL d   1      -1.559  -1.054   0.051  0.00  0.00    -0.289 N 
ATOM      4  HN  UNL d   1      -1.863  -2.026   0.105  1.00  0.00     0.188 HD
ATOM      5  C   UNL d   1       0.850  -1.412   0.042  0.00  0.00     0.270 A 
ATOM      6  C   UNL d   1      -1.537   1.231  -0.037  0.00  0.00     0.082 A 
ATOM      7  C   UNL d   1       2.143  -0.674   0.025  0.00  0.00     0.106 A 
ATOM      8  N   UNL d   1       0.966   1.411  -0.022  0.00  0.00    -0.340 N 
ATOM      9  C   UNL d   1       2.132   0.671  -0.000  0.00  0.00     0.049 A 
ATOM     10  C   UNL d   1      -2.330   0.045  -0.009  0.00  0.00     0.062 A 
ATOM     11  O   UNL d   1       0.775  -2.634   0.073  0.00  0.00    -0.266 OA
ATOM     12  H   UNL d   1       1.071   2.424  -0.036  0.00  0.00     0.167 HD
ENDROOT
BRANCH  10  13
ATOM     13  C   UNL d   1      -3.792  -0.041  -0.034  0.00  0.00    -0.008 A 
ATOM     14  C   UNL d   1      -4.463  -1.097   0.589  0.00  0.00     0.014 A 
ATOM     15  C   UNL d   1      -5.864  -1.155   0.584  0.00  0.00     0.009 A 
ATOM     16  C   UNL d   1      -6.640  -0.168  -0.054  0.00  0.00    -0.051 A 
ATOM     17  C   UNL d   1      -5.949   0.873  -0.694  0.00  0.00     0.009 A 
ATOM     18  C   UNL d   1      -4.550   0.937  -0.683  0.00  0.00     0.014 A 
BRANCH  16  19
ATOM     19  C   UNL d   1      -8.177  -0.245  -0.031  0.00  0.00    -0.024 C 
ATOM     20  C   UNL d   1      -8.867   0.917  -0.781  0.00  0.00     0.019 C 
ATOM     21  C   UNL d   1      -8.650  -1.558  -0.691  0.00  0.00     0.019 C 
ATOM     22  C   UNL d   1      -8.677  -0.205   1.429  0.00  0.00     0.019 C 
ENDBRANCH  16  19
ENDBRANCH  10  13
BRANCH   9  23
ATOM     23  C   UNL d   1       3.409   1.395   0.010  0.00  0.00    -0.009 A 
ATOM     24  C   UNL d   1       4.030   1.757  -1.191  0.00  0.00     0.013 A 
ATOM     25  C   UNL d   1       5.271   2.398  -1.174  0.00  0.00     0.001 A 
ATOM     26  C   UNL d   1       5.894   2.683   0.041  0.00  0.00     0.000 A 
ATOM     27  C   UNL d   1       5.274   2.335   1.241  0.00  0.00     0.001 A 
ATOM     28  C   UNL d   1       4.034   1.695   1.227  0.00  0.00     0.013 A 
ENDBRANCH   9  23
TORSDOF 3
