REMARK  3 active torsions:
REMARK  status: ('A' for Active; 'I' for Inactive)
REMARK    1  A    between atoms: C_3  and  C_1 
REMARK    2  A    between atoms: C_11  and  C_2 
REMARK    3  A    between atoms: O_15  and  C_11 
ROOT
ATOM      1  C   UNL d   1      -1.246  -0.901  -0.079  0.00  0.00     0.146 A 
ATOM      2  C   UNL d   1       0.069  -1.334   0.029  0.00  0.00     0.100 A 
ATOM      3  O   UNL d   1      -1.238   0.448  -0.294  0.00  0.00    -0.234 OA
ATOM      4  N   UNL d   1       0.049   0.932  -0.239  0.00  0.00    -0.264 N 
ATOM      5  HN  UNL d   1       0.343   1.907  -0.312  1.00  0.00     0.194 HD
ATOM      6  C   UNL d   1       0.834  -0.135  -0.072  0.00  0.00     0.048 A 
ATOM      7  C   UNL d   1       2.304   0.077  -0.058  0.00  0.00     0.071 C 
ENDROOT
BRANCH   1   8
ATOM      8  C   UNL d   1      -2.518  -1.675   0.037  0.00  0.00     0.094 A 
ATOM      9  N   UNL d   1      -3.671  -1.178  -0.428  0.00  0.00    -0.258 N 
ATOM     10  O   UNL d   1      -4.632  -2.139  -0.166  0.00  0.00    -0.242 OA
ATOM     11  HN  UNL d   1      -3.813  -0.276  -0.883  1.00  0.00     0.195 HD
ATOM     12  C   UNL d   1      -4.064  -3.173   0.506  0.00  0.00     0.074 A 
ATOM     13  C   UNL d   1      -2.724  -2.923   0.668  0.00  0.00     0.068 A 
ATOM     14  C   UNL d   1      -4.955  -4.277   0.900  0.00  0.00     0.079 C 
ENDBRANCH   1   8
BRANCH   2  15
ATOM     15  C   UNL d   1       0.509  -2.708   0.111  0.00  0.00     0.181 C 
ATOM     16  O   UNL d   1      -0.050  -3.635  -0.450  0.00  0.00    -0.646 OA
BRANCH  15  17
ATOM     17  O   UNL d   1       1.604  -2.919   0.882  0.00  0.00    -0.773 OA
ATOM     18  H   UNL d   1       1.905  -2.142   1.383  0.00  0.00     0.167 HD
ENDBRANCH  15  17
ENDBRANCH   2  15
TORSDOF 3
