REMARK  13 active torsions:
REMARK  status: ('A' for Active; 'I' for Inactive)
REMARK    1  A    between atoms: C9_7  and  C1_1 
REMARK    2  A    between atoms: C7_6  and  O1_8 
REMARK       I    between atoms: N_20  and  C7_6 
REMARK    3  A    between atoms: O1_8  and  C9_7 
REMARK    4  A    between atoms: C_18  and  N_19 
REMARK    5  A    between atoms: C_24  and  C_18 
REMARK    6  A    between atoms: C_25  and  C_18 
REMARK    7  A    between atoms: C_26  and  C_18 
REMARK       I    between atoms: N_19  and  C_22 
REMARK    8  A    between atoms: C_23  and  N_20 
REMARK    9  A    between atoms: C_21  and  C_23 
REMARK   10  A    between atoms: O_31  and  C_21 
REMARK   11  A    between atoms: C_22  and  C_30 
REMARK   12  A    between atoms: C_29  and  C_23 
REMARK   13  A    between atoms: C_30  and  C_29 
ROOT
ATOM      1  C   UNK d   1       1.545   3.700   4.276  0.00  0.00     0.045 C 
ENDROOT
BRANCH   1   2
ATOM      2  C   UNK d   1       0.759   3.307   3.005  0.00  0.00     0.185 C 
BRANCH   2   3
ATOM      3  C   UNK d   1       0.276   1.848   2.975  0.00  0.00     0.163 C 
ATOM      4  O   UNK d   1       0.726   0.942   3.661  0.00  0.00    -0.648 OA
BRANCH   3   5
ATOM      5  O   UNK d   1      -0.740   1.636   2.101  0.00  0.00    -0.775 OA
ATOM      6  H   UNK d   1      -0.966   2.433   1.570  0.00  0.00     0.167 HD
ENDBRANCH   3   5
ENDBRANCH   2   3
BRANCH   2   7
ATOM      7  N   UNK d   1       1.465   3.673   1.775  0.00  0.00    -0.322 N 
ATOM      8  C7  <1> d   1       0.886   4.214   0.676  0.00  0.00     0.361 C 
ATOM      9  O2  <1> d   1       1.522   4.854  -0.157  0.00  0.00    -0.238 OA
ATOM     10  H   UNK d   1       2.470   3.779   1.804  0.00  0.00     0.165 HD
BRANCH   8  11
ATOM     11  O1  <1> d   1      -0.445   3.978   0.623  0.00  0.00    -0.303 OA
BRANCH  11  12
ATOM     12  C9  <1> d   1      -1.210   4.788  -0.291  0.00  0.00     0.194 C 
BRANCH  12  13
ATOM     13  C1  <1> d   1      -0.961   4.630  -1.802  0.00  0.00     0.078 A 
ATOM     14  C4  <1> d   1      -1.269   3.220  -2.288  0.00  0.00    -0.036 A 
ATOM     15  C2  <1> d   1      -2.447   3.215  -3.070  0.00  0.00    -0.018 A 
ATOM     16  C20 <1> d   1      -0.576   2.052  -2.009  0.00  0.00     0.009 A 
ATOM     17  C18 <1> d   1      -2.961   2.019  -3.543  0.00  0.00     0.013 A 
ATOM     18  C3  <1> d   1      -2.944   4.573  -3.179  0.00  0.00    -0.018 A 
ATOM     19  C30 <1> d   1      -2.284   0.832  -3.236  0.00  0.00     0.001 A 
ATOM     20  C28 <1> d   1      -1.100   0.850  -2.482  0.00  0.00     0.001 A 
ATOM     21  C5  <1> d   1      -2.058   5.438  -2.501  0.00  0.00    -0.036 A 
ATOM     22  C17 <1> d   1      -4.119   5.071  -3.719  0.00  0.00     0.013 A 
ATOM     23  C19 <1> d   1      -2.319   6.795  -2.368  0.00  0.00     0.009 A 
ATOM     24  C29 <1> d   1      -3.518   7.286  -2.883  0.00  0.00     0.001 A 
ATOM     25  C27 <1> d   1      -4.410   6.431  -3.552  0.00  0.00     0.001 A 
ENDBRANCH  12  13
ENDBRANCH  11  12
ENDBRANCH   8  11
ENDBRANCH   2   7
ENDBRANCH   1   2
BRANCH   1  26
ATOM     26  C   UNK d   1       2.914   3.027   4.501  0.00  0.00     0.105 C 
BRANCH  26  27
ATOM     27  C   UNK d   1       3.582   3.570   5.761  0.00  0.00     0.219 C 
ATOM     28  N   UNK d   1       4.361   2.799   6.570  0.00  0.00    -0.339 N 
ATOM     29  H   UNK d   1       4.759   3.343   7.322  0.00  0.00     0.164 HD
ATOM     30  O   UNK d   1       3.440   4.756   6.088  0.00  0.00    -0.274 OA
BRANCH  28  31
ATOM     31  C   UNK d   1       4.794   1.367   6.539  0.00  0.00     0.115 C 
BRANCH  31  32
ATOM     32  C   UNK d   1       5.571   1.207   5.175  0.00  0.00    -0.021 A 
ATOM     33  C   UNK d   1       6.741   1.946   4.898  0.00  0.00     0.010 A 
ATOM     34  C   UNK d   1       7.377   1.882   3.645  0.00  0.00     0.001 A 
ATOM     35  C   UNK d   1       6.835   1.120   2.617  0.00  0.00     0.000 A 
ATOM     36  C   UNK d   1       5.660   0.414   2.842  0.00  0.00     0.001 A 
ATOM     37  C   UNK d   1       5.048   0.451   4.099  0.00  0.00     0.010 A 
ENDBRANCH  31  32
BRANCH  31  38
ATOM     38  C   UNK d   1       5.648   1.175   7.864  0.00  0.00    -0.021 A 
ATOM     39  C   UNK d   1       5.017   1.401   9.118  0.00  0.00     0.010 A 
ATOM     40  C   UNK d   1       5.712   1.342  10.331  0.00  0.00     0.001 A 
ATOM     41  C   UNK d   1       7.068   1.039  10.335  0.00  0.00     0.000 A 
ATOM     42  C   UNK d   1       7.704   0.747   9.132  0.00  0.00     0.001 A 
ATOM     43  C   UNK d   1       7.002   0.801   7.912  0.00  0.00     0.010 A 
ENDBRANCH  31  38
BRANCH  31  44
ATOM     44  C   UNK d   1       3.575   0.395   6.676  0.00  0.00    -0.021 C 
ATOM     45  C   UNK d   1       2.252   0.854   6.822  0.00  0.00     0.010 C 
ATOM     46  C   UNK d   1       1.167  -0.019   6.774  0.00  0.00     0.001 C 
ATOM     47  C   UNK d   1       1.382  -1.387   6.675  0.00  0.00     0.000 C 
ATOM     48  C   UNK d   1       2.683  -1.881   6.653  0.00  0.00     0.001 C 
ATOM     49  C   UNK d   1       3.771  -1.002   6.660  0.00  0.00     0.010 C 
ENDBRANCH  31  44
ENDBRANCH  28  31
ENDBRANCH  26  27
ENDBRANCH   1  26
TORSDOF 13
