REMARK  6 active torsions:
REMARK  status: ('A' for Active; 'I' for Inactive)
REMARK    1  A    between atoms: C_2  and  S_1 
REMARK    2  A    between atoms: N_5  and  S_1 
REMARK    3  A    between atoms: C_14  and  C_4 
REMARK    4  A    between atoms: N_6  and  C_9 
REMARK    5  A    between atoms: C_11  and  N_10 
REMARK    6  A    between atoms: O_28  and  C_14 
ROOT
ATOM      1  N   UNL d   1       0.686  -1.159   0.594  0.00  0.00    -0.202 NA
ATOM      2  N   UNL d   1       0.413  -3.701  -0.841  0.00  0.00    -0.365 N 
ATOM      3  C   UNL d   1       1.519  -2.354   0.961  0.00  0.00     0.127 C 
ATOM      4  C   UNL d   1      -0.600  -1.609  -0.035  0.00  0.00     0.127 C 
ATOM      5  C   UNL d   1       1.710  -3.364  -0.209  0.00  0.00     0.140 C 
ATOM      6  C   UNL d   1      -0.348  -2.504  -1.262  0.00  0.00     0.140 C 
ENDROOT
BRANCH   1   7
ATOM      7  S   UNL d   1       1.469   0.129  -0.196  0.00  0.00     0.259 S 
ATOM      8  O   UNL d   1       2.621  -0.388  -0.905  0.00  0.00    -0.204 OA
ATOM      9  O   UNL d   1       0.475   0.952  -0.839  0.00  0.00    -0.204 OA
BRANCH   7  10
ATOM     10  C   UNL d   1       2.169   1.221   1.044  0.00  0.00     0.146 A 
ATOM     11  N   UNL d   1       2.749   2.452   0.750  0.00  0.00    -0.336 N 
ATOM     12  C   UNL d   1       3.216   3.067   1.909  0.00  0.00     0.111 A 
ATOM     13  C   UNL d   1       2.889   3.044  -0.570  0.00  0.00     0.157 C 
ATOM     14  C   UNL d   1       2.892   2.217   2.954  0.00  0.00     0.039 A 
ATOM     15  C   UNL d   1       2.240   1.085   2.422  0.00  0.00     0.046 A 
BRANCH  12  16
ATOM     16  C   UNL d   1       3.904   4.350   1.972  0.00  0.00     0.309 C 
ATOM     17  O   UNL d   1       3.961   5.175   1.070  0.00  0.00    -0.258 OA
BRANCH  16  18
ATOM     18  O   UNL d   1       4.523   4.481   3.181  0.00  0.00    -0.321 OA
ATOM     19  C   UNL d   1       5.325   5.655   3.334  0.00  0.00     0.213 C 
ENDBRANCH  16  18
ENDBRANCH  12  16
ENDBRANCH   7  10
ENDBRANCH   1   7
BRANCH   2  20
ATOM     20  C   UNL d   1       0.373  -4.760  -1.755  0.00  0.00     0.103 A 
ATOM     21  N   UNL d   1      -0.298  -4.601  -2.921  0.00  0.00    -0.350 N 
ATOM     22  C   UNL d   1      -0.473  -5.668  -3.747  0.00  0.00     0.125 A 
ATOM     23  HN  UNL d   1      -0.670  -3.687  -3.179  1.00  0.00     0.166 HD
ATOM     24  C   UNL d   1      -0.000  -6.931  -3.455  0.00  0.00     0.118 A 
ATOM     25  C   UNL d   1       0.711  -7.115  -2.276  0.00  0.00     0.041 A 
ATOM     26  C   UNL d   1       0.899  -6.015  -1.425  0.00  0.00     0.051 A 
BRANCH  24  27
ATOM     27  N   UNL d   1      -0.288  -8.045  -4.349  0.00  0.00    -0.114 N 
ATOM     28  O   UNL d   1      -0.910  -7.800  -5.394  0.00  0.00    -0.532 OA
ATOM     29  O   UNL d   1       0.100  -9.169  -4.008  0.00  0.00    -0.532 OA
ENDBRANCH  24  27
ENDBRANCH   2  20
TORSDOF 6
