REMARK  8 active torsions:
REMARK  status: ('A' for Active; 'I' for Inactive)
REMARK    1  A    between atoms: C_13  and  N_1 
REMARK    2  A    between atoms: S_10  and  C_2 
REMARK    3  A    between atoms: C_19  and  S_10 
REMARK    4  A    between atoms: O_24  and  C_11 
REMARK    5  A    between atoms: O_25  and  C_12 
REMARK    6  A    between atoms: C_15  and  C_19 
REMARK       I    between atoms: N_16  and  C_15 
REMARK    7  A    between atoms: C_22  and  N_16 
REMARK    8  A    between atoms: C_23  and  C_17 
ROOT
ATOM      1  N   UNL d   1       2.400   1.012   0.295  0.00  0.00    -0.258 N 
ATOM      2  C   UNL d   1       2.425  -0.361   0.524  0.00  0.00     0.155 A 
ATOM      3  C   UNL d   1       1.177   1.672   0.097  0.00  0.00     0.267 A 
ATOM      4  C   UNL d   1      -0.035   0.840   0.121  0.00  0.00     0.062 A 
ATOM      5  N   UNL d   1       1.368  -1.113   0.502  0.00  0.00    -0.335 N 
ATOM      6  HN  UNL d   1       1.449  -2.121   0.639  1.00  0.00     0.168 HD
ATOM      7  C   UNL d   1       0.115  -0.527   0.287  0.00  0.00     0.052 A 
ATOM      8  C   UNL d   1      -1.301   1.408  -0.022  0.00  0.00     0.059 A 
ATOM      9  C   UNL d   1      -1.022  -1.341   0.289  0.00  0.00     0.070 A 
ATOM     10  C   UNL d   1      -2.439   0.602   0.032  0.00  0.00     0.102 A 
ATOM     11  C   UNL d   1      -2.310  -0.794   0.162  0.00  0.00     0.103 A 
ATOM     12  O   UNL d   1       1.036   2.873  -0.127  0.00  0.00    -0.267 OA
ENDROOT
BRANCH   2  13
ATOM     13  S   UNL d   1       3.953  -1.142   1.009  0.00  0.00    -0.084 SA
BRANCH  13  14
ATOM     14  C   UNL d   1       3.317  -2.799   1.371  0.00  0.00     0.185 C 
BRANCH  14  15
ATOM     15  C   UNL d   1       4.272  -3.810   1.978  0.00  0.00     0.231 C 
ATOM     16  N   UNL d   1       5.325  -3.327   2.736  0.00  0.00    -0.327 N 
ATOM     17  H   UNL d   1       5.435  -2.319   2.775  0.00  0.00     0.169 HD
ATOM     18  O   UNL d   1       3.974  -5.001   1.864  0.00  0.00    -0.272 OA
BRANCH  16  19
ATOM     19  C   UNL d   1       6.133  -4.101   3.614  0.00  0.00     0.034 A 
ATOM     20  C   UNL d   1       6.107  -5.497   3.653  0.00  0.00     0.030 A 
ATOM     21  C   UNL d   1       6.762  -6.206   4.665  0.00  0.00     0.010 A 
ATOM     22  C   UNL d   1       7.468  -5.537   5.668  0.00  0.00    -0.055 A 
ATOM     23  C   UNL d   1       7.596  -4.145   5.563  0.00  0.00     0.010 A 
ATOM     24  C   UNL d   1       6.942  -3.434   4.540  0.00  0.00     0.030 A 
BRANCH  22  25
ATOM     25  C   UNL d   1       7.993  -6.282   6.885  0.00  0.00     0.010 C 
ATOM     26  C   UNL d   1       6.831  -6.911   7.666  0.00  0.00     0.015 C 
ATOM     27  C   UNL d   1       9.031  -7.348   6.530  0.00  0.00     0.015 C 
ENDBRANCH  22  25
ENDBRANCH  16  19
ENDBRANCH  14  15
ENDBRANCH  13  14
ENDBRANCH   2  13
BRANCH   1  28
ATOM     28  C   UNL d   1       3.565   1.812   0.128  0.00  0.00     0.044 A 
ATOM     29  C   UNL d   1       3.738   2.966   0.907  0.00  0.00     0.030 A 
ATOM     30  C   UNL d   1       4.785   3.851   0.648  0.00  0.00     0.002 A 
ATOM     31  C   UNL d   1       5.661   3.598  -0.405  0.00  0.00     0.000 A 
ATOM     32  C   UNL d   1       5.504   2.451  -1.184  0.00  0.00     0.002 A 
ATOM     33  C   UNL d   1       4.467   1.553  -0.914  0.00  0.00     0.030 A 
ENDBRANCH   1  28
BRANCH  11  34
ATOM     34  O   UNL d   1      -3.463  -1.527   0.147  0.00  0.00    -0.353 OA
ATOM     35  C   UNL d   1      -3.360  -2.945   0.182  0.00  0.00     0.210 C 
ENDBRANCH  11  34
BRANCH  10  36
ATOM     36  O   UNL d   1      -3.618   1.286  -0.108  0.00  0.00    -0.353 OA
ATOM     37  C   UNL d   1      -4.652   0.890   0.789  0.00  0.00     0.210 C 
ENDBRANCH  10  36
TORSDOF 8
