REMARK  5 active torsions:
REMARK  status: ('A' for Active; 'I' for Inactive)
REMARK    1  A    between atoms: N_2  and  C_1 
REMARK    2  A    between atoms: N_9  and  C_3 
REMARK       I    between atoms: N_4  and  C_5 
REMARK       I    between atoms: C_7  and  N_4 
REMARK       I    between atoms: C_5  and  N_10 
REMARK    3  A    between atoms: C_6  and  C_11 
REMARK    4  A    between atoms: C_12  and  C_7 
REMARK    5  A    between atoms: N_10  and  N_9 
ROOT
ATOM      1  N   UNL d   1      -2.449  -5.662  -1.462  0.00  0.00    -0.274 N 
ATOM      2  C   UNL d   1      -1.297  -4.901  -1.520  0.00  0.00     0.341 C 
ATOM      3  C   UNL d   1      -3.620  -5.349  -0.796  0.00  0.00     0.259 C 
ATOM      4  N   UNL d   1      -1.416  -3.604  -1.049  0.00  0.00    -0.249 N 
ATOM      5  O   UNL d   1      -0.267  -5.413  -1.955  0.00  0.00    -0.245 OA
ATOM      6  O   UNL d   1      -3.768  -4.293  -0.182  0.00  0.00    -0.267 OA
ATOM      7  H   UNL d   1      -2.314  -6.572  -1.870  0.00  0.00     0.173 HD
ATOM      8  H   UNL d   1      -2.238  -3.407  -0.470  0.00  0.00     0.192 HD
ENDROOT
BRANCH   4   9
ATOM      9  N   UNL d   1      -0.285  -2.805  -0.769  0.00  0.00    -0.290 N 
ATOM     10  C   UNL d   1       0.829  -3.481  -0.097  0.00  0.00     0.178 C 
BRANCH   9  11
ATOM     11  C   UNL d   1      -0.065  -1.686  -1.601  0.00  0.00     0.083 A 
ATOM     12  C   UNL d   1      -1.062  -0.947  -2.270  0.00  0.00     0.131 A 
ATOM     13  C   UNL d   1      -0.790   0.163  -3.103  0.00  0.00     0.054 A 
ATOM     14  C   UNL d   1       0.524   0.601  -3.282  0.00  0.00     0.050 A 
ATOM     15  C   UNL d   1       1.535  -0.071  -2.590  0.00  0.00     0.019 A 
ATOM     16  C   UNL d   1       1.243  -1.181  -1.777  0.00  0.00     0.034 A 
BRANCH  12  17
ATOM     17  N   UNL d   1      -2.467  -1.208  -2.053  0.00  0.00    -0.113 N 
ATOM     18  O   UNL d   1      -3.052  -1.905  -2.898  0.00  0.00    -0.532 OA
ATOM     19  O   UNL d   1      -3.002  -0.637  -1.093  0.00  0.00    -0.532 OA
ENDBRANCH  12  17
BRANCH  14  20
ATOM     20  C   UNL d   1       0.859   1.774  -4.170  0.00  0.00     0.417 C 
ATOM     21  F   UNL d   1      -0.204   2.231  -4.886  0.00  0.00    -0.166 F 
ATOM     22  F   UNL d   1       1.327   2.841  -3.467  0.00  0.00    -0.166 F 
ATOM     23  F   UNL d   1       1.824   1.473  -5.083  0.00  0.00    -0.166 F 
ENDBRANCH  14  20
ENDBRANCH   9  11
ENDBRANCH   4   9
BRANCH   3  24
ATOM     24  C   UNL d   1      -4.745  -6.334  -0.811  0.00  0.00     0.034 A 
ATOM     25  C   UNL d   1      -4.607  -7.674  -1.199  0.00  0.00     0.044 A 
ATOM     26  C   UNL d   1      -5.719  -8.527  -1.150  0.00  0.00     0.073 A 
ATOM     27 CL   UNL d   1      -5.533 -10.174  -1.623  0.00  0.00    -0.081 Cl
ATOM     28  C   UNL d   1      -6.956  -8.055  -0.720  0.00  0.00     0.138 A 
ATOM     29  C   UNL d   1      -7.105  -6.730  -0.330  0.00  0.00     0.045 A 
ATOM     30  F   UNL d   1      -8.023  -8.866  -0.666  0.00  0.00    -0.204 F 
ATOM     31  C   UNL d   1      -6.003  -5.875  -0.375  0.00  0.00     0.020 A 
ENDBRANCH   3  24
TORSDOF 5
