REMARK  6 active torsions:
REMARK  status: ('A' for Active; 'I' for Inactive)
REMARK    1  A    between atoms: C_2  and  S_1 
REMARK    2  A    between atoms: N_8  and  S_1 
REMARK    3  A    between atoms: C_22  and  N_8 
REMARK    4  A    between atoms: C_25  and  C_11 
REMARK    5  A    between atoms: C_12  and  O_18 
REMARK    6  A    between atoms: O_18  and  C_19 
ROOT
ATOM      1  N   UNL d   1       1.067   5.737  -0.949  0.00  0.00    -0.344 N 
ATOM      2  HN  UNL d   1       0.498   6.581  -0.884  1.00  0.00     0.167 HD
ATOM      3  C   UNL d   1       2.099   5.521  -0.101  0.00  0.00     0.148 A 
ATOM      4  C   UNL d   1       1.559   3.624  -2.036  0.00  0.00     0.058 A 
ATOM      5  C   UNL d   1       0.814   4.787  -1.891  0.00  0.00     0.120 A 
ATOM      6  C   UNL d   1       2.873   4.364  -0.157  0.00  0.00     0.059 A 
ATOM      7  C   UNL d   1       2.608   3.416  -1.148  0.00  0.00     0.036 A 
ENDROOT
BRANCH   4   8
ATOM      8  N   UNL d   1       1.218   2.587  -2.934  0.00  0.00    -0.279 N 
ATOM      9  H   UNL d   1       0.612   1.825  -2.635  0.00  0.00     0.179 HD
BRANCH   8  10
ATOM     10  S   UNL d   1       1.493   2.713  -4.574  0.00  0.00     0.265 S 
ATOM     11  O   UNL d   1       0.942   1.526  -5.190  0.00  0.00    -0.200 OA
ATOM     12  O   UNL d   1       1.070   4.030  -5.001  0.00  0.00    -0.200 OA
BRANCH  10  13
ATOM     13  C   UNL d   1       3.232   2.622  -4.746  0.00  0.00     0.110 A 
ATOM     14  C   UNL d   1       4.007   1.566  -4.238  0.00  0.00     0.108 A 
ATOM     15  C   UNL d   1       5.455   1.528  -4.433  0.00  0.00     0.086 A 
ATOM     16  N   UNL d   1       3.664   0.480  -3.531  0.00  0.00    -0.238 N 
ATOM     17  N   UNL d   1       5.933   0.425  -3.847  0.00  0.00    -0.239 N 
ATOM     18  C   UNL d   1       6.156   2.530  -5.132  0.00  0.00     0.034 A 
ATOM     19  O   UNL d   1       4.836  -0.222  -3.309  0.00  0.00    -0.156 OA
ATOM     20  HN  UNL d   1       6.907   0.124  -3.805  1.00  0.00     0.197 HD
ATOM     21  C   UNL d   1       5.354   3.575  -5.628  0.00  0.00     0.004 A 
ATOM     22  C   UNL d   1       3.949   3.622  -5.444  0.00  0.00     0.028 A 
ATOM     23  HN  UNL d   1       2.728   0.222  -3.220  1.00  0.00     0.197 HD
ENDBRANCH  10  13
ENDBRANCH   8  10
ENDBRANCH   4   8
BRANCH   3  24
ATOM     24  O   UNL d   1       2.249   6.495   0.870  0.00  0.00    -0.293 OA
BRANCH  24  25
ATOM     25  C   UNL d   1       3.486   6.776   1.411  0.00  0.00     0.084 C 
ATOM     26  C   UNL d   1       3.598   7.130   2.776  0.00  0.00    -0.018 C 
ATOM     27  C   UNL d   1       4.911   7.281   3.287  0.00  0.00     0.034 C 
ATOM     28  C   UNL d   1       6.040   7.194   2.471  0.00  0.00     0.034 C 
ATOM     29  C   UNL d   1       5.901   6.962   1.114  0.00  0.00     0.026 C 
ATOM     30 CL   UNL d   1       7.608   7.389   3.151  0.00  0.00    -0.084 Cl
ATOM     31  C   UNL d   1       4.629   6.775   0.584  0.00  0.00     0.039 C 
BRANCH  26  32
ATOM     32  C   UNL d   1       2.450   7.323   3.786  0.00  0.00     0.021 C 
ATOM     33  C   UNL d   1       0.989   7.247   3.301  0.00  0.00     0.009 C 
ATOM     34  C   UNL d   1       0.545   8.464   2.486  0.00  0.00     0.001 C 
ATOM     35  C   UNL d   1       0.832   9.794   3.175  0.00  0.00     0.000 C 
ATOM     36  C   UNL d   1       2.231   9.875   3.775  0.00  0.00     0.001 C 
ATOM     37  C   UNL d   1       2.569   8.640   4.605  0.00  0.00     0.009 C 
ENDBRANCH  26  32
ENDBRANCH  24  25
ENDBRANCH   3  24
TORSDOF 6
