REMARK  5 active torsions:
REMARK  status: ('A' for Active; 'I' for Inactive)
REMARK    1  A    between atoms: N_6  and  S_1 
REMARK    2  A    between atoms: C_8  and  S_1 
REMARK    3  A    between atoms: C_2  and  S_10 
REMARK    4  A    between atoms: C_11  and  N_6 
REMARK    5  A    between atoms: S_10  and  C_12 
ROOT
ATOM      1  C   UNL d   1       0.468   2.343   0.991  0.00  0.00     0.040 A 
ATOM      2  C   UNL d   1       1.821   2.253   1.370  0.00  0.00     0.029 A 
ATOM      3  C   UNL d   1      -0.336   3.361   1.529  0.00  0.00     0.026 A 
ATOM      4  C   UNL d   1       2.329   3.203   2.279  0.00  0.00     0.021 A 
ATOM      5  C   UNL d   1       0.185   4.288   2.434  0.00  0.00     0.002 A 
ATOM      6  C   UNL d   1       1.523   4.216   2.800  0.00  0.00     0.001 A 
ENDROOT
BRANCH   1   7
ATOM      7  N   UNL d   1      -0.132   1.605  -0.077  0.00  0.00    -0.180 NA
ATOM      8  H   UNL d   1       0.361   1.750  -0.969  0.00  0.00     0.146 HD
BRANCH   7   9
ATOM      9  S   UNL d   1      -0.559  -0.012   0.036  0.00  0.00     0.245 S 
ATOM     10  O   UNL d   1       0.551  -0.799   0.530  0.00  0.00    -0.206 OA
ATOM     11  O   UNL d   1      -1.159  -0.344  -1.239  0.00  0.00    -0.206 OA
BRANCH   9  12
ATOM     12  C   UNL d   1      -1.858  -0.120   1.255  0.00  0.00     0.075 A 
ATOM     13  C   UNL d   1      -1.534  -0.629   2.522  0.00  0.00     0.034 A 
ATOM     14  C   UNL d   1      -2.569  -1.034   3.346  0.00  0.00    -0.021 A 
ATOM     15  C   UNL d   1      -2.515  -1.677   4.677  0.00  0.00     0.068 C 
ATOM     16  C   UNL d   1      -3.891  -0.892   2.951  0.00  0.00     0.075 A 
ATOM     17  C   UNL d   1      -3.978  -2.099   4.818  0.00  0.00     0.180 C 
ATOM     18  O   UNL d   1      -4.790  -1.374   3.862  0.00  0.00    -0.350 OA
ATOM     19  C   UNL d   1      -4.234  -0.352   1.727  0.00  0.00     0.039 A 
ATOM     20  C   UNL d   1      -3.201   0.024   0.858  0.00  0.00     0.027 A 
ENDBRANCH   9  12
ENDBRANCH   7   9
ENDBRANCH   1   7
BRANCH   2  21
ATOM     21  S   UNL d   1       2.958   0.958   0.921  0.00  0.00    -0.063 SA
BRANCH  21  22
ATOM     22  C   UNL d   1       3.274   1.266  -0.767  0.00  0.00     0.118 A 
ATOM     23  N   UNL d   1       2.398   1.765  -1.613  0.00  0.00    -0.344 N 
ATOM     24  C   UNL d   1       2.978   1.847  -2.877  0.00  0.00     0.050 A 
ATOM     25  HN  UNL d   1       1.446   2.047  -1.381  1.00  0.00     0.167 HD
ATOM     26  C   UNL d   1       2.364   2.342  -4.047  0.00  0.00     0.032 A 
ATOM     27  C   UNL d   1       4.299   1.398  -2.964  0.00  0.00     0.035 A 
ATOM     28  C   UNL d   1       3.090   2.402  -5.245  0.00  0.00     0.026 A 
ATOM     29  C   UNL d   1       4.408   1.962  -5.292  0.00  0.00     0.035 A 
ATOM     30  C   UNL d   1       5.035   1.440  -4.160  0.00  0.00     0.045 A 
ATOM     31 CL   UNL d   1       5.293   2.072  -6.765  0.00  0.00    -0.084 Cl
ATOM     32  S   UNL d   1       4.799   0.834  -1.424  0.00  0.00    -0.063 SA
ENDBRANCH  21  22
ENDBRANCH   2  21
TORSDOF 5
