REMARK  2 active torsions:
REMARK  status: ('A' for Active; 'I' for Inactive)
REMARK    1  A    between atoms: N_2  and  C_1 
REMARK       I    between atoms: C_3  and  N_2 
REMARK       I    between atoms: N_8  and  C_3 
REMARK    2  A    between atoms: C_11  and  N_8 
ROOT
ATOM      1  N   UNL d   1      -1.506   4.185  -0.020  0.00  0.00    -0.301 N 
ATOM      2  C   UNL d   1      -1.113   2.854   0.025  0.00  0.00     0.325 C 
ATOM      3  N   UNL d   1      -2.221   2.031  -0.104  0.00  0.00    -0.309 N 
ATOM      4  O   UNL d   1       0.035   2.471   0.204  0.00  0.00    -0.247 OA
ATOM      5  H   UNL d   1      -2.334   4.374   0.529  0.00  0.00     0.171 HD
ATOM      6  H   UNL d   1      -2.946   2.389  -0.709  0.00  0.00     0.170 HD
ENDROOT
BRANCH   1   7
ATOM      7  C   UNL d   1      -0.552   5.181   0.001  0.00  0.00     0.099 A 
ATOM      8  C   UNL d   1       0.626   5.379  -0.686  0.00  0.00     0.068 A 
ATOM      9  C   UNL d   1       1.286   6.567  -0.247  0.00  0.00     0.034 A 
ATOM     10 CL   UNL d   1       1.250   4.430  -1.965  0.00  0.00    -0.081 Cl
ATOM     11  C   UNL d   1       0.576   7.229   0.731  0.00  0.00     0.053 A 
ATOM     12  S   UNL d   1      -0.915   6.458   1.067  0.00  0.00    -0.082 SA
ENDBRANCH   1   7
BRANCH   3  13
ATOM     13  C   UNL d   1      -2.261   0.658   0.207  0.00  0.00     0.036 A 
ATOM     14  C   UNL d   1      -1.377   0.064   1.108  0.00  0.00     0.030 A 
ATOM     15  C   UNL d   1      -1.474  -1.298   1.403  0.00  0.00     0.009 A 
ATOM     16  C   UNL d   1      -2.458  -2.089   0.801  0.00  0.00    -0.062 A 
ATOM     17  C   UNL d   1      -3.349  -1.491  -0.095  0.00  0.00     0.009 A 
ATOM     18  C   UNL d   1      -2.508  -3.562   1.077  0.00  0.00     0.048 C 
ATOM     19  C   UNL d   1      -3.263  -0.124  -0.379  0.00  0.00     0.030 A 
ENDBRANCH   3  13
TORSDOF 2
