REMARK  6 active torsions:
REMARK  status: ('A' for Active; 'I' for Inactive)
REMARK    1  A    between atoms: N_6  and  C_1 
REMARK       I    between atoms: C_8  and  N_6 
REMARK    2  A    between atoms: O_14  and  C_8 
REMARK    3  A    between atoms: N_10  and  O_14 
REMARK    4  A    between atoms: C_15  and  C_12 
REMARK    5  A    between atoms: N_26  and  C_12 
REMARK    6  A    between atoms: C_16  and  C_17 
ROOT
ATOM      1  O   UNL d   1      -1.300   0.070   0.522  0.00  0.00    -0.179 OA
ENDROOT
BRANCH   1   2
ATOM      2  N   UNL d   1      -2.551  -0.499   0.857  0.00  0.00    -0.244 N 
ATOM      3  C   UNL d   1      -3.488   0.322   0.445  0.00  0.00     0.109 C 
ATOM      4  HN  UNL d   1      -2.699  -1.388   1.334  1.00  0.00     0.196 HD
BRANCH   3   5
ATOM      5  C   UNL d   1      -4.929  -0.111   0.477  0.00  0.00     0.004 A 
ATOM      6  C   UNL d   1      -5.299  -1.310   1.080  0.00  0.00     0.015 A 
ATOM      7  C   UNL d   1      -6.618  -1.779   0.978  0.00  0.00     0.009 A 
ATOM      8  C   UNL d   1      -7.607  -1.065   0.271  0.00  0.00    -0.051 A 
ATOM      9  C   UNL d   1      -7.225   0.162  -0.292  0.00  0.00     0.009 A 
ATOM     10  C   UNL d   1      -5.908   0.631  -0.197  0.00  0.00     0.015 A 
BRANCH   8  11
ATOM     11  C   UNL d   1      -9.022  -1.648   0.099  0.00  0.00    -0.024 C 
ATOM     12  C   UNL d   1      -9.982  -0.733  -0.697  0.00  0.00     0.019 C 
ATOM     13  C   UNL d   1      -8.938  -2.987  -0.667  0.00  0.00     0.019 C 
ATOM     14  C   UNL d   1      -9.667  -1.897   1.478  0.00  0.00     0.019 C 
ENDBRANCH   8  11
ENDBRANCH   3   5
BRANCH   3  15
ATOM     15  N   UNL d   1      -3.193   1.571  -0.066  0.00  0.00    -0.286 NA
ATOM     16  H   UNL d   1      -2.224   1.839   0.076  0.00  0.00     0.125 HD
ATOM     17  H   UNL d   1      -3.833   2.323   0.162  0.00  0.00     0.125 HD
ENDBRANCH   3  15
ENDBRANCH   1   2
BRANCH   1  18
ATOM     18  C   UNL d   1      -0.211  -0.746   0.740  0.00  0.00     0.387 C 
ATOM     19  N   UNL d   1      -0.369  -1.647   1.771  0.00  0.00    -0.293 N 
ATOM     20  H   UNL d   1      -1.289  -1.619   2.193  0.00  0.00     0.172 HD
ATOM     21  O   UNL d   1       0.811  -0.530   0.093  0.00  0.00    -0.236 OA
BRANCH  19  22
ATOM     22  C   UNL d   1       0.670  -2.310   2.414  0.00  0.00     0.102 C 
ATOM     23  S   UNL d   1       2.243  -2.383   1.750  0.00  0.00    -0.051 SA
ATOM     24  C   UNL d   1       2.851  -3.038   3.210  0.00  0.00     0.093 C 
ATOM     25  C   UNL d   1       4.254  -3.131   3.547  0.00  0.00     0.038 A 
ATOM     26  N   UNL d   1       1.919  -3.395   4.070  0.00  0.00    -0.351 N 
ATOM     27  S   UNL d   1       5.500  -2.335   2.670  0.00  0.00    -0.099 SA
ATOM     28  C   UNL d   1       4.780  -3.779   4.654  0.00  0.00     0.022 A 
ATOM     29  C   UNL d   1       6.698  -2.793   3.799  0.00  0.00     0.050 A 
ATOM     30  C   UNL d   1       6.183  -3.576   4.806  0.00  0.00     0.008 A 
ATOM     31  C   UNL d   1       0.672  -2.953   3.643  0.00  0.00     0.040 C 
ATOM     32  HN  UNL d   1       2.088  -3.921   4.927  1.00  0.00     0.166 HD
ATOM     33  C   UNL d   1      -0.450  -3.097   4.603  0.00  0.00     0.071 C 
ENDBRANCH  19  22
ENDBRANCH   1  18
TORSDOF 6
