REMARK  0 active torsions:
REMARK  status: ('A' for Active; 'I' for Inactive)
ROOT
ATOM      1  C   UNL d   1      -1.198  -0.942  -0.001  0.00  0.00     0.102 A 
ATOM      2  C   UNL d   1      -0.727   0.347  -0.000  0.00  0.00     0.069 A 
ATOM      3  C   UNL d   1       0.705   0.434   0.000  0.00  0.00     0.032 A 
ATOM      4  S   UNL d   1       0.039  -2.088  -0.000  0.00  0.00    -0.064 SA
ATOM      5  C   UNL d   1       1.229  -0.861   0.000  0.00  0.00     0.088 A 
ATOM      6  C   UNL d   1      -2.592  -1.260  -0.001  0.00  0.00     0.265 A 
ATOM      7  N   UNL d   1      -1.603   1.452   0.000  0.00  0.00    -0.350 N 
ATOM      8  HN  UNL d   1      -1.275   2.418   0.001  1.00  0.00     0.166 HD
ATOM      9  N   UNL d   1       2.529  -1.214   0.001  0.00  0.00    -0.354 N 
ATOM     10  HN  UNL d   1       2.833  -2.188   0.001  1.00  0.00     0.166 HD
ATOM     11  C   UNL d   1       1.644   1.500   0.000  0.00  0.00    -0.045 A 
ATOM     12  N   UNL d   1      -3.380  -0.134  -0.000  0.00  0.00    -0.319 N 
ATOM     13  C   UNL d   1      -2.859   1.137  -0.000  0.00  0.00     0.184 A 
ATOM     14  C   UNL d   1       3.009   1.149   0.000  0.00  0.00     0.032 A 
ATOM     15  C   UNL d   1       3.394  -0.187   0.001  0.00  0.00     0.006 A 
ATOM     16  O   UNL d   1      -3.094  -2.380  -0.001  0.00  0.00    -0.267 OA
ATOM     17  C   UNL d   1       1.303   2.966   0.001  0.00  0.00     0.049 C 
ATOM     18  C   UNL d   1       4.852  -0.545   0.001  0.00  0.00     0.068 C 
ATOM     19  H   UNL d   1      -4.377  -0.293  -0.001  0.00  0.00     0.169 HD
ENDROOT
TORSDOF 0
