REMARK  10 active torsions:
REMARK  status: ('A' for Active; 'I' for Inactive)
REMARK    1  A    between atoms: C_2  and  C_1 
REMARK    2  A    between atoms: N_13  and  C_3 
REMARK       I    between atoms: C_6  and  N_15 
REMARK    3  A    between atoms: C_18  and  C_6 
REMARK    4  A    between atoms: C_7  and  C_19 
REMARK    5  A    between atoms: O_16  and  C_7 
REMARK    6  A    between atoms: C_21  and  N_13 
REMARK    7  A    between atoms: S_14  and  C_18 
REMARK    8  A    between atoms: C_19  and  S_14 
REMARK    9  A    between atoms: N_15  and  C_22 
REMARK   10  A    between atoms: C_22  and  C_21 
ROOT
ATOM      1  N   UNL d   1       0.166   2.049  -1.880  0.00  0.00    -0.277 NA
ATOM      2  H   UNL d   1      -0.647   2.525  -2.267  0.00  0.00     0.129 HD
ENDROOT
BRANCH   1   3
ATOM      3  C   UNL d   1       0.048   0.657  -2.029  0.00  0.00     0.095 A 
ATOM      4  C   UNL d   1      -0.299   0.073  -3.248  0.00  0.00     0.086 A 
ATOM      5  C   UNL d   1      -0.356  -1.335  -3.325  0.00  0.00     0.021 A 
ATOM      6  C   UNL d   1      -0.066  -2.114  -2.217  0.00  0.00     0.018 A 
ATOM      7  C   UNL d   1       0.280  -1.458  -1.059  0.00  0.00     0.089 A 
ATOM      8  N   UNL d   1       0.343  -0.113  -0.955  0.00  0.00    -0.356 N 
ATOM      9  HN  UNL d   1       0.610   0.320  -0.071  1.00  0.00     0.166 HD
BRANCH   4  10
ATOM     10  C   UNL d   1      -0.612   0.849  -4.492  0.00  0.00     0.420 C 
ATOM     11  F   UNL d   1      -0.671   2.202  -4.348  0.00  0.00    -0.166 F 
ATOM     12  F   UNL d   1      -1.829   0.499  -5.008  0.00  0.00    -0.166 F 
ATOM     13  F   UNL d   1       0.281   0.612  -5.494  0.00  0.00    -0.166 F 
ENDBRANCH   4  10
ENDBRANCH   1   3
BRANCH   1  14
ATOM     14  C   UNL d   1       0.497   2.482  -0.515  0.00  0.00     0.113 C 
BRANCH  14  15
ATOM     15  C   UNL d   1       0.450   4.011  -0.365  0.00  0.00     0.137 C 
BRANCH  15  16
ATOM     16  N   UNL d   1       0.836   4.439   0.978  0.00  0.00    -0.359 N 
ATOM     17  C   UNL d   1       1.970   5.173   1.232  0.00  0.00     0.226 C 
ATOM     18  O   UNL d   1       2.751   5.564   0.364  0.00  0.00    -0.273 OA
ATOM     19  H   UNL d   1       0.297   4.085   1.759  0.00  0.00     0.162 HD
BRANCH  17  20
ATOM     20  C   UNL d   1       2.260   5.425   2.704  0.00  0.00     0.177 C 
BRANCH  20  21
ATOM     21  S   UNL d   1       3.392   4.151   3.351  0.00  0.00    -0.149 SA
BRANCH  21  22
ATOM     22  C   UNL d   1       4.823   4.340   2.230  0.00  0.00     0.184 C 
BRANCH  22  23
ATOM     23  C   UNL d   1       5.434   5.721   2.291  0.00  0.00     0.149 C 
ATOM     24  O   UNL d   1       6.253   6.068   3.132  0.00  0.00    -0.649 OA
BRANCH  23  25
ATOM     25  O   UNL d   1       4.983   6.573   1.341  0.00  0.00    -0.776 OA
ATOM     26  H   UNL d   1       4.290   6.202   0.741  0.00  0.00     0.167 HD
ENDBRANCH  23  25
ENDBRANCH  22  23
ENDBRANCH  21  22
ENDBRANCH  20  21
ENDBRANCH  17  20
ENDBRANCH  15  16
ENDBRANCH  14  15
ENDBRANCH   1  14
TORSDOF 10
