REMARK  4 active torsions:
REMARK  status: ('A' for Active; 'I' for Inactive)
REMARK    1  A    between atoms: N_2  and  S_1 
REMARK    2  A    between atoms: C_7  and  S_1 
REMARK    3  A    between atoms: C_10  and  C_3 
REMARK    4  A    between atoms: O_16  and  N_11 
ROOT
ATOM      1  N   UNL d   1       1.207   6.236  -2.074  0.00  0.00    -0.257 N 
ATOM      2  C   UNL d   1       0.462   4.610  -3.413  0.00  0.00     0.006 A 
ATOM      3  C   UNL d   1       0.943   4.890  -2.143  0.00  0.00     0.122 A 
ATOM      4  C   UNL d   1       0.871   6.853  -3.246  0.00  0.00     0.110 A 
ATOM      5  C   UNL d   1       0.429   5.868  -4.104  0.00  0.00     0.033 A 
ENDROOT
BRANCH   1   6
ATOM      6  S   UNL d   1       1.719   7.050  -0.668  0.00  0.00     0.268 S 
ATOM      7  O   UNL d   1       2.453   8.206  -1.144  0.00  0.00    -0.200 OA
ATOM      8  O   UNL d   1       2.319   6.038   0.181  0.00  0.00    -0.200 OA
BRANCH   6   9
ATOM      9  C   UNL d   1       0.227   7.601   0.118  0.00  0.00     0.080 A 
ATOM     10  C   UNL d   1      -0.742   6.671   0.508  0.00  0.00     0.027 A 
ATOM     11  C   UNL d   1      -1.887   7.109   1.178  0.00  0.00     0.025 A 
ATOM     12  C   UNL d   1      -2.052   8.466   1.463  0.00  0.00     0.034 A 
ATOM     13  C   UNL d   1      -1.081   9.392   1.081  0.00  0.00     0.025 A 
ATOM     14 CL   UNL d   1      -3.455   8.996   2.306  0.00  0.00    -0.084 Cl
ATOM     15  C   UNL d   1       0.065   8.961   0.408  0.00  0.00     0.027 A 
ENDBRANCH   6   9
ENDBRANCH   1   6
BRANCH   2  16
ATOM     16  C   UNL d   1       0.068   3.301  -3.942  0.00  0.00     0.039 C 
ATOM     17  N   UNL d   1      -0.357   3.293  -5.173  0.00  0.00    -0.273 N 
ATOM     18  HN  UNL d   1      -0.419   4.124  -5.762  1.00  0.00     0.194 HD
ATOM     19  C   UNL d   1       0.148   2.052  -3.093  0.00  0.00     0.071 C 
BRANCH  17  20
ATOM     20  O   UNL d   1      -0.718   2.005  -5.589  0.00  0.00    -0.290 OA
ATOM     21  H   UNL d   1      -1.004   2.155  -6.510  0.00  0.00     0.244 HD
ENDBRANCH  17  20
ENDBRANCH   2  16
TORSDOF 4
