REMARK  2 active torsions:
REMARK  status: ('A' for Active; 'I' for Inactive)
REMARK    1  A    between atoms: O_18  and  C_15 
REMARK    2  A    between atoms: C_19  and  C_16 
ROOT
ATOM      1  C   UNL d   1      -2.737  -0.451  -0.019  0.00  0.00     0.081 A 
ATOM      2  C   UNL d   1      -4.151  -0.355  -0.097  0.00  0.00     0.122 A 
ATOM      3  N   UNL d   1      -5.066  -1.299  -0.220  0.00  0.00    -0.340 N 
ATOM      4  HN  UNL d   1      -4.909  -2.306  -0.268  1.00  0.00     0.167 HD
ATOM      5  C   UNL d   1      -1.849   0.737   0.049  0.00  0.00     0.200 A 
ATOM      6  C   UNL d   1      -0.401   0.481   0.060  0.00  0.00     0.050 A 
ATOM      7  N   UNL d   1      -4.748   0.886  -0.058  0.00  0.00    -0.340 N 
ATOM      8  C   UNL d   1      -2.150  -1.656  -0.016  0.00  0.00     0.162 A 
ATOM      9  C   UNL d   1       0.049  -0.834   0.036  0.00  0.00     0.091 A 
ATOM     10  O   UNL d   1      -0.801  -1.911   0.026  0.00  0.00    -0.321 OA
ATOM     11  C   UNL d   1       0.511   1.544   0.077  0.00  0.00     0.028 A 
ATOM     12  C   UNL d   1       1.416  -1.099   0.015  0.00  0.00     0.075 A 
ATOM     13  C   UNL d   1      -6.274  -0.647  -0.272  0.00  0.00     0.060 A 
ATOM     14  C   UNL d   1      -6.104   0.727  -0.164  0.00  0.00     0.060 A 
ATOM     15  C   UNL d   1       2.327  -0.037   0.026  0.00  0.00     0.074 A 
ATOM     16  C   UNL d   1       1.894   1.298   0.059  0.00  0.00    -0.024 A 
ATOM     17  O   UNL d   1      -2.292   1.887   0.087  0.00  0.00    -0.286 OA
ATOM     18  C   UNL d   1      -7.568  -1.168  -0.415  0.00  0.00     0.032 A 
ATOM     19  C   UNL d   1      -7.161   1.637  -0.179  0.00  0.00     0.032 A 
ATOM     20  C   UNL d   1      -8.446   1.100  -0.320  0.00  0.00     0.002 A 
ATOM     21  C   UNL d   1      -8.649  -0.278  -0.440  0.00  0.00     0.002 A 
ATOM     22  H   UNL d   1      -4.247   1.765   0.020  0.00  0.00     0.167 HD
ENDROOT
BRANCH  16  23
ATOM     23  C   UNL d   1       2.845   2.474   0.037  0.00  0.00     0.037 C 
ATOM     24  C   UNL d   1       3.253   2.986   1.412  0.00  0.00     0.010 C 
ENDBRANCH  16  23
BRANCH  15  25
ATOM     25  O   UNL d   1       3.666  -0.303  -0.014  0.00  0.00    -0.360 OA
ATOM     26  H   UNL d   1       3.793  -1.264  -0.089  0.00  0.00     0.217 HD
ENDBRANCH  15  25
TORSDOF 2
