REMARK  3 active torsions:
REMARK  status: ('A' for Active; 'I' for Inactive)
REMARK    1  A    between atoms: C_2  and  S_1 
REMARK    2  A    between atoms: C_3  and  S_1 
REMARK    3  A    between atoms: C_5  and  C_3 
ROOT
ATOM      1  S   UNL d   1       1.006  -0.047   0.045  0.00  0.00     0.188 S 
ATOM      2  O   UNL d   1       0.246   0.661   1.057  0.00  0.00    -0.222 OA
ATOM      3  O   UNL d   1       2.453   0.081  -0.014  0.00  0.00    -0.222 OA
ENDROOT
BRANCH   1   4
ATOM      4  C   UNL d   1       0.418   0.579  -1.510  0.00  0.00     0.100 A 
ATOM      5  S   UNL d   1      -1.269   0.471  -1.784  0.00  0.00    -0.090 SA
ATOM      6  C   UNL d   1      -1.133   1.210  -3.320  0.00  0.00     0.051 A 
ATOM      7  C   UNL d   1       0.166   1.558  -3.613  0.00  0.00     0.009 A 
ATOM      8  C   UNL d   1       1.065   1.190  -2.569  0.00  0.00     0.031 A 
ENDBRANCH   1   4
BRANCH   1   9
ATOM      9  C   UNL d   1       0.585  -1.762   0.123  0.00  0.00     0.215 C 
BRANCH   9  10
ATOM     10  C   UNL d   1       1.276  -2.590  -0.922  0.00  0.00     0.085 C 
ATOM     11  S   UNL d   1       0.566  -3.018  -2.370  0.00  0.00    -0.065 SA
ATOM     12  N   UNL d   1       2.501  -3.103  -0.611  0.00  0.00    -0.393 N 
ATOM     13  H   UNL d   1       3.054  -2.791   0.182  0.00  0.00     0.156 HD
ATOM     14  H   UNL d   1       2.980  -3.679  -1.297  0.00  0.00     0.156 HD
ENDBRANCH   9  10
ENDBRANCH   1   9
TORSDOF 3
