REMARK  9 active torsions:
REMARK  status: ('A' for Active; 'I' for Inactive)
REMARK    1  A    between atoms: C_2  and  N_1 
REMARK    2  A    between atoms: C_17  and  N_5 
REMARK    3  A    between atoms: C_16  and  C_7 
REMARK    4  A    between atoms: C_13  and  C_10 
REMARK    5  A    between atoms: S_15  and  C_16 
REMARK    6  A    between atoms: C_25  and  S_15 
REMARK    7  A    between atoms: C_29  and  C_17 
REMARK    8  A    between atoms: C_19  and  C_25 
REMARK    9  A    between atoms: C_30  and  C_29 
ROOT
ATOM      1  N   UNL d   1      -0.279  -1.180   0.306  0.00  0.00    -0.251 N 
ATOM      2  C   UNL d   1       1.066  -0.765   0.319  0.00  0.00     0.335 A 
ATOM      3  N   UNL d   1       0.985   0.647   0.176  0.00  0.00    -0.301 N 
ATOM      4  C   UNL d   1      -1.109  -0.089   0.208  0.00  0.00     0.130 A 
ATOM      5  C   UNL d   1      -0.350   1.023   0.103  0.00  0.00     0.041 A 
ATOM      6  O   UNL d   1       2.102  -1.403   0.394  0.00  0.00    -0.246 OA
ENDROOT
BRANCH   1   7
ATOM      7  C   UNL d   1      -0.749  -2.470   0.261  0.00  0.00     0.175 A 
ATOM      8  S   UNL d   1       0.343  -3.763   0.473  0.00  0.00    -0.036 SA
ATOM      9  C   UNL d   1      -0.979  -4.848   0.311  0.00  0.00     0.077 A 
ATOM     10  N   UNL d   1      -2.120  -4.235   0.056  0.00  0.00    -0.295 N 
ATOM     11  N   UNL d   1      -1.992  -2.856   0.052  0.00  0.00    -0.278 N 
ATOM     12  HN  UNL d   1      -2.998  -4.723  -0.119  1.00  0.00     0.187 HD
ATOM     13  HN  UNL d   1      -2.771  -2.214  -0.096  1.00  0.00     0.189 HD
BRANCH   9  14
ATOM     14  C   UNL d   1      -0.786  -6.341   0.519  0.00  0.00    -0.001 C 
ATOM     15  C   UNL d   1      -0.329  -6.607   1.968  0.00  0.00     0.021 C 
ATOM     16  C   UNL d   1      -2.115  -7.085   0.284  0.00  0.00     0.021 C 
ATOM     17  C   UNL d   1       0.266  -6.912  -0.453  0.00  0.00     0.021 C 
ENDBRANCH   9  14
ENDBRANCH   1   7
BRANCH   3  18
ATOM     18  C   UNL d   1       2.162   1.480   0.062  0.00  0.00     0.134 C 
BRANCH  18  19
ATOM     19  C   UNL d   1       2.685   1.933   1.423  0.00  0.00     0.020 C 
BRANCH  19  20
ATOM     20  C   UNL d   1       3.923   2.820   1.281  0.00  0.00    -0.003 C 
ATOM     21  C   UNL d   1       4.436   3.263   2.642  0.00  0.00     0.005 C 
ENDBRANCH  19  20
ENDBRANCH  18  19
ENDBRANCH   3  18
BRANCH   5  22
ATOM     22  C   UNL d   1      -0.809   2.428  -0.083  0.00  0.00     0.133 C 
BRANCH  22  23
ATOM     23  S   UNL d   1      -0.797   2.905  -1.845  0.00  0.00    -0.158 SA
BRANCH  23  24
ATOM     24  C   UNL d   1      -2.035   1.744  -2.519  0.00  0.00     0.112 C 
BRANCH  24  25
ATOM     25  C   UNL d   1      -2.224   1.949  -4.004  0.00  0.00    -0.049 A 
ATOM     26  C   UNL d   1      -1.431   1.250  -4.930  0.00  0.00     0.009 A 
ATOM     27  C   UNL d   1      -1.592   1.459  -6.302  0.00  0.00     0.024 A 
ATOM     28  C   UNL d   1      -2.545   2.367  -6.758  0.00  0.00     0.034 A 
ATOM     29  C   UNL d   1      -3.336   3.067  -5.851  0.00  0.00     0.024 A 
ATOM     30 CL   UNL d   1      -2.740   2.631  -8.447  0.00  0.00    -0.084 Cl
ATOM     31  C   UNL d   1      -3.177   2.860  -4.479  0.00  0.00     0.009 A 
ENDBRANCH  24  25
ENDBRANCH  23  24
ENDBRANCH  22  23
ENDBRANCH   5  22
TORSDOF 9
