REMARK  8 active torsions:
REMARK  status: ('A' for Active; 'I' for Inactive)
REMARK    1  A    between atoms: C_8  and  N_1 
REMARK    2  A    between atoms: N_3  and  C_7 
REMARK    3  A    between atoms: C_9  and  C_5 
REMARK    4  A    between atoms: C_10  and  C_6 
REMARK    5  A    between atoms: C_13  and  C_11 
REMARK    6  A    between atoms: C_12  and  C_13 
REMARK    7  A    between atoms: O_32  and  C_14 
REMARK    8  A    between atoms: O_33  and  C_15 
ROOT
ATOM      1  C   UNL d   1       6.752   0.113   0.268  0.00  0.00     0.077 C 
ENDROOT
BRANCH   1   2
ATOM      2  C   UNL d   1       7.445   1.454   0.324  0.00  0.00    -0.054 A 
ATOM      3  C   UNL d   1       7.656   2.104   1.546  0.00  0.00     0.010 A 
ATOM      4  C   UNL d   1       8.412   3.280   1.603  0.00  0.00     0.030 A 
ATOM      5  C   UNL d   1       8.968   3.839   0.448  0.00  0.00     0.031 A 
ATOM      6  C   UNL d   1       8.725   3.203  -0.776  0.00  0.00     0.030 A 
ATOM      7  C   UNL d   1       7.959   2.034  -0.841  0.00  0.00     0.010 A 
BRANCH   5   8
ATOM      8  N   UNL d   1       9.824   4.945   0.602  0.00  0.00    -0.365 N 
ATOM      9  C   UNL d   1       9.904   5.837  -0.332  0.00  0.00     0.099 C 
ATOM     10  HN  UNL d   1      10.383   5.043   1.450  1.00  0.00     0.165 HD
BRANCH   9  11
ATOM     11  C   UNL d   1      10.828   6.985  -0.234  0.00  0.00    -0.021 A 
ATOM     12  C   UNL d   1      11.594   7.204   0.913  0.00  0.00     0.015 A 
ATOM     13  C   UNL d   1      12.465   8.300   0.977  0.00  0.00     0.037 A 
ATOM     14  C   UNL d   1      12.571   9.175  -0.105  0.00  0.00     0.068 A 
ATOM     15  C   UNL d   1      11.806   8.942  -1.253  0.00  0.00     0.037 A 
ATOM     16  C   UNL d   1      10.935   7.852  -1.323  0.00  0.00     0.015 A 
BRANCH  14  17
ATOM     17  O   UNL d   1      13.368  10.284  -0.173  0.00  0.00    -0.356 OA
ATOM     18  C   UNL d   1      14.177  10.572   0.960  0.00  0.00     0.210 C 
ENDBRANCH  14  17
ENDBRANCH   9  11
ENDBRANCH   5   8
ENDBRANCH   1   2
BRANCH   1  19
ATOM     19  C   UNL d   1       5.249   0.153   0.155  0.00  0.00    -0.054 A 
ATOM     20  C   UNL d   1       4.622   0.200  -1.097  0.00  0.00     0.010 A 
ATOM     21  C   UNL d   1       3.226   0.132  -1.194  0.00  0.00     0.030 A 
ATOM     22  C   UNL d   1       2.427   0.025  -0.055  0.00  0.00     0.031 A 
ATOM     23  C   UNL d   1       3.057  -0.006   1.194  0.00  0.00     0.030 A 
ATOM     24  C   UNL d   1       4.450   0.074   1.301  0.00  0.00     0.010 A 
BRANCH  22  25
ATOM     25  N   UNL d   1       1.042  -0.148  -0.235  0.00  0.00    -0.365 N 
ATOM     26  C   UNL d   1       0.218   0.338   0.635  0.00  0.00     0.099 C 
ATOM     27  HN  UNL d   1       0.690  -0.654  -1.048  1.00  0.00     0.165 HD
BRANCH  26  28
ATOM     28  C   UNL d   1      -1.241   0.136   0.528  0.00  0.00    -0.021 A 
ATOM     29  C   UNL d   1      -1.806  -0.487  -0.588  0.00  0.00     0.015 A 
ATOM     30  C   UNL d   1      -3.191  -0.678  -0.657  0.00  0.00     0.037 A 
ATOM     31  C   UNL d   1      -4.008  -0.247   0.389  0.00  0.00     0.068 A 
ATOM     32  C   UNL d   1      -3.434   0.354   1.512  0.00  0.00     0.037 A 
ATOM     33  C   UNL d   1      -2.054   0.557   1.581  0.00  0.00     0.015 A 
BRANCH  31  34
ATOM     34  O   UNL d   1      -5.367  -0.400   0.445  0.00  0.00    -0.356 OA
ATOM     35  C   UNL d   1      -6.033  -0.427  -0.812  0.00  0.00     0.210 C 
ENDBRANCH  31  34
ENDBRANCH  26  28
ENDBRANCH  22  25
ENDBRANCH   1  19
TORSDOF 8
