REMARK  7 active torsions:
REMARK  status: ('A' for Active; 'I' for Inactive)
REMARK    1  A    between atoms: C_15  and  N_4 
REMARK    2  A    between atoms: S_14  and  C_10 
REMARK    3  A    between atoms: C_16  and  C_13 
REMARK    4  A    between atoms: C_19  and  S_14 
REMARK    5  A    between atoms: C_24  and  C_15 
REMARK    6  A    between atoms: C_17  and  C_19 
REMARK    7  A    between atoms: C_18  and  C_17 
ROOT
ATOM      1  C   UNL d   1      -0.567  -1.179   0.227  0.00  0.00     0.098 A 
ATOM      2  C   UNL d   1      -1.059  -2.521   0.284  0.00  0.00     0.152 A 
ATOM      3  N   UNL d   1      -2.221  -2.934   0.900  0.00  0.00    -0.314 N 
ATOM      4  N   UNL d   1       0.747  -0.769   0.159  0.00  0.00    -0.284 N 
ATOM      5  N   UNL d   1      -0.530  -3.554  -0.344  0.00  0.00    -0.281 N 
ATOM      6  HN  UNL d   1       0.368  -3.563  -0.828  1.00  0.00     0.188 HD
ATOM      7  N   UNL d   1       0.872   0.588   0.122  0.00  0.00    -0.301 N 
ATOM      8  HN  UNL d   1       1.734   1.132   0.114  1.00  0.00     0.187 HD
ATOM      9  C   UNL d   1      -1.306  -0.016   0.150  0.00  0.00     0.062 A 
ATOM     10  C   UNL d   1      -2.426  -4.221   0.480  0.00  0.00     0.163 A 
ATOM     11  N   UNL d   1      -1.399  -4.621  -0.232  0.00  0.00    -0.278 N 
ATOM     12  HN  UNL d   1      -1.268  -5.551  -0.632  1.00  0.00     0.189 HD
ATOM     13  C   UNL d   1      -0.383   1.050   0.098  0.00  0.00     0.036 A 
ATOM     14  C   UNL d   1      -3.044  -2.202   1.828  0.00  0.00     0.160 C 
ENDROOT
BRANCH   4  15
ATOM     15  C   UNL d   1       1.955  -1.572  -0.010  0.00  0.00     0.187 C 
BRANCH  15  16
ATOM     16  C   UNL d   1       2.700  -1.864   1.276  0.00  0.00    -0.038 A 
ATOM     17  C   UNL d   1       2.969  -3.193   1.639  0.00  0.00     0.012 A 
ATOM     18  C   UNL d   1       3.780  -3.481   2.743  0.00  0.00     0.043 A 
ATOM     19  C   UNL d   1       4.319  -2.440   3.488  0.00  0.00     0.116 A 
ATOM     20  C   UNL d   1       4.050  -1.117   3.163  0.00  0.00     0.043 A 
ATOM     21  F   UNL d   1       5.120  -2.717   4.526  0.00  0.00    -0.206 F 
ATOM     22  C   UNL d   1       3.243  -0.828   2.056  0.00  0.00     0.012 A 
ENDBRANCH  15  16
ENDBRANCH   4  15
BRANCH  10  23
ATOM     23  S   UNL d   1      -3.866  -5.114   0.842  0.00  0.00    -0.085 SA
BRANCH  23  24
ATOM     24  C   UNL d   1      -3.516  -6.694   0.024  0.00  0.00     0.166 C 
BRANCH  24  25
ATOM     25  C   UNL d   1      -4.692  -7.660   0.083  0.00  0.00     0.169 C 
ATOM     26  O   UNL d   1      -5.805  -7.370   0.523  0.00  0.00    -0.291 OA
BRANCH  25  27
ATOM     27  C   UNL d   1      -4.474  -9.055  -0.431  0.00  0.00     0.011 A 
ATOM     28  C   UNL d   1      -3.273  -9.443  -1.039  0.00  0.00     0.017 A 
ATOM     29  C   UNL d   1      -3.091 -10.762  -1.469  0.00  0.00     0.025 A 
ATOM     30  C   UNL d   1      -4.109 -11.698  -1.299  0.00  0.00     0.034 A 
ATOM     31  C   UNL d   1      -5.316 -11.322  -0.717  0.00  0.00     0.025 A 
ATOM     32 CL   UNL d   1      -3.865 -13.324  -1.804  0.00  0.00    -0.084 Cl
ATOM     33  C   UNL d   1      -5.501 -10.003  -0.286  0.00  0.00     0.017 A 
ENDBRANCH  25  27
ENDBRANCH  24  25
ENDBRANCH  23  24
ENDBRANCH  10  23
BRANCH  13  34
ATOM     34  C   UNL d   1      -0.717   2.531   0.028  0.00  0.00    -0.007 C 
ATOM     35  C   UNL d   1      -1.397   2.967   1.342  0.00  0.00     0.021 C 
ATOM     36  C   UNL d   1       0.530   3.409  -0.188  0.00  0.00     0.021 C 
ATOM     37  C   UNL d   1      -1.690   2.796  -1.143  0.00  0.00     0.021 C 
ENDBRANCH  13  34
TORSDOF 7
