REMARK  7 active torsions:
REMARK  status: ('A' for Active; 'I' for Inactive)
REMARK    1  A    between atoms: C_5  and  C_1 
REMARK    2  A    between atoms: C_21  and  N_2 
REMARK    3  A    between atoms: N_16  and  C_5 
REMARK    4  A    between atoms: O_11  and  N_7 
REMARK    5  A    between atoms: C_10  and  O_11 
REMARK    6  A    between atoms: C_12  and  C_10 
REMARK    7  A    between atoms: C_13  and  C_14 
ROOT
ATOM      1  C   UNL d   1       0.410  -1.292   0.779  0.00  0.00     0.127 C 
ATOM      2  N   UNL d   1       1.345  -2.155   1.046  0.00  0.00    -0.244 N 
ATOM      3  HN  UNL d   1       1.975  -2.096   1.845  1.00  0.00     0.196 HD
ENDROOT
BRANCH   2   4
ATOM      4  O   UNL d   1       1.369  -3.191   0.078  0.00  0.00    -0.193 OA
BRANCH   4   5
ATOM      5  C   UNL d   1       2.462  -3.991   0.264  0.00  0.00     0.315 C 
ATOM      6  O   UNL d   1       3.564  -3.639   0.660  0.00  0.00    -0.257 OA
BRANCH   5   7
ATOM      7  C   UNL d   1       2.133  -5.406  -0.098  0.00  0.00     0.041 A 
ATOM      8  C   UNL d   1       3.151  -6.365  -0.074  0.00  0.00     0.018 A 
ATOM      9  C   UNL d   1       2.877  -7.713  -0.364  0.00  0.00     0.009 A 
ATOM     10  C   UNL d   1       1.578  -8.148  -0.692  0.00  0.00    -0.051 A 
ATOM     11  C   UNL d   1       0.565  -7.173  -0.692  0.00  0.00     0.009 A 
ATOM     12  C   UNL d   1       0.834  -5.824  -0.402  0.00  0.00     0.018 A 
BRANCH  10  13
ATOM     13  C   UNL d   1       1.308  -9.623  -1.057  0.00  0.00    -0.024 C 
ATOM     14  C   UNL d   1      -0.168  -9.910  -1.419  0.00  0.00     0.019 C 
ATOM     15  C   UNL d   1       2.159 -10.017  -2.285  0.00  0.00     0.019 C 
ATOM     16  C   UNL d   1       1.674 -10.558   0.117  0.00  0.00     0.019 C 
ENDBRANCH  10  13
ENDBRANCH   5   7
ENDBRANCH   4   5
ENDBRANCH   2   4
BRANCH   1  17
ATOM     17  C   UNL d   1       0.076  -0.314   1.801  0.00  0.00     0.092 A 
ATOM     18  N   UNL d   1       0.859   0.178   2.817  0.00  0.00    -0.289 N 
ATOM     19  N   UNL d   1       0.204   1.034   3.636  0.00  0.00    -0.303 N 
ATOM     20  C   UNL d   1      -1.034   1.092   3.141  0.00  0.00     0.024 A 
ATOM     21  HN  UNL d   1       0.573   1.525   4.450  1.00  0.00     0.186 HD
ATOM     22  C   UNL d   1      -1.155   0.303   1.978  0.00  0.00     0.060 A 
ATOM     23  C   UNL d   1      -2.078   1.898   3.817  0.00  0.00     0.070 C 
BRANCH  18  24
ATOM     24  C   UNL d   1       2.275  -0.030   3.063  0.00  0.00     0.145 C 
ATOM     25  C   UNL d   1       2.532  -1.052   4.155  0.00  0.00     0.028 C 
ENDBRANCH  18  24
ENDBRANCH   1  17
BRANCH   1  26
ATOM     26  N   UNL d   1      -0.284  -1.298  -0.412  0.00  0.00    -0.285 NA
ATOM     27  H   UNL d   1      -0.620  -0.387  -0.701  0.00  0.00     0.125 HD
ATOM     28  H   UNL d   1       0.239  -1.768  -1.143  0.00  0.00     0.125 HD
ENDBRANCH   1  26
TORSDOF 7
