REMARK  4 active torsions:
REMARK  status: ('A' for Active; 'I' for Inactive)
REMARK    1  A    between atoms: C_6  and  C_1 
REMARK    2  A    between atoms: O_16  and  C_2 
REMARK    3  A    between atoms: C_14  and  N_3 
REMARK    4  A    between atoms: C_7  and  C_6 
ROOT
ATOM      1  C   UNL d   1      -0.212  -1.379   0.074  0.00  0.00     0.091 A 
ATOM      2  C   UNL d   1       1.075  -0.879  -0.060  0.00  0.00     0.178 A 
ATOM      3  N   UNL d   1       0.992   0.505   0.055  0.00  0.00    -0.233 N 
ATOM      4  N   UNL d   1      -0.281   0.888   0.341  0.00  0.00    -0.295 N 
ATOM      5  HN  UNL d   1      -0.612   1.835   0.521  1.00  0.00     0.187 HD
ATOM      6  C   UNL d   1      -1.008  -0.235   0.337  0.00  0.00     0.041 A 
ATOM      7  C   UNL d   1      -2.458  -0.135   0.655  0.00  0.00     0.071 C 
ENDROOT
BRANCH   1   8
ATOM      8  C   UNL d   1      -0.485  -2.807   0.032  0.00  0.00     0.203 C 
ATOM      9  O   UNL d   1       0.407  -3.600   0.335  0.00  0.00    -0.286 OA
BRANCH   8  10
ATOM     10  C   UNL d   1      -1.780  -3.290  -0.390  0.00  0.00     0.070 A 
ATOM     11  C   UNL d   1      -2.584  -2.868  -1.430  0.00  0.00     0.088 A 
ATOM     12  O   UNL d   1      -3.690  -3.659  -1.489  0.00  0.00    -0.242 OA
ATOM     13  C   UNL d   1      -2.496  -1.853  -2.498  0.00  0.00     0.080 C 
ATOM     14  N   UNL d   1      -3.607  -4.652  -0.539  0.00  0.00    -0.265 N 
ATOM     15  C   UNL d   1      -2.441  -4.460   0.086  0.00  0.00     0.045 A 
ATOM     16  HN  UNL d   1      -4.292  -5.384  -0.351  1.00  0.00     0.194 HD
ATOM     17  C   UNL d   1      -1.981  -5.422   1.119  0.00  0.00     0.071 C 
ENDBRANCH   8  10
ENDBRANCH   1   8
BRANCH   2  18
ATOM     18  O   UNL d   1       2.228  -1.536  -0.200  0.00  0.00    -0.344 OA
ATOM     19  H   UNL d   1       2.052  -2.488  -0.039  0.00  0.00     0.219 HD
ENDBRANCH   2  18
BRANCH   3  20
ATOM     20  C   UNL d   1       2.033   1.469  -0.047  0.00  0.00     0.059 A 
ATOM     21  C   UNL d   1       3.242   1.171  -0.694  0.00  0.00     0.031 A 
ATOM     22  C   UNL d   1       4.263   2.125  -0.757  0.00  0.00     0.002 A 
ATOM     23  C   UNL d   1       4.090   3.374  -0.167  0.00  0.00     0.000 A 
ATOM     24  C   UNL d   1       2.888   3.684   0.468  0.00  0.00     0.002 A 
ATOM     25  C   UNL d   1       1.855   2.743   0.515  0.00  0.00     0.031 A 
ENDBRANCH   3  20
TORSDOF 4
