REMARK  4 active torsions:
REMARK  status: ('A' for Active; 'I' for Inactive)
REMARK    1  A    between atoms: N_2  and  C_1 
REMARK    2  A    between atoms: N_3  and  C_1 
REMARK    3  A    between atoms: C_5  and  N_3 
REMARK    4  A    between atoms: C_9  and  C_4 
ROOT
ATOM      1  N   UNL d   1       0.470   0.685  -0.971  0.00  0.00    -0.349 N 
ATOM      2  C   UNL d   1       0.931   0.724  -2.371  0.00  0.00     0.121 C 
ATOM      3  C   UNL d   1      -0.655   1.601  -0.789  0.00  0.00     0.126 C 
ATOM      4  C   UNL d   1       0.413   2.079  -2.874  0.00  0.00     0.032 C 
ATOM      5  C   UNL d   1      -0.924   2.209  -2.158  0.00  0.00     0.022 C 
ENDROOT
BRANCH   1   6
ATOM      6  C   UNL d   1       0.856  -0.172   0.040  0.00  0.00     0.175 C 
ATOM      7  S   UNL d   1       2.397  -0.261   0.684  0.00  0.00    -0.041 SA
BRANCH   6   8
ATOM      8  N   UNL d   1      -0.138  -0.801   0.738  0.00  0.00    -0.332 N 
ATOM      9  H   UNL d   1       0.072  -0.970   1.717  0.00  0.00     0.168 HD
BRANCH   8  10
ATOM     10  C   UNL d   1      -1.179  -1.607   0.213  0.00  0.00     0.056 A 
ATOM     11  C   UNL d   1      -2.187  -2.070   1.078  0.00  0.00     0.062 A 
ATOM     12  C   UNL d   1      -3.198  -2.910   0.608  0.00  0.00     0.050 A 
ATOM     13 CL   UNL d   1      -2.224  -1.595   2.740  0.00  0.00    -0.082 Cl
ATOM     14  C   UNL d   1      -3.188  -3.317  -0.723  0.00  0.00     0.035 A 
ATOM     15  C   UNL d   1      -2.183  -2.890  -1.585  0.00  0.00     0.026 A 
ATOM     16 CL   UNL d   1      -4.416  -4.373  -1.303  0.00  0.00    -0.084 Cl
ATOM     17  C   UNL d   1      -1.181  -2.037  -1.115  0.00  0.00     0.033 A 
ENDBRANCH   8  10
ENDBRANCH   6   8
ENDBRANCH   1   6
BRANCH   2  18
ATOM     18  C   UNL d   1       2.380   0.483  -2.668  0.00  0.00    -0.020 A 
ATOM     19  C   UNL d   1       2.750  -0.617  -3.443  0.00  0.00     0.096 A 
ATOM     20  N   UNL d   1       4.023  -0.952  -3.747  0.00  0.00    -0.375 N 
ATOM     21  C   UNL d   1       4.989  -0.160  -3.239  0.00  0.00     0.087 A 
ATOM     22  HN  UNL d   1       4.242  -1.760  -4.330  1.00  0.00     0.164 HD
ATOM     23  C   UNL d   1       4.736   0.968  -2.476  0.00  0.00     0.018 A 
ATOM     24  C   UNL d   1       3.412   1.302  -2.204  0.00  0.00     0.012 A 
ENDBRANCH   2  18
TORSDOF 4
