REMARK  3 active torsions:
REMARK  status: ('A' for Active; 'I' for Inactive)
REMARK    1  A    between atoms: N_14  and  C_10 
REMARK    2  A    between atoms: C_16  and  N_14 
REMARK    3  A    between atoms: O_24  and  C_17 
ROOT
ATOM      1  S   UNL d   1      -1.020  -1.442   0.061  0.00  0.00     0.270 S 
ATOM      2  C   UNL d   1      -1.721  -0.203   2.292  0.00  0.00     0.101 A 
ATOM      3  N   UNL d   1      -1.447  -1.482   1.693  0.00  0.00    -0.269 N 
ATOM      4  C   UNL d   1      -2.016   0.955   1.578  0.00  0.00     0.057 A 
ATOM      5  C   UNL d   1      -2.088  -0.272  -0.558  0.00  0.00     0.146 C 
ATOM      6  C   UNL d   1      -2.075   1.024   0.115  0.00  0.00     0.210 C 
ATOM      7  S   UNL d   1      -1.780   0.043   3.974  0.00  0.00    -0.075 SA
ATOM      8  C   UNL d   1      -2.336   2.057   2.478  0.00  0.00    -0.032 A 
ATOM      9  C   UNL d   1      -2.220   1.676   3.805  0.00  0.00    -0.012 A 
ATOM     10  C   UNL d   1      -3.016  -0.567  -1.480  0.00  0.00     0.118 C 
ATOM     11  O   UNL d   1      -1.343  -2.747  -0.493  0.00  0.00    -0.200 OA
ATOM     12  O   UNL d   1       0.340  -0.950  -0.014  0.00  0.00    -0.200 OA
ATOM     13  O   UNL d   1      -2.224   2.062  -0.525  0.00  0.00    -0.286 OA
ATOM     14  C   UNL d   1      -1.132  -2.712   2.423  0.00  0.00     0.170 C 
ATOM     15  C   UNL d   1      -2.776   3.437   2.079  0.00  0.00     0.050 C 
ATOM     16  C   UNL d   1      -2.460   2.512   5.021  0.00  0.00     0.057 C 
ENDROOT
BRANCH  10  17
ATOM     17  N   UNL d   1      -3.977   0.276  -1.984  0.00  0.00    -0.364 N 
ATOM     18  H   UNL d   1      -3.852   1.271  -1.784  0.00  0.00     0.165 HD
BRANCH  17  19
ATOM     19  C   UNL d   1      -5.025  -0.042  -2.857  0.00  0.00     0.032 A 
ATOM     20  C   UNL d   1      -5.563  -1.329  -2.964  0.00  0.00     0.032 A 
ATOM     21  C   UNL d   1      -6.544  -1.625  -3.917  0.00  0.00     0.039 A 
ATOM     22  C   UNL d   1      -6.987  -0.638  -4.796  0.00  0.00     0.068 A 
ATOM     23  C   UNL d   1      -6.466   0.650  -4.687  0.00  0.00     0.039 A 
ATOM     24  C   UNL d   1      -5.498   0.947  -3.725  0.00  0.00     0.032 A 
BRANCH  22  25
ATOM     25  O   UNL d   1      -7.903  -0.803  -5.796  0.00  0.00    -0.356 OA
ATOM     26  C   UNL d   1      -8.432  -2.111  -5.969  0.00  0.00     0.210 C 
ENDBRANCH  22  25
ENDBRANCH  17  19
ENDBRANCH  10  17
TORSDOF 3
