REMARK  10 active torsions:
REMARK  status: ('A' for Active; 'I' for Inactive)
REMARK    1  A    between atoms: S_8  and  C_2 
REMARK    2  A    between atoms: C_14  and  C_7 
REMARK    3  A    between atoms: C_11  and  S_8 
REMARK    4  A    between atoms: C_9  and  C_11 
REMARK    5  A    between atoms: C_10  and  C_9 
REMARK    6  A    between atoms: S_15  and  C_14 
REMARK    7  A    between atoms: C_21  and  S_15 
REMARK    8  A    between atoms: C_16  and  O_17 
REMARK    9  A    between atoms: O_17  and  C_22 
REMARK   10  A    between atoms: C_22  and  C_21 
ROOT
ATOM      1  N   UNL d   1       0.889  -0.044   0.080  0.00  0.00    -0.319 N 
ATOM      2  C   UNL d   1      -0.003   0.992   0.082  0.00  0.00     0.162 A 
ATOM      3  N   UNL d   1      -1.227   0.523   0.042  0.00  0.00    -0.278 N 
ATOM      4  HN  UNL d   1      -2.084   1.076   0.050  1.00  0.00     0.189 HD
ATOM      5  N   UNL d   1      -1.147  -0.851  -0.012  0.00  0.00    -0.286 N 
ATOM      6  HN  UNL d   1      -1.936  -1.495  -0.064  1.00  0.00     0.188 HD
ATOM      7  C   UNL d   1       0.129  -1.190   0.013  0.00  0.00     0.109 A 
ATOM      8  C   UNL d   1       2.328  -0.001   0.136  0.00  0.00     0.159 C 
ENDROOT
BRANCH   7   9
ATOM      9  C   UNL d   1       0.683  -2.570  -0.029  0.00  0.00     0.151 C 
BRANCH   9  10
ATOM     10  S   UNL d   1       0.910  -3.267   1.643  0.00  0.00    -0.159 SA
BRANCH  10  11
ATOM     11  C   UNL d   1      -0.828  -3.324   2.227  0.00  0.00     0.101 C 
BRANCH  11  12
ATOM     12  C   UNL d   1      -1.715  -4.187   1.335  0.00  0.00     0.186 C 
BRANCH  12  13
ATOM     13  O   UNL d   1      -3.033  -4.262   1.883  0.00  0.00    -0.350 OA
BRANCH  13  14
ATOM     14  C   UNL d   1      -3.930  -5.002   1.155  0.00  0.00     0.068 A 
ATOM     15  C   UNL d   1      -3.654  -5.680  -0.036  0.00  0.00     0.037 A 
ATOM     16  C   UNL d   1      -4.649  -6.425  -0.673  0.00  0.00     0.003 A 
ATOM     17  C   UNL d   1      -5.927  -6.494  -0.125  0.00  0.00     0.000 A 
ATOM     18  C   UNL d   1      -6.213  -5.809   1.054  0.00  0.00     0.003 A 
ATOM     19  C   UNL d   1      -5.217  -5.064   1.690  0.00  0.00     0.037 A 
ENDBRANCH  13  14
ENDBRANCH  12  13
ENDBRANCH  11  12
ENDBRANCH  10  11
ENDBRANCH   9  10
ENDBRANCH   7   9
BRANCH   2  20
ATOM     20  S   UNL d   1       0.476   2.646   0.061  0.00  0.00    -0.085 SA
BRANCH  20  21
ATOM     21  C   UNL d   1      -1.011   3.526   0.640  0.00  0.00     0.161 C 
BRANCH  21  22
ATOM     22  C   UNL d   1      -0.791   5.042   0.540  0.00  0.00     0.144 C 
ATOM     23  O   UNL d   1       0.215   5.523   0.010  0.00  0.00    -0.296 OA
BRANCH  22  24
ATOM     24  C   UNL d   1      -1.829   5.995   1.183  0.00  0.00     0.010 C 
ATOM     25  C   UNL d   1      -1.434   6.222   2.647  0.00  0.00     0.022 C 
ATOM     26  C   UNL d   1      -1.775   7.337   0.429  0.00  0.00     0.022 C 
ATOM     27  C   UNL d   1      -3.262   5.461   1.109  0.00  0.00     0.022 C 
ENDBRANCH  22  24
ENDBRANCH  21  22
ENDBRANCH  20  21
ENDBRANCH   2  20
TORSDOF 10
