REMARK  6 active torsions:
REMARK  status: ('A' for Active; 'I' for Inactive)
REMARK    1  A    between atoms: C_5  and  C_1 
REMARK    2  A    between atoms: C_3  and  C_10 
REMARK    3  A    between atoms: O_20  and  C_5 
REMARK    4  A    between atoms: C_17  and  C_7 
REMARK    5  A    between atoms: N_12  and  O_15 
REMARK    6  A    between atoms: O_15  and  C_17 
ROOT
ATOM      1  C   UNL d   1       0.720  -5.375  -0.793  0.00  0.00     0.040 C 
ATOM      2  N   UNL d   1      -0.205  -4.645  -0.240  0.00  0.00    -0.270 N 
ATOM      3  HN  UNL d   1      -0.058  -3.710   0.139  1.00  0.00     0.194 HD
ATOM      4  C   UNL d   1       0.398  -6.726  -1.415  0.00  0.00     0.071 C 
ENDROOT
BRANCH   2   5
ATOM      5  O   UNL d   1      -1.434  -5.327  -0.238  0.00  0.00    -0.274 OA
BRANCH   5   6
ATOM      6  C   UNL d   1      -2.502  -4.397  -0.072  0.00  0.00     0.266 C 
BRANCH   6   7
ATOM      7  C   UNL d   1      -3.747  -5.205  -0.044  0.00  0.00     0.080 A 
ATOM      8  O   UNL d   1      -4.635  -5.004  -1.060  0.00  0.00    -0.307 OA
ATOM      9  C   UNL d   1      -5.687  -5.864  -0.869  0.00  0.00     0.150 A 
ATOM     10  C   UNL d   1      -5.466  -6.603   0.279  0.00  0.00     0.046 A 
ATOM     11  C   UNL d   1      -4.224  -6.179   0.809  0.00  0.00     0.038 A 
BRANCH   9  12
ATOM     12  C   UNL d   1      -6.786  -5.886  -1.805  0.00  0.00     0.316 C 
ATOM     13  O   UNL d   1      -7.773  -6.612  -1.723  0.00  0.00    -0.257 OA
BRANCH  12  14
ATOM     14  O   UNL d   1      -6.580  -4.980  -2.803  0.00  0.00    -0.321 OA
ATOM     15  C   UNL d   1      -7.618  -4.928  -3.780  0.00  0.00     0.213 C 
ENDBRANCH  12  14
ENDBRANCH   9  12
ENDBRANCH   6   7
ENDBRANCH   5   6
ENDBRANCH   2   5
BRANCH   1  16
ATOM     16  C   UNL d   1       2.129  -4.872  -0.870  0.00  0.00     0.010 A 
ATOM     17  C   UNL d   1       2.728  -4.109   0.149  0.00  0.00     0.048 A 
ATOM     18  C   UNL d   1       4.049  -3.658   0.009  0.00  0.00     0.048 A 
ATOM     19 CL   UNL d   1       1.952  -3.722   1.646  0.00  0.00    -0.083 Cl
ATOM     20  C   UNL d   1       4.780  -3.977  -1.132  0.00  0.00     0.035 A 
ATOM     21  C   UNL d   1       4.204  -4.733  -2.145  0.00  0.00     0.025 A 
ATOM     22 CL   UNL d   1       6.405  -3.436  -1.290  0.00  0.00    -0.084 Cl
ATOM     23  C   UNL d   1       2.881  -5.166  -2.022  0.00  0.00     0.017 A 
ENDBRANCH   1  16
TORSDOF 6
