REMARK  3 active torsions:
REMARK  status: ('A' for Active; 'I' for Inactive)
REMARK    1  A    between atoms: N_2  and  S_1 
REMARK    2  A    between atoms: C_9  and  S_1 
REMARK    3  A    between atoms: C_3  and  C_7 
ROOT
ATOM      1  N   UNL d   1       0.374  -1.185  -1.040  0.00  0.00    -0.188 N 
ATOM      2  N   UNL d   1       0.635  -2.515  -0.896  0.00  0.00    -0.284 N 
ATOM      3  HN  UNL d   1       1.211  -2.968  -0.187  1.00  0.00     0.188 HD
ATOM      4  C   UNL d   1      -0.038  -3.090  -1.898  0.00  0.00     0.063 A 
ATOM      5  C   UNL d   1      -0.490  -0.932  -2.080  0.00  0.00     0.131 A 
ATOM      6  C   UNL d   1      -0.745  -2.146  -2.675  0.00  0.00     0.052 A 
ENDROOT
BRANCH   1   7
ATOM      7  S   UNL d   1       0.965   0.076  -0.003  0.00  0.00     0.282 S 
ATOM      8  O   UNL d   1       0.390   1.308  -0.512  0.00  0.00    -0.198 OA
ATOM      9  O   UNL d   1       2.400  -0.121   0.088  0.00  0.00    -0.198 OA
BRANCH   7  10
ATOM     10  C   UNL d   1       0.245  -0.277   1.578  0.00  0.00     0.082 A 
ATOM     11  C   UNL d   1       0.607  -1.449   2.253  0.00  0.00     0.035 A 
ATOM     12  C   UNL d   1       0.035  -1.739   3.497  0.00  0.00    -0.021 A 
ATOM     13  C   UNL d   1       0.371  -3.002   4.229  0.00  0.00     0.051 C 
ATOM     14  C   UNL d   1      -0.876  -0.833   4.054  0.00  0.00     0.128 A 
ATOM     15  C   UNL d   1      -1.228   0.353   3.400  0.00  0.00    -0.021 A 
ATOM     16  F   UNL d   1      -1.426  -1.116   5.245  0.00  0.00    -0.205 F 
ATOM     17  C   UNL d   1      -0.654   0.631   2.152  0.00  0.00     0.035 A 
ATOM     18  C   UNL d   1      -2.209   1.310   4.009  0.00  0.00     0.051 C 
ENDBRANCH   7  10
ENDBRANCH   1   7
BRANCH   4  19
ATOM     19  C   UNL d   1      -0.045  -4.538  -2.140  0.00  0.00     0.023 A 
ATOM     20  C   UNL d   1       0.027  -5.535  -1.190  0.00  0.00     0.088 A 
ATOM     21  S   UNL d   1      -0.011  -7.101  -1.854  0.00  0.00    -0.065 SA
ATOM     22 CL   UNL d   1       0.102  -5.390   0.526  0.00  0.00    -0.075 Cl
ATOM     23  C   UNL d   1      -0.118  -6.471  -3.419  0.00  0.00     0.077 A 
ATOM     24  C   UNL d   1      -0.137  -5.099  -3.458  0.00  0.00     0.047 A 
ATOM     25 CL   UNL d   1      -0.192  -7.535  -4.764  0.00  0.00    -0.076 Cl
ENDBRANCH   4  19
TORSDOF 3
