REMARK  2 active torsions:
REMARK  status: ('A' for Active; 'I' for Inactive)
REMARK    1  A    between atoms: C_3  and  C_1 
REMARK       I    between atoms: N_5  and  C_1 
REMARK    2  A    between atoms: C_6  and  N_5 
ROOT
ATOM      1  C   UNL d   1       1.002   0.331  -0.259  0.00  0.00     0.259 C 
ATOM      2  N   UNL d   1       0.420   0.744   0.922  0.00  0.00    -0.321 N 
ATOM      3  O   UNL d   1       2.064   0.754  -0.708  0.00  0.00    -0.267 OA
ATOM      4  H   UNL d   1      -0.297   0.154   1.337  0.00  0.00     0.169 HD
ENDROOT
BRANCH   2   5
ATOM      5  C   UNL d   1       0.778   1.899   1.665  0.00  0.00     0.058 A 
ATOM      6  C   UNL d   1       0.367   2.024   3.008  0.00  0.00     0.084 A 
ATOM      7  C   UNL d   1       0.684   3.180   3.748  0.00  0.00     0.079 A 
ATOM      8 CL   UNL d   1      -0.511   0.707   3.736  0.00  0.00    -0.080 Cl
ATOM      9 CL   UNL d   1       0.217   3.320   5.417  0.00  0.00    -0.081 Cl
ATOM     10  C   UNL d   1       1.384   4.224   3.126  0.00  0.00     0.057 A 
ATOM     11  C   UNL d   1       1.774   4.110   1.792  0.00  0.00     0.028 A 
ATOM     12 CL   UNL d   1       1.794   5.695   3.940  0.00  0.00    -0.082 Cl
ATOM     13  C   UNL d   1       1.480   2.953   1.071  0.00  0.00     0.033 A 
ENDBRANCH   2   5
BRANCH   1  14
ATOM     14  C   UNL d   1       0.298  -0.727  -1.026  0.00  0.00     0.070 A 
ATOM     15  C   UNL d   1      -1.088  -0.887  -0.973  0.00  0.00     0.132 A 
ATOM     16  F   UNL d   1      -1.835  -0.155  -0.131  0.00  0.00    -0.205 F 
ATOM     17  C   UNL d   1      -1.734  -1.792  -1.811  0.00  0.00     0.043 A 
ATOM     18  C   UNL d   1      -0.992  -2.559  -2.710  0.00  0.00     0.003 A 
ATOM     19  C   UNL d   1       0.395  -2.426  -2.760  0.00  0.00     0.001 A 
ATOM     20  C   UNL d   1       1.038  -1.509  -1.926  0.00  0.00     0.020 A 
ENDBRANCH   1  14
TORSDOF 2
