REMARK  1 active torsions:
REMARK  status: ('A' for Active; 'I' for Inactive)
REMARK    1  A    between atoms: C_2  and  C_1 
ROOT
ATOM      1  C   UNL d   1      -0.010   0.906   2.223  0.00  0.00    -0.019 A 
ATOM      2  N   UNL d   1      -1.303   0.837   4.295  0.00  0.00    -0.375 N 
ATOM      3  HN  UNL d   1      -2.205   0.881   4.770  1.00  0.00     0.164 HD
ATOM      4  C   UNL d   1      -1.199   0.987   2.952  0.00  0.00     0.096 A 
ATOM      5  C   UNL d   1       1.154   0.727   2.988  0.00  0.00     0.012 A 
ATOM      6  C   UNL d   1      -0.159   0.626   4.974  0.00  0.00     0.087 A 
ATOM      7  C   UNL d   1       1.082   0.573   4.373  0.00  0.00     0.018 A 
ENDROOT
BRANCH   1   8
ATOM      8  C   UNL d   1       0.010   1.132   0.717  0.00  0.00     0.142 C 
ATOM      9  S   UNL d   1      -1.473   0.554  -0.190  0.00  0.00    -0.149 SA
ATOM     10  C   UNL d   1      -1.309  -1.236   0.060  0.00  0.00     0.076 C 
ATOM     11  C   UNL d   1      -0.036  -1.816  -0.539  0.00  0.00     0.020 C 
ATOM     12  C   UNL d   1       1.257  -1.278   0.058  0.00  0.00     0.076 C 
ATOM     13  S   UNL d   1       1.483   0.509  -0.174  0.00  0.00    -0.149 SA
ENDBRANCH   1   8
TORSDOF 1
