REMARK  7 active torsions:
REMARK  status: ('A' for Active; 'I' for Inactive)
REMARK    1  A    between atoms: C_8  and  C_1 
REMARK    2  A    between atoms: S_12  and  C_5 
REMARK    3  A    between atoms: C_7  and  C_10 
REMARK    4  A    between atoms: O_20  and  C_8 
REMARK    5  A    between atoms: C_10  and  C_15 
REMARK    6  A    between atoms: C_15  and  S_12 
REMARK    7  A    between atoms: C_23  and  O_20 
ROOT
ATOM      1  C   UNL d   1      -0.133  -1.145  -0.004  0.00  0.00     0.104 A 
ATOM      2  N   UNL d   1      -0.626   1.132  -0.228  0.00  0.00    -0.347 N 
ATOM      3  HN  UNL d   1      -1.203   1.973  -0.268  1.00  0.00     0.167 HD
ATOM      4  C   UNL d   1      -1.109  -0.157  -0.037  0.00  0.00     0.029 A 
ATOM      5  C   UNL d   1       0.681   1.111  -0.350  0.00  0.00     0.113 A 
ATOM      6  S   UNL d   1       1.419  -0.414  -0.136  0.00  0.00    -0.057 SA
ATOM      7  C   UNL d   1      -2.588  -0.328   0.035  0.00  0.00     0.070 C 
ENDROOT
BRANCH   5   8
ATOM      8  S   UNL d   1       1.596   2.544  -0.763  0.00  0.00    -0.097 SA
BRANCH   8   9
ATOM      9  C   UNL d   1       0.294   3.807  -0.638  0.00  0.00     0.165 C 
BRANCH   9  10
ATOM     10  C   UNL d   1       0.808   5.198  -0.978  0.00  0.00     0.170 C 
ATOM     11  O   UNL d   1       1.989   5.450  -1.212  0.00  0.00    -0.291 OA
BRANCH  10  12
ATOM     12  C   UNL d   1      -0.167   6.332  -1.120  0.00  0.00     0.032 A 
ATOM     13  C   UNL d   1      -1.340   6.515  -0.372  0.00  0.00     0.049 A 
ATOM     14  C   UNL d   1      -2.170   7.620  -0.618  0.00  0.00     0.048 A 
ATOM     15 CL   UNL d   1      -1.839   5.507   0.936  0.00  0.00    -0.083 Cl
ATOM     16  C   UNL d   1      -1.828   8.558  -1.587  0.00  0.00     0.035 A 
ATOM     17  C   UNL d   1      -0.654   8.413  -2.315  0.00  0.00     0.025 A 
ATOM     18 CL   UNL d   1      -2.854   9.907  -1.870  0.00  0.00    -0.084 Cl
ATOM     19  C   UNL d   1       0.169   7.306  -2.083  0.00  0.00     0.018 A 
ENDBRANCH  10  12
ENDBRANCH   9  10
ENDBRANCH   8   9
ENDBRANCH   5   8
BRANCH   1  20
ATOM     20  C   UNL d   1      -0.228  -2.587   0.036  0.00  0.00     0.302 C 
ATOM     21  O   UNL d   1       0.710  -3.378   0.020  0.00  0.00    -0.259 OA
BRANCH  20  22
ATOM     22  O   UNL d   1      -1.537  -2.963  -0.032  0.00  0.00    -0.317 OA
BRANCH  22  23
ATOM     23  C   UNL d   1      -1.784  -4.277  -0.549  0.00  0.00     0.174 C 
ATOM     24  C   UNL d   1      -1.853  -4.173  -2.064  0.00  0.00     0.034 C 
ENDBRANCH  22  23
ENDBRANCH  20  22
ENDBRANCH   1  20
TORSDOF 7
