REMARK  5 active torsions:
REMARK  status: ('A' for Active; 'I' for Inactive)
REMARK    1  A    between atoms: S_5  and  C_1 
REMARK    2  A    between atoms: C_9  and  S_5 
REMARK    3  A    between atoms: C_6  and  C_9 
REMARK    4  A    between atoms: O_20  and  C_11 
REMARK    5  A    between atoms: O_23  and  C_19 
ROOT
ATOM      1  S   UNL d   1      -3.891  -0.192   0.306  0.00  0.00     0.090 S 
ATOM      2  O   UNL d   1      -4.377   0.348   1.621  0.00  0.00    -0.249 OA
ENDROOT
BRANCH   1   3
ATOM      3  C   UNL d   1      -4.718  -1.706   0.102  0.00  0.00     0.176 A 
ATOM      4  N   UNL d   1      -4.904  -2.310  -1.052  0.00  0.00    -0.333 N 
ATOM      5  C   UNL d   1      -5.601  -3.453  -0.751  0.00  0.00     0.061 A 
ATOM      6  HN  UNL d   1      -4.597  -1.996  -1.973  1.00  0.00     0.168 HD
ATOM      7  C   UNL d   1      -6.093  -4.454  -1.598  0.00  0.00     0.035 A 
ATOM      8  C   UNL d   1      -5.809  -3.564   0.621  0.00  0.00     0.063 A 
ATOM      9  C   UNL d   1      -6.758  -5.555  -1.035  0.00  0.00     0.039 A 
ATOM     10  C   UNL d   1      -6.923  -5.665   0.350  0.00  0.00     0.070 A 
ATOM     11  C   UNL d   1      -6.449  -4.659   1.207  0.00  0.00     0.068 A 
ATOM     12  N   UNL d   1      -5.261  -2.417   1.137  0.00  0.00    -0.333 N 
ATOM     13  H   UNL d   1      -5.238  -2.133   2.108  0.00  0.00     0.168 HD
BRANCH  10  14
ATOM     14  O   UNL d   1      -7.525  -6.712   0.998  0.00  0.00    -0.356 OA
ATOM     15  C   UNL d   1      -8.107  -7.726   0.189  0.00  0.00     0.210 C 
ENDBRANCH  10  14
ENDBRANCH   1   3
BRANCH   1  16
ATOM     16  C   UNL d   1      -4.606   0.670  -1.112  0.00  0.00     0.175 C 
BRANCH  16  17
ATOM     17  C   UNL d   1      -4.124   2.096  -1.220  0.00  0.00     0.029 A 
ATOM     18  C   UNL d   1      -4.842   3.188  -0.703  0.00  0.00    -0.005 A 
ATOM     19  C   UNL d   1      -4.338   4.476  -0.976  0.00  0.00     0.083 A 
ATOM     20  C   UNL d   1      -6.100   2.996   0.094  0.00  0.00     0.053 C 
ATOM     21  C   UNL d   1      -3.110   4.639  -1.627  0.00  0.00    -0.013 A 
ATOM     22  C   UNL d   1      -2.462   3.491  -2.051  0.00  0.00     0.097 A 
ATOM     23  C   UNL d   1      -2.525   5.987  -1.917  0.00  0.00     0.052 C 
ATOM     24  N   UNL d   1      -2.944   2.244  -1.881  0.00  0.00    -0.367 N 
ATOM     25  HN  UNL d   1      -2.438   1.433  -2.237  1.00  0.00     0.165 HD
BRANCH  19  26
ATOM     26  O   UNL d   1      -4.943   5.631  -0.539  0.00  0.00    -0.355 OA
ATOM     27  C   UNL d   1      -6.285   5.810  -0.988  0.00  0.00     0.210 C 
ENDBRANCH  19  26
ENDBRANCH  16  17
ENDBRANCH   1  16
TORSDOF 5
