REMARK  4 active torsions:
REMARK  status: ('A' for Active; 'I' for Inactive)
REMARK    1  A    between atoms: S_13  and  C_1 
REMARK    2  A    between atoms: C_2  and  S_14 
REMARK    3  A    between atoms: C_15  and  S_13 
REMARK    4  A    between atoms: S_14  and  C_16 
ROOT
ATOM      1  C   UNL d   1       2.185   3.021  -0.376  0.00  0.00     0.027 A 
ATOM      2  C   UNL d   1       2.796   3.571   0.771  0.00  0.00     0.027 A 
ATOM      3  C   UNL d   1       5.002   3.181  -0.234  0.00  0.00     0.066 A 
ATOM      4  C   UNL d   1       4.394   2.591  -1.346  0.00  0.00     0.066 A 
ATOM      5  N   UNL d   1       5.775   1.576  -3.296  0.00  0.00    -0.191 NA
ATOM      6  N   UNL d   1       7.580   3.392  -0.021  0.00  0.00    -0.191 NA
ATOM      7  C   UNL d   1       5.168   2.041  -2.423  0.00  0.00     0.101 C 
ATOM      8  C   UNL d   1       6.429   3.289  -0.119  0.00  0.00     0.101 C 
ATOM      9  C   UNL d   1       4.202   3.676   0.806  0.00  0.00     0.044 A 
ATOM     10  C   UNL d   1       2.994   2.524  -1.416  0.00  0.00     0.044 A 
ENDROOT
BRANCH   1  11
ATOM     11  S   UNL d   1       0.403   2.867  -0.583  0.00  0.00    -0.051 SA
BRANCH  11  12
ATOM     12  C   UNL d   1       0.101   4.279  -1.543  0.00  0.00     0.167 A 
ATOM     13  N   UNL d   1      -1.116   4.590  -2.084  0.00  0.00    -0.326 N 
ATOM     14  C   UNL d   1      -0.929   5.761  -2.761  0.00  0.00     0.201 A 
ATOM     15  C   UNL d   1      -2.368   3.885  -2.019  0.00  0.00     0.159 C 
ATOM     16  N   UNL d   1       0.321   6.144  -2.643  0.00  0.00    -0.294 N 
ATOM     17  N   UNL d   1       0.972   5.207  -1.874  0.00  0.00    -0.279 N 
ATOM     18  HN  UNL d   1       0.735   6.984  -3.048  1.00  0.00     0.187 HD
ATOM     19  HN  UNL d   1       1.956   5.228  -1.607  1.00  0.00     0.189 HD
ENDBRANCH  11  12
ENDBRANCH   1  11
BRANCH   2  20
ATOM     20  S   UNL d   1       1.852   4.185   2.174  0.00  0.00    -0.051 SA
BRANCH  20  21
ATOM     21  C   UNL d   1       2.592   3.312   3.477  0.00  0.00     0.167 A 
ATOM     22  N   UNL d   1       2.385   3.595   4.797  0.00  0.00    -0.326 N 
ATOM     23  C   UNL d   1       3.168   2.718   5.490  0.00  0.00     0.201 A 
ATOM     24  C   UNL d   1       1.536   4.584   5.405  0.00  0.00     0.159 C 
ATOM     25  N   UNL d   1       3.806   1.937   4.651  0.00  0.00    -0.294 N 
ATOM     26  N   UNL d   1       3.433   2.305   3.379  0.00  0.00    -0.279 N 
ATOM     27  HN  UNL d   1       4.459   1.193   4.896  1.00  0.00     0.187 HD
ATOM     28  HN  UNL d   1       3.753   1.874   2.512  1.00  0.00     0.189 HD
ENDBRANCH  20  21
ENDBRANCH   2  20
TORSDOF 4
