REMARK  3 active torsions:
REMARK  status: ('A' for Active; 'I' for Inactive)
REMARK    1  A    between atoms: C_2  and  C_1 
REMARK    2  A    between atoms: C_16  and  N_3 
REMARK    3  A    between atoms: C_9  and  C_4 
ROOT
ATOM      1  C   UNL d   1      -0.431  -2.701  -0.067  0.00  0.00     0.065 A 
ATOM      2  C   UNL d   1      -1.191  -3.353  -1.008  0.00  0.00     0.124 A 
ATOM      3  N   UNL d   1      -0.548  -4.897   0.507  0.00  0.00    -0.271 N 
ATOM      4  HN  UNL d   1      -0.424  -5.781   1.000  1.00  0.00     0.194 HD
ATOM      5  O   UNL d   1      -1.271  -4.674  -0.654  0.00  0.00    -0.236 OA
ATOM      6  C   UNL d   1      -0.050  -3.706   0.843  0.00  0.00     0.132 A 
ENDROOT
BRANCH   1   7
ATOM      7  C   UNL d   1      -0.104  -1.257  -0.028  0.00  0.00     0.153 C 
ATOM      8  N   UNL d   1       1.022  -0.666   0.515  0.00  0.00    -0.224 N 
ATOM      9  N   UNL d   1       0.768   0.651   0.676  0.00  0.00     0.001 NA
ATOM     10  N   UNL d   1      -0.367   0.874   0.026  0.00  0.00    -0.007 NA
ATOM     11  N   UNL d   1      -0.908  -0.297  -0.440  0.00  0.00    -0.269 N 
ATOM     12  HN  UNL d   1      -1.758  -0.404  -0.992  1.00  0.00     0.185 HD
BRANCH   8  13
ATOM     13  C   UNL d   1       2.301  -1.217   0.741  0.00  0.00     0.056 A 
ATOM     14  C   UNL d   1       2.760  -2.282  -0.051  0.00  0.00     0.031 A 
ATOM     15  C   UNL d   1       4.017  -2.835   0.185  0.00  0.00     0.002 A 
ATOM     16  C   UNL d   1       4.815  -2.330   1.209  0.00  0.00     0.000 A 
ATOM     17  C   UNL d   1       4.372  -1.252   1.978  0.00  0.00     0.002 A 
ATOM     18  C   UNL d   1       3.123  -0.677   1.734  0.00  0.00     0.031 A 
ENDBRANCH   8  13
ENDBRANCH   1   7
BRANCH   2  19
ATOM     19  C   UNL d   1      -1.790  -3.017  -2.289  0.00  0.00     0.003 A 
ATOM     20  C   UNL d   1      -1.190  -2.066  -3.130  0.00  0.00     0.040 A 
ATOM     21  C   UNL d   1      -1.735  -1.759  -4.380  0.00  0.00     0.056 A 
ATOM     22 CL   UNL d   1      -0.917  -0.581  -5.341  0.00  0.00    -0.083 Cl
ATOM     23  C   UNL d   1      -2.893  -2.411  -4.811  0.00  0.00     0.055 A 
ATOM     24  C   UNL d   1      -3.497  -3.365  -3.988  0.00  0.00     0.026 A 
ATOM     25 CL   UNL d   1      -3.616  -2.096  -6.346  0.00  0.00    -0.083 Cl
ATOM     26  C   UNL d   1      -2.950  -3.668  -2.736  0.00  0.00     0.016 A 
ENDBRANCH   2  19
TORSDOF 3
