REMARK  6 active torsions:
REMARK  status: ('A' for Active; 'I' for Inactive)
REMARK    1  A    between atoms: C_2  and  C_1 
REMARK    2  A    between atoms: C_7  and  C_16 
REMARK    3  A    between atoms: C_14  and  C_9 
REMARK       I    between atoms: C_13  and  N_19 
REMARK       I    between atoms: N_18  and  C_13 
REMARK    4  A    between atoms: C_17  and  C_14 
REMARK       I    between atoms: N_20  and  C_17 
REMARK    5  A    between atoms: C_23  and  N_18 
REMARK    6  A    between atoms: N_19  and  N_20 
ROOT
ATOM      1  C   UNL d   1       2.554  -5.046  -2.778  0.00  0.00     0.237 C 
ATOM      2  N   UNL d   1       1.961  -3.920  -3.321  0.00  0.00    -0.283 N 
ATOM      3  O   UNL d   1       2.423  -5.335  -1.585  0.00  0.00    -0.272 OA
ATOM      4  H   UNL d   1       1.781  -3.926  -4.330  0.00  0.00     0.184 HD
ENDROOT
BRANCH   2   5
ATOM      5  N   UNL d   1       1.050  -3.233  -2.479  0.00  0.00    -0.152 NA
ATOM      6  C   UNL d   1       1.084  -1.853  -2.405  0.00  0.00     0.317 C 
ATOM      7  N   UNL d   1       1.313  -1.234  -3.612  0.00  0.00    -0.312 N 
ATOM      8  O   UNL d   1       0.859  -1.293  -1.336  0.00  0.00    -0.252 OA
ATOM      9  H   UNL d   1       1.080  -1.804  -4.413  0.00  0.00     0.170 HD
ATOM     10  H   UNL d   1       0.969  -3.657  -1.552  0.00  0.00     0.157 HD
BRANCH   7  11
ATOM     11  C   UNL d   1       1.462   0.152  -3.806  0.00  0.00     0.036 A 
ATOM     12  C   UNL d   1       1.125   0.675  -5.055  0.00  0.00     0.045 A 
ATOM     13  C   UNL d   1       1.226   2.057  -5.313  0.00  0.00     0.050 A 
ATOM     14  C   UNL d   1       1.730   2.897  -4.312  0.00  0.00     0.016 A 
ATOM     15  C   UNL d   1       2.098   2.375  -3.074  0.00  0.00     0.003 A 
ATOM     16  C   UNL d   1       1.949   1.008  -2.816  0.00  0.00     0.029 A 
BRANCH  13  17
ATOM     17  C   UNL d   1       0.782   2.630  -6.633  0.00  0.00     0.417 C 
ATOM     18  F   UNL d   1       0.184   1.715  -7.451  0.00  0.00    -0.166 F 
ATOM     19  F   UNL d   1      -0.121   3.640  -6.490  0.00  0.00    -0.166 F 
ATOM     20  F   UNL d   1       1.816   3.150  -7.351  0.00  0.00    -0.166 F 
ENDBRANCH  13  17
ENDBRANCH   7  11
ENDBRANCH   2   5
BRANCH   1  21
ATOM     21  C   UNL d   1       3.474  -5.846  -3.680  0.00  0.00     0.161 C 
BRANCH  21  22
ATOM     22  C   UNL d   1       3.022  -6.032  -5.094  0.00  0.00     0.025 A 
ATOM     23  N   UNL d   1       2.217  -5.081  -5.703  0.00  0.00    -0.351 N 
ATOM     24  C   UNL d   1       1.898  -5.457  -6.928  0.00  0.00     0.101 A 
ATOM     25  HN  UNL d   1       1.913  -4.211  -5.266  1.00  0.00     0.166 HD
ATOM     26  S   UNL d   1       2.634  -6.920  -7.450  0.00  0.00    -0.080 SA
ATOM     27  C   UNL d   1       3.368  -7.092  -5.914  0.00  0.00     0.077 A 
BRANCH  24  28
ATOM     28  C   UNL d   1       0.930  -4.654  -7.758  0.00  0.00     0.073 A 
ATOM     29  N   UNL d   1       0.401  -3.461  -7.274  0.00  0.00    -0.352 N 
ATOM     30  C   UNL d   1      -0.464  -2.975  -8.138  0.00  0.00     0.047 A 
ATOM     31  HN  UNL d   1       0.647  -3.028  -6.384  1.00  0.00     0.166 HD
ATOM     32  C   UNL d   1      -1.250  -1.728  -7.930  0.00  0.00     0.076 C 
ATOM     33  S   UNL d   1      -0.680  -3.894  -9.573  0.00  0.00    -0.087 SA
ATOM     34  C   UNL d   1       0.465  -5.035  -9.001  0.00  0.00     0.083 A 
ENDBRANCH  24  28
ENDBRANCH  21  22
ENDBRANCH   1  21
TORSDOF 6
