REMARK  6 active torsions:
REMARK  status: ('A' for Active; 'I' for Inactive)
REMARK    1  A    between atoms: C_2  and  S_1 
REMARK    2  A    between atoms: N_3  and  S_1 
REMARK    3  A    between atoms: C_11  and  N_3 
REMARK    4  A    between atoms: C_12  and  N_3 
REMARK    5  A    between atoms: C_6  and  C_12 
REMARK    6  A    between atoms: C_7  and  C_11 
ROOT
ATOM      1  N   UNL d   1       0.697  -0.496   1.336  0.00  0.00    -0.298 N 
ENDROOT
BRANCH   1   2
ATOM      2  S   UNL d   1       1.408   0.013  -0.134  0.00  0.00     0.262 S 
ATOM      3  O   UNL d   1       1.075   1.405  -0.306  0.00  0.00    -0.200 OA
ATOM      4  O   UNL d   1       2.811  -0.347  -0.142  0.00  0.00    -0.200 OA
BRANCH   2   5
ATOM      5  C   UNL d   1       0.643  -0.980  -1.537  0.00  0.00     0.092 C 
ATOM      6  C   UNL d   1      -0.059  -0.345  -2.616  0.00  0.00    -0.032 C 
ATOM      7  C   UNL d   1      -0.461  -1.128  -3.758  0.00  0.00    -0.048 C 
ATOM      8  C   UNL d   1      -0.307   1.140  -2.713  0.00  0.00     0.050 C 
ATOM      9  C   UNL d   1      -0.961  -0.489  -5.045  0.00  0.00     0.049 C 
ATOM     10  C   UNL d   1      -0.365  -2.541  -3.744  0.00  0.00    -0.049 C 
ATOM     11  C   UNL d   1       0.275  -3.171  -2.666  0.00  0.00    -0.048 C 
ATOM     12  C   UNL d   1      -0.867  -3.342  -4.932  0.00  0.00     0.049 C 
ATOM     13  C   UNL d   1       0.912  -2.377  -1.660  0.00  0.00    -0.032 C 
ATOM     14  C   UNL d   1       0.352  -4.687  -2.638  0.00  0.00     0.049 C 
ATOM     15  C   UNL d   1       1.949  -3.126  -0.865  0.00  0.00     0.050 C 
ENDBRANCH   2   5
ENDBRANCH   1   2
BRANCH   1  16
ATOM     16  C   UNL d   1       1.022  -1.828   1.921  0.00  0.00     0.177 C 
BRANCH  16  17
ATOM     17  C   UNL d   1       2.434  -2.239   2.339  0.00  0.00     0.004 A 
ATOM     18  C   UNL d   1       3.489  -1.388   2.724  0.00  0.00     0.043 A 
ATOM     19 CL   UNL d   1       3.437   0.333   2.767  0.00  0.00    -0.084 Cl
ATOM     20  C   UNL d   1       4.741  -1.893   3.125  0.00  0.00     0.024 A 
ATOM     21  C   UNL d   1       5.005  -3.249   3.112  0.00  0.00     0.003 A 
ATOM     22  C   UNL d   1       3.990  -4.123   2.761  0.00  0.00     0.024 A 
ATOM     23  C   UNL d   1       2.713  -3.632   2.444  0.00  0.00     0.043 A 
ATOM     24 CL   UNL d   1       1.491  -4.854   2.254  0.00  0.00    -0.084 Cl
ENDBRANCH  16  17
ENDBRANCH   1  16
BRANCH   1  25
ATOM     25  C   UNL d   1       0.191   0.411   2.421  0.00  0.00     0.177 C 
BRANCH  25  26
ATOM     26  C   UNL d   1      -0.269   1.845   2.257  0.00  0.00     0.004 A 
ATOM     27  C   UNL d   1      -1.393   2.160   1.474  0.00  0.00     0.043 A 
ATOM     28 CL   UNL d   1      -2.253   0.948   0.583  0.00  0.00    -0.084 Cl
ATOM     29  C   UNL d   1      -1.930   3.455   1.458  0.00  0.00     0.024 A 
ATOM     30  C   UNL d   1      -1.375   4.468   2.235  0.00  0.00     0.003 A 
ATOM     31  C   UNL d   1      -0.279   4.179   3.036  0.00  0.00     0.024 A 
ATOM     32  C   UNL d   1       0.259   2.888   3.060  0.00  0.00     0.043 A 
ATOM     33 CL   UNL d   1       1.504   2.651   4.242  0.00  0.00    -0.084 Cl
ENDBRANCH  25  26
ENDBRANCH   1  25
TORSDOF 6
