REMARK  8 active torsions:
REMARK  status: ('A' for Active; 'I' for Inactive)
REMARK    1  A    between atoms: C_4  and  C_1 
REMARK    2  A    between atoms: O_12  and  C_4 
REMARK    3  A    between atoms: C_13  and  C_5 
REMARK    4  A    between atoms: C_6  and  C_13 
REMARK    5  A    between atoms: N_9  and  O_12 
REMARK    6  A    between atoms: C_14  and  C_11 
REMARK    7  A    between atoms: N_24  and  C_11 
REMARK    8  A    between atoms: C_17  and  C_18 
ROOT
ATOM      1  C   UNL d   1       0.207   1.508  -0.103  0.00  0.00     0.332 C 
ATOM      2  O   UNL d   1       0.801   1.106  -1.104  0.00  0.00    -0.256 OA
ENDROOT
BRANCH   1   3
ATOM      3  C   UNL d   1      -0.224   0.602   0.969  0.00  0.00     0.117 A 
ATOM      4  N   UNL d   1      -1.272   0.903   1.850  0.00  0.00    -0.348 N 
ATOM      5  C   UNL d   1      -1.470  -0.094   2.693  0.00  0.00     0.055 A 
ATOM      6  HN  UNL d   1      -1.806   1.772   1.842  1.00  0.00     0.166 HD
ATOM      7  S   UNL d   1      -0.390  -1.421   2.519  0.00  0.00    -0.086 SA
ATOM      8  C   UNL d   1       0.369  -0.627   1.208  0.00  0.00     0.087 A 
BRANCH   5   9
ATOM      9  C   UNL d   1      -2.581  -0.146   3.711  0.00  0.00     0.107 C 
BRANCH   9  10
ATOM     10  C   UNL d   1      -2.205   0.476   5.042  0.00  0.00    -0.009 A 
ATOM     11  C   UNL d   1      -2.400   1.850   5.284  0.00  0.00     0.042 A 
ATOM     12 CL   UNL d   1      -3.200   2.886   4.151  0.00  0.00    -0.084 Cl
ATOM     13  C   UNL d   1      -1.973   2.443   6.478  0.00  0.00     0.024 A 
ATOM     14  C   UNL d   1      -1.355   1.680   7.463  0.00  0.00     0.003 A 
ATOM     15  C   UNL d   1      -1.182   0.316   7.261  0.00  0.00     0.024 A 
ATOM     16  C   UNL d   1      -1.603  -0.282   6.067  0.00  0.00     0.042 A 
ATOM     17 CL   UNL d   1      -1.364  -1.992   5.942  0.00  0.00    -0.084 Cl
ENDBRANCH   9  10
ENDBRANCH   5   9
ENDBRANCH   1   3
BRANCH   1  18
ATOM     18  O   UNL d   1      -0.067   2.833   0.171  0.00  0.00    -0.192 OA
BRANCH  18  19
ATOM     19  N   UNL d   1       1.075   3.611  -0.155  0.00  0.00    -0.246 N 
ATOM     20  C   UNL d   1       0.862   4.886  -0.006  0.00  0.00     0.109 C 
ATOM     21  HN  UNL d   1       1.961   3.217  -0.471  1.00  0.00     0.196 HD
BRANCH  20  22
ATOM     22  C   UNL d   1       2.041   5.806  -0.115  0.00  0.00     0.004 A 
ATOM     23  C   UNL d   1       3.146   5.469  -0.896  0.00  0.00     0.015 A 
ATOM     24  C   UNL d   1       4.253   6.332  -0.972  0.00  0.00     0.009 A 
ATOM     25  C   UNL d   1       4.291   7.544  -0.257  0.00  0.00    -0.051 A 
ATOM     26  C   UNL d   1       3.163   7.860   0.523  0.00  0.00     0.009 A 
ATOM     27  C   UNL d   1       2.058   7.005   0.603  0.00  0.00     0.015 A 
BRANCH  25  28
ATOM     28  C   UNL d   1       5.538   8.452  -0.290  0.00  0.00    -0.024 C 
ATOM     29  C   UNL d   1       5.379   9.705   0.601  0.00  0.00     0.019 C 
ATOM     30  C   UNL d   1       6.767   7.668   0.219  0.00  0.00     0.019 C 
ATOM     31  C   UNL d   1       5.841   8.948  -1.720  0.00  0.00     0.019 C 
ENDBRANCH  25  28
ENDBRANCH  20  22
BRANCH  20  32
ATOM     32  N   UNL d   1      -0.370   5.451   0.243  0.00  0.00    -0.286 NA
ATOM     33  H   UNL d   1      -1.137   4.826   0.012  0.00  0.00     0.125 HD
ATOM     34  H   UNL d   1      -0.503   6.375  -0.137  0.00  0.00     0.125 HD
ENDBRANCH  20  32
ENDBRANCH  18  19
ENDBRANCH   1  18
TORSDOF 8
