REMARK  3 active torsions:
REMARK  status: ('A' for Active; 'I' for Inactive)
REMARK    1  A    between atoms: C_18  and  C_8 
REMARK    2  A    between atoms: C_11  and  S_14 
REMARK    3  A    between atoms: S_14  and  C_18 
ROOT
ATOM      1  C   UNL d   1      -0.249   0.570   0.092  0.00  0.00     0.178 A 
ATOM      2  C   UNL d   1      -0.242  -0.757   0.440  0.00  0.00     0.048 A 
ATOM      3  C   UNL d   1       0.907  -1.202   1.151  0.00  0.00    -0.040 A 
ATOM      4  O   UNL d   1       0.659   1.510   0.296  0.00  0.00    -0.256 OA
ATOM      5  N   UNL d   1      -1.426   0.792  -0.551  0.00  0.00    -0.279 N 
ATOM      6  N   UNL d   1      -2.187  -0.314  -0.652  0.00  0.00    -0.301 N 
ATOM      7  HN  UNL d   1      -3.111  -0.397  -1.077  1.00  0.00     0.186 HD
ATOM      8  C   UNL d   1      -1.458  -1.288  -0.066  0.00  0.00     0.050 A 
ATOM      9  C   UNL d   1       1.791   1.104   0.945  0.00  0.00     0.290 A 
ATOM     10  C   UNL d   1       1.886  -0.313   1.398  0.00  0.00     0.090 A 
ATOM     11  O   UNL d   1       2.716   1.874   1.176  0.00  0.00    -0.260 OA
ATOM     12  C   UNL d   1       0.970  -2.615   1.625  0.00  0.00     0.049 C 
ATOM     13  H   UNL d   1      -1.768   1.665  -0.938  0.00  0.00     0.189 HD
ENDROOT
BRANCH   8  14
ATOM     14  C   UNL d   1      -2.022  -2.682  -0.034  0.00  0.00     0.139 C 
BRANCH  14  15
ATOM     15  S   UNL d   1      -1.037  -3.814  -1.082  0.00  0.00    -0.123 SA
BRANCH  15  16
ATOM     16  C   UNL d   1      -2.027  -5.311  -1.061  0.00  0.00     0.007 A 
ATOM     17  C   UNL d   1      -3.305  -5.282  -1.647  0.00  0.00     0.027 A 
ATOM     18  C   UNL d   1      -4.051  -6.457  -1.857  0.00  0.00    -0.039 A 
ATOM     19  C   UNL d   1      -5.393  -6.374  -2.528  0.00  0.00     0.050 C 
ATOM     20  C   UNL d   1      -3.478  -7.682  -1.500  0.00  0.00     0.040 A 
ATOM     21  C   UNL d   1      -2.226  -7.722  -0.884  0.00  0.00     0.032 A 
ATOM     22 CL   UNL d   1      -4.263  -9.185  -1.832  0.00  0.00    -0.084 Cl
ATOM     23  C   UNL d   1      -1.497  -6.544  -0.634  0.00  0.00    -0.044 A 
ATOM     24  C   UNL d   1      -0.146  -6.696   0.011  0.00  0.00     0.049 C 
ENDBRANCH  15  16
ENDBRANCH  14  15
ENDBRANCH   8  14
TORSDOF 3
