REMARK  2 active torsions:
REMARK  status: ('A' for Active; 'I' for Inactive)
REMARK    1  A    between atoms: N_5  and  C_2 
REMARK    2  A    between atoms: N_13  and  C_4 
ROOT
ATOM      1  C   UNL d   1      -2.011  -0.820  -0.635  0.00  0.00     0.120 A 
ATOM      2  C   UNL d   1      -1.192  -1.453   0.317  0.00  0.00     0.134 A 
ATOM      3  C   UNL d   1      -1.991   0.642  -0.793  0.00  0.00     0.109 A 
ATOM      4  C   UNL d   1      -1.161   1.501  -0.005  0.00  0.00     0.042 A 
ATOM      5  C   UNL d   1      -0.375  -0.619   1.103  0.00  0.00     0.040 A 
ATOM      6  N   UNL d   1      -2.894  -1.306  -1.520  0.00  0.00    -0.237 N 
ATOM      7  HN  UNL d   1      -3.134  -2.287  -1.662  1.00  0.00     0.197 HD
ATOM      8  N   UNL d   1      -2.869   0.958  -1.756  0.00  0.00    -0.238 N 
ATOM      9  HN  UNL d   1      -3.091   1.894  -2.096  1.00  0.00     0.197 HD
ATOM     10  C   UNL d   1      -0.372   0.790   0.942  0.00  0.00     0.028 A 
ATOM     11  O   UNL d   1      -3.413  -0.227  -2.197  0.00  0.00    -0.156 OA
ENDROOT
BRANCH   4  12
ATOM     12  N   UNL d   1      -1.007   2.905  -0.092  0.00  0.00    -0.281 NA
ATOM     13  C   UNL d   1      -1.354   3.499  -1.396  0.00  0.00     0.096 C 
ATOM     14  C   UNL d   1      -0.843   4.938  -1.441  0.00  0.00     0.015 C 
ATOM     15  C   UNL d   1      -1.425   5.756  -0.290  0.00  0.00     0.002 C 
ATOM     16  C   UNL d   1      -1.157   5.074   1.051  0.00  0.00     0.015 C 
ATOM     17  C   UNL d   1      -1.615   3.614   1.050  0.00  0.00     0.096 C 
ENDBRANCH   4  12
BRANCH   2  18
ATOM     18  N   UNL d   1      -1.181  -2.894   0.473  0.00  0.00    -0.113 N 
ATOM     19  O   UNL d   1      -1.933  -3.583  -0.222  0.00  0.00    -0.532 OA
ATOM     20  O   UNL d   1      -0.399  -3.356   1.319  0.00  0.00    -0.532 OA
ENDBRANCH   2  18
TORSDOF 2
