REMARK  7 active torsions:
REMARK  status: ('A' for Active; 'I' for Inactive)
REMARK    1  A    between atoms: C_6  and  C_1 
REMARK    2  A    between atoms: C_5  and  C_2 
REMARK    3  A    between atoms: O_14  and  C_5 
REMARK    4  A    between atoms: C_8  and  C_15 
REMARK    5  A    between atoms: C_10  and  C_18 
REMARK    6  A    between atoms: C_23  and  C_11 
REMARK    7  A    between atoms: C_28  and  O_14 
ROOT
ATOM      1  C   UNL d   1      -6.127  -2.322  -0.100  0.00  0.00     0.055 C 
ATOM      2  C   UNL d   1      -6.878  -2.917   0.854  0.00  0.00     0.034 C 
ATOM      3  C   UNL d   1      -4.813  -2.831  -0.376  0.00  0.00     0.100 C 
ATOM      4  N   UNL d   1      -3.741  -3.219  -0.614  0.00  0.00    -0.191 NA
ENDROOT
BRANCH   1   5
ATOM      5  C   UNL d   1      -6.610  -1.141  -0.890  0.00  0.00    -0.015 A 
ATOM      6  C   UNL d   1      -5.671  -0.281  -1.493  0.00  0.00     0.016 A 
ATOM      7  C   UNL d   1      -6.069   0.736  -2.363  0.00  0.00     0.038 A 
ATOM      8  C   UNL d   1      -7.420   0.923  -2.644  0.00  0.00     0.079 A 
ATOM      9  C   UNL d   1      -8.383   0.153  -2.008  0.00  0.00     0.038 A 
ATOM     10  C   UNL d   1      -7.974  -0.876  -1.136  0.00  0.00     0.016 A 
BRANCH   8  11
ATOM     11  O   UNL d   1      -7.673   1.838  -3.698  0.00  0.00    -0.275 OA
BRANCH  11  12
ATOM     12  C   UNL d   1      -8.876   2.275  -4.273  0.00  0.00     0.303 C 
ATOM     13  O   UNL d   1      -9.988   2.115  -3.787  0.00  0.00    -0.259 OA
BRANCH  12  14
ATOM     14  C   UNL d   1      -8.625   2.970  -5.521  0.00  0.00     0.100 A 
ATOM     15  C   UNL d   1      -9.233   4.147  -6.072  0.00  0.00     0.087 A 
ATOM     16  N   UNL d   1      -8.650   4.455  -7.243  0.00  0.00    -0.259 N 
ATOM     17  O   UNL d   1      -7.721   3.485  -7.497  0.00  0.00    -0.241 OA
ATOM     18  HN  UNL d   1      -8.861   5.260  -7.832  1.00  0.00     0.195 HD
ATOM     19  C   UNL d   1      -7.684   2.605  -6.469  0.00  0.00     0.091 A 
ATOM     20  C   UNL d   1      -6.703   1.513  -6.635  0.00  0.00     0.080 C 
BRANCH  15  21
ATOM     21  C   UNL d   1     -10.259   5.057  -5.541  0.00  0.00     0.037 A 
ATOM     22  C   UNL d   1     -10.152   5.623  -4.255  0.00  0.00     0.048 A 
ATOM     23 CL   UNL d   1      -8.832   5.301  -3.179  0.00  0.00    -0.083 Cl
ATOM     24  C   UNL d   1     -11.088   6.565  -3.799  0.00  0.00     0.025 A 
ATOM     25  C   UNL d   1     -12.118   7.000  -4.625  0.00  0.00     0.003 A 
ATOM     26  C   UNL d   1     -12.234   6.471  -5.904  0.00  0.00     0.025 A 
ATOM     27  C   UNL d   1     -11.331   5.497  -6.355  0.00  0.00     0.048 A 
ATOM     28 CL   UNL d   1     -11.635   4.880  -7.950  0.00  0.00    -0.083 Cl
ENDBRANCH  15  21
ENDBRANCH  12  14
ENDBRANCH  11  12
ENDBRANCH   8  11
ENDBRANCH   1   5
BRANCH   2  29
ATOM     29  C   UNL d   1      -6.416  -4.045   1.683  0.00  0.00    -0.035 A 
ATOM     30  C   UNL d   1      -5.744  -3.786   2.882  0.00  0.00     0.012 A 
ATOM     31  C   UNL d   1      -5.273  -4.838   3.675  0.00  0.00     0.017 A 
ATOM     32  C   UNL d   1      -5.466  -6.169   3.283  0.00  0.00     0.048 A 
ATOM     33  C   UNL d   1      -6.134  -6.425   2.074  0.00  0.00     0.017 A 
ATOM     34  C   UNL d   1      -6.604  -5.371   1.279  0.00  0.00     0.012 A 
BRANCH  32  35
ATOM     35  C   UNL d   1      -4.964  -7.315   4.132  0.00  0.00     0.417 C 
ATOM     36  F   UNL d   1      -4.368  -6.915   5.292  0.00  0.00    -0.166 F 
ATOM     37  F   UNL d   1      -5.964  -8.162   4.504  0.00  0.00    -0.166 F 
ATOM     38  F   UNL d   1      -4.044  -8.084   3.487  0.00  0.00    -0.166 F 
ENDBRANCH  32  35
ENDBRANCH   2  29
TORSDOF 7
