REMARK  4 active torsions:
REMARK  status: ('A' for Active; 'I' for Inactive)
REMARK    1  A    between atoms: S_2  and  N_1 
REMARK    2  A    between atoms: C_12  and  S_2 
REMARK    3  A    between atoms: C_4  and  C_3 
REMARK    4  A    between atoms: C_17  and  C_7 
ROOT
ATOM      1  N   UNL d   1       1.074  -0.706  -0.120  0.00  0.00    -0.176 N 
ATOM      2  C   UNL d   1      -0.202  -1.266  -0.066  0.00  0.00     0.085 A 
ATOM      3  N   UNL d   1       1.042   0.664  -0.178  0.00  0.00    -0.295 N 
ATOM      4  HN  UNL d   1       1.833   1.307  -0.184  1.00  0.00     0.187 HD
ATOM      5  C   UNL d   1      -1.057  -0.179  -0.197  0.00  0.00     0.052 A 
ATOM      6  C   UNL d   1      -0.250   0.963  -0.224  0.00  0.00     0.111 A 
ENDROOT
BRANCH   2   7
ATOM      7  C   UNL d   1      -0.707  -2.677   0.125  0.00  0.00     0.054 A 
ATOM      8  C   UNL d   1      -1.942  -3.081   0.775  0.00  0.00     0.080 A 
ATOM      9  N   UNL d   1      -2.092  -4.412   0.701  0.00  0.00    -0.259 N 
ATOM     10  O   UNL d   1      -1.005  -4.892   0.037  0.00  0.00    -0.241 OA
ATOM     11  HN  UNL d   1      -2.870  -4.958   1.071  1.00  0.00     0.195 HD
ATOM     12  C   UNL d   1      -0.182  -3.875  -0.330  0.00  0.00     0.087 A 
ATOM     13  C   UNL d   1       0.936  -4.350  -1.165  0.00  0.00     0.080 C 
BRANCH   8  14
ATOM     14  C   UNL d   1      -2.979  -2.314   1.475  0.00  0.00    -0.007 A 
ATOM     15  C   UNL d   1      -2.665  -1.249   2.328  0.00  0.00     0.014 A 
ATOM     16  C   UNL d   1      -3.678  -0.528   2.969  0.00  0.00     0.001 A 
ATOM     17  C   UNL d   1      -5.013  -0.892   2.799  0.00  0.00     0.000 A 
ATOM     18  C   UNL d   1      -5.339  -1.976   1.989  0.00  0.00     0.001 A 
ATOM     19  C   UNL d   1      -4.329  -2.678   1.328  0.00  0.00     0.014 A 
ENDBRANCH   8  14
ENDBRANCH   2   7
BRANCH   1  20
ATOM     20  S   UNL d   1       2.557  -1.574  -0.033  0.00  0.00     0.282 S 
ATOM     21  O   UNL d   1       2.498  -2.337   1.201  0.00  0.00    -0.198 OA
ATOM     22  O   UNL d   1       2.721  -2.191  -1.334  0.00  0.00    -0.198 OA
BRANCH  20  23
ATOM     23  C   UNL d   1       3.830  -0.346   0.103  0.00  0.00     0.081 A 
ATOM     24  C   UNL d   1       4.395  -0.037   1.339  0.00  0.00     0.026 A 
ATOM     25  C   UNL d   1       5.444   0.885   1.399  0.00  0.00     0.008 A 
ATOM     26  C   UNL d   1       5.936   1.482   0.226  0.00  0.00    -0.062 A 
ATOM     27  C   UNL d   1       5.370   1.151  -1.006  0.00  0.00     0.008 A 
ATOM     28  C   UNL d   1       7.069   2.463   0.301  0.00  0.00     0.048 C 
ATOM     29  C   UNL d   1       4.320   0.237  -1.073  0.00  0.00     0.026 A 
ENDBRANCH  20  23
ENDBRANCH   1  20
TORSDOF 4
