REMARK  4 active torsions:
REMARK  status: ('A' for Active; 'I' for Inactive)
REMARK    1  A    between atoms: C_3  and  N_1 
REMARK    2  A    between atoms: C_5  and  C_3 
REMARK    3  A    between atoms: C_7  and  C_5 
REMARK    4  A    between atoms: O_19  and  C_15 
ROOT
ATOM      1  N   UNL d   1      -1.735   1.172  -0.131  0.00  0.00    -0.373 N 
ATOM      2  C   UNL d   1      -0.609   0.625   0.460  0.00  0.00     0.036 C 
ATOM      3  C   UNL d   1      -0.443  -0.775   0.448  0.00  0.00    -0.031 C 
ATOM      4  C   UNL d   1       0.417   1.395   1.015  0.00  0.00     0.030 C 
ATOM      5  C   UNL d   1       0.795  -1.342   0.790  0.00  0.00     0.016 C 
ATOM      6  C   UNL d   1      -2.966   0.414   0.081  0.00  0.00     0.123 C 
ATOM      7  C   UNL d   1       1.644   0.829   1.366  0.00  0.00     0.009 C 
ATOM      8  C   UNL d   1       1.866  -0.534   1.181  0.00  0.00    -0.061 C 
ATOM      9  C   UNL d   1      -1.595  -1.690   0.100  0.00  0.00     0.042 C 
ATOM     10  C   UNL d   1      -2.796  -0.974  -0.514  0.00  0.00     0.024 C 
ATOM     11  C   UNL d   1       3.220  -1.127   1.420  0.00  0.00     0.048 C 
ENDROOT
BRANCH   1  12
ATOM     12  C   UNL d   1      -1.860   2.531  -0.675  0.00  0.00     0.206 C 
BRANCH  12  13
ATOM     13  C   UNL d   1      -0.593   3.279  -1.082  0.00  0.00     0.177 C 
ATOM     14  O   UNL d   1      -0.393   4.415  -0.642  0.00  0.00    -0.291 OA
BRANCH  13  15
ATOM     15  C   UNL d   1       0.408   2.718  -2.053  0.00  0.00     0.011 A 
ATOM     16  C   UNL d   1       0.254   1.509  -2.739  0.00  0.00     0.018 A 
ATOM     17  C   UNL d   1       1.258   1.052  -3.611  0.00  0.00     0.037 A 
ATOM     18  C   UNL d   1       2.420   1.804  -3.805  0.00  0.00     0.068 A 
ATOM     19  C   UNL d   1       2.566   3.020  -3.147  0.00  0.00     0.037 A 
ATOM     20  C   UNL d   1       1.575   3.468  -2.272  0.00  0.00     0.018 A 
BRANCH  18  21
ATOM     21  O   UNL d   1       3.448   1.472  -4.646  0.00  0.00    -0.356 OA
ATOM     22  C   UNL d   1       3.729   0.081  -4.747  0.00  0.00     0.210 C 
ENDBRANCH  18  21
ENDBRANCH  13  15
ENDBRANCH  12  13
ENDBRANCH   1  12
TORSDOF 4
