REMARK  10 active torsions:
REMARK  status: ('A' for Active; 'I' for Inactive)
REMARK    1  A    between atoms: C1_1  and  C2_3 
REMARK    2  A    between atoms: C2_3  and  O2_11 
REMARK    3  A    between atoms: C4_6  and  C2_3 
REMARK    4  A    between atoms: C3_4  and  C5_7 
REMARK    5  A    between atoms: C4_6  and  O3_12 
REMARK    6  A    between atoms: C4_6  and  C7_9 
REMARK    7  A    between atoms: O4_13  and  C5_7 
REMARK    8  A    between atoms: C7_9  and  C8_16 
REMARK    9  A    between atoms: C7_9  and  O5_14 
REMARK   10  A    between atoms: O6_15  and  C8_16 
ROOT
ATOM      1  C2  <1> d   1       0.475   1.115  -1.979  0.00  0.00     0.192 C 
ENDROOT
BRANCH   1   2
ATOM      2  O2  <1> d   1       1.554   1.894  -2.511  0.00  0.00    -0.390 OA
ATOM      3  H9  <1> d   1       2.351   1.323  -2.523  0.00  0.00     0.210 HD
ENDBRANCH   1   2
BRANCH   1   4
ATOM      4  C1  <1> d   1       0.405   1.281  -0.428  0.00  0.00     0.314 C 
ATOM      5  N1  <1> d   1       0.257   2.713  -0.053  0.00  0.00     0.116 N 
ATOM      6  C3  <1> d   1       1.609   3.283   0.302  0.00  0.00     0.328 C 
ATOM      7  H2  <1> d   1      -0.272   2.704   0.825  0.00  0.00     0.318 HD
ATOM      8  C6  <1> d   1       2.721   2.242   0.340  0.00  0.00     0.123 C 
ATOM      9  S1  <1> d   1       1.861   0.669   0.462  0.00  0.00    -0.129 SA
BRANCH   6  10
ATOM     10  C5  <1> d   1       1.981   4.404  -0.675  0.00  0.00     0.175 C 
ATOM     11  O1  <1> d   1       3.027   5.036  -0.639  0.00  0.00    -0.648 OA
BRANCH  10  12
ATOM     12  O4  <1> d   1       0.993   4.658  -1.570  0.00  0.00    -0.775 OA
ATOM     13  H11 <1> d   1       0.314   3.955  -1.421  0.00  0.00     0.167 HD
ENDBRANCH  10  12
ENDBRANCH   6  10
ENDBRANCH   1   4
BRANCH   1  14
ATOM     14  C4  <1> d   1       0.536  -0.358  -2.447  0.00  0.00     0.180 C 
BRANCH  14  15
ATOM     15  O3  <1> d   1      -0.599  -1.062  -1.910  0.00  0.00    -0.390 OA
ATOM     16  H10 <1> d   1      -1.230  -1.171  -2.652  0.00  0.00     0.210 HD
ENDBRANCH  14  15
BRANCH  14  17
ATOM     17  C7  <1> d   1       0.535  -0.555  -3.984  0.00  0.00     0.173 C 
BRANCH  17  18
ATOM     18  C8  <1> d   1       1.632   0.176  -4.766  0.00  0.00     0.198 C 
BRANCH  18  19
ATOM     19  O6  <1> d   1       2.895   0.036  -4.127  0.00  0.00    -0.398 OA
ATOM     20  H13 <1> d   1       3.563   0.382  -4.750  0.00  0.00     0.209 HD
ENDBRANCH  18  19
ENDBRANCH  17  18
BRANCH  17  21
ATOM     21  O5  <1> d   1      -0.767  -0.231  -4.498  0.00  0.00    -0.391 OA
ATOM     22  H12 <1> d   1      -0.815   0.735  -4.616  0.00  0.00     0.210 HD
ENDBRANCH  17  21
ENDBRANCH  14  17
ENDBRANCH   1  14
TORSDOF 10
