REMARK  2 active torsions:
REMARK  status: ('A' for Active; 'I' for Inactive)
REMARK    1  A    between atoms: C_7  and  N_1 
REMARK    2  A    between atoms: C_11  and  C_2 
ROOT
ATOM      1  C   UNL d   1       2.025  -2.712  -0.740  0.00  0.00     0.095 A 
ATOM      2  C   UNL d   1       2.092  -1.484  -0.037  0.00  0.00     0.079 A 
ATOM      3  C   UNL d   1       0.887  -3.101  -1.530  0.00  0.00     0.103 C 
ATOM      4  N   UNL d   1       0.007  -3.447  -2.208  0.00  0.00    -0.191 NA
ATOM      5  C   UNL d   1       3.158  -3.550  -0.739  0.00  0.00     0.057 A 
ATOM      6 CL   UNL d   1       3.199  -5.054  -1.598  0.00  0.00    -0.083 Cl
ATOM      7  C   UNL d   1       3.257  -1.161   0.684  0.00  0.00     0.033 A 
ATOM      8  C   UNL d   1       4.367  -2.003   0.667  0.00  0.00     0.004 A 
ATOM      9  C   UNL d   1       4.321  -3.191  -0.051  0.00  0.00     0.025 A 
ENDROOT
BRANCH   2  10
ATOM     10  N   UNL d   1       0.994  -0.570  -0.028  0.00  0.00    -0.259 N 
ATOM     11  C   UNL d   1       0.994   0.824   0.030  0.00  0.00     0.046 A 
ATOM     12  C   UNL d   1      -0.342   1.224   0.054  0.00  0.00     0.050 A 
ATOM     13  C   UNL d   1       2.227   1.661  -0.045  0.00  0.00     0.071 C 
ATOM     14  C   UNL d   1      -1.055   0.013  -0.010  0.00  0.00     0.124 A 
ATOM     15  N   UNL d   1      -0.265  -1.054  -0.060  0.00  0.00    -0.304 N 
ATOM     16  HN  UNL d   1      -0.550  -2.032  -0.112  1.00  0.00     0.186 HD
BRANCH  12  17
ATOM     17  C   UNL d   1      -0.858   2.593   0.099  0.00  0.00     0.159 C 
ATOM     18  O   UNL d   1      -0.104   3.562   0.194  0.00  0.00    -0.293 OA
ATOM     19  C   UNL d   1      -2.345   2.843   0.022  0.00  0.00     0.097 C 
ENDBRANCH  12  17
ENDBRANCH   2  10
TORSDOF 2
