REMARK  6 active torsions:
REMARK  status: ('A' for Active; 'I' for Inactive)
REMARK    1  A    between atoms: C_4  and  N_1 
REMARK    2  A    between atoms: C_2  and  C_3 
REMARK    3  A    between atoms: C_5  and  C_2 
REMARK    4  A    between atoms: C_3  and  C_8 
REMARK    5  A    between atoms: O_15  and  C_5 
REMARK    6  A    between atoms: C_16  and  O_15 
ROOT
ATOM      1  C   UNL d   1       0.202   0.544  -1.057  0.00  0.00     0.102 A 
ATOM      2  C   UNL d   1      -1.313   1.773  -3.065  0.00  0.00     0.010 A 
ATOM      3  C   UNL d   1       0.745   0.696  -2.338  0.00  0.00     0.037 A 
ATOM      4  C   UNL d   1      -1.105   0.974  -0.783  0.00  0.00     0.037 A 
ATOM      5  C   UNL d   1      -0.018   1.304  -3.339  0.00  0.00     0.017 A 
ATOM      6  C   UNL d   1      -1.862   1.588  -1.790  0.00  0.00     0.017 A 
ENDROOT
BRANCH   2   7
ATOM      7  C   UNL d   1      -2.058   2.450  -4.167  0.00  0.00     0.168 C 
ATOM      8  O   UNL d   1      -1.781   2.160  -5.331  0.00  0.00    -0.292 OA
BRANCH   7   9
ATOM      9  C   UNL d   1      -3.157   3.433  -3.853  0.00  0.00     0.195 C 
BRANCH   9  10
ATOM     10  C   UNL d   1      -2.721   4.634  -3.062  0.00  0.00     0.266 C 
ATOM     11  O   UNL d   1      -1.611   4.811  -2.587  0.00  0.00    -0.265 OA
BRANCH  10  12
ATOM     12  O   UNL d   1      -3.780   5.485  -2.924  0.00  0.00    -0.322 OA
BRANCH  12  13
ATOM     13  C   UNL d   1      -3.556   6.664  -2.134  0.00  0.00     0.174 C 
ATOM     14  C   UNL d   1      -2.970   7.777  -2.983  0.00  0.00     0.034 C 
ENDBRANCH  12  13
ENDBRANCH  10  12
ENDBRANCH   9  10
ENDBRANCH   7   9
ENDBRANCH   2   7
BRANCH   1  15
ATOM     15  N   UNL d   1       1.010  -0.059   0.011  0.00  0.00    -0.116 N 
ATOM     16  O   UNL d   1       2.160  -0.424  -0.272  0.00  0.00    -0.532 OA
ATOM     17  O   UNL d   1       0.494  -0.165   1.133  0.00  0.00    -0.532 OA
ENDBRANCH   1  15
TORSDOF 6
