REMARK  5 active torsions:
REMARK  status: ('A' for Active; 'I' for Inactive)
REMARK    1  A    between atoms: C_3  and  C_1 
REMARK       I    between atoms: N_4  and  C_1 
REMARK    2  A    between atoms: C_2  and  N_5 
REMARK    3  A    between atoms: N_6  and  C_2 
REMARK    4  A    between atoms: N_5  and  N_4 
REMARK    5  A    between atoms: C_13  and  N_6 
ROOT
ATOM      1  N   UNL d   1      -1.065   1.020   0.763  0.00  0.00    -0.273 N 
ATOM      2  H   UNL d   1      -0.053   0.919   0.833  0.00  0.00     0.189 HD
ENDROOT
BRANCH   1   3
ATOM      3  C   UNL d   1      -1.776   1.677   1.734  0.00  0.00     0.191 C 
ATOM      4  S   UNL d   1      -3.444   1.672   1.855  0.00  0.00    -0.039 SA
BRANCH   3   5
ATOM      5  N   UNL d   1      -1.034   2.295   2.709  0.00  0.00    -0.332 N 
ATOM      6  H   UNL d   1      -1.534   2.464   3.575  0.00  0.00     0.168 HD
BRANCH   5   7
ATOM      7  C   UNL d   1       0.309   2.723   2.655  0.00  0.00     0.034 A 
ATOM      8  C   UNL d   1       0.937   3.085   1.457  0.00  0.00     0.029 A 
ATOM      9  C   UNL d   1       2.278   3.469   1.447  0.00  0.00     0.002 A 
ATOM     10  C   UNL d   1       2.998   3.508   2.639  0.00  0.00     0.000 A 
ATOM     11  C   UNL d   1       2.366   3.194   3.842  0.00  0.00     0.002 A 
ATOM     12  C   UNL d   1       1.018   2.822   3.853  0.00  0.00     0.029 A 
ENDBRANCH   5   7
ENDBRANCH   3   5
ENDBRANCH   1   3
BRANCH   1  13
ATOM     13  N   UNL d   1      -1.638   0.485  -0.389  0.00  0.00    -0.262 N 
ATOM     14  C   UNL d   1      -0.807   0.269  -1.474  0.00  0.00     0.293 C 
ATOM     15  O   UNL d   1       0.415   0.420  -1.391  0.00  0.00    -0.264 OA
ATOM     16  H   UNL d   1      -2.651   0.450  -0.470  0.00  0.00     0.190 HD
BRANCH  14  17
ATOM     17  C   UNL d   1      -1.479  -0.129  -2.687  0.00  0.00     0.144 A 
ATOM     18  O   UNL d   1      -2.844  -0.241  -2.705  0.00  0.00    -0.317 OA
ATOM     19  C   UNL d   1      -3.196  -0.616  -3.963  0.00  0.00     0.143 A 
ATOM     20  C   UNL d   1      -2.081  -0.750  -4.757  0.00  0.00     0.027 A 
ATOM     21  C   UNL d   1      -0.974  -0.438  -3.937  0.00  0.00     0.045 A 
ENDBRANCH  14  17
ENDBRANCH   1  13
TORSDOF 5
