REMARK  5 active torsions:
REMARK  status: ('A' for Active; 'I' for Inactive)
REMARK    1  A    between atoms: N_2  and  C_1 
REMARK    2  A    between atoms: N_4  and  C_1 
REMARK    3  A    between atoms: C_7  and  N_2 
REMARK    4  A    between atoms: C_10  and  N_4 
REMARK    5  A    between atoms: C_8  and  C_10 
ROOT
ATOM      1  C   UNL d   1       1.036  -0.155   0.114  0.00  0.00     0.172 C 
ATOM      2  S   UNL d   1       0.395   0.790   1.339  0.00  0.00    -0.041 SA
ENDROOT
BRANCH   1   3
ATOM      3  N   UNL d   1       0.376  -1.028  -0.708  0.00  0.00    -0.333 N 
ATOM      4  H   UNL d   1       0.852  -1.264  -1.578  0.00  0.00     0.168 HD
BRANCH   3   5
ATOM      5  C   UNL d   1      -0.810  -1.763  -0.493  0.00  0.00     0.034 A 
ATOM      6  C   UNL d   1      -1.317  -2.052   0.776  0.00  0.00     0.036 A 
ATOM      7  C   UNL d   1      -2.439  -2.877   0.937  0.00  0.00    -0.060 A 
ATOM      8  C   UNL d   1      -2.930  -3.226   2.313  0.00  0.00     0.048 C 
ATOM      9  C   UNL d   1      -3.069  -3.402  -0.192  0.00  0.00     0.007 A 
ATOM     10  C   UNL d   1      -2.572  -3.125  -1.465  0.00  0.00     0.003 A 
ATOM     11  C   UNL d   1      -1.438  -2.322  -1.614  0.00  0.00     0.029 A 
ENDBRANCH   3   5
ENDBRANCH   1   3
BRANCH   1  12
ATOM     12  N   UNL d   1       2.381  -0.009  -0.099  0.00  0.00    -0.361 N 
ATOM     13  H   UNL d   1       2.771   0.682   0.529  0.00  0.00     0.162 HD
BRANCH  12  14
ATOM     14  C   UNL d   1       3.140  -0.230  -1.323  0.00  0.00     0.179 C 
BRANCH  14  15
ATOM     15  C   UNL d   1       3.282  -1.667  -1.770  0.00  0.00     0.026 A 
ATOM     16  N   UNL d   1       2.219  -2.210  -2.428  0.00  0.00    -0.368 N 
ATOM     17  C   UNL d   1       2.343  -3.486  -2.857  0.00  0.00     0.088 A 
ATOM     18  HN  UNL d   1       1.365  -1.676  -2.589  1.00  0.00     0.165 HD
ATOM     19  C   UNL d   1       3.490  -4.245  -2.702  0.00  0.00     0.017 A 
ATOM     20  C   UNL d   1       4.571  -3.671  -2.045  0.00  0.00     0.003 A 
ATOM     21  C   UNL d   1       4.466  -2.369  -1.560  0.00  0.00     0.027 A 
ENDBRANCH  14  15
ENDBRANCH  12  14
ENDBRANCH   1  12
TORSDOF 5
