REMARK  5 active torsions:
REMARK  status: ('A' for Active; 'I' for Inactive)
REMARK    1  A    between atoms: C_9  and  C_1 
REMARK    2  A    between atoms: S_6  and  C_2 
REMARK    3  A    between atoms: C_12  and  S_6 
REMARK    4  A    between atoms: C_7  and  C_12 
REMARK       I    between atoms: N_10  and  C_7 
REMARK    5  A    between atoms: C_13  and  N_10 
ROOT
ATOM      1  S   UNL d   1       1.855  -3.029  -1.414  0.00  0.00    -0.112 SA
ENDROOT
BRANCH   1   2
ATOM      2  C   UNL d   1       0.762  -1.748  -0.918  0.00  0.00     0.061 C 
ATOM      3  C   UNL d   1      -0.152  -1.185  -1.739  0.00  0.00     0.027 C 
ATOM      4  C   UNL d   1      -0.948  -0.052  -1.149  0.00  0.00     0.091 C 
ATOM      5  S   UNL d   1      -0.646   0.149   0.571  0.00  0.00    -0.039 SA
ATOM      6  S   UNL d   1      -2.047   0.947  -1.934  0.00  0.00    -0.071 SA
ATOM      7  S   UNL d   1       0.962  -1.081   0.683  0.00  0.00    -0.044 SA
BRANCH   3   8
ATOM      8  C   UNL d   1      -0.397  -1.602  -3.132  0.00  0.00    -0.022 A 
ATOM      9  C   UNL d   1      -1.340  -2.600  -3.415  0.00  0.00     0.012 A 
ATOM     10  C   UNL d   1      -1.670  -2.897  -4.738  0.00  0.00     0.001 A 
ATOM     11  C   UNL d   1      -1.060  -2.204  -5.783  0.00  0.00     0.000 A 
ATOM     12  C   UNL d   1      -0.103  -1.228  -5.510  0.00  0.00     0.001 A 
ATOM     13  C   UNL d   1       0.234  -0.931  -4.189  0.00  0.00     0.012 A 
ENDBRANCH   3   8
ENDBRANCH   1   2
BRANCH   1  14
ATOM     14  C   UNL d   1       1.331  -4.359  -0.294  0.00  0.00     0.183 C 
BRANCH  14  15
ATOM     15  C   UNL d   1       2.191  -5.618  -0.314  0.00  0.00     0.231 C 
ATOM     16  N   UNL d   1       3.428  -5.523  -0.931  0.00  0.00    -0.327 N 
ATOM     17  H   UNL d   1       3.673  -4.612  -1.298  0.00  0.00     0.169 HD
ATOM     18  O   UNL d   1       1.772  -6.612   0.280  0.00  0.00    -0.272 OA
BRANCH  16  19
ATOM     19  C   UNL d   1       4.413  -6.536  -1.002  0.00  0.00     0.034 A 
ATOM     20  C   UNL d   1       4.188  -7.866  -0.633  0.00  0.00     0.031 A 
ATOM     21  C   UNL d   1       5.225  -8.807  -0.659  0.00  0.00     0.026 A 
ATOM     22  C   UNL d   1       6.496  -8.422  -1.063  0.00  0.00     0.034 A 
ATOM     23  C   UNL d   1       6.731  -7.115  -1.471  0.00  0.00     0.026 A 
ATOM     24 CL   UNL d   1       7.782  -9.566  -1.049  0.00  0.00    -0.084 Cl
ATOM     25  C   UNL d   1       5.692  -6.173  -1.448  0.00  0.00     0.031 A 
ENDBRANCH  16  19
ENDBRANCH  14  15
ENDBRANCH   1  14
TORSDOF 5
