REMARK  7 active torsions:
REMARK  status: ('A' for Active; 'I' for Inactive)
REMARK    1  A    between atoms: C_2  and  S_1 
REMARK    2  A    between atoms: N_11  and  S_1 
REMARK    3  A    between atoms: O_19  and  C_10 
REMARK    4  A    between atoms: C_20  and  N_11 
REMARK    5  A    between atoms: O_23  and  C_12 
REMARK    6  A    between atoms: C_15  and  C_25 
REMARK    7  A    between atoms: C_25  and  C_20 
ROOT
ATOM      1  S   UNL d   1       1.030   0.111  -0.018  0.00  0.00     0.242 S 
ATOM      2  O   UNL d   1       0.701  -0.045   1.385  0.00  0.00    -0.206 OA
ATOM      3  O   UNL d   1       0.531   1.265  -0.726  0.00  0.00    -0.206 OA
ENDROOT
BRANCH   1   4
ATOM      4  C   UNL d   1       0.532  -1.416  -0.897  0.00  0.00     0.087 A 
ATOM      5  C   UNL d   1       0.323  -2.619  -0.154  0.00  0.00    -0.032 A 
ATOM      6  C   UNL d   1      -0.371  -3.705  -0.762  0.00  0.00    -0.048 A 
ATOM      7  C   UNL d   1       0.800  -2.803   1.270  0.00  0.00     0.050 C 
ATOM      8  C   UNL d   1      -0.705  -4.973   0.007  0.00  0.00     0.049 C 
ATOM      9  C   UNL d   1      -0.783  -3.623  -2.117  0.00  0.00    -0.049 A 
ATOM     10  C   UNL d   1      -0.460  -2.479  -2.885  0.00  0.00    -0.048 A 
ATOM     11  C   UNL d   1      -1.526  -4.793  -2.735  0.00  0.00     0.049 C 
ATOM     12  C   UNL d   1       0.201  -1.367  -2.281  0.00  0.00    -0.032 A 
ATOM     13  C   UNL d   1      -0.887  -2.437  -4.341  0.00  0.00     0.049 C 
ATOM     14  C   UNL d   1       0.537  -0.207  -3.189  0.00  0.00     0.050 C 
ENDBRANCH   1   4
BRANCH   1  15
ATOM     15  N   UNL d   1       2.735   0.085  -0.128  0.00  0.00    -0.215 NA
ATOM     16  H   UNL d   1       3.070  -0.877  -0.051  0.00  0.00     0.139 HD
BRANCH  15  17
ATOM     17  C   UNL d   1       3.344   0.802  -1.280  0.00  0.00     0.109 C 
BRANCH  17  18
ATOM     18  C   UNL d   1       4.878   0.771  -1.242  0.00  0.00     0.054 C 
BRANCH  18  19
ATOM     19  C   UNL d   1       5.403  -0.639  -1.374  0.00  0.00    -0.054 A 
ATOM     20  C   UNL d   1       5.486  -1.266  -2.630  0.00  0.00     0.046 A 
ATOM     21  C   UNL d   1       5.829  -2.624  -2.737  0.00  0.00     0.102 A 
ATOM     22  C   UNL d   1       6.137  -3.344  -1.571  0.00  0.00     0.101 A 
ATOM     23  C   UNL d   1       6.072  -2.707  -0.327  0.00  0.00     0.040 A 
ATOM     24  C   UNL d   1       5.716  -1.367  -0.225  0.00  0.00     0.010 A 
BRANCH  21  25
ATOM     25  O   UNL d   1       5.875  -3.279  -3.939  0.00  0.00    -0.353 OA
ATOM     26  C   UNL d   1       5.028  -2.793  -4.974  0.00  0.00     0.210 C 
ENDBRANCH  21  25
BRANCH  22  27
ATOM     27  O   UNL d   1       6.431  -4.679  -1.467  0.00  0.00    -0.353 OA
ATOM     28  C   UNL d   1       7.125  -5.275  -2.553  0.00  0.00     0.210 C 
ENDBRANCH  22  27
ENDBRANCH  18  19
ENDBRANCH  17  18
ENDBRANCH  15  17
ENDBRANCH   1  15
TORSDOF 7
