REMARK  3 active torsions:
REMARK  status: ('A' for Active; 'I' for Inactive)
REMARK       I    between atoms: C_6  and  N_1 
REMARK    1  A    between atoms: C_3  and  C_2 
REMARK    2  A    between atoms: C_13  and  C_6 
REMARK    3  A    between atoms: C_16  and  C_7 
ROOT
ATOM      1  N   UNL d   1       0.914  -0.735   0.114  0.00  0.00    -0.218 N 
ATOM      2  C   UNL d   1      -0.390  -1.131  -0.124  0.00  0.00     0.088 C 
ATOM      3  C   UNL d   1       2.117  -1.466   0.010  0.00  0.00     0.277 C 
ATOM      4  N   UNL d   1       0.979   0.615   0.357  0.00  0.00    -0.302 N 
ATOM      5  HN  UNL d   1       1.785   1.156   0.671  1.00  0.00     0.186 HD
ATOM      6  C   UNL d   1      -1.140   0.022  -0.229  0.00  0.00     0.052 C 
ATOM      7  C   UNL d   1      -0.250   1.058   0.090  0.00  0.00     0.110 C 
ATOM      8  O   UNL d   1       2.143  -2.440  -0.742  0.00  0.00    -0.265 OA
ENDROOT
BRANCH   2   9
ATOM      9  C   UNL d   1      -0.901  -2.526  -0.165  0.00  0.00     0.069 A 
ATOM     10  N   UNL d   1      -0.188  -3.563   0.400  0.00  0.00    -0.348 N 
ATOM     11  C   UNL d   1      -0.861  -4.697   0.306  0.00  0.00     0.084 A 
ATOM     12  HN  UNL d   1       0.731  -3.468   0.831  1.00  0.00     0.166 HD
ATOM     13  S   UNL d   1      -2.384  -4.553  -0.495  0.00  0.00    -0.081 SA
ATOM     14  C   UNL d   1      -2.132  -2.872  -0.674  0.00  0.00     0.083 A 
BRANCH  11  15
ATOM     15  C   UNL d   1      -0.378  -5.998   0.807  0.00  0.00    -0.002 A 
ATOM     16  C   UNL d   1      -1.245  -7.052   1.148  0.00  0.00     0.014 A 
ATOM     17  C   UNL d   1      -0.748  -8.273   1.612  0.00  0.00     0.001 A 
ATOM     18  C   UNL d   1       0.624  -8.462   1.750  0.00  0.00     0.000 A 
ATOM     19  C   UNL d   1       1.500  -7.426   1.433  0.00  0.00     0.001 A 
ATOM     20  C   UNL d   1       1.002  -6.204   0.970  0.00  0.00     0.014 A 
ENDBRANCH  11  15
ENDBRANCH   2   9
BRANCH   3  21
ATOM     21  C   UNL d   1       3.376  -1.081   0.705  0.00  0.00     0.034 A 
ATOM     22  C   UNL d   1       3.347  -0.469   1.966  0.00  0.00     0.020 A 
ATOM     23  C   UNL d   1       4.542  -0.171   2.624  0.00  0.00     0.043 A 
ATOM     24  C   UNL d   1       5.755  -0.490   2.025  0.00  0.00     0.116 A 
ATOM     25  C   UNL d   1       5.799  -1.104   0.777  0.00  0.00     0.043 A 
ATOM     26  F   UNL d   1       6.898  -0.209   2.663  0.00  0.00    -0.206 F 
ATOM     27  C   UNL d   1       4.607  -1.407   0.117  0.00  0.00     0.020 A 
ENDBRANCH   3  21
TORSDOF 3
