REMARK  11 active torsions:
REMARK  status: ('A' for Active; 'I' for Inactive)
REMARK    1  A    between atoms: N_4  and  S_1 
REMARK    2  A    between atoms: C_7  and  S_1 
REMARK    3  A    between atoms: C_5  and  C_2 
REMARK    4  A    between atoms: N_6  and  C_3 
REMARK    5  A    between atoms: C_12  and  N_4 
REMARK    6  A    between atoms: O_17  and  C_5 
REMARK    7  A    between atoms: C_23  and  O_17 
REMARK    8  A    between atoms: C_24  and  C_20 
REMARK    9  A    between atoms: C_25  and  C_24 
REMARK   10  A    between atoms: C_27  and  C_25 
REMARK   11  A    between atoms: C_26  and  C_27 
ROOT
ATOM      1  C   UNL d   1       2.157   3.782   2.220  0.00  0.00     0.068 C 
ATOM      2  C   UNL d   1       1.188   4.742   2.570  0.00  0.00     0.046 C 
ATOM      3  C   UNL d   1       1.960   2.806   1.226  0.00  0.00     0.050 C 
ATOM      4  C   UNL d   1      -0.070   4.553   1.967  0.00  0.00     0.033 C 
ATOM      5  C   UNL d   1       0.728   2.708   0.611  0.00  0.00     0.043 C 
ATOM      6  C   UNL d   1      -0.300   3.548   1.012  0.00  0.00     0.032 C 
ENDROOT
BRANCH   5   7
ATOM      7  N   UNL d   1       0.531   1.784  -0.453  0.00  0.00    -0.281 N 
ATOM      8  H   UNL d   1       1.027   0.895  -0.389  0.00  0.00     0.179 HD
BRANCH   7   9
ATOM      9  S   UNL d   1       0.590   2.390  -2.040  0.00  0.00     0.263 S 
ATOM     10  O   UNL d   1      -0.220   3.588  -2.132  0.00  0.00    -0.200 OA
ATOM     11  O   UNL d   1       0.360   1.260  -2.912  0.00  0.00    -0.200 OA
BRANCH   9  12
ATOM     12  C   UNL d   1       2.301   2.859  -2.231  0.00  0.00     0.079 A 
ATOM     13  C   UNL d   1       3.216   1.914  -2.703  0.00  0.00     0.026 A 
ATOM     14  C   UNL d   1       4.551   2.280  -2.896  0.00  0.00     0.009 A 
ATOM     15  C   UNL d   1       4.981   3.589  -2.627  0.00  0.00    -0.058 A 
ATOM     16  C   UNL d   1       4.042   4.532  -2.178  0.00  0.00     0.009 A 
ATOM     17  C   UNL d   1       2.704   4.173  -1.985  0.00  0.00     0.026 A 
BRANCH  15  18
ATOM     18  C   UNL d   1       6.420   3.978  -2.877  0.00  0.00     0.038 C 
BRANCH  18  19
ATOM     19  C   UNL d   1       7.184   4.468  -1.642  0.00  0.00     0.005 C 
BRANCH  19  20
ATOM     20  C   UNL d   1       7.411   3.363  -0.608  0.00  0.00    -0.000 C 
BRANCH  20  21
ATOM     21  C   UNL d   1       8.350   3.837   0.503  0.00  0.00    -0.005 C 
ATOM     22  C   UNL d   1       8.633   2.727   1.507  0.00  0.00     0.005 C 
ENDBRANCH  20  21
ENDBRANCH  19  20
ENDBRANCH  18  19
ENDBRANCH  15  18
ENDBRANCH   9  12
ENDBRANCH   7   9
ENDBRANCH   5   7
BRANCH   1  23
ATOM     23  C   UNL d   1       3.376   3.658   3.007  0.00  0.00     0.295 C 
ATOM     24  O   UNL d   1       3.443   3.690   4.220  0.00  0.00    -0.259 OA
BRANCH  23  25
ATOM     25  O   UNL d   1       4.425   3.548   2.152  0.00  0.00    -0.318 OA
BRANCH  25  26
ATOM     26  C   UNL d   1       5.675   3.514   2.816  0.00  0.00     0.174 C 
ATOM     27  C   UNL d   1       5.926   2.154   3.443  0.00  0.00     0.034 C 
ENDBRANCH  25  26
ENDBRANCH  23  25
ENDBRANCH   1  23
BRANCH   2  28
ATOM     28  N   UNL d   1       1.421   5.849   3.373  0.00  0.00    -0.380 N 
ATOM     29  C   UNL d   1       0.423   6.334   4.327  0.00  0.00     0.123 C 
ATOM     30  C   UNL d   1       0.219   7.831   4.093  0.00  0.00     0.020 C 
ATOM     31  C   UNL d   1       1.540   8.595   4.208  0.00  0.00     0.003 C 
ATOM     32  C   UNL d   1       2.608   7.991   3.303  0.00  0.00     0.020 C 
ATOM     33  C   UNL d   1       2.743   6.483   3.514  0.00  0.00     0.123 C 
ENDBRANCH   2  28
TORSDOF 11
