REMARK  8 active torsions:
REMARK  status: ('A' for Active; 'I' for Inactive)
REMARK    1  A    between atoms: C_8  and  C_2 
REMARK    2  A    between atoms: S_9  and  C_5 
REMARK    3  A    between atoms: C_11  and  S_9 
REMARK    4  A    between atoms: C_10  and  C_11 
REMARK    5  A    between atoms: C_21  and  C_18 
REMARK    6  A    between atoms: C_22  and  C_21 
REMARK    7  A    between atoms: C_24  and  C_22 
REMARK    8  A    between atoms: C_23  and  C_24 
ROOT
ATOM      1  N   UNL d   1      -0.235   0.371  -1.355  0.00  0.00    -0.320 N 
ATOM      2  C   UNL d   1      -0.385   1.033  -0.160  0.00  0.00     0.132 A 
ATOM      3  N   UNL d   1      -0.243   0.152   0.812  0.00  0.00    -0.283 N 
ATOM      4  HN  UNL d   1      -0.284   0.355   1.811  1.00  0.00     0.188 HD
ATOM      5  C   UNL d   1      -0.051  -0.943  -1.052  0.00  0.00     0.161 A 
ATOM      6  N   UNL d   1      -0.029  -1.089   0.250  0.00  0.00    -0.278 N 
ATOM      7  HN  UNL d   1       0.120  -1.962   0.756  1.00  0.00     0.189 HD
ATOM      8  H   UNL d   1      -0.353   0.777  -2.266  0.00  0.00     0.169 HD
ENDROOT
BRANCH   2   9
ATOM      9  C   UNL d   1      -0.740   2.444  -0.045  0.00  0.00     0.009 A 
ATOM     10  C   UNL d   1      -1.527   2.872   1.031  0.00  0.00     0.016 A 
ATOM     11  C   UNL d   1      -1.944   4.202   1.129  0.00  0.00     0.008 A 
ATOM     12  C   UNL d   1      -1.573   5.138   0.156  0.00  0.00    -0.058 A 
ATOM     13  C   UNL d   1      -0.747   4.723  -0.895  0.00  0.00     0.008 A 
ATOM     14  C   UNL d   1      -0.340   3.389  -1.000  0.00  0.00     0.016 A 
BRANCH  12  15
ATOM     15  C   UNL d   1      -2.045   6.569   0.257  0.00  0.00     0.038 C 
BRANCH  15  16
ATOM     16  C   UNL d   1      -2.836   7.062  -0.963  0.00  0.00     0.005 C 
BRANCH  16  17
ATOM     17  C   UNL d   1      -4.145   6.296  -1.185  0.00  0.00    -0.000 C 
BRANCH  17  18
ATOM     18  C   UNL d   1      -4.894   6.834  -2.405  0.00  0.00    -0.005 C 
ATOM     19  C   UNL d   1      -6.189   6.074  -2.647  0.00  0.00     0.005 C 
ENDBRANCH  17  18
ENDBRANCH  16  17
ENDBRANCH  15  16
ENDBRANCH  12  15
ENDBRANCH   2   9
BRANCH   5  20
ATOM     20  S   UNL d   1      -0.004  -2.209  -2.223  0.00  0.00    -0.088 SA
BRANCH  20  21
ATOM     21  C   UNL d   1       0.589  -1.393  -3.723  0.00  0.00     0.122 C 
BRANCH  21  22
ATOM     22  C   UNL d   1       0.639  -2.324  -4.909  0.00  0.00    -0.027 A 
ATOM     23  C   UNL d   1      -0.420  -2.452  -5.824  0.00  0.00     0.041 A 
ATOM     24 CL   UNL d   1      -1.901  -1.581  -5.635  0.00  0.00    -0.084 Cl
ATOM     25  C   UNL d   1      -0.305  -3.293  -6.936  0.00  0.00     0.024 A 
ATOM     26  C   UNL d   1       0.861  -4.031  -7.140  0.00  0.00     0.002 A 
ATOM     27  C   UNL d   1       1.906  -3.941  -6.226  0.00  0.00     0.001 A 
ATOM     28  C   UNL d   1       1.797  -3.098  -5.118  0.00  0.00     0.009 A 
ENDBRANCH  21  22
ENDBRANCH  20  21
ENDBRANCH   5  20
TORSDOF 8
