REMARK  5 active torsions:
REMARK  status: ('A' for Active; 'I' for Inactive)
REMARK    1  A    between atoms: C_10  and  C_1 
REMARK    2  A    between atoms: O_18  and  C_2 
REMARK    3  A    between atoms: C_3  and  C_10 
REMARK    4  A    between atoms: C_15  and  N_4 
REMARK    5  A    between atoms: C_16  and  N_7 
ROOT
ATOM      1  C   UNL d   1      -0.557  -2.840   0.067  0.00  0.00     0.218 C 
ATOM      2  O   UNL d   1       0.313  -3.612   0.476  0.00  0.00    -0.285 OA
ENDROOT
BRANCH   1   3
ATOM      3  C   UNL d   1      -1.846  -3.340  -0.380  0.00  0.00     0.124 A 
ATOM      4  N   UNL d   1      -2.572  -2.772  -1.357  0.00  0.00    -0.273 N 
ATOM      5  N   UNL d   1      -3.638  -3.601  -1.473  0.00  0.00    -0.196 N 
ATOM      6  HN  UNL d   1      -2.369  -1.922  -1.884  1.00  0.00     0.189 HD
ATOM      7  N   UNL d   1      -3.656  -4.661  -0.627  0.00  0.00    -0.281 N 
ATOM      8  C   UNL d   1      -2.498  -4.531   0.029  0.00  0.00     0.056 A 
ATOM      9  HN  UNL d   1      -4.374  -5.378  -0.519  1.00  0.00     0.189 HD
ATOM     10  C   UNL d   1      -2.064  -5.541   1.022  0.00  0.00     0.072 C 
BRANCH   5  11
ATOM     11  C   UNL d   1      -4.663  -3.367  -2.423  0.00  0.00     0.074 A 
ATOM     12  C   UNL d   1      -4.529  -2.320  -3.349  0.00  0.00     0.033 A 
ATOM     13  C   UNL d   1      -5.532  -2.095  -4.290  0.00  0.00     0.002 A 
ATOM     14  C   UNL d   1      -6.672  -2.898  -4.303  0.00  0.00     0.000 A 
ATOM     15  C   UNL d   1      -6.811  -3.936  -3.379  0.00  0.00     0.002 A 
ATOM     16  C   UNL d   1      -5.805  -4.176  -2.441  0.00  0.00     0.033 A 
ENDBRANCH   5  11
ENDBRANCH   1   3
BRANCH   1  17
ATOM     17  C   UNL d   1      -0.273  -1.410   0.006  0.00  0.00     0.093 A 
ATOM     18  C   UNL d   1       1.020  -0.918  -0.062  0.00  0.00     0.178 A 
ATOM     19  N   UNL d   1       0.941   0.466  -0.022  0.00  0.00    -0.233 N 
ATOM     20  N   UNL d   1      -0.343   0.874   0.147  0.00  0.00    -0.295 N 
ATOM     21  C   UNL d   1      -1.084  -0.238   0.075  0.00  0.00     0.041 A 
ATOM     22  HN  UNL d   1      -0.673   1.828   0.296  1.00  0.00     0.187 HD
ATOM     23  C   UNL d   1      -2.560  -0.095   0.155  0.00  0.00     0.071 C 
BRANCH  18  24
ATOM     24  O   UNL d   1       2.187  -1.577  -0.081  0.00  0.00    -0.344 OA
ATOM     25  H   UNL d   1       2.001  -2.526   0.089  0.00  0.00     0.219 HD
ENDBRANCH  18  24
BRANCH  19  26
ATOM     26  C   UNL d   1       1.998   1.411  -0.086  0.00  0.00     0.059 A 
ATOM     27  C   UNL d   1       3.176   1.118  -0.788  0.00  0.00     0.031 A 
ATOM     28  C   UNL d   1       4.215   2.050  -0.826  0.00  0.00     0.002 A 
ATOM     29  C   UNL d   1       4.098   3.259  -0.141  0.00  0.00     0.000 A 
ATOM     30  C   UNL d   1       2.927   3.554   0.556  0.00  0.00     0.002 A 
ATOM     31  C   UNL d   1       1.868   2.644   0.568  0.00  0.00     0.031 A 
ENDBRANCH  19  26
ENDBRANCH   1  17
TORSDOF 5
