REMARK  3 active torsions:
REMARK  status: ('A' for Active; 'I' for Inactive)
REMARK    1  A    between atoms: C_2  and  C_1 
REMARK       I    between atoms: N_8  and  C_2 
REMARK    2  A    between atoms: C_5  and  C_7 
REMARK    3  A    between atoms: N_9  and  N_8 
ROOT
ATOM      1  C   UNL d   1      -1.692   0.202   0.365  0.00  0.00     0.055 A 
ATOM      2  N   UNL d   1       0.402  -0.885   0.884  0.00  0.00    -0.355 N 
ATOM      3  HN  UNL d   1       0.916  -1.610   1.385  1.00  0.00     0.166 HD
ATOM      4  C   UNL d   1      -0.957  -0.800   1.004  0.00  0.00     0.021 A 
ATOM      5  C   UNL d   1       1.066   0.003   0.093  0.00  0.00     0.117 A 
ATOM      6  C   UNL d   1      -0.998   1.105  -0.452  0.00  0.00     0.021 A 
ATOM      7  C   UNL d   1       0.386   1.010  -0.588  0.00  0.00     0.035 A 
ATOM      8  C   UNL d   1      -1.556  -1.807   1.942  0.00  0.00     0.069 C 
ENDROOT
BRANCH   1   9
ATOM      9  C   UNL d   1      -3.175   0.313   0.479  0.00  0.00     0.268 C 
ATOM     10  N   UNL d   1      -3.655   1.617   0.600  0.00  0.00    -0.285 N 
ATOM     11  H   UNL d   1      -2.999   2.384   0.718  0.00  0.00     0.184 HD
ATOM     12  O   UNL d   1      -3.867  -0.695   0.439  0.00  0.00    -0.266 OA
BRANCH  10  13
ATOM     13  N   UNL d   1      -5.026   1.954   0.694  0.00  0.00    -0.225 NA
ATOM     14  C   UNL d   1      -5.803   1.648  -0.524  0.00  0.00     0.140 C 
ATOM     15  C   UNL d   1      -7.256   2.136  -0.378  0.00  0.00     0.183 C 
ATOM     16  O   UNL d   1      -7.889   1.598   0.791  0.00  0.00    -0.389 OA
ATOM     17  C   UNL d   1      -7.133   1.925   1.965  0.00  0.00     0.183 C 
ATOM     18  C   UNL d   1      -5.702   1.377   1.871  0.00  0.00     0.140 C 
ENDBRANCH  10  13
ENDBRANCH   1   9
BRANCH   5  19
ATOM     19  C   UNL d   1       2.580  -0.104  -0.059  0.00  0.00     0.432 C 
ATOM     20  F   UNL d   1       3.152  -1.109   0.659  0.00  0.00    -0.165 F 
ATOM     21  F   UNL d   1       2.958  -0.309  -1.356  0.00  0.00    -0.165 F 
ATOM     22  F   UNL d   1       3.219   1.040   0.326  0.00  0.00    -0.165 F 
ENDBRANCH   5  19
TORSDOF 3
