REMARK  7 active torsions:
REMARK  status: ('A' for Active; 'I' for Inactive)
REMARK    1  A    between atoms: C_2  and  C_1 
REMARK    2  A    between atoms: O_3  and  C_1 
REMARK    3  A    between atoms: C_4  and  O_3 
REMARK    4  A    between atoms: O_17  and  C_6 
REMARK    5  A    between atoms: C_14  and  C_18 
REMARK    6  A    between atoms: C_19  and  C_15 
REMARK    7  A    between atoms: C_18  and  C_19 
ROOT
ATOM      1  C   UNL d   1      -1.080   0.498  -0.990  0.00  0.00     0.112 A 
ATOM      2  C   UNL d   1      -1.757   0.970   0.138  0.00  0.00     0.102 A 
ATOM      3  C   UNL d   1      -3.150   1.100   0.073  0.00  0.00     0.046 A 
ATOM      4  C   UNL d   1      -1.760   0.185  -2.168  0.00  0.00     0.041 A 
ATOM      5  C   UNL d   1      -3.858   0.773  -1.099  0.00  0.00    -0.055 A 
ATOM      6  C   UNL d   1      -3.147   0.316  -2.217  0.00  0.00     0.010 A 
ENDROOT
BRANCH   1   7
ATOM      7  O   UNL d   1       0.321   0.403  -1.038  0.00  0.00    -0.272 OA
BRANCH   7   8
ATOM      8  C   UNL d   1       0.938  -0.520  -0.190  0.00  0.00     0.305 C 
ATOM      9  O   UNL d   1       0.358  -1.242   0.616  0.00  0.00    -0.258 OA
BRANCH   8  10
ATOM     10  C   UNL d   1       2.378  -0.543  -0.419  0.00  0.00     0.080 A 
ATOM     11  S   UNL d   1       3.111   0.247  -1.756  0.00  0.00    -0.096 SA
ATOM     12  C   UNL d   1       4.668  -0.312  -1.330  0.00  0.00     0.050 A 
ATOM     13  C   UNL d   1       4.647  -1.071  -0.185  0.00  0.00     0.009 A 
ATOM     14  C   UNL d   1       3.328  -1.208   0.339  0.00  0.00     0.025 A 
ENDBRANCH   8  10
ENDBRANCH   7   8
ENDBRANCH   1   7
BRANCH   2  15
ATOM     15  O   UNL d   1      -0.999   1.320   1.222  0.00  0.00    -0.353 OA
ATOM     16  C   UNL d   1      -1.666   1.296   2.479  0.00  0.00     0.210 C 
ENDBRANCH   2  15
BRANCH   5  17
ATOM     17  C   UNL d   1      -5.367   0.863  -1.141  0.00  0.00     0.046 C 
BRANCH  17  18
ATOM     18  C   UNL d   1      -5.910   2.272  -0.906  0.00  0.00     0.082 C 
BRANCH  18  19
ATOM     19  C   UNL d   1      -7.428   2.292  -0.918  0.00  0.00     0.123 C 
ATOM     20  O   UNL d   1      -8.104   1.288  -1.135  0.00  0.00    -0.298 OA
ATOM     21  C   UNL d   1      -8.083   3.622  -0.646  0.00  0.00     0.091 C 
ENDBRANCH  18  19
ENDBRANCH  17  18
ENDBRANCH   5  17
TORSDOF 7
