REMARK  3 active torsions:
REMARK  status: ('A' for Active; 'I' for Inactive)
REMARK    1  A    between atoms: C_12  and  C_4 
REMARK    2  A    between atoms: O_13  and  C_7 
REMARK    3  A    between atoms: O_14  and  C_10 
ROOT
ATOM      1  C   UNL d   1       0.084   0.240   0.040  0.00  0.00     0.081 A 
ATOM      2  C   UNL d   1      -1.109   1.089   0.062  0.00  0.00     0.190 A 
ATOM      3  C   UNL d   1      -2.410   0.412   0.063  0.00  0.00     0.094 A 
ATOM      4  C   UNL d   1      -2.453  -0.928   0.035  0.00  0.00     0.090 A 
ATOM      5  C   UNL d   1      -0.087  -1.141   0.035  0.00  0.00     0.095 A 
ATOM      6  O   UNL d   1      -1.325  -1.739   0.042  0.00  0.00    -0.309 OA
ATOM      7  C   UNL d   1       1.368   0.787   0.019  0.00  0.00     0.085 A 
ATOM      8  C   UNL d   1       1.031  -1.976   0.015  0.00  0.00     0.075 A 
ATOM      9  C   UNL d   1       2.486  -0.044  -0.004  0.00  0.00     0.074 A 
ATOM     10  C   UNL d   1       2.322  -1.432  -0.006  0.00  0.00     0.073 A 
ATOM     11  O   UNL d   1      -1.020   2.312   0.071  0.00  0.00    -0.287 OA
ENDROOT
BRANCH   4  12
ATOM     12  C   UNL d   1      -3.740  -1.658   0.006  0.00  0.00    -0.002 A 
ATOM     13  C   UNL d   1      -4.872  -1.125  -0.636  0.00  0.00     0.014 A 
ATOM     14  C   UNL d   1      -6.083  -1.821  -0.662  0.00  0.00     0.001 A 
ATOM     15  C   UNL d   1      -6.178  -3.072  -0.060  0.00  0.00     0.000 A 
ATOM     16  C   UNL d   1      -5.065  -3.625   0.568  0.00  0.00     0.001 A 
ATOM     17  C   UNL d   1      -3.856  -2.926   0.600  0.00  0.00     0.014 A 
ENDBRANCH   4  12
BRANCH   7  18
ATOM     18  O   UNL d   1       1.603   2.136   0.017  0.00  0.00    -0.360 OA
ATOM     19  H   UNL d   1       0.734   2.598   0.033  0.00  0.00     0.217 HD
ENDBRANCH   7  18
BRANCH  10  20
ATOM     20  O   UNL d   1       3.334  -2.353  -0.029  0.00  0.00    -0.356 OA
ATOM     21  C   UNL d   1       4.662  -1.840  -0.061  0.00  0.00     0.210 C 
ENDBRANCH  10  20
TORSDOF 3
