REMARK  6 active torsions:
REMARK  status: ('A' for Active; 'I' for Inactive)
REMARK    1  A    between atoms: S_2  and  C_1 
REMARK    2  A    between atoms: N_8  and  S_2 
REMARK    3  A    between atoms: C_7  and  C_4 
REMARK    4  A    between atoms: O_22  and  C_7 
REMARK    5  A    between atoms: C_20  and  N_8 
REMARK    6  A    between atoms: C_21  and  C_20 
ROOT
ATOM      1  S   UNL d   1       0.410   2.821   0.077  0.00  0.00     0.257 S 
ATOM      2  O   UNL d   1      -0.236   3.337   1.260  0.00  0.00    -0.204 OA
ATOM      3  O   UNL d   1       1.844   2.719  -0.061  0.00  0.00    -0.204 OA
ENDROOT
BRANCH   1   4
ATOM      4  C   UNL d   1      -0.140   1.129  -0.044  0.00  0.00     0.146 A 
ATOM      5  N   UNL d   1       0.153   0.157   0.904  0.00  0.00    -0.336 N 
ATOM      6  C   UNL d   1      -0.392  -1.067   0.527  0.00  0.00     0.111 A 
ATOM      7  C   UNL d   1       0.931   0.351   2.115  0.00  0.00     0.157 C 
ATOM      8  C   UNL d   1      -1.026  -0.854  -0.688  0.00  0.00     0.039 A 
ATOM      9  C   UNL d   1      -0.871   0.499  -1.038  0.00  0.00     0.046 A 
BRANCH   6  10
ATOM     10  C   UNL d   1      -0.297  -2.310   1.274  0.00  0.00     0.309 C 
ATOM     11  O   UNL d   1       0.274  -2.464   2.346  0.00  0.00    -0.258 OA
BRANCH  10  12
ATOM     12  O   UNL d   1      -0.951  -3.295   0.595  0.00  0.00    -0.321 OA
ATOM     13  C   UNL d   1      -0.945  -4.571   1.231  0.00  0.00     0.213 C 
ENDBRANCH  10  12
ENDBRANCH   6  10
ENDBRANCH   1   4
BRANCH   1  14
ATOM     14  N   UNL d   1      -0.176   3.625  -1.276  0.00  0.00    -0.210 NA
ATOM     15  H   UNL d   1       0.072   3.138  -2.136  0.00  0.00     0.140 HD
BRANCH  14  16
ATOM     16  C   UNL d   1      -1.569   4.084  -1.210  0.00  0.00     0.143 C 
BRANCH  16  17
ATOM     17  C   UNL d   1      -2.049   4.610  -2.546  0.00  0.00    -0.042 A 
ATOM     18  C   UNL d   1      -3.228   4.111  -3.124  0.00  0.00     0.048 A 
ATOM     19  C   UNL d   1      -3.637   4.638  -4.332  0.00  0.00     0.105 A 
ATOM     20  O   UNL d   1      -4.750   4.271  -5.022  0.00  0.00    -0.323 OA
ATOM     21  C   UNL d   1      -2.928   5.628  -4.971  0.00  0.00     0.105 A 
ATOM     22  C   UNL d   1      -4.665   5.149  -6.164  0.00  0.00     0.352 A 
ATOM     23  O   UNL d   1      -3.505   6.006  -6.143  0.00  0.00    -0.323 OA
ATOM     24  C   UNL d   1      -1.771   6.149  -4.436  0.00  0.00     0.040 A 
ATOM     25  C   UNL d   1      -1.332   5.635  -3.210  0.00  0.00     0.011 A 
ENDBRANCH  16  17
ENDBRANCH  14  16
ENDBRANCH   1  14
TORSDOF 6
