REMARK  6 active torsions:
REMARK  status: ('A' for Active; 'I' for Inactive)
REMARK    1  A    between atoms: C_10  and  C_1 
REMARK    2  A    between atoms: C_12  and  C_2 
REMARK    3  A    between atoms: N_8  and  C_3 
REMARK    4  A    between atoms: S_6  and  N_9 
REMARK    5  A    between atoms: C_14  and  S_6 
REMARK       I    between atoms: C_11  and  N_8 
REMARK       I    between atoms: N_9  and  C_11 
REMARK    6  A    between atoms: C_13  and  C_15 
ROOT
ATOM      1  C   UNL d   1       1.502   0.871  -0.329  0.00  0.00     0.147 C 
ATOM      2  C   UNL d   1       1.431  -0.564  -0.301  0.00  0.00     0.053 C 
ATOM      3  C   UNL d   1       0.079  -0.845  -0.475  0.00  0.00     0.139 C 
ATOM      4  N   UNL d   1       0.289   1.400  -0.582  0.00  0.00    -0.292 N 
ATOM      5  HN  UNL d   1       0.036   2.388  -0.604  1.00  0.00     0.187 HD
ATOM      6  N   UNL d   1      -0.515   0.348  -0.798  0.00  0.00    -0.280 N 
ATOM      7  C   UNL d   1      -1.857   0.612  -1.261  0.00  0.00     0.179 C 
ENDROOT
BRANCH   3   8
ATOM      8  N   UNL d   1      -0.521  -2.071  -0.222  0.00  0.00    -0.292 N 
ATOM      9  C   UNL d   1      -0.898  -2.971  -1.251  0.00  0.00     0.335 C 
ATOM     10  N   UNL d   1      -0.848  -4.285  -0.854  0.00  0.00    -0.232 N 
ATOM     11  O   UNL d   1      -1.179  -2.551  -2.358  0.00  0.00    -0.246 OA
ATOM     12  H   UNL d   1      -0.443  -4.605   0.016  0.00  0.00     0.183 HD
ATOM     13  H   UNL d   1      -0.404  -2.448   0.706  0.00  0.00     0.172 HD
BRANCH  10  14
ATOM     14  S   UNL d   1      -1.361  -5.565  -1.770  0.00  0.00     0.266 S 
ATOM     15  O   UNL d   1      -0.882  -6.730  -1.060  0.00  0.00    -0.200 OA
ATOM     16  O   UNL d   1      -2.770  -5.363  -2.019  0.00  0.00    -0.200 OA
BRANCH  14  17
ATOM     17  C   UNL d   1      -0.463  -5.463  -3.288  0.00  0.00     0.080 A 
ATOM     18  C   UNL d   1       0.935  -5.488  -3.275  0.00  0.00     0.026 A 
ATOM     19  C   UNL d   1       1.628  -5.505  -4.488  0.00  0.00     0.008 A 
ATOM     20  C   UNL d   1       0.932  -5.525  -5.706  0.00  0.00    -0.062 A 
ATOM     21  C   UNL d   1      -0.468  -5.466  -5.699  0.00  0.00     0.008 A 
ATOM     22  C   UNL d   1       1.682  -5.651  -7.000  0.00  0.00     0.048 C 
ATOM     23  C   UNL d   1      -1.166  -5.436  -4.494  0.00  0.00     0.026 A 
ENDBRANCH  14  17
ENDBRANCH  10  14
ENDBRANCH   3   8
BRANCH   2  24
ATOM     24  C   UNL d   1       2.494  -1.572  -0.272  0.00  0.00    -0.019 A 
ATOM     25  C   UNL d   1       2.372  -2.776   0.433  0.00  0.00     0.028 A 
ATOM     26  C   UNL d   1       3.316  -3.812   0.290  0.00  0.00     0.048 A 
ATOM     27  C   UNL d   1       4.459  -3.589  -0.484  0.00  0.00     0.016 A 
ATOM     28  C   UNL d   1       4.630  -2.373  -1.137  0.00  0.00     0.002 A 
ATOM     29  C   UNL d   1       3.640  -1.389  -1.059  0.00  0.00     0.012 A 
BRANCH  26  30
ATOM     30  C   UNL d   1       3.076  -5.164   0.919  0.00  0.00     0.417 C 
ATOM     31  F   UNL d   1       1.847  -5.236   1.512  0.00  0.00    -0.166 F 
ATOM     32  F   UNL d   1       3.089  -6.162  -0.005  0.00  0.00    -0.166 F 
ATOM     33  F   UNL d   1       3.986  -5.491   1.868  0.00  0.00    -0.166 F 
ENDBRANCH  26  30
ENDBRANCH   2  24
BRANCH   1  34
ATOM     34  C   UNL d   1       2.691   1.783  -0.121  0.00  0.00     0.434 C 
ATOM     35  F   UNL d   1       3.832   1.112   0.183  0.00  0.00    -0.165 F 
ATOM     36  F   UNL d   1       2.960   2.515  -1.233  0.00  0.00    -0.165 F 
ATOM     37  F   UNL d   1       2.488   2.659   0.898  0.00  0.00    -0.165 F 
ENDBRANCH   1  34
TORSDOF 6
