REMARK  4 active torsions:
REMARK  status: ('A' for Active; 'I' for Inactive)
REMARK       I    between atoms: N_3  and  C_1 
REMARK    1  A    between atoms: O_5  and  C_1 
REMARK    2  A    between atoms: C_8  and  N_3 
REMARK    3  A    between atoms: C_7  and  O_5 
REMARK    4  A    between atoms: C_14  and  C_9 
ROOT
ATOM      1  N   UNL d   1      -6.401   1.542   0.888  0.00  0.00    -0.197 NA
ATOM      2  C   UNL d   1      -5.929   0.491   1.020  0.00  0.00     0.063 C 
ATOM      3  C   UNL d   1      -5.367  -0.859   1.196  0.00  0.00     0.162 C 
ENDROOT
BRANCH   3   4
ATOM      4  C   UNL d   1      -3.856  -0.870   1.183  0.00  0.00    -0.045 A 
ATOM      5  C   UNL d   1      -3.123  -0.641   2.360  0.00  0.00     0.011 A 
ATOM      6  C   UNL d   1      -1.726  -0.578   2.328  0.00  0.00     0.038 A 
ATOM      7  C   UNL d   1      -1.058  -0.735   1.115  0.00  0.00     0.081 A 
ATOM      8  C   UNL d   1      -1.769  -1.024  -0.050  0.00  0.00     0.038 A 
ATOM      9  C   UNL d   1      -3.163  -1.069  -0.020  0.00  0.00     0.011 A 
BRANCH   7  10
ATOM     10  O   UNL d   1       0.349  -0.636   1.133  0.00  0.00    -0.261 OA
BRANCH  10  11
ATOM     11  C   UNL d   1       0.960   0.096   0.111  0.00  0.00     0.370 C 
ATOM     12  N   UNL d   1       2.326  -0.013   0.225  0.00  0.00    -0.302 N 
ATOM     13  H   UNL d   1       2.643  -0.570   1.007  0.00  0.00     0.171 HD
ATOM     14  O   UNL d   1       0.349   0.710  -0.755  0.00  0.00    -0.238 OA
BRANCH  12  15
ATOM     15  C   UNL d   1       3.294   0.459  -0.688  0.00  0.00     0.036 A 
ATOM     16  C   UNL d   1       2.985   1.248  -1.799  0.00  0.00     0.029 A 
ATOM     17  C   UNL d   1       3.977   1.620  -2.711  0.00  0.00     0.002 A 
ATOM     18  C   UNL d   1       5.293   1.215  -2.514  0.00  0.00     0.000 A 
ATOM     19  C   UNL d   1       5.620   0.455  -1.394  0.00  0.00     0.002 A 
ATOM     20  C   UNL d   1       4.627   0.085  -0.480  0.00  0.00     0.029 A 
ENDBRANCH  12  15
ENDBRANCH  10  11
ENDBRANCH   7  10
ENDBRANCH   3   4
TORSDOF 4
