REMARK  3 active torsions:
REMARK  status: ('A' for Active; 'I' for Inactive)
REMARK    1  A    between atoms: C_2  and  C_1 
REMARK    2  A    between atoms: N_3  and  C_5 
REMARK    3  A    between atoms: N_4  and  C_6 
ROOT
ATOM      1  C   UNL d   1       0.276   1.183  -0.019  0.00  0.00     0.016 A 
ATOM      2  C   UNL d   1      -1.083   1.050   0.403  0.00  0.00     0.114 A 
ATOM      3  C   UNL d   1       0.889  -0.033  -0.455  0.00  0.00    -0.048 A 
ATOM      4  C   UNL d   1      -1.780  -0.177   0.399  0.00  0.00     0.037 A 
ATOM      5  C   UNL d   1      -1.165  -1.319  -0.082  0.00  0.00     0.003 A 
ATOM      6  C   UNL d   1       0.148  -1.240  -0.521  0.00  0.00     0.007 A 
ATOM      7  C   UNL d   1       2.323  -0.163  -0.910  0.00  0.00     0.049 C 
ENDROOT
BRANCH   1   8
ATOM      8  C   UNL d   1       1.040   2.494   0.009  0.00  0.00     0.016 A 
ATOM      9  C   UNL d   1       1.203   3.291   1.184  0.00  0.00     0.114 A 
ATOM     10  C   UNL d   1       1.889   4.524   1.198  0.00  0.00     0.037 A 
ATOM     11  C   UNL d   1       2.501   4.987   0.048  0.00  0.00     0.003 A 
ATOM     12  C   UNL d   1       2.395   4.240  -1.116  0.00  0.00     0.007 A 
ATOM     13  C   UNL d   1       1.643   3.038  -1.169  0.00  0.00    -0.048 A 
ATOM     14  C   UNL d   1       1.584   2.407  -2.539  0.00  0.00     0.049 C 
BRANCH   9  15
ATOM     15  N   UNL d   1       0.686   2.877   2.485  0.00  0.00    -0.115 N 
ATOM     16  O   UNL d   1       0.894   1.705   2.837  0.00  0.00    -0.532 OA
ATOM     17  O   UNL d   1       0.093   3.727   3.162  0.00  0.00    -0.532 OA
ENDBRANCH   9  15
ENDBRANCH   1   8
BRANCH   2  18
ATOM     18  N   UNL d   1      -1.885   2.193   0.837  0.00  0.00    -0.115 N 
ATOM     19  O   UNL d   1      -1.826   3.221   0.154  0.00  0.00    -0.532 OA
ATOM     20  O   UNL d   1      -2.581   2.047   1.852  0.00  0.00    -0.532 OA
ENDBRANCH   2  18
TORSDOF 3
