REMARK  5 active torsions:
REMARK  status: ('A' for Active; 'I' for Inactive)
REMARK    1  A    between atoms: C_2  and  S_1 
REMARK    2  A    between atoms: N_6  and  S_1 
REMARK    3  A    between atoms: C_17  and  N_10 
REMARK    4  A    between atoms: C_18  and  C_17 
REMARK    5  A    between atoms: C_19  and  C_18 
ROOT
ATOM      1  N   UNL d   1       0.573  -0.972   0.923  0.00  0.00    -0.203 NA
ATOM      2  N   UNL d   1       1.248  -3.836   0.390  0.00  0.00     0.091 N 
ATOM      3  C   UNL d   1       1.628  -1.671   1.724  0.00  0.00     0.138 C 
ATOM      4  C   UNL d   1      -0.461  -1.956   0.481  0.00  0.00     0.138 C 
ATOM      5  C   UNL d   1       2.228  -2.879   0.958  0.00  0.00     0.287 C 
ATOM      6  C   UNL d   1       0.184  -3.099  -0.328  0.00  0.00     0.287 C 
ENDROOT
BRANCH   1   7
ATOM      7  S   UNL d   1       1.135   0.068  -0.306  0.00  0.00     0.246 S 
ATOM      8  O   UNL d   1       2.510  -0.258  -0.620  0.00  0.00    -0.206 OA
ATOM      9  O   UNL d   1       0.136   0.178  -1.342  0.00  0.00    -0.206 OA
BRANCH   7  10
ATOM     10  C   UNL d   1       1.228   1.681   0.306  0.00  0.00     0.105 A 
ATOM     11  C   UNL d   1       0.160   2.407   0.773  0.00  0.00     0.099 A 
ATOM     12  S   UNL d   1       0.561   4.029   1.101  0.00  0.00    -0.064 SA
ATOM     13 CL   UNL d   1      -1.468   1.911   1.015  0.00  0.00    -0.075 Cl
ATOM     14  C   UNL d   1       2.169   3.763   0.646  0.00  0.00     0.077 A 
ATOM     15  C   UNL d   1       2.426   2.467   0.282  0.00  0.00     0.058 A 
ATOM     16 CL   UNL d   1       3.288   5.065   0.646  0.00  0.00    -0.076 Cl
ENDBRANCH   7  10
ENDBRANCH   1   7
BRANCH   2  17
ATOM     17  C   UNL d   1       0.745  -4.770   1.411  0.00  0.00     0.277 C 
BRANCH  17  18
ATOM     18  C   UNL d   1      -0.050  -5.942   0.807  0.00  0.00     0.068 C 
BRANCH  18  19
ATOM     19  C   UNL d   1      -0.521  -6.913   1.861  0.00  0.00    -0.057 A 
ATOM     20  C   UNL d   1      -1.723  -6.682   2.545  0.00  0.00     0.007 A 
ATOM     21  C   UNL d   1      -2.170  -7.586   3.508  0.00  0.00     0.001 A 
ATOM     22  C   UNL d   1      -1.420  -8.724   3.798  0.00  0.00     0.000 A 
ATOM     23  C   UNL d   1      -0.218  -8.956   3.130  0.00  0.00     0.001 A 
ATOM     24  C   UNL d   1       0.232  -8.053   2.167  0.00  0.00     0.007 A 
ENDBRANCH  18  19
ENDBRANCH  17  18
ENDBRANCH   2  17
TORSDOF 5
