REMARK  5 active torsions:
REMARK  status: ('A' for Active; 'I' for Inactive)
REMARK    1  A    between atoms: C_8  and  C_1 
REMARK    2  A    between atoms: C_5  and  C_4 
REMARK    3  A    between atoms: S_12  and  C_8 
REMARK    4  A    between atoms: C_21  and  S_12 
REMARK    5  A    between atoms: C_13  and  C_21 
ROOT
ATOM      1  C   UNL d   1       1.897   1.030   0.332  0.00  0.00     0.093 A 
ATOM      2  N   UNL d   1       2.285  -0.708   0.839  0.00  0.00    -0.370 N 
ATOM      3  HN  UNL d   1       3.084  -0.949   1.426  1.00  0.00     0.161 HD
ATOM      4  C   UNL d   1       1.242  -1.820   0.269  0.00  0.00     0.180 A 
ATOM      5  S   UNL d   1      -0.441  -0.839  -1.191  0.00  0.00    -0.111 SA
ATOM      6  C   UNL d   1       0.534   1.195  -0.733  0.00  0.00     0.081 A 
ENDROOT
BRANCH   4   7
ATOM      7  C   UNL d   1       0.784  -3.080   0.420  0.00  0.00     0.186 C 
ATOM      8  O   UNL d   1       1.048  -3.283  -1.052  0.00  0.00    -0.338 OA
ATOM      9  C   UNL d   1       1.832  -2.236  -1.721  0.00  0.00     0.102 A 
ATOM     10  C   UNL d   1       2.605  -2.630  -2.792  0.00  0.00     0.039 A 
ATOM     11  C   UNL d   1       1.790  -0.693  -1.215  0.00  0.00     0.102 A 
ATOM     12  C   UNL d   1       3.354  -1.640  -3.436  0.00  0.00     0.003 A 
ATOM     13  C   UNL d   1       3.311  -0.269  -3.068  0.00  0.00     0.003 A 
ATOM     14  C   UNL d   1       2.544   0.239  -2.000  0.00  0.00     0.039 A 
ATOM     15  O   UNL d   1       0.593  -0.281   0.345  0.00  0.00    -0.346 OA
ATOM     16  C   UNL d   1      -0.052  -1.792   1.130  0.00  0.00     0.211 C 
ENDBRANCH   4   7
BRANCH   1  17
ATOM     17  C   UNL d   1       2.789   2.095   0.768  0.00  0.00     0.235 C 
ATOM     18  O   UNL d   1       3.924   1.904   1.187  0.00  0.00    -0.278 OA
BRANCH  17  19
ATOM     19  S   UNL d   1       2.123   3.711   0.640  0.00  0.00    -0.079 SA
BRANCH  19  20
ATOM     20  C   UNL d   1       3.645   4.599   0.203  0.00  0.00     0.147 C 
BRANCH  20  21
ATOM     21  C   UNL d   1       3.892   4.549  -1.261  0.00  0.00     0.062 A 
ATOM     22  O   UNL d   1       3.229   5.472  -2.018  0.00  0.00    -0.326 OA
ATOM     23  C   UNL d   1       3.601   5.271  -3.308  0.00  0.00     0.142 A 
ATOM     24  C   UNL d   1       4.495   4.231  -3.394  0.00  0.00     0.027 A 
ATOM     25  C   UNL d   1       4.686   3.762  -2.070  0.00  0.00     0.035 A 
ENDBRANCH  20  21
ENDBRANCH  19  20
ENDBRANCH  17  19
ENDBRANCH   1  17
TORSDOF 5
