REMARK  4 active torsions:
REMARK  status: ('A' for Active; 'I' for Inactive)
REMARK    1  A    between atoms: C_2  and  C_1 
REMARK    2  A    between atoms: C_16  and  C_10 
REMARK    3  A    between atoms: N_13  and  N_15 
REMARK    4  A    between atoms: C_18  and  C_17 
ROOT
ATOM      1  C   UNL d   1      -1.536   2.256   0.004  0.00  0.00     0.077 A 
ATOM      2  N   UNL d   1      -2.521   2.452   0.947  0.00  0.00    -0.333 N 
ATOM      3  HN  UNL d   1      -2.795   1.767   1.651  1.00  0.00     0.168 HD
ATOM      4  C   UNL d   1      -3.059   3.644   0.814  0.00  0.00     0.163 A 
ATOM      5  S   UNL d   1      -2.443   4.562  -0.514  0.00  0.00    -0.062 SA
ATOM      6  C   UNL d   1      -1.330   3.304  -0.864  0.00  0.00     0.085 A 
ATOM      7  N   UNL d   1      -4.004   4.174   1.637  0.00  0.00    -0.280 N 
ATOM      8  H   UNL d   1      -4.292   5.126   1.429  0.00  0.00     0.189 HD
ENDROOT
BRANCH   1   9
ATOM      9  C   UNL d   1      -0.774   0.985  -0.042  0.00  0.00     0.128 A 
ATOM     10  C   UNL d   1      -1.010  -0.114   0.747  0.00  0.00     0.074 A 
ATOM     11  C   UNL d   1      -0.081  -1.092   0.312  0.00  0.00     0.068 A 
ATOM     12  N   UNL d   1       0.694  -0.589  -0.665  0.00  0.00    -0.260 N 
ATOM     13  O   UNL d   1       0.256   0.703  -0.883  0.00  0.00    -0.235 OA
ATOM     14  HN  UNL d   1       1.454  -1.067  -1.149  1.00  0.00     0.195 HD
BRANCH  11  15
ATOM     15  C   UNL d   1       0.056  -2.472   0.776  0.00  0.00    -0.007 A 
ATOM     16  C   UNL d   1       0.589  -3.453  -0.073  0.00  0.00     0.014 A 
ATOM     17  C   UNL d   1       0.687  -4.782   0.344  0.00  0.00     0.001 A 
ATOM     18  C   UNL d   1       0.259  -5.145   1.619  0.00  0.00     0.000 A 
ATOM     19  C   UNL d   1      -0.264  -4.180   2.478  0.00  0.00     0.001 A 
ATOM     20  C   UNL d   1      -0.368  -2.850   2.059  0.00  0.00     0.014 A 
ENDBRANCH  11  15
ENDBRANCH   1   9
BRANCH   7  21
ATOM     21  N   UNL d   1      -4.146   3.707   2.909  0.00  0.00    -0.309 N 
ATOM     22  C   UNL d   1      -5.028   4.301   3.645  0.00  0.00     0.118 C 
ATOM     23  HN  UNL d   1      -3.586   2.931   3.263  1.00  0.00     0.186 HD
BRANCH  22  24
ATOM     24  C   UNL d   1      -5.206   3.917   5.060  0.00  0.00    -0.019 A 
ATOM     25  C   UNL d   1      -4.379   2.950   5.644  0.00  0.00     0.014 A 
ATOM     26  C   UNL d   1      -4.539   2.615   6.990  0.00  0.00     0.024 A 
ATOM     27  C   UNL d   1      -5.527   3.246   7.745  0.00  0.00     0.034 A 
ATOM     28  C   UNL d   1      -6.354   4.210   7.166  0.00  0.00     0.024 A 
ATOM     29 CL   UNL d   1      -5.726   2.836   9.403  0.00  0.00    -0.084 Cl
ATOM     30  C   UNL d   1      -6.195   4.551   5.819  0.00  0.00     0.014 A 
ENDBRANCH  22  24
ENDBRANCH   7  21
TORSDOF 4
