REMARK  7 active torsions:
REMARK  status: ('A' for Active; 'I' for Inactive)
REMARK    1  A    between atoms: C_13  and  N_1 
REMARK    2  A    between atoms: S_10  and  C_2 
REMARK    3  A    between atoms: C_22  and  S_10 
REMARK    4  A    between atoms: O_27  and  C_11 
REMARK    5  A    between atoms: O_28  and  C_12 
REMARK    6  A    between atoms: C_17  and  C_22 
REMARK       I    between atoms: N_18  and  C_17 
REMARK    7  A    between atoms: C_19  and  N_18 
ROOT
ATOM      1  N   UNL d   1       2.259   0.944   0.295  0.00  0.00    -0.258 N 
ATOM      2  C   UNL d   1       2.243  -0.430   0.485  0.00  0.00     0.155 A 
ATOM      3  C   UNL d   1       1.058   1.626   0.077  0.00  0.00     0.267 A 
ATOM      4  C   UNL d   1      -0.169   0.814   0.075  0.00  0.00     0.062 A 
ATOM      5  N   UNL d   1       1.190  -1.180   0.410  0.00  0.00    -0.335 N 
ATOM      6  HN  UNL d   1       1.259  -2.193   0.507  1.00  0.00     0.168 HD
ATOM      7  C   UNL d   1      -0.042  -0.562   0.193  0.00  0.00     0.052 A 
ATOM      8  C   UNL d   1      -1.422   1.403  -0.045  0.00  0.00     0.059 A 
ATOM      9  C   UNL d   1      -1.192  -1.354   0.171  0.00  0.00     0.070 A 
ATOM     10  C   UNL d   1      -2.582   0.618  -0.019  0.00  0.00     0.102 A 
ATOM     11  C   UNL d   1      -2.469  -0.781   0.073  0.00  0.00     0.103 A 
ATOM     12  O   UNL d   1       0.946   2.832  -0.140  0.00  0.00    -0.267 OA
ENDROOT
BRANCH   2  13
ATOM     13  S   UNL d   1       3.670  -1.288   1.023  0.00  0.00    -0.084 SA
BRANCH  13  14
ATOM     14  C   UNL d   1       3.563  -0.905   2.791  0.00  0.00     0.185 C 
BRANCH  14  15
ATOM     15  C   UNL d   1       2.401  -1.485   3.593  0.00  0.00     0.231 C 
ATOM     16  N   UNL d   1       1.601  -2.433   2.988  0.00  0.00    -0.326 N 
ATOM     17  H   UNL d   1       1.805  -2.634   2.010  0.00  0.00     0.169 HD
ATOM     18  O   UNL d   1       2.265  -1.108   4.758  0.00  0.00    -0.272 OA
BRANCH  16  19
ATOM     19  C   UNL d   1       0.496  -3.117   3.554  0.00  0.00     0.036 A 
ATOM     20  C   UNL d   1      -0.031  -2.842   4.822  0.00  0.00     0.056 A 
ATOM     21  C   UNL d   1      -1.109  -3.582   5.320  0.00  0.00     0.074 A 
ATOM     22 CL   UNL d   1      -1.740  -3.223   6.883  0.00  0.00    -0.081 Cl
ATOM     23  C   UNL d   1      -1.667  -4.602   4.556  0.00  0.00     0.138 A 
ATOM     24  C   UNL d   1      -1.166  -4.880   3.290  0.00  0.00     0.046 A 
ATOM     25  F   UNL d   1      -2.690  -5.334   5.021  0.00  0.00    -0.204 F 
ATOM     26  C   UNL d   1      -0.094  -4.134   2.787  0.00  0.00     0.032 A 
ENDBRANCH  16  19
ENDBRANCH  14  15
ENDBRANCH  13  14
ENDBRANCH   2  13
BRANCH   1  27
ATOM     27  C   UNL d   1       3.455   1.718   0.171  0.00  0.00     0.044 A 
ATOM     28  C   UNL d   1       3.627   2.864   0.964  0.00  0.00     0.030 A 
ATOM     29  C   UNL d   1       4.697   3.730   0.740  0.00  0.00     0.002 A 
ATOM     30  C   UNL d   1       5.595   3.471  -0.293  0.00  0.00     0.000 A 
ATOM     31  C   UNL d   1       5.439   2.332  -1.082  0.00  0.00     0.002 A 
ATOM     32  C   UNL d   1       4.381   1.448  -0.845  0.00  0.00     0.030 A 
ENDBRANCH   1  27
BRANCH  11  33
ATOM     33  O   UNL d   1      -3.618  -1.524   0.051  0.00  0.00    -0.353 OA
ATOM     34  C   UNL d   1      -3.516  -2.933   0.216  0.00  0.00     0.210 C 
ENDBRANCH  11  33
BRANCH  10  35
ATOM     35  O   UNL d   1      -3.718   1.375  -0.111  0.00  0.00    -0.353 OA
ATOM     36  C   UNL d   1      -4.944   0.796   0.308  0.00  0.00     0.210 C 
ENDBRANCH  10  35
TORSDOF 7
