REMARK  4 active torsions:
REMARK  status: ('A' for Active; 'I' for Inactive)
REMARK    1  A    between atoms: N_9  and  C_1 
REMARK    2  A    between atoms: C_10  and  C_2 
REMARK       I    between atoms: C_7  and  N_9 
REMARK       I    between atoms: N_11  and  C_7 
REMARK    3  A    between atoms: C_8  and  C_12 
REMARK    4  A    between atoms: C_21  and  N_11 
ROOT
ATOM      1  C   UNL d   1      -0.266  -1.298  -0.605  0.00  0.00     0.097 A 
ATOM      2  C   UNL d   1      -1.624  -1.069  -0.509  0.00  0.00     0.137 A 
ATOM      3  O   UNL d   1      -1.902   0.184  -0.953  0.00  0.00    -0.235 OA
ATOM      4  N   UNL d   1      -0.739   0.786  -1.392  0.00  0.00    -0.263 N 
ATOM      5  HN  UNL d   1      -0.645   1.721  -1.788  1.00  0.00     0.194 HD
ATOM      6  C   UNL d   1       0.242  -0.106  -1.191  0.00  0.00     0.058 A 
ATOM      7  C   UNL d   1       1.629   0.286  -1.539  0.00  0.00     0.072 C 
ENDROOT
BRANCH   1   8
ATOM      8  N   UNL d   1       0.316  -2.472  -0.161  0.00  0.00    -0.304 N 
ATOM      9  C   UNL d   1       1.415  -3.163  -0.573  0.00  0.00     0.325 C 
ATOM     10  N   UNL d   1       1.889  -2.874  -1.823  0.00  0.00    -0.309 N 
ATOM     11  O   UNL d   1       1.813  -4.065   0.164  0.00  0.00    -0.247 OA
ATOM     12  H   UNL d   1       1.379  -2.179  -2.342  0.00  0.00     0.170 HD
ATOM     13  H   UNL d   1      -0.173  -2.960   0.583  0.00  0.00     0.171 HD
BRANCH  10  14
ATOM     14  C   UNL d   1       2.917  -3.542  -2.521  0.00  0.00     0.036 A 
ATOM     15  C   UNL d   1       3.591  -4.666  -2.034  0.00  0.00     0.031 A 
ATOM     16  C   UNL d   1       4.597  -5.277  -2.789  0.00  0.00     0.026 A 
ATOM     17  C   UNL d   1       4.940  -4.760  -4.034  0.00  0.00     0.034 A 
ATOM     18  C   UNL d   1       4.273  -3.646  -4.537  0.00  0.00     0.026 A 
ATOM     19 CL   UNL d   1       6.192  -5.498  -4.953  0.00  0.00    -0.084 Cl
ATOM     20  C   UNL d   1       3.260  -3.044  -3.784  0.00  0.00     0.031 A 
ENDBRANCH  10  14
ENDBRANCH   1   8
BRANCH   2  21
ATOM     21  C   UNL d   1      -2.771  -1.918  -0.222  0.00  0.00     0.002 A 
ATOM     22  C   UNL d   1      -3.880  -1.458   0.494  0.00  0.00     0.015 A 
ATOM     23  C   UNL d   1      -4.992  -2.289   0.686  0.00  0.00     0.017 A 
ATOM     24  C   UNL d   1      -5.014  -3.591   0.160  0.00  0.00     0.048 A 
ATOM     25  C   UNL d   1      -3.894  -4.056  -0.540  0.00  0.00     0.017 A 
ATOM     26  C   UNL d   1      -2.789  -3.229  -0.727  0.00  0.00     0.015 A 
BRANCH  24  27
ATOM     27  C   UNL d   1      -6.221  -4.485   0.298  0.00  0.00     0.417 C 
ATOM     28  F   UNL d   1      -7.218  -3.948   1.054  0.00  0.00    -0.166 F 
ATOM     29  F   UNL d   1      -6.783  -4.781  -0.907  0.00  0.00    -0.166 F 
ATOM     30  F   UNL d   1      -5.918  -5.683   0.872  0.00  0.00    -0.166 F 
ENDBRANCH  24  27
ENDBRANCH   2  21
TORSDOF 4
