REMARK  3 active torsions:
REMARK  status: ('A' for Active; 'I' for Inactive)
REMARK    1  A    between atoms: C_6  and  C_1 
REMARK    2  A    between atoms: C_13  and  N_4 
REMARK       I    between atoms: N_5  and  C_6 
REMARK    3  A    between atoms: S_15  and  C_10 
ROOT
ATOM      1  C   UNL d   1      -0.261  -1.240  -0.091  0.00  0.00     0.142 A 
ATOM      2  N   UNL d   1       1.003  -0.789  -0.182  0.00  0.00    -0.272 N 
ATOM      3  HN  UNL d   1       1.861  -1.327  -0.309  1.00  0.00     0.189 HD
ATOM      4  N   UNL d   1       0.859   0.555  -0.064  0.00  0.00    -0.196 N 
ATOM      5  N   UNL d   1      -0.410   1.000   0.110  0.00  0.00    -0.281 N 
ATOM      6  HN  UNL d   1      -0.736   1.955   0.261  1.00  0.00     0.189 HD
ATOM      7  C   UNL d   1      -1.128  -0.127   0.035  0.00  0.00     0.057 A 
ATOM      8  C   UNL d   1      -2.605  -0.097   0.133  0.00  0.00     0.072 C 
ENDROOT
BRANCH   1   9
ATOM      9  C   UNL d   1      -0.626  -2.666  -0.129  0.00  0.00     0.280 C 
ATOM     10  N   UNL d   1       0.254  -3.562   0.500  0.00  0.00    -0.291 N 
ATOM     11  C   UNL d   1       0.346  -4.944   0.398  0.00  0.00     0.144 C 
ATOM     12  C   UNL d   1       1.317  -3.167   1.387  0.00  0.00     0.154 C 
ATOM     13  N   UNL d   1       1.169  -5.532   1.213  0.00  0.00    -0.369 N 
ATOM     14  C   UNL d   1       1.682  -4.460   2.084  0.00  0.00     0.142 C 
ATOM     15  HN  UNL d   1       1.409  -6.523   1.243  1.00  0.00     0.161 HD
ATOM     16  O   UNL d   1      -1.719  -2.999  -0.584  0.00  0.00    -0.265 OA
BRANCH  11  17
ATOM     17  S   UNL d   1      -0.540  -5.824  -0.797  0.00  0.00    -0.098 SA
ATOM     18  C   UNL d   1      -0.260  -7.519  -0.231  0.00  0.00     0.099 C 
ENDBRANCH  11  17
ENDBRANCH   1   9
BRANCH   4  19
ATOM     19  C   UNL d   1       1.974   1.431  -0.089  0.00  0.00     0.074 A 
ATOM     20  C   UNL d   1       3.242   0.940  -0.437  0.00  0.00     0.033 A 
ATOM     21  C   UNL d   1       4.336   1.806  -0.481  0.00  0.00     0.002 A 
ATOM     22  C   UNL d   1       4.174   3.153  -0.159  0.00  0.00     0.000 A 
ATOM     23  C   UNL d   1       2.918   3.642   0.201  0.00  0.00     0.002 A 
ATOM     24  C   UNL d   1       1.814   2.786   0.230  0.00  0.00     0.033 A 
ENDBRANCH   4  19
TORSDOF 3
