REMARK  4 active torsions:
REMARK  status: ('A' for Active; 'I' for Inactive)
REMARK    1  A    between atoms: C_8  and  C_1 
REMARK    2  A    between atoms: C_10  and  C_7 
REMARK    3  A    between atoms: C_9  and  O_12 
REMARK    4  A    between atoms: O_12  and  C_18 
ROOT
ATOM      1  C   UNL d   1      -0.222  -1.065  -0.109  0.00  0.00     0.176 A 
ATOM      2  O   UNL d   1      -1.070   0.008  -0.019  0.00  0.00    -0.273 OA
ATOM      3  N   UNL d   1       1.044  -0.703  -0.095  0.00  0.00    -0.277 N 
ATOM      4  HN  UNL d   1       1.854  -1.322  -0.120  1.00  0.00     0.189 HD
ATOM      5  N   UNL d   1       1.062   0.677  -0.039  0.00  0.00    -0.277 N 
ATOM      6  HN  UNL d   1       1.886   1.278  -0.028  1.00  0.00     0.189 HD
ATOM      7  C   UNL d   1      -0.199   1.064  -0.002  0.00  0.00     0.174 A 
ENDROOT
BRANCH   7   8
ATOM      8  C   UNL d   1      -0.763   2.405   0.084  0.00  0.00     0.017 A 
ATOM      9  C   UNL d   1      -2.147   2.634   0.127  0.00  0.00     0.018 A 
ATOM     10  C   UNL d   1      -2.659   3.933   0.257  0.00  0.00     0.038 A 
ATOM     11  C   UNL d   1      -1.794   5.018   0.377  0.00  0.00     0.078 A 
ATOM     12  C   UNL d   1      -0.418   4.804   0.275  0.00  0.00     0.038 A 
ATOM     13  C   UNL d   1       0.094   3.511   0.134  0.00  0.00     0.018 A 
BRANCH  11  14
ATOM     14  O   UNL d   1      -2.159   6.318   0.536  0.00  0.00    -0.255 OA
BRANCH  14  15
ATOM     15  C   UNL d   1      -3.324   6.621   1.292  0.00  0.00     0.530 C 
ATOM     16  F   UNL d   1      -3.836   5.569   1.965  0.00  0.00    -0.144 F 
ATOM     17  F   UNL d   1      -3.008   7.574   2.199  0.00  0.00    -0.144 F 
ATOM     18  F   UNL d   1      -4.272   7.119   0.472  0.00  0.00    -0.144 F 
ENDBRANCH  14  15
ENDBRANCH  11  14
ENDBRANCH   7   8
BRANCH   1  19
ATOM     19  C   UNL d   1      -0.795  -2.405  -0.143  0.00  0.00     0.038 A 
ATOM     20  C   UNL d   1      -2.071  -2.723  -0.642  0.00  0.00     0.048 A 
ATOM     21 CL   UNL d   1      -3.165  -1.550  -1.293  0.00  0.00    -0.083 Cl
ATOM     22  C   UNL d   1      -2.509  -4.056  -0.674  0.00  0.00     0.025 A 
ATOM     23  C   UNL d   1      -1.690  -5.085  -0.212  0.00  0.00     0.002 A 
ATOM     24  C   UNL d   1      -0.429  -4.789   0.290  0.00  0.00     0.001 A 
ATOM     25  C   UNL d   1       0.013  -3.464   0.323  0.00  0.00     0.017 A 
ENDBRANCH   1  19
TORSDOF 4
