REMARK  4 active torsions:
REMARK  status: ('A' for Active; 'I' for Inactive)
REMARK    1  A    between atoms: C_6  and  C_1 
REMARK    2  A    between atoms: S_9  and  C_5 
REMARK    3  A    between atoms: O_12  and  C_6 
REMARK    4  A    between atoms: C_14  and  O_12 
ROOT
ATOM      1  C   UNL d   1       1.292  -1.124   0.025  0.00  0.00     0.109 A 
ATOM      2  C   UNL d   1      -0.564   0.299   0.042  0.00  0.00     0.096 A 
ATOM      3  S   UNL d   1       1.985   0.450   0.049  0.00  0.00    -0.073 SA
ATOM      4  C   UNL d   1      -0.089  -1.049   0.035  0.00  0.00     0.072 A 
ATOM      5  C   UNL d   1       0.461   1.231   0.052  0.00  0.00     0.065 A 
ATOM      6  C   UNL d   1      -1.956   0.655   0.032  0.00  0.00     0.103 C 
ATOM      7  N   UNL d   1      -3.088   0.902   0.022  0.00  0.00    -0.191 NA
ATOM      8  N   UNL d   1      -0.910  -2.124   0.019  0.00  0.00    -0.397 N 
ATOM      9  H   UNL d   1      -1.927  -2.073   0.048  0.00  0.00     0.156 HD
ATOM     10  H   UNL d   1      -0.546  -3.079   0.035  0.00  0.00     0.156 HD
ENDROOT
BRANCH   5  11
ATOM     11  S   UNL d   1       0.218   2.984   0.061  0.00  0.00    -0.126 SA
ATOM     12  C   UNL d   1       1.865   3.709   0.059  0.00  0.00     0.096 C 
ENDBRANCH   5  11
BRANCH   1  13
ATOM     13  C   UNL d   1       2.182  -2.275  -0.054  0.00  0.00     0.302 C 
ATOM     14  O   UNL d   1       3.404  -2.244  -0.126  0.00  0.00    -0.259 OA
BRANCH  13  15
ATOM     15  O   UNL d   1       1.447  -3.428  -0.135  0.00  0.00    -0.317 OA
BRANCH  15  16
ATOM     16  C   UNL d   1       2.109  -4.558  -0.720  0.00  0.00     0.174 C 
ATOM     17  C   UNL d   1       1.920  -4.479  -2.225  0.00  0.00     0.034 C 
ENDBRANCH  15  16
ENDBRANCH  13  15
ENDBRANCH   1  13
TORSDOF 4
