REMARK  3 active torsions:
REMARK  status: ('A' for Active; 'I' for Inactive)
REMARK       I    between atoms: C_2  and  N_5 
REMARK    1  A    between atoms: C_7  and  C_2 
REMARK    2  A    between atoms: N_5  and  C_13 
REMARK    3  A    between atoms: C_13  and  C_8 
ROOT
ATOM      1  C   UNL d   1       4.064  -1.454  -1.932  0.00  0.00     0.251 C 
ATOM      2  N   UNL d   1       3.646  -0.167  -2.192  0.00  0.00    -0.354 N 
ATOM      3  O   UNL d   1       3.347  -2.279  -1.374  0.00  0.00    -0.268 OA
ATOM      4  H   UNL d   1       4.334   0.549  -2.377  0.00  0.00     0.162 HD
ENDROOT
BRANCH   2   5
ATOM      5  C   UNL d   1       2.334   0.294  -1.761  0.00  0.00     0.157 C 
BRANCH   5   6
ATOM      6  C   UNL d   1       2.272   0.559  -0.244  0.00  0.00     0.171 C 
ATOM      7  O   UNL d   1       3.285   1.511   0.137  0.00  0.00    -0.339 OA
ATOM      8  C   UNL d   1       2.905   2.804  -0.098  0.00  0.00     0.102 A 
ATOM      9  C   UNL d   1       1.588   3.180  -0.378  0.00  0.00     0.102 A 
ATOM     10  C   UNL d   1       3.919   3.762  -0.076  0.00  0.00     0.039 A 
ATOM     11  C   UNL d   1       1.294   4.507  -0.680  0.00  0.00     0.039 A 
ATOM     12  O   UNL d   1       0.546   2.289  -0.412  0.00  0.00    -0.346 OA
ATOM     13  C   UNL d   1       2.311   5.462  -0.680  0.00  0.00     0.003 A 
ATOM     14  C   UNL d   1       3.621   5.091  -0.371  0.00  0.00     0.003 A 
ATOM     15  C   UNL d   1       0.897   1.046   0.206  0.00  0.00     0.209 C 
ENDBRANCH   5   6
ENDBRANCH   2   5
BRANCH   1  16
ATOM     16  C   UNL d   1       5.455  -1.815  -2.341  0.00  0.00     0.032 A 
ATOM     17  C   UNL d   1       6.207  -1.044  -3.237  0.00  0.00     0.017 A 
ATOM     18  C   UNL d   1       7.493  -1.451  -3.608  0.00  0.00     0.007 A 
ATOM     19  C   UNL d   1       8.043  -2.633  -3.096  0.00  0.00    -0.062 A 
ATOM     20  C   UNL d   1       7.287  -3.408  -2.211  0.00  0.00     0.007 A 
ATOM     21  C   UNL d   1       9.415  -3.065  -3.521  0.00  0.00     0.048 C 
ATOM     22  C   UNL d   1       6.003  -3.001  -1.836  0.00  0.00     0.017 A 
ENDBRANCH   1  16
TORSDOF 3
