REMARK  4 active torsions:
REMARK  status: ('A' for Active; 'I' for Inactive)
REMARK    1  A    between atoms: C_13  and  N_2 
REMARK    2  A    between atoms: C_11  and  N_5 
REMARK    3  A    between atoms: N_8  and  C_14 
REMARK    4  A    between atoms: N_21  and  C_11 
ROOT
ATOM      1  C   UNL d   1       0.921  -0.833  -0.044  0.00  0.00     0.150 A 
ATOM      2  N   UNL d   1       0.936   0.571   0.043  0.00  0.00    -0.239 N 
ATOM      3  N   UNL d   1      -0.315   1.090   0.199  0.00  0.00    -0.302 N 
ATOM      4  HN  UNL d   1      -0.573   2.065   0.354  1.00  0.00     0.186 HD
ATOM      5  N   UNL d   1       2.086  -1.546  -0.022  0.00  0.00    -0.336 N 
ATOM      6  HN  UNL d   1       2.878  -1.224   0.534  1.00  0.00     0.168 HD
ATOM      7  C   UNL d   1      -0.423  -1.170  -0.007  0.00  0.00     0.107 A 
ATOM      8  C   UNL d   1      -1.125   0.036   0.105  0.00  0.00     0.134 A 
ATOM      9  C   UNL d   1      -0.996  -2.473  -0.025  0.00  0.00     0.105 C 
ATOM     10  N   UNL d   1      -1.467  -3.533  -0.062  0.00  0.00    -0.191 NA
ENDROOT
BRANCH   2  11
ATOM     11  C   UNL d   1       2.056   1.454  -0.021  0.00  0.00     0.058 A 
ATOM     12  C   UNL d   1       3.213   1.099  -0.731  0.00  0.00     0.034 A 
ATOM     13  C   UNL d   1       4.302   1.974  -0.788  0.00  0.00     0.038 A 
ATOM     14  C   UNL d   1       4.242   3.199  -0.113  0.00  0.00     0.103 A 
ATOM     15  C   UNL d   1       3.089   3.568   0.592  0.00  0.00     0.038 A 
ATOM     16  C   UNL d   1       1.990   2.701   0.621  0.00  0.00     0.034 A 
BRANCH  14  17
ATOM     17  N   UNL d   1       5.402   4.098  -0.141  0.00  0.00    -0.116 N 
ATOM     18  O   UNL d   1       5.326   5.160   0.492  0.00  0.00    -0.532 OA
ATOM     19  O   UNL d   1       6.393   3.739  -0.795  0.00  0.00    -0.532 OA
ENDBRANCH  14  17
ENDBRANCH   2  11
BRANCH   5  20
ATOM     20  C   UNL d   1       2.170  -2.631  -0.714  0.00  0.00     0.179 C 
BRANCH  20  21
ATOM     21  N   UNL d   1       3.286  -3.424  -0.814  0.00  0.00    -0.386 N 
ATOM     22  C   UNL d   1       4.540  -3.075  -0.163  0.00  0.00     0.149 C 
ATOM     23  C   UNL d   1       3.281  -4.671  -1.558  0.00  0.00     0.149 C 
ENDBRANCH  20  21
ENDBRANCH   5  20
TORSDOF 4
