REMARK  4 active torsions:
REMARK  status: ('A' for Active; 'I' for Inactive)
REMARK    1  A    between atoms: S_11  and  C_3 
REMARK    2  A    between atoms: C_8  and  C_5 
REMARK    3  A    between atoms: O_12  and  C_8 
REMARK    4  A    between atoms: O_13  and  C_8 
ROOT
ATOM      1  N   UNL d   1      -1.483  -1.088  -0.157  0.00  0.00    -0.349 N 
ATOM      2  HN  UNL d   1      -1.981  -1.977  -0.207  1.00  0.00     0.166 HD
ATOM      3  C   UNL d   1      -0.133  -1.071  -0.145  0.00  0.00     0.090 A 
ATOM      4  C   UNL d   1       0.583   0.122  -0.089  0.00  0.00     0.078 A 
ATOM      5  C   UNL d   1      -2.180   0.077  -0.102  0.00  0.00     0.065 A 
ATOM      6  C   UNL d   1       2.010   0.164  -0.041  0.00  0.00     0.102 C 
ATOM      7  N   UNL d   1       3.169   0.248   0.013  0.00  0.00    -0.191 NA
ATOM      8  C   UNL d   1      -0.137   1.324  -0.058  0.00  0.00     0.027 A 
ATOM      9  C   UNL d   1      -1.531   1.307  -0.071  0.00  0.00     0.032 A 
ENDROOT
BRANCH   3  10
ATOM     10  S   UNL d   1       0.655  -2.678  -0.172  0.00  0.00    -0.115 SA
ATOM     11  C   UNL d   1      -0.808  -3.759  -0.157  0.00  0.00     0.097 C 
ENDBRANCH   3  10
BRANCH   5  12
ATOM     12  C   UNL d   1      -3.708  -0.004  -0.046  0.00  0.00     0.309 C 
BRANCH  12  13
ATOM     13  O   UNL d   1      -4.182   0.057  -1.396  0.00  0.00    -0.360 OA
ATOM     14  C   UNL d   1      -5.600   0.071  -1.471  0.00  0.00     0.205 C 
ENDBRANCH  12  13
BRANCH  12  15
ATOM     15  O   UNL d   1      -4.164  -1.208   0.588  0.00  0.00    -0.360 OA
ATOM     16  C   UNL d   1      -3.827  -1.285   1.965  0.00  0.00     0.205 C 
ENDBRANCH  12  15
ENDBRANCH   5  12
TORSDOF 4
