REMARK  1 active torsions:
REMARK  status: ('A' for Active; 'I' for Inactive)
REMARK    1  A    between atoms: N_5  and  C_1 
ROOT
ATOM      1  C   UNL d   1      -0.575  -1.343  -0.022  0.00  0.00     0.010 C 
ATOM      2  C   UNL d   1      -1.476  -0.366  -0.186  0.00  0.00     0.055 C 
ATOM      3  C   UNL d   1      -1.289   1.095  -0.021  0.00  0.00     0.070 C 
ATOM      4  S   UNL d   1       0.245   1.689   0.563  0.00  0.00    -0.109 SA
ATOM      5  C   UNL d   1       0.876  -1.050   0.330  0.00  0.00     0.076 C 
ATOM      6  C   UNL d   1       1.429   0.376   0.141  0.00  0.00     0.011 C 
ATOM      7  S   UNL d   1      -2.552   2.182  -0.276  0.00  0.00    -0.072 SA
ATOM      8  C   UNL d   1       1.973   0.591  -1.281  0.00  0.00     0.027 C 
ATOM      9  C   UNL d   1       2.592   0.574   1.136  0.00  0.00     0.027 C 
ENDROOT
BRANCH   1  10
ATOM     10  N   UNL d   1      -0.894  -2.716  -0.165  0.00  0.00    -0.384 N 
ATOM     11  C   UNL d   1      -0.534  -3.681   0.900  0.00  0.00     0.122 C 
ATOM     12  C   UNL d   1      -0.216  -5.045   0.296  0.00  0.00     0.020 C 
ATOM     13  C   UNL d   1      -1.376  -5.560  -0.548  0.00  0.00     0.003 C 
ATOM     14  C   UNL d   1      -1.776  -4.527  -1.593  0.00  0.00     0.020 C 
ATOM     15  C   UNL d   1      -2.059  -3.167  -0.960  0.00  0.00     0.122 C 
ENDBRANCH   1  10
TORSDOF 1
