REMARK  3 active torsions:
REMARK  status: ('A' for Active; 'I' for Inactive)
REMARK    1  A    between atoms: C_3  and  C_1 
REMARK    2  A    between atoms: C_12  and  C_2 
REMARK       I    between atoms: N_9  and  C_3 
REMARK    3  A    between atoms: C_7  and  N_9 
ROOT
ATOM      1  C   UNL d   1      -0.112  -2.436  -0.456  0.00  0.00     0.261 C 
ATOM      2  N   UNL d   1       1.038  -3.120  -0.100  0.00  0.00    -0.321 N 
ATOM      3  O   UNL d   1      -0.986  -2.918  -1.174  0.00  0.00    -0.267 OA
ATOM      4  H   UNL d   1       1.873  -2.586   0.080  0.00  0.00     0.169 HD
ENDROOT
BRANCH   1   5
ATOM      5  C   UNL d   1      -0.225  -1.069  -0.005  0.00  0.00     0.093 A 
ATOM      6  C   UNL d   1      -1.448  -0.434   0.361  0.00  0.00     0.085 A 
ATOM      7  N   UNL d   1      -1.257   0.857   0.659  0.00  0.00    -0.259 N 
ATOM      8  O   UNL d   1       0.103   1.074   0.525  0.00  0.00    -0.241 OA
ATOM      9  HN  UNL d   1      -1.966   1.539   0.928  1.00  0.00     0.195 HD
ATOM     10  C   UNL d   1       0.722  -0.076   0.133  0.00  0.00     0.090 A 
ATOM     11  C   UNL d   1       2.177   0.025  -0.080  0.00  0.00     0.080 C 
BRANCH   6  12
ATOM     12  C   UNL d   1      -2.745  -1.089   0.440  0.00  0.00     0.015 A 
ATOM     13  C   UNL d   1      -3.063  -1.934   1.515  0.00  0.00     0.046 A 
ATOM     14 CL   UNL d   1      -2.048  -2.074   2.912  0.00  0.00    -0.083 Cl
ATOM     15  C   UNL d   1      -4.210  -2.732   1.466  0.00  0.00     0.025 A 
ATOM     16  C   UNL d   1      -5.042  -2.691   0.348  0.00  0.00     0.002 A 
ATOM     17  C   UNL d   1      -4.746  -1.836  -0.713  0.00  0.00     0.001 A 
ATOM     18  C   UNL d   1      -3.605  -1.031  -0.667  0.00  0.00     0.015 A 
ENDBRANCH   6  12
ENDBRANCH   1   5
BRANCH   2  19
ATOM     19  C   UNL d   1       1.164  -4.483  -0.442  0.00  0.00     0.064 A 
ATOM     20  C   UNL d   1       0.134  -5.457  -0.233  0.00  0.00     0.094 A 
ATOM     21  N   UNL d   1      -1.000  -5.308   0.478  0.00  0.00    -0.309 N 
ATOM     22  C   UNL d   1       0.284  -6.846  -0.796  0.00  0.00     0.069 A 
ATOM     23  S   UNL d   1      -1.835  -6.733   0.350  0.00  0.00     0.068 SA
ATOM     24  HN  UNL d   1      -1.288  -4.478   0.995  1.00  0.00     0.176 HD
ATOM     25  N   UNL d   1      -0.768  -7.641  -0.544  0.00  0.00    -0.310 N 
ATOM     26  HN  UNL d   1      -0.888  -8.609  -0.842  1.00  0.00     0.176 HD
ATOM     27  C   UNL d   1       1.445  -7.215  -1.517  0.00  0.00     0.032 A 
ATOM     28  C   UNL d   1       2.453  -6.238  -1.618  0.00  0.00     0.005 A 
ATOM     29  C   UNL d   1       2.332  -4.934  -1.082  0.00  0.00     0.032 A 
ENDBRANCH   2  19
TORSDOF 3
