REMARK  3 active torsions:
REMARK  status: ('A' for Active; 'I' for Inactive)
REMARK    1  A    between atoms: C_2  and  N_1 
REMARK    2  A    between atoms: O_9  and  C_3 
REMARK    3  A    between atoms: C_8  and  O_9 
ROOT
ATOM      1  C   UNL d   1      -0.954  -0.773  -3.135  0.00  0.00     0.138 A 
ATOM      2  C   UNL d   1      -0.495  -0.111  -1.992  0.00  0.00     0.109 A 
ATOM      3  N   UNL d   1       2.170  -4.379  -3.990  0.00  0.00    -0.191 NA
ATOM      4  C   UNL d   1       1.573  -3.487  -3.555  0.00  0.00     0.099 C 
ATOM      5  C   UNL d   1      -0.298  -1.902  -3.654  0.00  0.00     0.061 A 
ATOM      6  C   UNL d   1       0.615  -0.654  -1.325  0.00  0.00     0.041 A 
ATOM      7  C   UNL d   1       0.855  -2.371  -3.018  0.00  0.00     0.047 A 
ATOM      8  C   UNL d   1       1.305  -1.752  -1.853  0.00  0.00     0.025 A 
ENDROOT
BRANCH   1   9
ATOM      9  N   UNL d   1      -2.137  -0.308  -3.830  0.00  0.00    -0.113 N 
ATOM     10  O   UNL d   1      -2.120   0.848  -4.275  0.00  0.00    -0.532 OA
ATOM     11  O   UNL d   1      -3.053  -1.127  -3.980  0.00  0.00    -0.532 OA
ENDBRANCH   1   9
BRANCH   2  12
ATOM     12  O   UNL d   1      -1.156   1.017  -1.543  0.00  0.00    -0.308 OA
BRANCH  12  13
ATOM     13  C   UNL d   1      -0.428   1.942  -0.823  0.00  0.00     0.077 C 
ATOM     14  C   UNL d   1       0.845   2.357  -1.219  0.00  0.00     0.045 C 
ATOM     15  C   UNL d   1       1.645   3.113  -0.352  0.00  0.00    -0.037 C 
ATOM     16  C   UNL d   1       3.085   3.340  -0.726  0.00  0.00     0.050 C 
ATOM     17  C   UNL d   1       1.096   3.575   0.861  0.00  0.00     0.046 C 
ATOM     18  C   UNL d   1      -0.233   3.262   1.212  0.00  0.00    -0.037 C 
ATOM     19 CL   UNL d   1       2.093   4.513   1.927  0.00  0.00    -0.083 Cl
ATOM     20  C   UNL d   1      -0.983   2.429   0.359  0.00  0.00     0.045 C 
ATOM     21  C   UNL d   1      -0.898   3.735   2.477  0.00  0.00     0.050 C 
ENDBRANCH  12  13
ENDBRANCH   2  12
TORSDOF 3
