REMARK  7 active torsions:
REMARK  status: ('A' for Active; 'I' for Inactive)
REMARK    1  A    between atoms: C_6  and  C_1 
REMARK    2  A    between atoms: C_9  and  C_5 
REMARK    3  A    between atoms: O_12  and  C_6 
REMARK    4  A    between atoms: O_10  and  C_9 
REMARK    5  A    between atoms: C_11  and  O_10 
REMARK    6  A    between atoms: C_19  and  O_12 
REMARK    7  A    between atoms: O_18  and  C_13 
ROOT
ATOM      1  C   UNL d   1       0.776   0.919  -0.586  0.00  0.00     0.115 A 
ATOM      2  N   UNL d   1       0.594  -0.407  -0.976  0.00  0.00    -0.347 N 
ATOM      3  HN  UNL d   1       0.638  -0.743  -1.938  1.00  0.00     0.166 HD
ATOM      4  C   UNL d   1       0.658   1.131   0.776  0.00  0.00     0.087 A 
ATOM      5  C   UNL d   1       0.356  -1.164   0.075  0.00  0.00     0.075 A 
ATOM      6  S   UNL d   1       0.328  -0.339   1.585  0.00  0.00    -0.084 SA
ENDROOT
BRANCH   5   7
ATOM      7  C   UNL d   1       0.057  -2.632   0.022  0.00  0.00     0.240 C 
BRANCH   7   8
ATOM      8  O   UNL d   1       1.298  -3.329   0.139  0.00  0.00    -0.345 OA
BRANCH   8   9
ATOM      9  C   UNL d   1       1.230  -4.694   0.092  0.00  0.00     0.069 A 
ATOM     10  C   UNL d   1       0.059  -5.449  -0.002  0.00  0.00     0.039 A 
ATOM     11  C   UNL d   1       0.118  -6.847  -0.030  0.00  0.00     0.039 A 
ATOM     12  C   UNL d   1       1.343  -7.505   0.039  0.00  0.00     0.068 A 
ATOM     13  C   UNL d   1       2.514  -6.749   0.125  0.00  0.00     0.039 A 
ATOM     14  C   UNL d   1       2.458  -5.353   0.152  0.00  0.00     0.039 A 
BRANCH  12  15
ATOM     15  O   UNL d   1       1.525  -8.860   0.037  0.00  0.00    -0.356 OA
ATOM     16  C   UNL d   1       0.351  -9.660  -0.049  0.00  0.00     0.210 C 
ENDBRANCH  12  15
ENDBRANCH   8   9
ENDBRANCH   7   8
ENDBRANCH   5   7
BRANCH   1  17
ATOM     17  C   UNL d   1       0.983   2.005  -1.542  0.00  0.00     0.310 C 
ATOM     18  O   UNL d   1       1.044   3.184  -1.212  0.00  0.00    -0.258 OA
BRANCH  17  19
ATOM     19  O   UNL d   1       0.994   1.566  -2.836  0.00  0.00    -0.317 OA
BRANCH  19  20
ATOM     20  C   UNL d   1       0.673   2.561  -3.815  0.00  0.00     0.175 C 
ATOM     21  C   UNL d   1      -0.840   2.616  -3.939  0.00  0.00     0.034 C 
ENDBRANCH  19  20
ENDBRANCH  17  19
ENDBRANCH   1  17
TORSDOF 7
