REMARK  7 active torsions:
REMARK  status: ('A' for Active; 'I' for Inactive)
REMARK    1  A    between atoms: C_7  and  C_4 
REMARK    2  A    between atoms: C_8  and  C_5 
REMARK    3  A    between atoms: C_13  and  C_6 
REMARK    4  A    between atoms: O_16  and  C_7 
REMARK    5  A    between atoms: O_17  and  C_8 
REMARK    6  A    between atoms: C_21  and  O_16 
REMARK    7  A    between atoms: C_20  and  O_17 
ROOT
ATOM      1  S   UNL d   1       0.909   1.474  -0.457  0.00  0.00     0.171 S 
ATOM      2  S   UNL d   1       0.844  -1.450  -0.325  0.00  0.00     0.171 S 
ATOM      3  C   UNL d   1       1.731   0.015   0.049  0.00  0.00     0.281 C 
ATOM      4  C   UNL d   1      -0.737  -1.230   0.458  0.00  0.00     0.218 C 
ATOM      5  C   UNL d   1      -0.765   1.365   0.158  0.00  0.00     0.218 C 
ATOM      6  C   UNL d   1      -1.458   0.015  -0.110  0.00  0.00     0.075 C 
ATOM      7  O   UNL d   1       1.565   2.556   0.256  0.00  0.00    -0.226 OA
ATOM      8  O   UNL d   1       0.891   1.483  -1.905  0.00  0.00    -0.226 OA
ATOM      9  O   UNL d   1       0.621  -1.526  -1.752  0.00  0.00    -0.226 OA
ATOM     10  O   UNL d   1       1.535  -2.542   0.340  0.00  0.00    -0.226 OA
ENDROOT
BRANCH   6  11
ATOM     11  C   UNL d   1      -2.923   0.013   0.337  0.00  0.00    -0.051 A 
ATOM     12  C   UNL d   1      -3.340   0.556   1.563  0.00  0.00     0.007 A 
ATOM     13  C   UNL d   1      -4.697   0.609   1.893  0.00  0.00     0.001 A 
ATOM     14  C   UNL d   1      -5.652   0.105   1.016  0.00  0.00     0.000 A 
ATOM     15  C   UNL d   1      -5.253  -0.465  -0.189  0.00  0.00     0.001 A 
ATOM     16  C   UNL d   1      -3.899  -0.513  -0.526  0.00  0.00     0.007 A 
ENDBRANCH   6  11
BRANCH   4  17
ATOM     17  C   UNL d   1      -0.469  -1.189   1.936  0.00  0.00     0.278 C 
ATOM     18  O   UNL d   1      -0.173  -0.158   2.529  0.00  0.00    -0.264 OA
BRANCH  17  19
ATOM     19  O   UNL d   1      -0.492  -2.421   2.498  0.00  0.00    -0.321 OA
BRANCH  19  20
ATOM     20  C   UNL d   1      -0.096  -2.488   3.880  0.00  0.00     0.174 C 
ATOM     21  C   UNL d   1       1.409  -2.330   4.043  0.00  0.00     0.034 C 
ENDBRANCH  19  20
ENDBRANCH  17  19
ENDBRANCH   4  17
BRANCH   5  22
ATOM     22  C   UNL d   1      -1.475   2.516  -0.513  0.00  0.00     0.278 C 
ATOM     23  O   UNL d   1      -2.015   2.470  -1.608  0.00  0.00    -0.264 OA
BRANCH  22  24
ATOM     24  O   UNL d   1      -1.357   3.630   0.262  0.00  0.00    -0.321 OA
BRANCH  24  25
ATOM     25  C   UNL d   1      -1.519   4.881  -0.419  0.00  0.00     0.174 C 
ATOM     26  C   UNL d   1      -0.172   5.284  -0.995  0.00  0.00     0.034 C 
ENDBRANCH  24  25
ENDBRANCH  22  24
ENDBRANCH   5  22
TORSDOF 7
