REMARK  5 active torsions:
REMARK  status: ('A' for Active; 'I' for Inactive)
REMARK       I    between atoms: N_2  and  C_1 
REMARK    1  A    between atoms: C_3  and  C_1 
REMARK    2  A    between atoms: O_4  and  N_2 
REMARK    3  A    between atoms: C_6  and  N_2 
REMARK    4  A    between atoms: C_5  and  O_4 
REMARK    5  A    between atoms: C_9  and  C_5 
ROOT
ATOM      1  C   UNL d   1       1.345   0.292   0.143  0.00  0.00     0.299 C 
ATOM      2  N   UNL d   1       0.438  -0.644   0.628  0.00  0.00    -0.204 N 
ATOM      3  O   UNL d   1       2.547  -0.029   0.100  0.00  0.00    -0.266 OA
ENDROOT
BRANCH   2   4
ATOM      4  O   UNL d   1      -0.921  -0.507   0.274  0.00  0.00    -0.189 OA
BRANCH   4   5
ATOM      5  C   UNL d   1      -1.728   0.001   1.279  0.00  0.00     0.315 C 
ATOM      6  O   UNL d   1      -1.403   0.176   2.435  0.00  0.00    -0.257 OA
BRANCH   5   7
ATOM      7  C   UNL d   1      -2.978   0.527   0.636  0.00  0.00     0.041 A 
ATOM      8  C   UNL d   1      -3.586   1.671   1.177  0.00  0.00     0.017 A 
ATOM      9  C   UNL d   1      -4.555   2.365   0.441  0.00  0.00     0.001 A 
ATOM     10  C   UNL d   1      -4.931   1.910  -0.824  0.00  0.00     0.000 A 
ATOM     11  C   UNL d   1      -4.368   0.745  -1.342  0.00  0.00     0.001 A 
ATOM     12  C   UNL d   1      -3.404   0.048  -0.611  0.00  0.00     0.017 A 
ENDBRANCH   5   7
ENDBRANCH   4   5
ENDBRANCH   2   4
BRANCH   2  13
ATOM     13  C   UNL d   1       0.861  -2.055   0.980  0.00  0.00     0.053 C 
ATOM     14  C   UNL d   1       1.734  -1.992   2.252  0.00  0.00     0.040 C 
ATOM     15  C   UNL d   1      -0.320  -3.004   1.292  0.00  0.00     0.040 C 
ATOM     16  C   UNL d   1       1.661  -2.746  -0.154  0.00  0.00     0.040 C 
ENDBRANCH   2  13
BRANCH   1  17
ATOM     17  C   UNL d   1       1.011   1.761  -0.235  0.00  0.00     0.271 C 
ATOM     18 CL   UNL d   1      -0.642   2.259  -0.554  0.00  0.00    -0.073 Cl
ATOM     19 CL   UNL d   1       1.670   2.785   1.088  0.00  0.00    -0.073 Cl
ATOM     20 CL   UNL d   1       1.913   2.148  -1.758  0.00  0.00    -0.073 Cl
ENDBRANCH   1  17
TORSDOF 5
