REMARK  4 active torsions:
REMARK  status: ('A' for Active; 'I' for Inactive)
REMARK       I    between atoms: N_2  and  C_1 
REMARK    1  A    between atoms: C_4  and  C_1 
REMARK    2  A    between atoms: C_6  and  N_2 
REMARK    3  A    between atoms: C_7  and  N_3 
REMARK    4  A    between atoms: C_17  and  C_7 
ROOT
ATOM      1  N   UNL d   1       2.291  -5.035  -1.033  0.00  0.00     0.092 N 
ATOM      2  C   UNL d   1       2.166  -2.306   0.052  0.00  0.00     0.088 C 
ATOM      3  C   UNL d   1       2.339  -3.529   0.962  0.00  0.00     0.055 C 
ATOM      4  C   UNL d   1       1.910  -2.629  -1.421  0.00  0.00     0.055 C 
ATOM      5  C   UNL d   1       2.888  -4.790   0.286  0.00  0.00     0.275 C 
ATOM      6  C   UNL d   1       2.576  -3.904  -1.920  0.00  0.00     0.275 C 
ENDROOT
BRANCH   2   7
ATOM      7  N   UNL d   1       3.108  -1.193   0.244  0.00  0.00    -0.352 N 
ATOM      8  C   UNL d   1       4.471  -1.258   0.416  0.00  0.00     0.252 C 
ATOM      9  O   UNL d   1       5.113  -2.295   0.498  0.00  0.00    -0.268 OA
ATOM     10  H   UNL d   1       2.684  -0.277   0.288  0.00  0.00     0.163 HD
BRANCH   8  11
ATOM     11  C   UNL d   1       5.164   0.074   0.566  0.00  0.00     0.032 A 
ATOM     12  C   UNL d   1       6.257   0.186   1.438  0.00  0.00     0.017 A 
ATOM     13  C   UNL d   1       6.918   1.414   1.596  0.00  0.00     0.007 A 
ATOM     14  C   UNL d   1       6.508   2.550   0.889  0.00  0.00    -0.062 A 
ATOM     15  C   UNL d   1       5.411   2.435   0.017  0.00  0.00     0.007 A 
ATOM     16  C   UNL d   1       7.219   3.853   1.062  0.00  0.00     0.048 C 
ATOM     17  C   UNL d   1       4.746   1.206  -0.145  0.00  0.00     0.017 A 
ENDBRANCH   8  11
ENDBRANCH   2   7
BRANCH   1  18
ATOM     18  C   UNL d   1       2.724  -6.328  -1.617  0.00  0.00     0.311 C 
BRANCH  18  19
ATOM     19  C   UNL d   1       4.184  -6.436  -2.017  0.00  0.00    -0.030 A 
ATOM     20  C   UNL d   1       5.155  -6.834  -1.086  0.00  0.00     0.009 A 
ATOM     21  C   UNL d   1       6.510  -6.814  -1.420  0.00  0.00     0.001 A 
ATOM     22  C   UNL d   1       6.910  -6.414  -2.693  0.00  0.00     0.000 A 
ATOM     23  C   UNL d   1       5.955  -6.056  -3.642  0.00  0.00     0.001 A 
ATOM     24  C   UNL d   1       4.599  -6.075  -3.309  0.00  0.00     0.009 A 
ENDBRANCH  18  19
ENDBRANCH   1  18
TORSDOF 4
