REMARK  2 active torsions:
REMARK  status: ('A' for Active; 'I' for Inactive)
REMARK    1  A    between atoms: S_16  and  C_3 
REMARK    2  A    between atoms: C_7  and  C_4 
ROOT
ATOM      1  C   UNL d   1       0.077  -0.803   0.015  0.00  0.00     0.041 A 
ATOM      2  C   UNL d   1       0.433   0.609   0.005  0.00  0.00    -0.022 A 
ATOM      3  C   UNL d   1       1.191  -1.622  -0.014  0.00  0.00     0.056 A 
ATOM      4  C   UNL d   1       1.805   0.783  -0.082  0.00  0.00     0.041 A 
ATOM      5  S   UNL d   1       2.634  -0.712  -0.060  0.00  0.00    -0.080 SA
ATOM      6  C   UNL d   1      -1.323  -1.232   0.011  0.00  0.00     0.162 C 
ATOM      7  C   UNL d   1      -0.628   1.691   0.005  0.00  0.00     0.050 C 
ATOM      8  C   UNL d   1      -2.046   1.169   0.370  0.00  0.00    -0.037 C 
ATOM      9  C   UNL d   1      -2.330  -0.161  -0.355  0.00  0.00     0.093 C 
ATOM     10  O   UNL d   1      -1.696  -2.377   0.253  0.00  0.00    -0.292 OA
ATOM     11  C   UNL d   1      -3.104   2.195  -0.079  0.00  0.00     0.015 C 
ATOM     12  C   UNL d   1      -2.176   0.992   1.898  0.00  0.00     0.015 C 
ENDROOT
BRANCH   4  13
ATOM     13  C   UNL d   1       2.543   2.101  -0.198  0.00  0.00     0.067 A 
ATOM     14  N   UNL d   1       1.928   3.291  -0.143  0.00  0.00    -0.300 N 
ATOM     15  N   UNL d   1       2.924   4.188  -0.272  0.00  0.00    -0.311 N 
ATOM     16  HN  UNL d   1       0.932   3.476  -0.028  1.00  0.00     0.187 HD
ATOM     17  C   UNL d   1       4.148   3.620  -0.442  0.00  0.00     0.109 A 
ATOM     18  H   UNL d   1       2.686   5.171  -0.243  0.00  0.00     0.186 HD
ATOM     19  C   UNL d   1       3.936   2.260  -0.394  0.00  0.00     0.051 A 
ENDBRANCH   4  13
BRANCH   3  20
ATOM     20  S   UNL d   1       1.282  -3.378  -0.134  0.00  0.00    -0.126 SA
ATOM     21  C   UNL d   1       0.818  -3.881   1.538  0.00  0.00     0.096 C 
ENDBRANCH   3  20
TORSDOF 2
