REMARK  4 active torsions:
REMARK  status: ('A' for Active; 'I' for Inactive)
REMARK    1  A    between atoms: C_8  and  C_1 
REMARK    2  A    between atoms: N_4  and  C_2 
REMARK       I    between atoms: C_5  and  N_4 
REMARK    3  A    between atoms: C_6  and  C_5 
REMARK    4  A    between atoms: O_15  and  C_8 
ROOT
ATOM      1  C   UNL d   1      -0.863   1.318   0.169  0.00  0.00     0.107 A 
ATOM      2  C   UNL d   1       0.524   1.232   0.183  0.00  0.00     0.064 A 
ATOM      3  S   UNL d   1      -1.591  -0.228   0.117  0.00  0.00    -0.093 SA
ATOM      4  C   UNL d   1       0.982  -0.129   0.291  0.00  0.00    -0.027 A 
ATOM      5  C   UNL d   1      -0.083  -1.011   0.213  0.00  0.00     0.059 A 
ATOM      6  C   UNL d   1       2.381  -0.604   0.518  0.00  0.00     0.051 C 
ENDROOT
BRANCH   2   7
ATOM      7  N   UNL d   1       1.296   2.397   0.148  0.00  0.00    -0.322 N 
ATOM      8  C   UNL d   1       2.469   2.541  -0.589  0.00  0.00     0.277 C 
ATOM      9  O   UNL d   1       2.931   1.640  -1.293  0.00  0.00    -0.268 OA
ATOM     10  H   UNL d   1       0.784   3.264   0.341  0.00  0.00     0.169 HD
BRANCH   8  11
ATOM     11  C   UNL d   1       3.090   3.961  -0.560  0.00  0.00     0.269 C 
ATOM     12 CL   UNL d   1       2.502   4.917   0.834  0.00  0.00    -0.073 Cl
ATOM     13 CL   UNL d   1       4.863   3.819  -0.450  0.00  0.00    -0.073 Cl
ATOM     14 CL   UNL d   1       2.624   4.789  -2.070  0.00  0.00    -0.073 Cl
ENDBRANCH   8  11
ENDBRANCH   2   7
BRANCH   1  15
ATOM     15  C   UNL d   1      -1.643   2.543   0.132  0.00  0.00     0.302 C 
ATOM     16  O   UNL d   1      -1.141   3.667   0.179  0.00  0.00    -0.259 OA
BRANCH  15  17
ATOM     17  O   UNL d   1      -2.983   2.311   0.039  0.00  0.00    -0.322 OA
ATOM     18  C   UNL d   1      -3.778   3.496  -0.010  0.00  0.00     0.213 C 
ENDBRANCH  15  17
ENDBRANCH   1  15
TORSDOF 4
