REMARK  7 active torsions:
REMARK  status: ('A' for Active; 'I' for Inactive)
REMARK    1  A    between atoms: C_6  and  C_1 
REMARK    2  A    between atoms: C_16  and  C_3 
REMARK    3  A    between atoms: S_18  and  C_5 
REMARK    4  A    between atoms: S_15  and  C_9 
REMARK    5  A    between atoms: C_14  and  C_19 
REMARK    6  A    between atoms: C_17  and  C_14 
REMARK    7  A    between atoms: C_19  and  S_15 
ROOT
ATOM      1  C   UNL d   1       1.337  -1.252   0.074  0.00  0.00     0.045 A 
ATOM      2  C   UNL d   1       0.243   0.836   0.085  0.00  0.00     0.080 A 
ATOM      3  C   UNL d   1       1.475   0.110   0.382  0.00  0.00     0.016 A 
ATOM      4  S   UNL d   1      -0.247  -1.588  -0.531  0.00  0.00    -0.079 SA
ATOM      5  C   UNL d   1      -0.762   0.024  -0.393  0.00  0.00     0.063 A 
ATOM      6  C   UNL d   1       0.047   2.251   0.271  0.00  0.00     0.102 C 
ATOM      7  N   UNL d   1      -0.103   3.386   0.450  0.00  0.00    -0.191 NA
ENDROOT
BRANCH   3   8
ATOM      8  C   UNL d   1       2.700   0.700   0.964  0.00  0.00    -0.023 A 
ATOM      9  C   UNL d   1       2.617   1.655   1.993  0.00  0.00     0.012 A 
ATOM     10  C   UNL d   1       3.767   2.199   2.577  0.00  0.00     0.001 A 
ATOM     11  C   UNL d   1       5.024   1.753   2.183  0.00  0.00     0.000 A 
ATOM     12  C   UNL d   1       5.131   0.809   1.167  0.00  0.00     0.001 A 
ATOM     13  C   UNL d   1       3.982   0.324   0.531  0.00  0.00     0.012 A 
ENDBRANCH   3   8
BRANCH   5  14
ATOM     14  S   UNL d   1      -2.429   0.492  -0.749  0.00  0.00    -0.126 SA
ATOM     15  C   UNL d   1      -2.574   0.046  -2.494  0.00  0.00     0.096 C 
ENDBRANCH   5  14
BRANCH   1  16
ATOM     16  C   UNL d   1       2.248  -2.418   0.191  0.00  0.00     0.053 A 
ATOM     17  N   UNL d   1       2.163  -3.315  -0.818  0.00  0.00    -0.336 N 
ATOM     18  C   UNL d   1       2.962  -4.390  -0.762  0.00  0.00     0.144 A 
ATOM     19  HN  UNL d   1       1.513  -3.178  -1.592  1.00  0.00     0.168 HD
ATOM     20  N   UNL d   1       3.895  -4.593   0.179  0.00  0.00    -0.347 N 
ATOM     21  C   UNL d   1       3.953  -3.680   1.164  0.00  0.00     0.092 A 
ATOM     22  HN  UNL d   1       4.526  -5.394   0.149  1.00  0.00     0.167 HD
ATOM     23  C   UNL d   1       3.123  -2.587   1.241  0.00  0.00     0.048 A 
BRANCH  18  24
ATOM     24  S   UNL d   1       2.729  -5.622  -2.022  0.00  0.00    -0.086 SA
BRANCH  24  25
ATOM     25  C   UNL d   1       3.829  -6.930  -1.403  0.00  0.00     0.166 C 
BRANCH  25  26
ATOM     26  C   UNL d   1       3.623  -8.204  -2.200  0.00  0.00     0.169 C 
ATOM     27  O   UNL d   1       2.913  -9.114  -1.766  0.00  0.00    -0.291 OA
BRANCH  26  28
ATOM     28  C   UNL d   1       4.295  -8.385  -3.528  0.00  0.00     0.011 A 
ATOM     29  C   UNL d   1       5.131  -7.415  -4.098  0.00  0.00     0.017 A 
ATOM     30  C   UNL d   1       5.702  -7.629  -5.358  0.00  0.00     0.025 A 
ATOM     31  C   UNL d   1       5.445  -8.809  -6.053  0.00  0.00     0.034 A 
ATOM     32  C   UNL d   1       4.633  -9.790  -5.491  0.00  0.00     0.025 A 
ATOM     33 CL   UNL d   1       6.127  -9.050  -7.613  0.00  0.00    -0.084 Cl
ATOM     34  C   UNL d   1       4.061  -9.578  -4.232  0.00  0.00     0.017 A 
ENDBRANCH  26  28
ENDBRANCH  25  26
ENDBRANCH  24  25
ENDBRANCH  18  24
ENDBRANCH   1  16
TORSDOF 7
