REMARK  7 active torsions:
REMARK  status: ('A' for Active; 'I' for Inactive)
REMARK    1  A    between atoms: C_2  and  C_1 
REMARK    2  A    between atoms: O_9  and  C_2 
REMARK    3  A    between atoms: C_3  and  C_12 
REMARK    4  A    between atoms: O_13  and  C_6 
REMARK    5  A    between atoms: O_14  and  C_7 
REMARK    6  A    between atoms: C_15  and  O_9 
REMARK    7  A    between atoms: C_12  and  C_15 
ROOT
ATOM      1  C   UNL d   1       1.309   4.396  -0.097  0.00  0.00     0.183 C 
ENDROOT
BRANCH   1   2
ATOM      2  C   UNL d   1       2.691   5.050  -0.121  0.00  0.00     0.071 C 
BRANCH   2   3
ATOM      3  C   UNL d   1       2.702   6.559   0.030  0.00  0.00     0.011 A 
ATOM      4  C   UNL d   1       3.271   7.165   1.173  0.00  0.00     0.077 A 
ATOM      5  C   UNL d   1       3.329   8.559   1.270  0.00  0.00     0.037 A 
ATOM      6  C   UNL d   1       2.862   9.359   0.231  0.00  0.00     0.005 A 
ATOM      7  C   UNL d   1       2.304   8.773  -0.902  0.00  0.00     0.037 A 
ATOM      8  C   UNL d   1       2.196   7.382  -1.000  0.00  0.00     0.077 A 
BRANCH   4   9
ATOM      9  O   UNL d   1       3.720   6.323   2.159  0.00  0.00    -0.355 OA
ATOM     10  C   UNL d   1       4.677   6.856   3.067  0.00  0.00     0.210 C 
ENDBRANCH   4   9
BRANCH   8  11
ATOM     11  O   UNL d   1       1.648   6.740  -2.081  0.00  0.00    -0.355 OA
ATOM     12  C   UNL d   1       0.779   7.512  -2.904  0.00  0.00     0.210 C 
ENDBRANCH   8  11
ENDBRANCH   2   3
ENDBRANCH   1   2
BRANCH   1  13
ATOM     13  O   UNL d   1       1.526   2.969  -0.069  0.00  0.00    -0.317 OA
BRANCH  13  14
ATOM     14  C   UNL d   1       0.782   2.250   0.801  0.00  0.00     0.299 C 
ATOM     15  O   UNL d   1      -0.195   2.657   1.410  0.00  0.00    -0.259 OA
BRANCH  14  16
ATOM     16  C   UNL d   1       1.334   0.888   0.944  0.00  0.00     0.116 A 
ATOM     17  C   UNL d   1       0.512  -0.139   1.410  0.00  0.00     0.135 A 
ATOM     18  F   UNL d   1      -0.790   0.068   1.654  0.00  0.00    -0.205 F 
ATOM     19  C   UNL d   1       1.015  -1.424   1.632  0.00  0.00     0.043 A 
ATOM     20  C   UNL d   1       2.358  -1.700   1.386  0.00  0.00     0.006 A 
ATOM     21  C   UNL d   1       3.189  -0.689   0.913  0.00  0.00     0.043 A 
ATOM     22  C   UNL d   1       2.678   0.595   0.699  0.00  0.00     0.135 A 
ATOM     23  F   UNL d   1       3.540   1.535   0.285  0.00  0.00    -0.205 F 
ENDBRANCH  14  16
ENDBRANCH  13  14
ENDBRANCH   1  13
TORSDOF 7
