REMARK  15 active torsions:
REMARK  status: ('A' for Active; 'I' for Inactive)
REMARK    1  A    between atoms: C_3  and  N_1 
REMARK    2  A    between atoms: S_11  and  C_2 
REMARK    3  A    between atoms: C_9  and  C_4 
REMARK    4  A    between atoms: C_24  and  C_10 
REMARK    5  A    between atoms: C_15  and  S_11 
REMARK    6  A    between atoms: C_16  and  C_15 
REMARK    7  A    between atoms: C_26  and  C_24 
REMARK    8  A    between atoms: C_36  and  C_26 
REMARK    9  A    between atoms: C_27  and  C_30 
REMARK   10  A    between atoms: C_30  and  C_34 
REMARK   11  A    between atoms: C_31  and  C_35 
REMARK   12  A    between atoms: C_33  and  C_31 
REMARK   13  A    between atoms: C_32  and  C_36 
REMARK   14  A    between atoms: C_35  and  C_32 
REMARK   15  A    between atoms: C_34  and  C_33 
ROOT
ATOM      1  N   UNL d   1      -0.231  -1.288   0.054  0.00  0.00    -0.278 N 
ATOM      2  C   UNL d   1       1.029  -0.688  -0.054  0.00  0.00     0.167 A 
ATOM      3  N   UNL d   1       0.916   0.612  -0.134  0.00  0.00    -0.278 N 
ATOM      4  HN  UNL d   1       1.685   1.280  -0.183  1.00  0.00     0.189 HD
ATOM      5  N   UNL d   1      -0.411   0.917  -0.141  0.00  0.00    -0.286 N 
ATOM      6  HN  UNL d   1      -0.802   1.857  -0.201  1.00  0.00     0.188 HD
ATOM      7  C   UNL d   1      -1.110  -0.197  -0.058  0.00  0.00     0.104 A 
ENDROOT
BRANCH   7   8
ATOM      8  C   UNL d   1      -2.603  -0.237  -0.209  0.00  0.00     0.078 C 
BRANCH   8   9
ATOM      9  C   UNL d   1      -3.226   1.167  -0.177  0.00  0.00     0.007 C 
BRANCH   9  10
ATOM     10  C   UNL d   1      -4.752   1.142  -0.022  0.00  0.00     0.000 C 
BRANCH  10  11
ATOM     11  C   UNL d   1      -5.308   2.567  -0.033  0.00  0.00     0.000 C 
BRANCH  11  12
ATOM     12  C   UNL d   1      -6.831   2.624   0.097  0.00  0.00     0.000 C 
BRANCH  12  13
ATOM     13  C   UNL d   1      -7.313   4.077   0.030  0.00  0.00     0.000 C 
BRANCH  13  14
ATOM     14  C   UNL d   1      -8.834   4.187   0.137  0.00  0.00     0.000 C 
BRANCH  14  15
ATOM     15  C   UNL d   1      -9.286   5.648   0.054  0.00  0.00     0.000 C 
BRANCH  15  16
ATOM     16  C   UNL d   1     -10.807   5.764   0.158  0.00  0.00    -0.000 C 
BRANCH  16  17
ATOM     17  C   UNL d   1     -11.267   7.219   0.074  0.00  0.00    -0.005 C 
ATOM     18  C   UNL d   1     -12.780   7.326   0.178  0.00  0.00     0.005 C 
ENDBRANCH  16  17
ENDBRANCH  15  16
ENDBRANCH  14  15
ENDBRANCH  13  14
ENDBRANCH  12  13
ENDBRANCH  11  12
ENDBRANCH  10  11
ENDBRANCH   9  10
ENDBRANCH   8   9
ENDBRANCH   7   8
BRANCH   1  19
ATOM     19  C   UNL d   1      -0.529  -2.693   0.144  0.00  0.00     0.058 A 
ATOM     20  C   UNL d   1      -1.461  -3.269   1.040  0.00  0.00     0.075 A 
ATOM     21  C   UNL d   1      -1.638  -4.678   1.018  0.00  0.00     0.018 A 
ATOM     22  C   UNL d   1      -0.872  -5.508   0.207  0.00  0.00     0.001 A 
ATOM     23  C   UNL d   1       0.063  -4.946  -0.643  0.00  0.00     0.002 A 
ATOM     24  C   UNL d   1       0.208  -3.558  -0.697  0.00  0.00     0.031 A 
BRANCH  20  25
ATOM     25  C   UNL d   1      -2.250  -2.570   2.124  0.00  0.00     0.419 C 
ATOM     26  F   UNL d   1      -1.811  -1.326   2.438  0.00  0.00    -0.166 F 
ATOM     27  F   UNL d   1      -3.569  -2.454   1.797  0.00  0.00    -0.166 F 
ATOM     28  F   UNL d   1      -2.242  -3.260   3.302  0.00  0.00    -0.166 F 
ENDBRANCH  20  25
ENDBRANCH   1  19
BRANCH   2  29
ATOM     29  S   UNL d   1       2.563  -1.513   0.011  0.00  0.00    -0.087 SA
BRANCH  29  30
ATOM     30  C   UNL d   1       3.743  -0.141   0.204  0.00  0.00     0.121 C 
BRANCH  30  31
ATOM     31  C   UNL d   1       5.176  -0.623   0.101  0.00  0.00    -0.049 A 
ATOM     32  C   UNL d   1       5.934  -0.393  -1.059  0.00  0.00     0.008 A 
ATOM     33  C   UNL d   1       7.258  -0.837  -1.147  0.00  0.00     0.007 A 
ATOM     34  C   UNL d   1       7.854  -1.520  -0.082  0.00  0.00    -0.062 A 
ATOM     35  C   UNL d   1       7.101  -1.758   1.073  0.00  0.00     0.007 A 
ATOM     36  C   UNL d   1       9.275  -1.994  -0.188  0.00  0.00     0.048 C 
ATOM     37  C   UNL d   1       5.777  -1.312   1.163  0.00  0.00     0.008 A 
ENDBRANCH  30  31
ENDBRANCH  29  30
ENDBRANCH   2  29
TORSDOF 15
