REMARK  9 active torsions:
REMARK  status: ('A' for Active; 'I' for Inactive)
REMARK    1  A    between atoms: C_2  and  C_1 
REMARK    2  A    between atoms: O_9  and  C_2 
REMARK    3  A    between atoms: C_17  and  O_9 
REMARK    4  A    between atoms: C_10  and  O_16 
REMARK    5  A    between atoms: O_16  and  C_18 
REMARK    6  A    between atoms: C_20  and  C_17 
REMARK    7  A    between atoms: C_18  and  C_19 
REMARK    8  A    between atoms: C_19  and  C_21 
REMARK    9  A    between atoms: C_21  and  C_20 
ROOT
ATOM      1  C   UNL d   1       0.917   7.231  -0.065  0.00  0.00     0.004 C 
ENDROOT
BRANCH   1   2
ATOM      2  C   UNL d   1       2.159   8.132  -0.083  0.00  0.00     0.027 C 
BRANCH   2   3
ATOM      3  C   UNL d   1       3.040   7.878  -1.303  0.00  0.00     0.175 C 
BRANCH   3   4
ATOM      4  O   UNL d   1       4.152   8.773  -1.300  0.00  0.00    -0.351 OA
BRANCH   4   5
ATOM      5  C   UNL d   1       5.006   8.620  -2.362  0.00  0.00     0.068 A 
ATOM      6  C   UNL d   1       5.765   9.748  -2.686  0.00  0.00     0.038 A 
ATOM      7  C   UNL d   1       6.662   9.714  -3.754  0.00  0.00     0.026 A 
ATOM      8  C   UNL d   1       6.816   8.541  -4.492  0.00  0.00     0.034 A 
ATOM      9  C   UNL d   1       6.080   7.405  -4.166  0.00  0.00     0.026 A 
ATOM     10 CL   UNL d   1       7.921   8.493  -5.809  0.00  0.00    -0.084 Cl
ATOM     11  C   UNL d   1       5.178   7.444  -3.100  0.00  0.00     0.038 A 
ENDBRANCH   4   5
ENDBRANCH   3   4
ENDBRANCH   2   3
ENDBRANCH   1   2
BRANCH   1  12
ATOM     12  C   UNL d   1       1.262   5.740  -0.039  0.00  0.00     0.027 C 
BRANCH  12  13
ATOM     13  C   UNL d   1       0.023   4.851  -0.055  0.00  0.00     0.179 C 
BRANCH  13  14
ATOM     14  O   UNL d   1       0.408   3.467  -0.040  0.00  0.00    -0.316 OA
BRANCH  14  15
ATOM     15  C   UNL d   1       0.757   2.929  -1.247  0.00  0.00     0.317 C 
ATOM     16  O   UNL d   1       0.768   3.550  -2.304  0.00  0.00    -0.257 OA
BRANCH  15  17
ATOM     17  C   UNL d   1       1.116   1.537  -1.104  0.00  0.00     0.149 A 
ATOM     18  O   UNL d   1       1.062   0.926   0.122  0.00  0.00    -0.317 OA
ATOM     19  C   UNL d   1       1.444  -0.365  -0.051  0.00  0.00     0.143 A 
ATOM     20  C   UNL d   1       1.748  -0.606  -1.370  0.00  0.00     0.027 A 
ATOM     21  C   UNL d   1       1.539   0.618  -2.050  0.00  0.00     0.045 A 
ENDBRANCH  15  17
ENDBRANCH  14  15
ENDBRANCH  13  14
ENDBRANCH  12  13
ENDBRANCH   1  12
TORSDOF 9
