REMARK  4 active torsions:
REMARK  status: ('A' for Active; 'I' for Inactive)
REMARK    1  A    between atoms: C_8  and  C_2 
REMARK    2  A    between atoms: C_11  and  N_5 
REMARK    3  A    between atoms: O_18  and  C_8 
REMARK    4  A    between atoms: C_23  and  O_18 
ROOT
ATOM      1  C   UNL d   1      -0.710   1.257   0.056  0.00  0.00     0.098 A 
ATOM      2  C   UNL d   1       1.272  -0.121  -0.059  0.00  0.00     0.131 A 
ATOM      3  N   UNL d   1       0.649  -1.261  -0.035  0.00  0.00    -0.286 N 
ATOM      4  HN  UNL d   1       1.159  -2.143  -0.075  1.00  0.00     0.188 HD
ATOM      5  N   UNL d   1      -0.721  -1.234   0.044  0.00  0.00    -0.238 N 
ATOM      6  C   UNL d   1      -1.452  -0.043   0.147  0.00  0.00     0.142 A 
ATOM      7  C   UNL d   1       0.638   1.232   0.013  0.00  0.00    -0.003 A 
ATOM      8  C   UNL d   1      -1.443   2.479   0.063  0.00  0.00     0.104 C 
ATOM      9  N   UNL d   1      -1.959   3.517   0.045  0.00  0.00    -0.191 NA
ATOM     10  N   UNL d   1      -2.730   0.056   0.384  0.00  0.00    -0.383 N 
ATOM     11  HN  UNL d   1      -3.245   0.936   0.420  1.00  0.00     0.157 HD
ATOM     12  C   UNL d   1       1.468   2.485   0.049  0.00  0.00     0.052 C 
ATOM     13  H   UNL d   1      -3.146  -0.867   0.529  0.00  0.00     0.157 HD
ENDROOT
BRANCH   5  14
ATOM     14  C   UNL d   1      -1.317  -2.534   0.004  0.00  0.00     0.058 A 
ATOM     15  C   UNL d   1      -2.498  -2.791  -0.713  0.00  0.00     0.033 A 
ATOM     16  C   UNL d   1      -3.115  -4.046  -0.667  0.00  0.00     0.026 A 
ATOM     17  C   UNL d   1      -2.539  -5.075   0.071  0.00  0.00     0.034 A 
ATOM     18  C   UNL d   1      -1.335  -4.868   0.738  0.00  0.00     0.026 A 
ATOM     19 CL   UNL d   1      -3.318  -6.605   0.162  0.00  0.00    -0.084 Cl
ATOM     20  C   UNL d   1      -0.725  -3.609   0.695  0.00  0.00     0.033 A 
ENDBRANCH   5  14
BRANCH   2  21
ATOM     21  C   UNL d   1       2.788  -0.206  -0.262  0.00  0.00     0.312 C 
ATOM     22  O   UNL d   1       3.374   0.502  -1.062  0.00  0.00    -0.258 OA
BRANCH  21  23
ATOM     23  O   UNL d   1       3.301  -1.220   0.465  0.00  0.00    -0.317 OA
BRANCH  23  24
ATOM     24  C   UNL d   1       4.631  -1.615   0.100  0.00  0.00     0.175 C 
ATOM     25  C   UNL d   1       4.590  -2.466  -1.160  0.00  0.00     0.034 C 
ENDBRANCH  23  24
ENDBRANCH  21  23
ENDBRANCH   2  21
TORSDOF 4
