REMARK  4 active torsions:
REMARK  status: ('A' for Active; 'I' for Inactive)
REMARK    1  A    between atoms: C_9  and  C_3 
REMARK    2  A    between atoms: C_10  and  C_4 
REMARK    3  A    between atoms: C_11  and  C_9 
REMARK    4  A    between atoms: C_12  and  C_10 
ROOT
ATOM      1  C   UNL d   1      -0.010  -0.093  -0.004  0.00  0.00     0.043 A 
ATOM      2  C   UNL d   1      -0.352  -1.385  -0.014  0.00  0.00     0.062 A 
ATOM      3  C   UNL d   1      -2.316   0.043  -0.059  0.00  0.00     0.080 A 
ATOM      4  C   UNL d   1       2.061  -1.113   0.047  0.00  0.00     0.080 A 
ATOM      5  C   UNL d   1       1.382   0.114   0.035  0.00  0.00     0.061 A 
ATOM      6  C   UNL d   1      -1.120   0.775  -0.036  0.00  0.00     0.061 A 
ATOM      7  S   UNL d   1      -1.980  -1.656  -0.134  0.00  0.00    -0.076 SA
ATOM      8  S   UNL d   1       0.931  -2.426   0.095  0.00  0.00    -0.076 SA
ATOM      9  N   UNL d   1      -1.064   2.128  -0.008  0.00  0.00    -0.397 N 
ATOM     10  N   UNL d   1       2.002   1.318   0.021  0.00  0.00    -0.397 N 
ATOM     11  H   UNL d   1      -1.936   2.660   0.048  0.00  0.00     0.156 HD
ATOM     12  H   UNL d   1      -0.288   2.591   0.457  0.00  0.00     0.156 HD
ATOM     13  H   UNL d   1       3.024   1.349  -0.038  0.00  0.00     0.156 HD
ATOM     14  H   UNL d   1       1.559   2.105  -0.445  0.00  0.00     0.156 HD
ENDROOT
BRANCH   3  15
ATOM     15  C   UNL d   1      -3.689   0.571  -0.036  0.00  0.00     0.176 C 
ATOM     16  O   UNL d   1      -3.891   1.760  -0.311  0.00  0.00    -0.291 OA
BRANCH  15  17
ATOM     17  C   UNL d   1      -4.904  -0.314   0.394  0.00  0.00     0.015 C 
ATOM     18  C   UNL d   1      -4.690  -0.922   1.791  0.00  0.00     0.023 C 
ATOM     19  C   UNL d   1      -6.152   0.598   0.502  0.00  0.00     0.023 C 
ATOM     20  C   UNL d   1      -5.242  -1.392  -0.648  0.00  0.00     0.023 C 
ENDBRANCH  15  17
ENDBRANCH   3  15
BRANCH   4  21
ATOM     21  C   UNL d   1       3.517  -1.331   0.028  0.00  0.00     0.176 C 
ATOM     22  O   UNL d   1       4.279  -0.394   0.296  0.00  0.00    -0.291 OA
BRANCH  21  23
ATOM     23  C   UNL d   1       4.141  -2.701  -0.396  0.00  0.00     0.015 C 
ATOM     24  C   UNL d   1       3.682  -3.111  -1.806  0.00  0.00     0.023 C 
ATOM     25  C   UNL d   1       5.680  -2.531  -0.470  0.00  0.00     0.023 C 
ATOM     26  C   UNL d   1       3.875  -3.812   0.633  0.00  0.00     0.023 C 
ENDBRANCH  21  23
ENDBRANCH   4  21
TORSDOF 4
