REMARK  6 active torsions:
REMARK  status: ('A' for Active; 'I' for Inactive)
REMARK    1  A    between atoms: C_2  and  S_1 
REMARK    2  A    between atoms: N_10  and  S_1 
REMARK    3  A    between atoms: C_11  and  N_10 
REMARK    4  A    between atoms: C_15  and  C_11 
REMARK    5  A    between atoms: O_19  and  C_15 
REMARK    6  A    between atoms: C_20  and  O_19 
ROOT
ATOM      1  C   UNL d   1       0.328   0.060  -1.746  0.00  0.00     0.108 A 
ATOM      2  C   UNL d   1      -1.040   0.093  -2.099  0.00  0.00     0.090 A 
ATOM      3  N   UNL d   1      -2.106   0.086  -1.283  0.00  0.00    -0.309 N 
ATOM      4  HN  UNL d   1      -2.089   0.043  -0.264  1.00  0.00     0.176 HD
ATOM      5  S   UNL d   1      -3.456   0.161  -2.241  0.00  0.00     0.068 SA
ATOM      6  C   UNL d   1      -1.435   0.127  -3.557  0.00  0.00     0.068 A 
ATOM      7  N   UNL d   1      -2.763   0.155  -3.749  0.00  0.00    -0.310 N 
ATOM      8  HN  UNL d   1      -3.250   0.170  -4.645  1.00  0.00     0.176 HD
ATOM      9  C   UNL d   1       1.266   0.085  -2.802  0.00  0.00     0.028 A 
ATOM     10  C   UNL d   1       0.885   0.112  -4.163  0.00  0.00     0.004 A 
ATOM     11  C   UNL d   1      -0.457   0.125  -4.581  0.00  0.00     0.032 A 
ENDROOT
BRANCH   1  12
ATOM     12  S   UNL d   1       0.860  -0.043  -0.080  0.00  0.00     0.261 S 
ATOM     13  O   UNL d   1       0.241   1.037   0.656  0.00  0.00    -0.200 OA
ATOM     14  O   UNL d   1       2.294  -0.223  -0.078  0.00  0.00    -0.200 OA
BRANCH  12  15
ATOM     15  N   UNL d   1       0.176  -1.474   0.436  0.00  0.00    -0.306 N 
ATOM     16  H   UNL d   1      -0.476  -1.402   1.221  0.00  0.00     0.172 HD
BRANCH  15  17
ATOM     17  C   UNL d   1       0.931  -2.716   0.259  0.00  0.00     0.243 C 
BRANCH  17  18
ATOM     18  C   UNL d   1       0.242  -3.893   0.917  0.00  0.00     0.277 C 
ATOM     19  O   UNL d   1      -0.785  -3.832   1.578  0.00  0.00    -0.263 OA
BRANCH  18  20
ATOM     20  O   UNL d   1       1.009  -5.010   0.734  0.00  0.00    -0.321 OA
BRANCH  20  21
ATOM     21  C   UNL d   1       0.743  -6.097   1.632  0.00  0.00     0.174 C 
ATOM     22  C   UNL d   1       1.542  -5.868   2.903  0.00  0.00     0.034 C 
ENDBRANCH  20  21
ENDBRANCH  18  20
ENDBRANCH  17  18
ENDBRANCH  15  17
ENDBRANCH  12  15
ENDBRANCH   1  12
TORSDOF 6
