REMARK  6 active torsions:
REMARK  status: ('A' for Active; 'I' for Inactive)
REMARK    1  A    between atoms: C_6  and  C_1 
REMARK    2  A    between atoms: C_8  and  C_2 
REMARK    3  A    between atoms: C_3  and  C_14 
REMARK    4  A    between atoms: O_20  and  C_23 
REMARK    5  A    between atoms: C_25  and  O_20 
REMARK    6  A    between atoms: C_21  and  C_25 
ROOT
ATOM      1  C   UNL d   1      -1.297   5.225   3.116  0.00  0.00     0.055 C 
ATOM      2  C   UNL d   1      -0.742   5.038   1.901  0.00  0.00     0.034 C 
ATOM      3  C   UNL d   1      -1.471   4.120   4.010  0.00  0.00     0.100 C 
ATOM      4  N   UNL d   1      -1.595   3.241   4.761  0.00  0.00    -0.191 NA
ENDROOT
BRANCH   1   5
ATOM      5  C   UNL d   1      -1.755   6.583   3.561  0.00  0.00    -0.015 A 
ATOM      6  C   UNL d   1      -2.251   7.564   2.677  0.00  0.00     0.015 A 
ATOM      7  C   UNL d   1      -2.783   8.771   3.159  0.00  0.00     0.037 A 
ATOM      8  C   UNL d   1      -2.847   9.017   4.528  0.00  0.00     0.069 A 
ATOM      9  C   UNL d   1      -2.285   8.097   5.407  0.00  0.00     0.037 A 
ATOM     10  C   UNL d   1      -1.754   6.894   4.930  0.00  0.00     0.015 A 
BRANCH   8  11
ATOM     11  O   UNL d   1      -3.489  10.164   4.912  0.00  0.00    -0.347 OA
BRANCH  11  12
ATOM     12  C   UNL d   1      -4.039  10.115   6.233  0.00  0.00     0.214 C 
BRANCH  12  13
ATOM     13  C   UNL d   1      -5.122  11.153   6.368  0.00  0.00    -0.032 A 
ATOM     14  C   UNL d   1      -4.811  12.518   6.283  0.00  0.00     0.035 A 
ATOM     15  C   UNL d   1      -5.810  13.484   6.433  0.00  0.00     0.056 A 
ATOM     16 CL   UNL d   1      -5.343  15.144   6.323  0.00  0.00    -0.083 Cl
ATOM     17  C   UNL d   1      -7.131  13.089   6.669  0.00  0.00     0.055 A 
ATOM     18  C   UNL d   1      -7.448  11.731   6.751  0.00  0.00     0.026 A 
ATOM     19 CL   UNL d   1      -8.417  14.225   6.871  0.00  0.00    -0.083 Cl
ATOM     20  C   UNL d   1      -6.449  10.768   6.600  0.00  0.00     0.011 A 
ENDBRANCH  12  13
ENDBRANCH  11  12
ENDBRANCH   8  11
ENDBRANCH   1   5
BRANCH   2  21
ATOM     21  C   UNL d   1      -0.313   3.729   1.388  0.00  0.00    -0.035 A 
ATOM     22  C   UNL d   1      -1.204   2.948   0.646  0.00  0.00     0.012 A 
ATOM     23  C   UNL d   1      -0.822   1.684   0.182  0.00  0.00     0.017 A 
ATOM     24  C   UNL d   1       0.459   1.180   0.454  0.00  0.00     0.048 A 
ATOM     25  C   UNL d   1       1.351   1.971   1.195  0.00  0.00     0.017 A 
ATOM     26  C   UNL d   1       0.968   3.236   1.658  0.00  0.00     0.012 A 
BRANCH  24  27
ATOM     27  C   UNL d   1       0.853  -0.191  -0.044  0.00  0.00     0.417 C 
ATOM     28  F   UNL d   1       2.124  -0.551   0.293  0.00  0.00    -0.166 F 
ATOM     29  F   UNL d   1       0.788  -0.289  -1.401  0.00  0.00    -0.166 F 
ATOM     30  F   UNL d   1       0.047  -1.177   0.439  0.00  0.00    -0.166 F 
ENDBRANCH  24  27
ENDBRANCH   2  21
TORSDOF 6
