REMARK  5 active torsions:
REMARK  status: ('A' for Active; 'I' for Inactive)
REMARK    1  A    between atoms: S_2  and  C_1 
REMARK    2  A    between atoms: C_8  and  C_3 
REMARK    3  A    between atoms: C_4  and  C_7 
REMARK    4  A    between atoms: C_7  and  O_11 
REMARK    5  A    between atoms: O_11  and  C_14 
ROOT
ATOM      1  C   UNL d   1       1.237   0.738   1.811  0.00  0.00     0.139 C 
ATOM      2  C   UNL d   1       0.286   0.540   0.880  0.00  0.00     0.049 C 
ATOM      3  C   UNL d   1       2.607   0.720   1.440  0.00  0.00     0.111 C 
ATOM      4  N   UNL d   1       3.719   0.687   1.111  0.00  0.00    -0.191 NA
ENDROOT
BRANCH   1   5
ATOM      5  S   UNL d   1       0.926   1.024   3.492  0.00  0.00     0.181 S 
ATOM      6  O   UNL d   1       1.872   2.004   3.993  0.00  0.00    -0.222 OA
ATOM      7  O   UNL d   1      -0.488   1.201   3.773  0.00  0.00    -0.222 OA
ATOM      8  C   UNL d   1       1.381  -0.539   4.203  0.00  0.00     0.168 C 
ENDBRANCH   1   5
BRANCH   2   9
ATOM      9  C   UNL d   1      -1.173   0.638   1.002  0.00  0.00    -0.001 A 
ATOM     10  C   UNL d   1      -2.006  -0.434   1.364  0.00  0.00     0.079 A 
ATOM     11  C   UNL d   1      -3.394  -0.265   1.329  0.00  0.00     0.037 A 
ATOM     12  C   UNL d   1      -3.954   0.972   1.005  0.00  0.00     0.003 A 
ATOM     13  C   UNL d   1      -3.130   2.047   0.689  0.00  0.00     0.001 A 
ATOM     14  C   UNL d   1      -1.747   1.879   0.678  0.00  0.00     0.014 A 
BRANCH  10  15
ATOM     15  O   UNL d   1      -1.438  -1.650   1.656  0.00  0.00    -0.346 OA
BRANCH  15  16
ATOM     16  C   UNL d   1      -1.929  -2.269   2.861  0.00  0.00     0.217 C 
BRANCH  16  17
ATOM     17  C   UNL d   1      -2.977  -3.343   2.642  0.00  0.00     0.009 A 
ATOM     18  C   UNL d   1      -2.735  -4.441   1.793  0.00  0.00     0.044 A 
ATOM     19 CL   UNL d   1      -1.235  -4.644   0.954  0.00  0.00    -0.084 Cl
ATOM     20  C   UNL d   1      -3.692  -5.451   1.618  0.00  0.00     0.024 A 
ATOM     21  C   UNL d   1      -4.907  -5.397   2.292  0.00  0.00     0.003 A 
ATOM     22  C   UNL d   1      -5.163  -4.333   3.149  0.00  0.00     0.024 A 
ATOM     23  C   UNL d   1      -4.209  -3.321   3.329  0.00  0.00     0.044 A 
ATOM     24 CL   UNL d   1      -4.633  -2.067   4.443  0.00  0.00    -0.084 Cl
ENDBRANCH  16  17
ENDBRANCH  15  16
ENDBRANCH  10  15
ENDBRANCH   2   9
TORSDOF 5
