REMARK  6 active torsions:
REMARK  status: ('A' for Active; 'I' for Inactive)
REMARK    1  A    between atoms: N_2  and  C_1 
REMARK    2  A    between atoms: C_4  and  C_1 
REMARK    3  A    between atoms: N_7  and  C_3 
REMARK    4  A    between atoms: O_10  and  C_4 
REMARK    5  A    between atoms: C_9  and  N_7 
REMARK    6  A    between atoms: C_17  and  O_10 
ROOT
ATOM      1  C   UNL d   1       0.969   0.013   0.037  0.00  0.00     0.193 C 
ATOM      2  C   UNL d   1       0.281  -0.868   0.781  0.00  0.00     0.131 C 
ENDROOT
BRANCH   2   3
ATOM      3  N   UNL d   1      -1.078  -1.091   0.820  0.00  0.00    -0.363 N 
ATOM      4  H   UNL d   1      -1.643  -0.586   0.133  0.00  0.00     0.165 HD
BRANCH   3   5
ATOM      5  C   UNL d   1      -1.783  -1.934   1.695  0.00  0.00     0.032 A 
ATOM      6  C   UNL d   1      -1.242  -2.399   2.904  0.00  0.00     0.032 A 
ATOM      7  C   UNL d   1      -1.954  -3.285   3.718  0.00  0.00     0.044 A 
ATOM      8  C   UNL d   1      -3.207  -3.724   3.318  0.00  0.00     0.116 A 
ATOM      9  C   UNL d   1      -3.763  -3.292   2.122  0.00  0.00     0.044 A 
ATOM     10  F   UNL d   1      -3.886  -4.578   4.095  0.00  0.00    -0.206 F 
ATOM     11  C   UNL d   1      -3.051  -2.401   1.313  0.00  0.00     0.032 A 
ENDBRANCH   3   5
ENDBRANCH   2   3
BRANCH   1  12
ATOM     12  N   UNL d   1       2.400  -0.065   0.131  0.00  0.00    -0.108 N 
ATOM     13  O   UNL d   1       2.907   0.067   1.254  0.00  0.00    -0.532 OA
ATOM     14  O   UNL d   1       3.020  -0.303  -0.917  0.00  0.00    -0.532 OA
ENDBRANCH   1  12
BRANCH   1  15
ATOM     15  C   UNL d   1       0.395   0.959  -0.922  0.00  0.00     0.317 C 
ATOM     16  O   UNL d   1      -0.742   0.858  -1.368  0.00  0.00    -0.257 OA
BRANCH  15  17
ATOM     17  O   UNL d   1       1.282   1.933  -1.242  0.00  0.00    -0.317 OA
BRANCH  17  18
ATOM     18  C   UNL d   1       1.021   2.652  -2.455  0.00  0.00     0.175 C 
ATOM     19  C   UNL d   1       1.614   1.861  -3.607  0.00  0.00     0.034 C 
ENDBRANCH  17  18
ENDBRANCH  15  17
ENDBRANCH   1  15
TORSDOF 6
