REMARK  5 active torsions:
REMARK  status: ('A' for Active; 'I' for Inactive)
REMARK    1  A    between atoms: C_13  and  C_1 
REMARK    2  A    between atoms: C_8  and  C_11 
REMARK    3  A    between atoms: O_17  and  C_8 
REMARK    4  A    between atoms: O_10  and  C_12 
REMARK    5  A    between atoms: C_11  and  O_10 
ROOT
ATOM      1  C   UNL d   1      -0.490  -1.829  -0.088  0.00  0.00    -0.007 C 
ATOM      2  C   UNL d   1       0.289   0.506  -0.281  0.00  0.00     0.093 A 
ATOM      3  C   UNL d   1       0.597  -0.842  -0.120  0.00  0.00     0.009 A 
ATOM      4  O   UNL d   1      -1.045   0.939  -0.388  0.00  0.00    -0.275 OA
ATOM      5  C   UNL d   1      -2.090   0.053  -0.191  0.00  0.00     0.289 C 
ATOM      6  C   UNL d   1      -1.752  -1.375  -0.093  0.00  0.00     0.095 C 
ATOM      7  C   UNL d   1       1.272   1.497  -0.280  0.00  0.00     0.075 A 
ATOM      8  C   UNL d   1       1.942  -1.199   0.026  0.00  0.00     0.018 A 
ATOM      9  C   UNL d   1       2.596   1.134  -0.050  0.00  0.00     0.072 A 
ATOM     10  O   UNL d   1      -3.260   0.424  -0.137  0.00  0.00    -0.260 OA
ATOM     11  C   UNL d   1       2.933  -0.217   0.062  0.00  0.00     0.038 A 
ENDROOT
BRANCH   9  12
ATOM     12  O   UNL d   1       3.639   1.995   0.158  0.00  0.00    -0.336 OA
BRANCH  12  13
ATOM     13  C   UNL d   1       3.319   3.328   0.565  0.00  0.00     0.222 C 
ATOM     14  C   UNL d   1       4.642   4.074   0.700  0.00  0.00     0.051 C 
BRANCH  13  15
ATOM     15  C   UNL d   1       2.601   3.423   1.918  0.00  0.00     0.170 C 
ATOM     16  O   UNL d   1       1.877   4.353   2.242  0.00  0.00    -0.648 OA
BRANCH  15  17
ATOM     17  O   UNL d   1       2.881   2.393   2.755  0.00  0.00    -0.775 OA
ATOM     18  H   UNL d   1       3.452   1.726   2.320  0.00  0.00     0.167 HD
ENDBRANCH  15  17
ENDBRANCH  13  15
ENDBRANCH  12  13
ENDBRANCH   9  12
BRANCH   1  19
ATOM     19  C   UNL d   1      -0.288  -3.290  -0.080  0.00  0.00    -0.025 A 
ATOM     20  C   UNL d   1      -0.222  -3.975  -1.300  0.00  0.00     0.012 A 
ATOM     21  C   UNL d   1       0.085  -5.335  -1.325  0.00  0.00     0.001 A 
ATOM     22  C   UNL d   1       0.327  -6.015  -0.132  0.00  0.00     0.000 A 
ATOM     23  C   UNL d   1       0.244  -5.343   1.087  0.00  0.00     0.001 A 
ATOM     24  C   UNL d   1      -0.067  -3.981   1.116  0.00  0.00     0.012 A 
ENDBRANCH   1  19
TORSDOF 5
