REMARK  5 active torsions:
REMARK  status: ('A' for Active; 'I' for Inactive)
REMARK    1  A    between atoms: N_2  and  C_1 
REMARK    2  A    between atoms: C_14  and  C_5 
REMARK    3  A    between atoms: C_6  and  O_15 
REMARK       I    between atoms: N_12  and  C_6 
REMARK    4  A    between atoms: O_15  and  N_9 
REMARK    5  A    between atoms: C_16  and  N_12 
ROOT
ATOM      1  N   UNL d   1       3.795  -0.865  -0.231  0.00  0.00    -0.267 N 
ATOM      2  HN  UNL d   1       3.848   0.140  -0.066  1.00  0.00     0.194 HD
ATOM      3  C   UNL d   1       2.711  -1.563  -0.324  0.00  0.00     0.126 C 
ENDROOT
BRANCH   1   4
ATOM      4  O   UNL d   1       4.898  -1.738  -0.397  0.00  0.00    -0.181 OA
BRANCH   4   5
ATOM      5  C   UNL d   1       6.114  -1.111  -0.189  0.00  0.00     0.382 C 
ATOM      6  N   UNL d   1       6.042   0.243   0.017  0.00  0.00    -0.332 N 
ATOM      7  H   UNL d   1       5.115   0.633  -0.109  0.00  0.00     0.165 HD
ATOM      8  O   UNL d   1       7.163  -1.747  -0.203  0.00  0.00    -0.236 OA
BRANCH   6   9
ATOM      9  C   UNL d   1       7.218   1.082   0.170  0.00  0.00     0.078 C 
ATOM     10  C   UNL d   1       7.762   1.525  -1.187  0.00  0.00     0.032 C 
ATOM     11  C   UNL d   1       6.909   2.292   1.044  0.00  0.00     0.032 C 
ENDBRANCH   6   9
ENDBRANCH   4   5
ENDBRANCH   1   4
BRANCH   3  12
ATOM     12  C   UNL d   1       1.442  -0.882  -0.139  0.00  0.00    -0.009 A 
ATOM     13  C   UNL d   1       1.273   0.511   0.161  0.00  0.00     0.057 A 
ATOM     14  C   UNL d   1      -0.050   0.854   0.329  0.00  0.00     0.144 A 
ATOM     15  S   UNL d   1      -1.098  -0.459   0.093  0.00  0.00    -0.077 SA
ATOM     16  C   UNL d   1       0.216  -1.520  -0.214  0.00  0.00     0.065 A 
BRANCH  14  17
ATOM     17  N   UNL d   1      -0.553   2.157   0.673  0.00  0.00    -0.108 N 
ATOM     18  O   UNL d   1       0.294   3.051   0.815  0.00  0.00    -0.531 OA
ATOM     19  O   UNL d   1      -1.774   2.300   0.812  0.00  0.00    -0.531 OA
ENDBRANCH  14  17
ENDBRANCH   3  12
TORSDOF 5
