REMARK  7 active torsions:
REMARK  status: ('A' for Active; 'I' for Inactive)
REMARK    1  A    between atoms: N_2  and  S_1 
REMARK    2  A    between atoms: C_4  and  S_1 
REMARK    3  A    between atoms: S_3  and  N_2 
REMARK    4  A    between atoms: C_7  and  N_2 
REMARK    5  A    between atoms: C_8  and  S_3 
REMARK    6  A    between atoms: C_19  and  C_7 
REMARK    7  A    between atoms: C_25  and  C_19 
ROOT
ATOM      1  N   UNL d   1       0.139   1.345   0.505  0.00  0.00    -0.194 N 
ENDROOT
BRANCH   1   2
ATOM      2  S   UNL d   1       0.975   0.127  -0.306  0.00  0.00     0.274 S 
ATOM      3  O   UNL d   1       2.199   0.720  -0.787  0.00  0.00    -0.199 OA
ATOM      4  O   UNL d   1       0.145  -0.572  -1.265  0.00  0.00    -0.199 OA
BRANCH   2   5
ATOM      5  C   UNL d   1       1.339  -1.067   0.992  0.00  0.00     0.089 A 
ATOM      6  C   UNL d   1       2.630  -1.454   1.398  0.00  0.00     0.001 A 
ATOM      7  C   UNL d   1       2.724  -2.441   2.400  0.00  0.00     0.129 A 
ATOM      8  C   UNL d   1       3.949  -0.990   0.851  0.00  0.00     0.053 C 
ATOM      9  F   UNL d   1       3.944  -2.855   2.784  0.00  0.00    -0.205 F 
ATOM     10  C   UNL d   1       1.609  -3.022   3.011  0.00  0.00    -0.023 A 
ATOM     11  C   UNL d   1       0.343  -2.604   2.617  0.00  0.00     0.011 A 
ATOM     12  C   UNL d   1       1.797  -4.089   4.046  0.00  0.00     0.051 C 
ATOM     13  C   UNL d   1       0.209  -1.650   1.608  0.00  0.00     0.026 A 
ENDBRANCH   2   5
ENDBRANCH   1   2
BRANCH   1  14
ATOM     14  S   UNL d   1      -1.549   1.342   0.517  0.00  0.00     0.273 S 
ATOM     15  O   UNL d   1      -2.128   0.467  -0.475  0.00  0.00    -0.199 OA
ATOM     16  O   UNL d   1      -1.979   1.241   1.900  0.00  0.00    -0.199 OA
BRANCH  14  17
ATOM     17  C   UNL d   1      -1.940   3.003  -0.030  0.00  0.00     0.080 A 
ATOM     18  C   UNL d   1      -2.134   3.250  -1.397  0.00  0.00     0.027 A 
ATOM     19  C   UNL d   1      -2.483   4.535  -1.825  0.00  0.00     0.025 A 
ATOM     20  C   UNL d   1      -2.640   5.559  -0.890  0.00  0.00     0.034 A 
ATOM     21  C   UNL d   1      -2.489   5.302   0.473  0.00  0.00     0.025 A 
ATOM     22 CL   UNL d   1      -3.028   7.149  -1.419  0.00  0.00    -0.084 Cl
ATOM     23  C   UNL d   1      -2.154   4.017   0.909  0.00  0.00     0.027 A 
ENDBRANCH  14  17
ENDBRANCH   1  14
BRANCH   1  24
ATOM     24  C   UNL d   1       0.773   1.940   1.727  0.00  0.00     0.159 C 
BRANCH  24  25
ATOM     25  C   UNL d   1       2.200   2.470   1.559  0.00  0.00     0.060 C 
BRANCH  25  26
ATOM     26  C   UNL d   1       2.767   2.941   2.881  0.00  0.00    -0.057 A 
ATOM     27  C   UNL d   1       3.508   2.063   3.690  0.00  0.00     0.007 A 
ATOM     28  C   UNL d   1       3.998   2.481   4.928  0.00  0.00     0.001 A 
ATOM     29  C   UNL d   1       3.749   3.777   5.373  0.00  0.00     0.000 A 
ATOM     30  C   UNL d   1       3.023   4.659   4.573  0.00  0.00     0.001 A 
ATOM     31  C   UNL d   1       2.534   4.245   3.333  0.00  0.00     0.007 A 
ENDBRANCH  25  26
ENDBRANCH  24  25
ENDBRANCH   1  24
TORSDOF 7
