REMARK  5 active torsions:
REMARK  status: ('A' for Active; 'I' for Inactive)
REMARK    1  A    between atoms: N_2  and  S_1 
REMARK    2  A    between atoms: C_6  and  S_1 
REMARK       I    between atoms: C_3  and  N_8 
REMARK       I    between atoms: N_7  and  C_3 
REMARK    3  A    between atoms: C_12  and  N_7 
REMARK    4  A    between atoms: N_8  and  C_14 
REMARK    5  A    between atoms: C_14  and  C_18 
ROOT
ATOM      1  N   UNL d   1       0.704  -0.671  -1.353  0.00  0.00    -0.307 N 
ATOM      2  C   UNL d   1       0.900  -2.141  -1.449  0.00  0.00     0.136 C 
ATOM      3  C   UNL d   1       1.154   0.126  -2.517  0.00  0.00     0.136 C 
ATOM      4  C   UNL d   1       0.612  -0.458  -3.817  0.00  0.00     0.027 C 
ATOM      5  C   UNL d   1       0.413  -2.697  -2.783  0.00  0.00     0.027 C 
ATOM      6  C   UNL d   1       0.991  -1.932  -3.983  0.00  0.00     0.006 C 
ENDROOT
BRANCH   6   7
ATOM      7  C   UNL d   1       2.513  -2.163  -4.119  0.00  0.00     0.129 C 
BRANCH   7   8
ATOM      8  N   UNL d   1       3.157  -1.374  -5.157  0.00  0.00    -0.342 N 
ATOM      9  C   UNL d   1       2.914  -1.658  -6.488  0.00  0.00     0.320 C 
ATOM     10  N   UNL d   1       3.698  -0.889  -7.324  0.00  0.00    -0.309 N 
ATOM     11  O   UNL d   1       2.084  -2.492  -6.826  0.00  0.00    -0.247 OA
ATOM     12  H   UNL d   1       4.338  -0.253  -6.879  0.00  0.00     0.170 HD
ATOM     13  H   UNL d   1       4.094  -1.061  -4.953  0.00  0.00     0.164 HD
BRANCH  10  14
ATOM     14  C   UNL d   1       3.728  -0.938  -8.734  0.00  0.00     0.036 A 
ATOM     15  C   UNL d   1       2.886  -1.753  -9.498  0.00  0.00     0.032 A 
ATOM     16  C   UNL d   1       3.025  -1.821 -10.887  0.00  0.00     0.044 A 
ATOM     17  C   UNL d   1       3.996  -1.057 -11.516  0.00  0.00     0.116 A 
ATOM     18  C   UNL d   1       4.811  -0.203 -10.785  0.00  0.00     0.044 A 
ATOM     19  F   UNL d   1       4.151  -1.148 -12.843  0.00  0.00    -0.206 F 
ATOM     20  C   UNL d   1       4.675  -0.140  -9.394  0.00  0.00     0.032 A 
ENDBRANCH  10  14
ENDBRANCH   7   8
ENDBRANCH   6   7
BRANCH   1  21
ATOM     21  S   UNL d   1       1.021   0.010   0.186  0.00  0.00     0.260 S 
ATOM     22  O   UNL d   1       0.156  -0.655   1.143  0.00  0.00    -0.200 OA
ATOM     23  O   UNL d   1       1.034   1.452   0.064  0.00  0.00    -0.200 OA
BRANCH  21  24
ATOM     24  C   UNL d   1       2.691  -0.514   0.545  0.00  0.00     0.079 A 
ATOM     25  C   UNL d   1       3.781   0.237   0.099  0.00  0.00     0.025 A 
ATOM     26  C   UNL d   1       5.076  -0.178   0.421  0.00  0.00     0.002 A 
ATOM     27  C   UNL d   1       5.275  -1.327   1.193  0.00  0.00     0.000 A 
ATOM     28  C   UNL d   1       4.184  -2.062   1.653  0.00  0.00     0.002 A 
ATOM     29  C   UNL d   1       2.889  -1.653   1.337  0.00  0.00     0.025 A 
ENDBRANCH  21  24
ENDBRANCH   1  21
TORSDOF 5
