REMARK  4 active torsions:
REMARK  status: ('A' for Active; 'I' for Inactive)
REMARK    1  A    between atoms: N_9  and  S_1 
REMARK    2  A    between atoms: C_2  and  C_6 
REMARK    3  A    between atoms: C_5  and  C_7 
REMARK       I    between atoms: C_6  and  N_11 
REMARK    4  A    between atoms: N_11  and  N_9 
ROOT
ATOM      1  C   UNL d   1      -0.305  -4.508  -0.295  0.00  0.00     0.077 A 
ATOM      2  S   UNL d   1      -1.751  -3.918   0.410  0.00  0.00    -0.083 SA
ATOM      3  C   UNL d   1       0.026  -5.747   0.221  0.00  0.00     0.055 A 
ATOM      4  C   UNL d   1      -2.817  -6.777   3.083  0.00  0.00     0.064 A 
ATOM      5  C   UNL d   1      -1.920  -5.293   1.426  0.00  0.00     0.033 A 
ATOM      6  C   UNL d   1      -0.889  -6.205   1.209  0.00  0.00     0.050 A 
ATOM      7  N   UNL d   1      -0.789  -7.381   1.883  0.00  0.00    -0.364 N 
ATOM      8  HN  UNL d   1      -0.031  -8.041   1.712  1.00  0.00     0.165 HD
ATOM      9  C   UNL d   1      -2.913  -5.571   2.380  0.00  0.00     0.038 A 
ATOM     10  C   UNL d   1      -1.755  -7.620   2.793  0.00  0.00     0.104 A 
ENDROOT
BRANCH   1  11
ATOM     11  C   UNL d   1       0.452  -3.756  -1.286  0.00  0.00     0.277 C 
ATOM     12  N   UNL d   1      -0.135  -2.595  -1.760  0.00  0.00    -0.256 N 
ATOM     13  H   UNL d   1      -1.055  -2.283  -1.456  0.00  0.00     0.191 HD
ATOM     14  O   UNL d   1       1.560  -4.110  -1.696  0.00  0.00    -0.265 OA
BRANCH  12  15
ATOM     15  N   UNL d   1       0.593  -1.768  -2.702  0.00  0.00    -0.225 N 
ATOM     16  H   UNL d   1       1.552  -2.039  -2.944  0.00  0.00     0.200 HD
BRANCH  15  17
ATOM     17  S   UNL d   1      -0.083  -0.319  -3.206  0.00  0.00     0.240 S 
ATOM     18  O   UNL d   1      -0.233   0.512  -2.033  0.00  0.00    -0.205 OA
ATOM     19  O   UNL d   1      -1.222  -0.643  -4.037  0.00  0.00    -0.205 OA
ATOM     20  C   UNL d   1       1.203   0.361  -4.232  0.00  0.00     0.187 C 
ENDBRANCH  15  17
ENDBRANCH  12  15
ENDBRANCH   1  11
BRANCH   4  21
ATOM     21  C   UNL d   1      -3.811  -7.183   4.127  0.00  0.00     0.418 C 
ATOM     22  F   UNL d   1      -4.804  -6.271   4.317  0.00  0.00    -0.166 F 
ATOM     23  F   UNL d   1      -4.433  -8.355   3.824  0.00  0.00    -0.166 F 
ATOM     24  F   UNL d   1      -3.237  -7.370   5.347  0.00  0.00    -0.166 F 
ENDBRANCH   4  21
TORSDOF 4
