REMARK  7 active torsions:
REMARK  status: ('A' for Active; 'I' for Inactive)
REMARK    1  A    between atoms: N_7  and  S_1 
REMARK    2  A    between atoms: C_15  and  S_1 
REMARK    3  A    between atoms: C_8  and  C_4 
REMARK    4  A    between atoms: C_5  and  N_12 
REMARK    5  A    between atoms: C_13  and  C_6 
REMARK    6  A    between atoms: C_9  and  C_19 
REMARK    7  A    between atoms: O_34  and  C_13 
ROOT
ATOM      1  N   UNL d   1       0.353   0.225   1.617  0.00  0.00    -0.205 NA
ATOM      2  N   UNL d   1      -1.450   1.198   3.820  0.00  0.00    -0.216 N 
ATOM      3  C   UNL d   1      -0.041   1.670   1.818  0.00  0.00     0.128 C 
ATOM      4  C   UNL d   1      -0.342   1.993   3.290  0.00  0.00     0.157 C 
ATOM      5  C   UNL d   1      -0.904  -1.171   3.261  0.00  0.00     0.036 C 
ATOM      6  C   UNL d   1      -0.824  -0.683   1.820  0.00  0.00     0.109 C 
ATOM      7  C   UNL d   1      -1.143  -0.120   4.345  0.00  0.00     0.142 C 
ENDROOT
BRANCH   2   8
ATOM      8  C   UNL d   1      -2.717   1.714   3.888  0.00  0.00     0.680 A 
ATOM      9  N   UNL d   1      -2.936   2.964   3.460  0.00  0.00    -0.185 N 
ATOM     10  C   UNL d   1      -4.181   3.533   3.584  0.00  0.00     0.150 A 
ATOM     11  HN  UNL d   1      -2.174   3.496   3.039  1.00  0.00     0.184 HD
ATOM     12  C   UNL d   1      -5.238   2.833   4.135  0.00  0.00     0.087 A 
ATOM     13  C   UNL d   1      -4.930   1.542   4.515  0.00  0.00     0.126 A 
ATOM     14  N   UNL d   1      -3.706   0.975   4.397  0.00  0.00    -0.201 N 
ATOM     15  HN  UNL d   1      -3.544   0.011   4.689  1.00  0.00     0.183 HD
BRANCH  10  16
ATOM     16  C   UNL d   1      -4.309   4.954   3.077  0.00  0.00     0.434 C 
ATOM     17  F   UNL d   1      -3.148   5.435   2.535  0.00  0.00    -0.165 F 
ATOM     18  F   UNL d   1      -5.237   5.090   2.087  0.00  0.00    -0.165 F 
ATOM     19  F   UNL d   1      -4.631   5.854   4.050  0.00  0.00    -0.165 F 
ENDBRANCH  10  16
BRANCH  12  20
ATOM     20  C   UNL d   1      -6.628   3.279   4.375  0.00  0.00     0.296 C 
ATOM     21  O   UNL d   1      -7.489   2.529   4.807  0.00  0.00    -0.259 OA
BRANCH  20  22
ATOM     22  O   UNL d   1      -6.804   4.583   4.088  0.00  0.00    -0.322 OA
ATOM     23  C   UNL d   1      -8.123   5.074   4.342  0.00  0.00     0.213 C 
ENDBRANCH  20  22
ENDBRANCH  12  20
ENDBRANCH   2   8
BRANCH   1  24
ATOM     24  S   UNL d   1       1.149  -0.060   0.115  0.00  0.00     0.243 S 
ATOM     25  O   UNL d   1       0.409   0.647  -0.907  0.00  0.00    -0.206 OA
ATOM     26  O   UNL d   1       1.426  -1.476   0.006  0.00  0.00    -0.206 OA
BRANCH  24  27
ATOM     27  C   UNL d   1       2.727   0.737   0.324  0.00  0.00     0.074 A 
ATOM     28  C   UNL d   1       3.605   0.248   1.295  0.00  0.00     0.025 A 
ATOM     29  C   UNL d   1       4.873   0.818   1.425  0.00  0.00     0.018 A 
ATOM     30  C   UNL d   1       5.274   1.872   0.586  0.00  0.00     0.048 A 
ATOM     31  C   UNL d   1       4.379   2.345  -0.389  0.00  0.00     0.018 A 
ATOM     32  C   UNL d   1       3.108   1.780  -0.524  0.00  0.00     0.025 A 
BRANCH  30  33
ATOM     33  C   UNL d   1       6.654   2.471   0.737  0.00  0.00     0.417 C 
ATOM     34  F   UNL d   1       6.912   3.475  -0.146  0.00  0.00    -0.166 F 
ATOM     35  F   UNL d   1       6.853   3.003   1.975  0.00  0.00    -0.166 F 
ATOM     36  F   UNL d   1       7.644   1.554   0.561  0.00  0.00    -0.166 F 
ENDBRANCH  30  33
ENDBRANCH  24  27
ENDBRANCH   1  24
TORSDOF 7
