REMARK  4 active torsions:
REMARK  status: ('A' for Active; 'I' for Inactive)
REMARK    1  A    between atoms: C_2  and  S_1 
REMARK    2  A    between atoms: C_3  and  S_1 
REMARK    3  A    between atoms: C_9  and  C_3 
REMARK    4  A    between atoms: O_15  and  C_9 
ROOT
ATOM      1  C   UNL d   1       0.412  -0.327  -1.710  0.00  0.00     0.082 A 
ATOM      2  C   UNL d   1       0.084   0.756  -2.524  0.00  0.00     0.057 A 
ATOM      3  C   UNL d   1       0.333  -1.633  -2.228  0.00  0.00     0.033 A 
ATOM      4  C   UNL d   1      -0.348   0.526  -3.834  0.00  0.00     0.049 A 
ATOM      5  C   UNL d   1      -0.433  -0.773  -4.346  0.00  0.00     0.041 A 
ATOM      6  C   UNL d   1      -0.085  -1.871  -3.551  0.00  0.00    -0.039 A 
ATOM      7 CL   UNL d   1       0.198   2.407  -2.039  0.00  0.00    -0.083 Cl
ATOM      8 CL   UNL d   1      -0.964  -0.943  -5.980  0.00  0.00    -0.084 Cl
ATOM      9  C   UNL d   1      -0.109  -3.295  -4.036  0.00  0.00     0.050 C 
ENDROOT
BRANCH   1  10
ATOM     10  S   UNL d   1       1.046  -0.116  -0.064  0.00  0.00     0.186 S 
ATOM     11  O   UNL d   1       2.219   0.732  -0.193  0.00  0.00    -0.222 OA
ATOM     12  O   UNL d   1       1.205  -1.438   0.520  0.00  0.00    -0.222 OA
BRANCH  10  13
ATOM     13  C   UNL d   1      -0.122   0.745   0.922  0.00  0.00     0.256 C 
BRANCH  13  14
ATOM     14  C   UNL d   1      -1.415   0.017   1.026  0.00  0.00     0.272 C 
ATOM     15  O   UNL d   1      -1.916  -0.691   0.168  0.00  0.00    -0.264 OA
BRANCH  14  16
ATOM     16  O   UNL d   1      -2.022   0.369   2.200  0.00  0.00    -0.326 OA
ATOM     17  C   UNL d   1      -3.322  -0.186   2.412  0.00  0.00     0.213 C 
ENDBRANCH  14  16
ENDBRANCH  13  14
ENDBRANCH  10  13
ENDBRANCH   1  10
TORSDOF 4
