REMARK  2 active torsions:
REMARK  status: ('A' for Active; 'I' for Inactive)
REMARK    1  A    between atoms: C_5  and  N_1 
REMARK    2  A    between atoms: C_9  and  C_5 
ROOT
ATOM      1  N   UNL d   1       1.016  -0.713   0.180  0.00  0.00    -0.253 N 
ATOM      2  N   UNL d   1       0.576  -0.266   1.414  0.00  0.00    -0.300 N 
ATOM      3  HN  UNL d   1       1.121  -0.431   2.260  1.00  0.00     0.187 HD
ATOM      4  C   UNL d   1       0.314  -0.529  -1.006  0.00  0.00     0.262 A 
ATOM      5  C   UNL d   1      -0.961   0.212  -0.896  0.00  0.00     0.078 A 
ATOM      6  C   UNL d   1      -0.553   0.370   1.456  0.00  0.00     0.022 A 
ATOM      7  C   UNL d   1      -1.395   0.659   0.280  0.00  0.00     0.031 A 
ATOM      8  O   UNL d   1       0.675  -0.911  -2.116  0.00  0.00    -0.267 OA
ATOM      9  C   UNL d   1      -1.059   0.854   2.789  0.00  0.00     0.069 C 
ENDROOT
BRANCH   1  10
ATOM     10  C   UNL d   1       2.295  -1.425   0.159  0.00  0.00     0.191 C 
BRANCH  10  11
ATOM     11  C   UNL d   1       2.137  -2.915   0.395  0.00  0.00    -0.032 A 
ATOM     12  C   UNL d   1       2.199  -3.519   1.668  0.00  0.00    -0.054 A 
ATOM     13  C   UNL d   1       2.535  -2.785   2.937  0.00  0.00     0.049 C 
ATOM     14  C   UNL d   1       1.944  -4.900   1.782  0.00  0.00     0.007 A 
ATOM     15  C   UNL d   1       1.651  -5.678   0.664  0.00  0.00     0.001 A 
ATOM     16  C   UNL d   1       1.627  -5.093  -0.595  0.00  0.00     0.001 A 
ATOM     17  C   UNL d   1       1.867  -3.726  -0.727  0.00  0.00     0.009 A 
ENDBRANCH  10  11
ENDBRANCH   1  10
TORSDOF 2
