REMARK  8 active torsions:
REMARK  status: ('A' for Active; 'I' for Inactive)
REMARK    1  A    between atoms: C_2  and  C_1 
REMARK    2  A    between atoms: N_3  and  C_1 
REMARK    3  A    between atoms: C_4  and  C_1 
REMARK    4  A    between atoms: N_5  and  C_1 
REMARK       I    between atoms: C_6  and  N_3 
REMARK    5  A    between atoms: O_17  and  C_4 
REMARK    6  A    between atoms: C_8  and  N_5 
REMARK    7  A    between atoms: C_19  and  C_6 
REMARK    8  A    between atoms: C_22  and  O_17 
ROOT
ATOM      1  C   UNL d   1       0.925  -0.086   0.098  0.00  0.00     0.296 C 
ENDROOT
BRANCH   1   2
ATOM      2  C   UNL d   1       0.234  -1.142  -0.839  0.00  0.00     0.442 C 
ATOM      3  F   UNL d   1      -0.302  -2.173  -0.131  0.00  0.00    -0.166 F 
ATOM      4  F   UNL d   1      -0.762  -0.634  -1.604  0.00  0.00    -0.166 F 
ATOM      5  F   UNL d   1       1.119  -1.711  -1.702  0.00  0.00    -0.166 F 
ENDBRANCH   1   2
BRANCH   1   6
ATOM      6  N   UNL d   1       0.543  -0.107   1.506  0.00  0.00    -0.319 N 
ATOM      7  C   UNL d   1      -0.772  -0.046   1.883  0.00  0.00     0.219 C 
ATOM      8  O   UNL d   1      -1.681  -0.062   1.063  0.00  0.00    -0.274 OA
ATOM      9  H   UNL d   1       1.295  -0.155   2.179  0.00  0.00     0.165 HD
BRANCH   7  10
ATOM     10  C   UNL d   1      -0.970   0.052   3.378  0.00  0.00     0.098 C 
ATOM     11  C   UNL d   1      -2.409   0.379   3.736  0.00  0.00     0.014 C 
ENDBRANCH   7  10
ENDBRANCH   1   6
BRANCH   1  12
ATOM     12  C   UNL d   1       0.548   1.314  -0.491  0.00  0.00     0.318 C 
ATOM     13  O   UNL d   1       0.071   2.246   0.155  0.00  0.00    -0.260 OA
BRANCH  12  14
ATOM     14  O   UNL d   1       0.968   1.439  -1.786  0.00  0.00    -0.318 OA
BRANCH  14  15
ATOM     15  C   UNL d   1       0.622   2.683  -2.423  0.00  0.00     0.174 C 
ATOM     16  C   UNL d   1       1.595   3.783  -2.036  0.00  0.00     0.034 C 
ENDBRANCH  14  15
ENDBRANCH  12  14
ENDBRANCH   1  12
BRANCH   1  17
ATOM     17  N   UNL d   1       2.412  -0.134   0.178  0.00  0.00    -0.348 N 
ATOM     18  H   UNL d   1       2.867   0.758   0.006  0.00  0.00     0.163 HD
BRANCH  17  19
ATOM     19  C   UNL d   1       3.237  -1.180   0.528  0.00  0.00     0.030 A 
ATOM     20  C   UNL d   1       2.790  -2.442   0.920  0.00  0.00     0.036 A 
ATOM     21  C   UNL d   1       3.683  -3.473   1.280  0.00  0.00    -0.054 A 
ATOM     22  C   UNL d   1       3.129  -4.804   1.711  0.00  0.00     0.049 C 
ATOM     23  C   UNL d   1       5.069  -3.241   1.232  0.00  0.00    -0.056 A 
ATOM     24  C   UNL d   1       5.529  -1.988   0.819  0.00  0.00     0.009 A 
ATOM     25  C   UNL d   1       6.062  -4.303   1.614  0.00  0.00     0.049 C 
ATOM     26  C   UNL d   1       4.623  -0.981   0.471  0.00  0.00     0.030 A 
ENDBRANCH  17  19
ENDBRANCH   1  17
TORSDOF 8
