REMARK  3 active torsions:
REMARK  status: ('A' for Active; 'I' for Inactive)
REMARK    1  A    between atoms: C_4  and  C_3 
REMARK    2  A    between atoms: C_14  and  C_5 
REMARK    3  A    between atoms: C_15  and  C_16 
ROOT
ATOM      1  N   UNL d   1       0.542   0.204  -0.958  0.00  0.00    -0.317 N 
ATOM      2  HN  UNL d   1       1.165   0.382  -1.746  1.00  0.00     0.169 HD
ATOM      3  C   UNL d   1      -0.061  -0.922  -0.625  0.00  0.00     0.200 A 
ATOM      4  C   UNL d   1       0.123   1.079   0.021  0.00  0.00     0.138 A 
ATOM      5  N   UNL d   1      -0.667   0.517   0.949  0.00  0.00    -0.242 N 
ATOM      6  HN  UNL d   1      -1.076   0.953   1.775  1.00  0.00     0.196 HD
ATOM      7  O   UNL d   1      -0.800  -0.797   0.520  0.00  0.00    -0.215 OA
ENDROOT
BRANCH   4   8
ATOM      8  C   UNL d   1       0.473   2.496   0.015  0.00  0.00     0.010 A 
ATOM      9  C   UNL d   1       1.255   3.045  -1.005  0.00  0.00     0.016 A 
ATOM     10  C   UNL d   1       1.547   4.417  -1.021  0.00  0.00     0.009 A 
ATOM     11  C   UNL d   1       1.076   5.284  -0.016  0.00  0.00    -0.051 A 
ATOM     12  C   UNL d   1       0.301   4.715   1.004  0.00  0.00     0.009 A 
ATOM     13  C   UNL d   1       0.005   3.347   1.022  0.00  0.00     0.016 A 
BRANCH  11  14
ATOM     14  C   UNL d   1       1.422   6.783  -0.049  0.00  0.00    -0.024 C 
ATOM     15  C   UNL d   1       0.831   7.577   1.139  0.00  0.00     0.019 C 
ATOM     16  C   UNL d   1       2.954   6.960  -0.001  0.00  0.00     0.019 C 
ATOM     17  C   UNL d   1       0.878   7.426  -1.342  0.00  0.00     0.019 C 
ENDBRANCH  11  14
ENDBRANCH   4   8
BRANCH   3  18
ATOM     18  C   UNL d   1       0.028  -2.187  -1.406  0.00  0.00     0.110 A 
ATOM     19  N   UNL d   1      -0.667  -3.286  -1.083  0.00  0.00    -0.257 N 
ATOM     20  O   UNL d   1      -0.333  -4.232  -2.036  0.00  0.00    -0.242 OA
ATOM     21  HN  UNL d   1      -1.308  -3.401  -0.298  1.00  0.00     0.195 HD
ATOM     22  C   UNL d   1       0.565  -3.700  -2.908  0.00  0.00     0.075 A 
ATOM     23  C   UNL d   1       0.822  -2.398  -2.556  0.00  0.00     0.070 A 
ATOM     24  C   UNL d   1       1.040  -4.590  -3.980  0.00  0.00     0.079 C 
ENDBRANCH   3  18
TORSDOF 3
