REMARK  5 active torsions:
REMARK  status: ('A' for Active; 'I' for Inactive)
REMARK    1  A    between atoms: N_11  and  C_2 
REMARK    2  A    between atoms: C_4  and  C_10 
REMARK       I    between atoms: C_14  and  N_11 
REMARK    3  A    between atoms: C_26  and  C_14 
REMARK    4  A    between atoms: C_15  and  S_20 
REMARK    5  A    between atoms: S_20  and  C_26 
ROOT
ATOM      1  N   UNL d   1      -3.094  -2.878  -0.933  0.00  0.00    -0.324 N 
ATOM      2  C   UNL d   1      -3.150  -3.619   0.233  0.00  0.00     0.231 C 
ATOM      3  O   UNL d   1      -3.285  -3.152   1.364  0.00  0.00    -0.272 OA
ATOM      4  H   UNL d   1      -2.776  -3.332  -1.785  0.00  0.00     0.169 HD
ENDROOT
BRANCH   2   5
ATOM      5  C   UNL d   1      -3.049  -5.117   0.008  0.00  0.00     0.184 C 
BRANCH   5   6
ATOM      6  S   UNL d   1      -4.743  -5.768  -0.142  0.00  0.00    -0.103 SA
BRANCH   6   7
ATOM      7  C   UNL d   1      -4.411  -7.497  -0.375  0.00  0.00     0.070 A 
ATOM      8  N   UNL d   1      -3.129  -7.924  -0.377  0.00  0.00    -0.360 N 
ATOM      9  C   UNL d   1      -2.913  -9.248  -0.569  0.00  0.00     0.105 A 
ATOM     10  HN  UNL d   1      -2.354  -7.275  -0.239  1.00  0.00     0.166 HD
ATOM     11  C   UNL d   1      -3.921 -10.180  -0.772  0.00  0.00     0.063 A 
ATOM     12  C   UNL d   1      -5.236  -9.711  -0.769  0.00  0.00     0.020 A 
ATOM     13  C   UNL d   1      -5.486  -8.356  -0.565  0.00  0.00     0.038 A 
BRANCH  11  14
ATOM     14  C   UNL d   1      -3.605 -11.625  -0.998  0.00  0.00     0.418 C 
ATOM     15  F   UNL d   1      -2.279 -11.917  -0.896  0.00  0.00    -0.166 F 
ATOM     16  F   UNL d   1      -4.236 -12.442  -0.111  0.00  0.00    -0.166 F 
ATOM     17  F   UNL d   1      -3.987 -12.050  -2.234  0.00  0.00    -0.166 F 
ENDBRANCH  11  14
ENDBRANCH   6   7
ENDBRANCH   5   6
ENDBRANCH   2   5
BRANCH   1  18
ATOM     18  C   UNL d   1      -3.315  -1.491  -1.053  0.00  0.00     0.064 A 
ATOM     19  C   UNL d   1      -2.934  -0.820  -2.250  0.00  0.00     0.094 A 
ATOM     20  N   UNL d   1      -2.355  -1.386  -3.326  0.00  0.00    -0.309 N 
ATOM     21  C   UNL d   1      -3.147   0.664  -2.404  0.00  0.00     0.069 A 
ATOM     22  S   UNL d   1      -2.089  -0.155  -4.412  0.00  0.00     0.068 SA
ATOM     23  HN  UNL d   1      -2.125  -2.372  -3.450  1.00  0.00     0.176 HD
ATOM     24  N   UNL d   1      -2.709   1.141  -3.579  0.00  0.00    -0.310 N 
ATOM     25  HN  UNL d   1      -2.748   2.109  -3.897  1.00  0.00     0.176 HD
ATOM     26  C   UNL d   1      -3.752   1.424  -1.375  0.00  0.00     0.032 A 
ATOM     27  C   UNL d   1      -4.134   0.709  -0.228  0.00  0.00     0.005 A 
ATOM     28  C   UNL d   1      -3.924  -0.684  -0.072  0.00  0.00     0.032 A 
ENDBRANCH   1  18
TORSDOF 5
