REMARK  3 active torsions:
REMARK  status: ('A' for Active; 'I' for Inactive)
REMARK    1  A    between atoms: C_2  and  C_1 
REMARK    2  A    between atoms: O_8  and  C_3 
REMARK    3  A    between atoms: C_7  and  O_8 
ROOT
ATOM      1  C   UNL d   1       0.108   1.779  -1.248  0.00  0.00     0.065 A 
ATOM      2  C   UNL d   1      -0.582   4.121   0.019  0.00  0.00     0.170 A 
ATOM      3  N   UNL d   1       0.716   3.933  -0.343  0.00  0.00    -0.344 N 
ATOM      4  HN  UNL d   1       1.427   4.638  -0.147  1.00  0.00     0.167 HD
ATOM      5  C   UNL d   1      -1.566   3.156  -0.170  0.00  0.00     0.086 A 
ATOM      6  C   UNL d   1      -1.212   1.972  -0.819  0.00  0.00     0.045 A 
ATOM      7  C   UNL d   1       1.027   2.780  -0.973  0.00  0.00     0.106 A 
ATOM      8 CL   UNL d   1      -3.195   3.379   0.338  0.00  0.00    -0.080 Cl
ENDROOT
BRANCH   2   9
ATOM      9  O   UNL d   1      -0.946   5.323   0.619  0.00  0.00    -0.292 OA
BRANCH   9  10
ATOM     10  C   UNL d   1      -0.199   6.435   0.314  0.00  0.00     0.084 A 
ATOM     11  C   UNL d   1       0.133   7.308   1.339  0.00  0.00    -0.017 A 
ATOM     12  C   UNL d   1       0.933   8.432   1.093  0.00  0.00    -0.043 A 
ATOM     13  C   UNL d   1      -0.194   7.186   2.794  0.00  0.00     0.042 C 
ATOM     14  C   UNL d   1       1.230   9.158   2.371  0.00  0.00     0.040 C 
ATOM     15  C   UNL d   1       1.406   8.720  -0.185  0.00  0.00    -0.055 A 
ATOM     16  C   UNL d   1       0.171   8.581   3.319  0.00  0.00     0.009 C 
ATOM     17  C   UNL d   1       0.999   7.883  -1.233  0.00  0.00     0.010 A 
ATOM     18  C   UNL d   1       2.314   9.882  -0.443  0.00  0.00     0.049 C 
ATOM     19  C   UNL d   1       0.192   6.762  -0.988  0.00  0.00     0.038 A 
ENDBRANCH   9  10
ENDBRANCH   2   9
BRANCH   1  20
ATOM     20  C   UNL d   1       0.547   0.566  -2.007  0.00  0.00     0.418 C 
ATOM     21  F   UNL d   1      -0.408  -0.401  -2.082  0.00  0.00    -0.166 F 
ATOM     22  F   UNL d   1       1.641  -0.030  -1.458  0.00  0.00    -0.166 F 
ATOM     23  F   UNL d   1       0.884   0.858  -3.292  0.00  0.00    -0.166 F 
ENDBRANCH   1  20
TORSDOF 3
