REMARK  0 active torsions:
REMARK  status: ('A' for Active; 'I' for Inactive)
ROOT
ATOM      1  C   UNL d   1       0.198  -1.182  -0.009  0.00  0.00     0.108 A 
ATOM      2  N   UNL d   1       0.940  -0.544   0.876  0.00  0.00    -0.358 N 
ATOM      3  HN  UNL d   1       1.451  -0.985   1.641  1.00  0.00     0.166 HD
ATOM      4  C   UNL d   1       0.028  -2.610   0.012  0.00  0.00     0.108 A 
ATOM      5  S   UNL d   1      -0.555  -0.188  -1.193  0.00  0.00    -0.080 SA
ATOM      6  O   UNL d   1      -0.704  -3.309  -0.919  0.00  0.00    -0.320 OA
ATOM      7  C   UNL d   1       0.919   0.811   0.610  0.00  0.00     0.096 A 
ATOM      8  C   UNL d   1       0.542  -3.516   0.927  0.00  0.00     0.042 A 
ATOM      9  C   UNL d   1       0.158   1.194  -0.472  0.00  0.00     0.069 A 
ATOM     10  C   UNL d   1      -0.645  -4.625  -0.593  0.00  0.00     0.142 A 
ATOM     11  C   UNL d   1       0.110  -4.806   0.538  0.00  0.00     0.027 A 
ENDROOT
TORSDOF 0
