REMARK  7 active torsions:
REMARK  status: ('A' for Active; 'I' for Inactive)
REMARK    1  A    between atoms: N_4  and  C_1 
REMARK    2  A    between atoms: C_5  and  C_15 
REMARK    3  A    between atoms: C_13  and  C_6 
REMARK    4  A    between atoms: C_7  and  C_11 
REMARK    5  A    between atoms: N_19  and  C_12 
REMARK    6  A    between atoms: N_16  and  N_19 
REMARK    7  A    between atoms: C_28  and  C_27 
ROOT
ATOM      1  N   UNL d   1       3.469   4.245  -0.454  0.00  0.00    -0.311 N 
ATOM      2  HN  UNL d   1       4.074   5.051  -0.295  1.00  0.00     0.186 HD
ATOM      3  C   UNL d   1       3.946   3.074  -0.737  0.00  0.00     0.118 C 
ENDROOT
BRANCH   1   4
ATOM      4  N   UNL d   1       2.117   4.337  -0.381  0.00  0.00    -0.299 N 
ATOM      5  H   UNL d   1       1.551   3.535  -0.083  0.00  0.00     0.187 HD
BRANCH   4   6
ATOM      6  C   UNL d   1       1.544   5.615  -0.174  0.00  0.00     0.081 A 
ATOM      7  C   UNL d   1       0.243   5.826   0.325  0.00  0.00     0.131 A 
ATOM      8  C   UNL d   1      -0.301   7.127   0.422  0.00  0.00     0.054 A 
ATOM      9  C   UNL d   1       0.443   8.253   0.037  0.00  0.00     0.050 A 
ATOM     10  C   UNL d   1       1.747   8.055  -0.429  0.00  0.00     0.018 A 
ATOM     11  C   UNL d   1       2.280   6.764  -0.532  0.00  0.00     0.034 A 
BRANCH   7  12
ATOM     12  N   UNL d   1      -0.588   4.709   0.805  0.00  0.00    -0.113 N 
ATOM     13  O   UNL d   1      -1.654   4.987   1.370  0.00  0.00    -0.532 OA
ATOM     14  O   UNL d   1      -0.177   3.552   0.625  0.00  0.00    -0.532 OA
ENDBRANCH   7  12
BRANCH   9  15
ATOM     15  C   UNL d   1      -0.135   9.642   0.116  0.00  0.00     0.417 C 
ATOM     16  F   UNL d   1      -1.415   9.671   0.582  0.00  0.00    -0.166 F 
ATOM     17  F   UNL d   1       0.580  10.462   0.934  0.00  0.00    -0.166 F 
ATOM     18  F   UNL d   1      -0.170  10.261  -1.098  0.00  0.00    -0.166 F 
ENDBRANCH   9  15
ENDBRANCH   4   6
ENDBRANCH   1   4
BRANCH   3  19
ATOM     19  C   UNL d   1       5.406   2.870  -0.876  0.00  0.00    -0.019 A 
ATOM     20  C   UNL d   1       6.297   3.760  -0.273  0.00  0.00     0.014 A 
ATOM     21  C   UNL d   1       7.677   3.590  -0.436  0.00  0.00     0.015 A 
ATOM     22  C   UNL d   1       8.192   2.533  -1.207  0.00  0.00    -0.002 A 
ATOM     23  C   UNL d   1       7.278   1.657  -1.819  0.00  0.00     0.015 A 
ATOM     24  C   UNL d   1       5.893   1.811  -1.643  0.00  0.00     0.014 A 
BRANCH  22  25
ATOM     25  C   UNL d   1       9.642   2.334  -1.399  0.00  0.00     0.084 A 
ATOM     26  N   UNL d   1      10.198   1.813  -2.478  0.00  0.00    -0.352 N 
ATOM     27  C   UNL d   1      11.585   1.763  -2.356  0.00  0.00     0.024 A 
ATOM     28  HN  UNL d   1       9.679   1.490  -3.294  1.00  0.00     0.166 HD
ATOM     29  C   UNL d   1      12.055   2.216  -1.136  0.00  0.00     0.077 A 
ATOM     30  S   UNL d   1      10.762   2.735  -0.149  0.00  0.00    -0.081 SA
BRANCH  27  31
ATOM     31  C   UNL d   1      12.434   1.248  -3.514  0.00  0.00    -0.008 C 
ATOM     32  C   UNL d   1      11.557   0.843  -4.715  0.00  0.00     0.021 C 
ATOM     33  C   UNL d   1      13.413   2.345  -3.983  0.00  0.00     0.021 C 
ATOM     34  C   UNL d   1      13.250   0.014  -3.079  0.00  0.00     0.021 C 
ENDBRANCH  27  31
ENDBRANCH  22  25
ENDBRANCH   3  19
TORSDOF 7
