REMARK  6 active torsions:
REMARK  status: ('A' for Active; 'I' for Inactive)
REMARK    1  A    between atoms: N_2  and  C_1 
REMARK    2  A    between atoms: C_3  and  N_2 
REMARK    3  A    between atoms: C_8  and  N_5 
REMARK    4  A    between atoms: C_7  and  C_8 
REMARK    5  A    between atoms: O_10  and  C_7 
REMARK    6  A    between atoms: O_11  and  C_7 
ROOT
ATOM      1  C   UNL d   1       0.984  -0.413  -0.327  0.00  0.00     0.172 C 
ATOM      2  S   UNL d   1       0.251   0.176  -1.709  0.00  0.00    -0.041 SA
ATOM      3  N   UNL d   1       2.327  -0.195  -0.210  0.00  0.00    -0.362 N 
ATOM      4  H   UNL d   1       2.742   0.179  -1.058  0.00  0.00     0.162 HD
ENDROOT
BRANCH   1   5
ATOM      5  N   UNL d   1       0.396  -1.052   0.735  0.00  0.00    -0.332 N 
ATOM      6  H   UNL d   1       0.738  -0.742   1.639  0.00  0.00     0.168 HD
BRANCH   5   7
ATOM      7  C   UNL d   1      -0.848  -1.735   0.793  0.00  0.00     0.056 A 
ATOM      8  C   UNL d   1      -1.527  -1.826   2.021  0.00  0.00     0.060 A 
ATOM      9 CL   UNL d   1      -0.890  -1.086   3.450  0.00  0.00    -0.082 Cl
ATOM     10  C   UNL d   1      -2.745  -2.509   2.118  0.00  0.00     0.026 A 
ATOM     11  C   UNL d   1      -3.286  -3.129   0.992  0.00  0.00     0.002 A 
ATOM     12  C   UNL d   1      -2.604  -3.078  -0.219  0.00  0.00     0.002 A 
ATOM     13  C   UNL d   1      -1.388  -2.392  -0.318  0.00  0.00     0.031 A 
ENDBRANCH   5   7
ENDBRANCH   1   5
BRANCH   3  14
ATOM     14  C   UNL d   1       3.276  -0.819   0.711  0.00  0.00     0.182 C 
BRANCH  14  15
ATOM     15  C   UNL d   1       3.686  -2.261   0.317  0.00  0.00     0.275 C 
BRANCH  15  16
ATOM     16  O   UNL d   1       4.154  -2.220  -1.040  0.00  0.00    -0.364 OA
ATOM     17  C   UNL d   1       4.408  -3.521  -1.555  0.00  0.00     0.204 C 
ENDBRANCH  15  16
BRANCH  15  18
ATOM     18  O   UNL d   1       4.742  -2.741   1.153  0.00  0.00    -0.364 OA
ATOM     19  C   UNL d   1       4.358  -2.977   2.497  0.00  0.00     0.204 C 
ENDBRANCH  15  18
ENDBRANCH  14  15
ENDBRANCH   3  14
TORSDOF 6
