REMARK  5 active torsions:
REMARK  status: ('A' for Active; 'I' for Inactive)
REMARK    1  A    between atoms: N_6  and  C_2 
REMARK    2  A    between atoms: C_14  and  C_3 
REMARK    3  A    between atoms: C_12  and  C_17 
REMARK    4  A    between atoms: O_21  and  C_12 
REMARK    5  A    between atoms: C_24  and  O_21 
ROOT
ATOM      1  C   UNL d   1       0.222   0.975   0.405  0.00  0.00     0.048 A 
ATOM      2  C   UNL d   1       1.493   1.488   0.039  0.00  0.00     0.097 A 
ATOM      3  C   UNL d   1      -1.021   1.577   0.866  0.00  0.00    -0.003 A 
ATOM      4  C   UNL d   1       0.087  -0.404   0.312  0.00  0.00     0.089 A 
ATOM      5  C   UNL d   1      -1.987   0.619   1.122  0.00  0.00     0.065 A 
ATOM      6  S   UNL d   1      -1.442  -0.966   0.804  0.00  0.00    -0.082 SA
ATOM      7  N   UNL d   1       2.432   0.628  -0.421  0.00  0.00    -0.342 N 
ATOM      8  HN  UNL d   1       3.343   0.972  -0.727  1.00  0.00     0.167 HD
ATOM      9  N   UNL d   1       1.014  -1.277  -0.111  0.00  0.00    -0.346 N 
ATOM     10  HN  UNL d   1       0.865  -2.286  -0.153  1.00  0.00     0.167 HD
ATOM     11  C   UNL d   1       2.150  -0.680  -0.469  0.00  0.00     0.182 A 
ENDROOT
BRANCH   2  12
ATOM     12  N   UNL d   1       1.787   2.853   0.132  0.00  0.00    -0.269 NA
ATOM     13  C   UNL d   1       2.715   3.355  -0.882  0.00  0.00     0.098 C 
ATOM     14  C   UNL d   1       2.605   4.883  -0.882  0.00  0.00     0.029 C 
ATOM     15  C   UNL d   1       2.797   5.500   0.515  0.00  0.00     0.088 C 
ATOM     16  C   UNL d   1       2.049   4.738   1.623  0.00  0.00     0.029 C 
ATOM     17  C   UNL d   1       2.185   3.224   1.492  0.00  0.00     0.098 C 
BRANCH  15  18
ATOM     18  C   UNL d   1       4.258   5.585   0.901  0.00  0.00     0.263 C 
ATOM     19  O   UNL d   1       5.172   4.986   0.347  0.00  0.00    -0.265 OA
BRANCH  18  20
ATOM     20  O   UNL d   1       4.381   6.356   2.014  0.00  0.00    -0.322 OA
BRANCH  20  21
ATOM     21  C   UNL d   1       5.601   6.191   2.747  0.00  0.00     0.174 C 
ATOM     22  C   UNL d   1       5.494   4.937   3.599  0.00  0.00     0.034 C 
ENDBRANCH  20  21
ENDBRANCH  18  20
ENDBRANCH  15  18
ENDBRANCH   2  12
BRANCH   3  23
ATOM     23  C   UNL d   1      -1.342   2.994   1.046  0.00  0.00    -0.024 A 
ATOM     24  C   UNL d   1      -1.138   3.906   0.003  0.00  0.00     0.012 A 
ATOM     25  C   UNL d   1      -1.403   5.266   0.185  0.00  0.00     0.001 A 
ATOM     26  C   UNL d   1      -1.896   5.724   1.406  0.00  0.00     0.000 A 
ATOM     27  C   UNL d   1      -2.131   4.821   2.442  0.00  0.00     0.001 A 
ATOM     28  C   UNL d   1      -1.855   3.462   2.265  0.00  0.00     0.012 A 
ENDBRANCH   3  23
TORSDOF 5
