REMARK  5 active torsions:
REMARK  status: ('A' for Active; 'I' for Inactive)
REMARK    1  A    between atoms: C_8  and  C_3 
REMARK    2  A    between atoms: C_16  and  C_7 
REMARK    3  A    between atoms: O_14  and  C_8 
REMARK    4  A    between atoms: O_15  and  C_10 
REMARK    5  A    between atoms: C_18  and  C_16 
ROOT
ATOM      1  C   UNL d   1      -0.093  -0.732   0.223  0.00  0.00     0.029 A 
ATOM      2  S   UNL d   1       1.371  -1.722   0.481  0.00  0.00    -0.083 SA
ATOM      3  C   UNL d   1       2.666  -0.664   0.067  0.00  0.00     0.084 C 
ATOM      4  C   UNL d   1      -0.009   0.668   0.117  0.00  0.00     0.032 A 
ATOM      5  C   UNL d   1       2.549   0.665  -0.026  0.00  0.00     0.081 C 
ATOM      6  C   UNL d   1       1.281   1.397   0.140  0.00  0.00     0.184 C 
ATOM      7  C   UNL d   1      -1.369  -1.371   0.155  0.00  0.00    -0.007 A 
ATOM      8  C   UNL d   1      -1.169   1.438  -0.047  0.00  0.00     0.020 A 
ATOM      9  C   UNL d   1      -2.507  -0.562  -0.026  0.00  0.00     0.073 A 
ATOM     10  O   UNL d   1       1.317   2.620   0.232  0.00  0.00    -0.287 OA
ATOM     11  C   UNL d   1      -2.411   0.821  -0.129  0.00  0.00     0.038 A 
ENDROOT
BRANCH   3  12
ATOM     12  C   UNL d   1       3.985  -1.351  -0.146  0.00  0.00     0.300 C 
ATOM     13  O   UNL d   1       4.133  -2.568  -0.137  0.00  0.00    -0.259 OA
BRANCH  12  14
ATOM     14  O   UNL d   1       4.995  -0.464  -0.349  0.00  0.00    -0.322 OA
ATOM     15  C   UNL d   1       6.267  -1.091  -0.537  0.00  0.00     0.213 C 
ENDBRANCH  12  14
ENDBRANCH   3  12
BRANCH   7  16
ATOM     16  C   UNL d   1      -1.510  -2.883   0.259  0.00  0.00     0.042 C 
BRANCH  16  17
ATOM     17  C   UNL d   1      -1.553  -3.428   1.694  0.00  0.00     0.000 C 
ATOM     18  C   UNL d   1      -2.820  -3.070   2.457  0.00  0.00     0.005 C 
ENDBRANCH  16  17
ENDBRANCH   7  16
BRANCH   9  19
ATOM     19  O   UNL d   1      -3.781  -1.049  -0.118  0.00  0.00    -0.360 OA
ATOM     20  H   UNL d   1      -3.822  -1.951   0.231  0.00  0.00     0.217 HD
ENDBRANCH   9  19
TORSDOF 5
