REMARK  6 active torsions:
REMARK  status: ('A' for Active; 'I' for Inactive)
REMARK    1  A    between atoms: C_3  and  C_9 
REMARK    2  A    between atoms: C_21  and  C_4 
REMARK    3  A    between atoms: C_12  and  C_7 
REMARK    4  A    between atoms: N_22  and  C_7 
REMARK    5  A    between atoms: N_10  and  O_17 
REMARK    6  A    between atoms: O_17  and  C_21 
ROOT
ATOM      1  C   UNL d   1       1.181  -5.886   0.063  0.00  0.00     0.108 C 
ATOM      2  N   UNL d   1       1.942  -4.829   0.178  0.00  0.00    -0.255 N 
ATOM      3  HN  UNL d   1       2.961  -4.857   0.170  1.00  0.00     0.195 HD
ENDROOT
BRANCH   1   4
ATOM      4  C   UNL d   1      -0.314  -5.875  -0.059  0.00  0.00     0.004 A 
ATOM      5  C   UNL d   1      -0.969  -4.942  -0.869  0.00  0.00     0.015 A 
ATOM      6  C   UNL d   1      -2.363  -4.942  -0.962  0.00  0.00     0.017 A 
ATOM      7  C   UNL d   1      -3.122  -5.896  -0.269  0.00  0.00     0.048 A 
ATOM      8  C   UNL d   1      -2.456  -6.856   0.511  0.00  0.00     0.017 A 
ATOM      9  C   UNL d   1      -1.061  -6.846   0.617  0.00  0.00     0.015 A 
BRANCH   7  10
ATOM     10  C   UNL d   1      -4.630  -5.906  -0.356  0.00  0.00     0.417 C 
ATOM     11  F   UNL d   1      -5.142  -4.863  -1.067  0.00  0.00    -0.166 F 
ATOM     12  F   UNL d   1      -5.105  -7.034  -0.953  0.00  0.00    -0.166 F 
ATOM     13  F   UNL d   1      -5.224  -5.852   0.867  0.00  0.00    -0.166 F 
ENDBRANCH   7  10
ENDBRANCH   1   4
BRANCH   1  14
ATOM     14  N   UNL d   1       1.814  -7.106   0.039  0.00  0.00    -0.286 NA
ATOM     15  H   UNL d   1       2.812  -7.014  -0.120  0.00  0.00     0.125 HD
ATOM     16  H   UNL d   1       1.382  -7.823  -0.531  0.00  0.00     0.125 HD
ENDBRANCH   1  14
BRANCH   2  17
ATOM     17  O   UNL d   1       1.194  -3.652   0.314  0.00  0.00    -0.273 OA
BRANCH  17  18
ATOM     18  C   UNL d   1       2.031  -2.510   0.118  0.00  0.00     0.258 C 
BRANCH  18  19
ATOM     19  C   UNL d   1       1.203  -1.262   0.158  0.00  0.00     0.042 A 
ATOM     20  N   UNL d   1       1.263  -0.357  -0.896  0.00  0.00    -0.355 N 
ATOM     21  C   UNL d   1       0.429   0.638  -0.684  0.00  0.00     0.047 A 
ATOM     22  HN  UNL d   1       1.866  -0.451  -1.713  1.00  0.00     0.166 HD
ATOM     23  S   UNL d   1      -0.458   0.563   0.786  0.00  0.00    -0.087 SA
ATOM     24  C   UNL d   1       0.217   1.777  -1.619  0.00  0.00     0.076 C 
ATOM     25  C   UNL d   1       0.320  -0.912   1.164  0.00  0.00     0.078 A 
ENDBRANCH  18  19
ENDBRANCH  17  18
ENDBRANCH   2  17
TORSDOF 6
