REMARK  6 active torsions:
REMARK  status: ('A' for Active; 'I' for Inactive)
REMARK    1  A    between atoms: O_9  and  C_3 
REMARK    2  A    between atoms: O_11  and  C_4 
REMARK    3  A    between atoms: S_10  and  C_5 
REMARK    4  A    between atoms: C_12  and  O_9 
REMARK    5  A    between atoms: C_13  and  S_10 
REMARK    6  A    between atoms: C_16  and  C_13 
ROOT
ATOM      1  N   UNL d   1      -0.557   1.316   0.337  0.00  0.00    -0.315 N 
ATOM      2  HN  UNL d   1      -0.971   2.237   0.482  1.00  0.00     0.170 HD
ATOM      3  C   UNL d   1      -0.804  -1.071   0.091  0.00  0.00     0.149 A 
ATOM      4  C   UNL d   1      -1.302   0.198   0.333  0.00  0.00     0.178 A 
ATOM      5  C   UNL d   1       0.755   1.155   0.140  0.00  0.00     0.146 A 
ATOM      6  N   UNL d   1       1.358  -0.030  -0.036  0.00  0.00    -0.338 N 
ATOM      7  HN  UNL d   1       2.368  -0.098  -0.162  1.00  0.00     0.168 HD
ATOM      8  C   UNL d   1       0.574  -1.132  -0.041  0.00  0.00     0.045 A 
ATOM      9  C   UNL d   1       1.288  -2.447  -0.157  0.00  0.00     0.071 C 
ENDROOT
BRANCH   5  10
ATOM     10  S   UNL d   1       1.802   2.583   0.102  0.00  0.00    -0.089 SA
BRANCH  10  11
ATOM     11  C   UNL d   1       0.853   3.680   1.197  0.00  0.00     0.121 C 
BRANCH  11  12
ATOM     12  C   UNL d   1       1.599   4.973   1.440  0.00  0.00    -0.048 A 
ATOM     13  C   UNL d   1       1.435   6.061   0.568  0.00  0.00     0.009 A 
ATOM     14  C   UNL d   1       2.150   7.245   0.769  0.00  0.00     0.024 A 
ATOM     15  C   UNL d   1       3.036   7.347   1.839  0.00  0.00     0.034 A 
ATOM     16  C   UNL d   1       3.212   6.275   2.711  0.00  0.00     0.024 A 
ATOM     17 CL   UNL d   1       3.923   8.800   2.079  0.00  0.00    -0.084 Cl
ATOM     18  C   UNL d   1       2.498   5.091   2.511  0.00  0.00     0.009 A 
ENDBRANCH  11  12
ENDBRANCH  10  11
ENDBRANCH   5  10
BRANCH   4  19
ATOM     19  O   UNL d   1      -2.608   0.441   0.651  0.00  0.00    -0.344 OA
ATOM     20  H   UNL d   1      -3.035  -0.406   0.849  0.00  0.00     0.219 HD
ENDBRANCH   4  19
BRANCH   3  21
ATOM     21  O   UNL d   1      -1.500  -2.249   0.098  0.00  0.00    -0.304 OA
BRANCH  21  22
ATOM     22  C   UNL d   1      -2.732  -2.352  -0.504  0.00  0.00     0.076 A 
ATOM     23  C   UNL d   1      -3.163  -1.604  -1.603  0.00  0.00     0.039 A 
ATOM     24  C   UNL d   1      -4.474  -1.746  -2.067  0.00  0.00     0.026 A 
ATOM     25  C   UNL d   1      -5.332  -2.667  -1.466  0.00  0.00     0.034 A 
ATOM     26  C   UNL d   1      -4.882  -3.465  -0.417  0.00  0.00     0.026 A 
ATOM     27 CL   UNL d   1      -6.955  -2.815  -2.015  0.00  0.00    -0.084 Cl
ATOM     28  C   UNL d   1      -3.580  -3.312   0.057  0.00  0.00     0.039 A 
ENDBRANCH  21  22
ENDBRANCH   3  21
TORSDOF 6
