REMARK  3 active torsions:
REMARK  status: ('A' for Active; 'I' for Inactive)
REMARK    1  A    between atoms: C_2  and  S_1 
REMARK    2  A    between atoms: C_7  and  S_1 
REMARK    3  A    between atoms: C_4  and  C_3 
ROOT
ATOM      1  C   UNL d   1       0.522   1.528   0.590  0.00  0.00     0.145 C 
ATOM      2  C   UNL d   1      -0.262   2.352  -0.133  0.00  0.00     0.050 C 
ATOM      3  C   UNL d   1       1.003   0.281   0.121  0.00  0.00     0.112 C 
ATOM      4  N   UNL d   1       1.395  -0.728  -0.292  0.00  0.00    -0.191 NA
ENDROOT
BRANCH   1   5
ATOM      5  S   UNL d   1       0.845   1.976   2.234  0.00  0.00     0.216 S 
ATOM      6  O   UNL d   1      -0.132   1.334   3.094  0.00  0.00    -0.216 OA
ATOM      7  O   UNL d   1       1.027   3.416   2.313  0.00  0.00    -0.216 OA
BRANCH   5   8
ATOM      8  C   UNL d   1       2.432   1.266   2.648  0.00  0.00     0.065 A 
ATOM      9  C   UNL d   1       3.597   2.013   2.440  0.00  0.00     0.025 A 
ATOM     10  C   UNL d   1       4.822   1.519   2.895  0.00  0.00     0.025 A 
ATOM     11  C   UNL d   1       4.875   0.293   3.561  0.00  0.00     0.034 A 
ATOM     12  C   UNL d   1       3.713  -0.452   3.767  0.00  0.00     0.025 A 
ATOM     13 CL   UNL d   1       6.378  -0.287   4.163  0.00  0.00    -0.084 Cl
ATOM     14  C   UNL d   1       2.484   0.037   3.317  0.00  0.00     0.025 A 
ENDBRANCH   5   8
ENDBRANCH   1   5
BRANCH   2  15
ATOM     15  C   UNL d   1      -0.713   2.065  -1.510  0.00  0.00     0.009 A 
ATOM     16  C   UNL d   1      -1.947   1.428  -1.742  0.00  0.00     0.046 A 
ATOM     17 CL   UNL d   1      -3.029   1.046  -0.445  0.00  0.00    -0.083 Cl
ATOM     18  C   UNL d   1      -2.341   1.074  -3.036  0.00  0.00     0.025 A 
ATOM     19  C   UNL d   1      -1.518   1.362  -4.122  0.00  0.00     0.003 A 
ATOM     20  C   UNL d   1      -0.307   2.022  -3.916  0.00  0.00     0.025 A 
ATOM     21  C   UNL d   1       0.092   2.373  -2.622  0.00  0.00     0.046 A 
ATOM     22 CL   UNL d   1       1.608   3.190  -2.445  0.00  0.00    -0.083 Cl
ENDBRANCH   2  15
TORSDOF 3
