REMARK  3 active torsions:
REMARK  status: ('A' for Active; 'I' for Inactive)
REMARK    1  A    between atoms: O_5  and  C_2 
REMARK    2  A    between atoms: C_3  and  O_5 
REMARK    3  A    between atoms: C_11  and  C_3 
ROOT
ATOM      1  C   UNL d   1      -0.307  -0.659  -0.115  0.00  0.00     0.062 A 
ATOM      2  C   UNL d   1      -1.555  -1.293  -0.090  0.00  0.00     0.094 A 
ATOM      3  C   UNL d   1      -0.266   0.739  -0.048  0.00  0.00     0.031 A 
ATOM      4  C   UNL d   1       0.962  -1.424  -0.193  0.00  0.00     0.186 A 
ATOM      5  C   UNL d   1       1.020   1.460   0.010  0.00  0.00     0.183 A 
ATOM      6  C   UNL d   1       2.227  -0.670  -0.057  0.00  0.00     0.059 A 
ATOM      7  C   UNL d   1       2.256   0.660   0.042  0.00  0.00     0.059 A 
ATOM      8  O   UNL d   1       1.007  -2.634  -0.363  0.00  0.00    -0.287 OA
ATOM      9  O   UNL d   1       1.079   2.683   0.058  0.00  0.00    -0.288 OA
ATOM     10  C   UNL d   1      -2.738  -0.541   0.002  0.00  0.00     0.038 A 
ATOM     11  C   UNL d   1      -1.452   1.489   0.018  0.00  0.00     0.017 A 
ATOM     12  C   UNL d   1      -2.686   0.849   0.036  0.00  0.00     0.004 A 
ENDROOT
BRANCH   2  13
ATOM     13  O   UNL d   1      -1.649  -2.689   0.044  0.00  0.00    -0.274 OA
BRANCH  13  14
ATOM     14  C   UNL d   1      -2.580  -3.303  -0.774  0.00  0.00     0.298 C 
ATOM     15  O   UNL d   1      -2.962  -2.921  -1.870  0.00  0.00    -0.259 OA
BRANCH  14  16
ATOM     16  C   UNL d   1      -3.258  -4.356   0.020  0.00  0.00     0.039 A 
ATOM     17  C   UNL d   1      -2.592  -5.094   1.005  0.00  0.00     0.017 A 
ATOM     18  C   UNL d   1      -3.311  -5.981   1.810  0.00  0.00     0.001 A 
ATOM     19  C   UNL d   1      -4.688  -6.129   1.634  0.00  0.00     0.000 A 
ATOM     20  C   UNL d   1      -5.351  -5.407   0.643  0.00  0.00     0.001 A 
ATOM     21  C   UNL d   1      -4.636  -4.526  -0.169  0.00  0.00     0.017 A 
ENDBRANCH  14  16
ENDBRANCH  13  14
ENDBRANCH   2  13
TORSDOF 3
