REMARK  4 active torsions:
REMARK  status: ('A' for Active; 'I' for Inactive)
REMARK       I    between atoms: N_2  and  C_1 
REMARK       I    between atoms: N_4  and  C_1 
REMARK    1  A    between atoms: C_6  and  N_2 
REMARK    2  A    between atoms: C_13  and  N_4 
REMARK    3  A    between atoms: C_7  and  C_14 
REMARK    4  A    between atoms: C_14  and  C_13 
ROOT
ATOM      1  C   UNL d   1       1.012  -0.011   0.003  0.00  0.00     0.320 C 
ATOM      2  N   UNL d   1       0.385   1.178   0.253  0.00  0.00    -0.309 N 
ATOM      3  O   UNL d   1       0.482  -1.083  -0.266  0.00  0.00    -0.247 OA
ATOM      4  N   UNL d   1       2.377   0.020   0.060  0.00  0.00    -0.343 N 
ATOM      5  H   UNL d   1       0.979   1.959   0.468  0.00  0.00     0.170 HD
ATOM      6  H   UNL d   1       2.773  -0.898  -0.101  0.00  0.00     0.164 HD
ENDROOT
BRANCH   4   7
ATOM      7  C   UNL d   1       3.272   1.124   0.361  0.00  0.00     0.129 C 
BRANCH   7   8
ATOM      8  C   UNL d   1       4.752   0.726   0.382  0.00  0.00     0.058 C 
BRANCH   8   9
ATOM      9  C   UNL d   1       5.095  -0.273   1.463  0.00  0.00    -0.057 A 
ATOM     10  C   UNL d   1       5.173  -1.642   1.164  0.00  0.00     0.009 A 
ATOM     11  C   UNL d   1       5.459  -2.572   2.166  0.00  0.00     0.024 A 
ATOM     12  C   UNL d   1       5.678  -2.139   3.471  0.00  0.00     0.034 A 
ATOM     13  C   UNL d   1       5.615  -0.782   3.781  0.00  0.00     0.024 A 
ATOM     14 CL   UNL d   1       6.027  -3.284   4.705  0.00  0.00    -0.084 Cl
ATOM     15  C   UNL d   1       5.322   0.149   2.781  0.00  0.00     0.009 A 
ENDBRANCH   8   9
ENDBRANCH   7   8
ENDBRANCH   4   7
BRANCH   2  16
ATOM     16  C   UNL d   1      -1.000   1.449   0.225  0.00  0.00     0.036 A 
ATOM     17  C   UNL d   1      -1.978   0.495  -0.063  0.00  0.00     0.029 A 
ATOM     18  C   UNL d   1      -3.331   0.855  -0.105  0.00  0.00     0.002 A 
ATOM     19  C   UNL d   1      -3.716   2.169   0.147  0.00  0.00     0.000 A 
ATOM     20  C   UNL d   1      -2.752   3.124   0.454  0.00  0.00     0.002 A 
ATOM     21  C   UNL d   1      -1.401   2.764   0.496  0.00  0.00     0.029 A 
ENDBRANCH   2  16
TORSDOF 4
