REMARK  7 active torsions:
REMARK  status: ('A' for Active; 'I' for Inactive)
REMARK    1  A    between atoms: S_8  and  C_1 
REMARK    2  A    between atoms: S_2  and  N_5 
REMARK    3  A    between atoms: C_11  and  S_2 
REMARK    4  A    between atoms: C_10  and  C_4 
REMARK    5  A    between atoms: N_5  and  S_8 
REMARK    6  A    between atoms: O_21  and  C_10 
REMARK    7  A    between atoms: C_27  and  O_21 
ROOT
ATOM      1  C   UNL d   1      -1.305   1.490  -0.158  0.00  0.00     0.062 A 
ATOM      2  S   UNL d   1      -2.705   0.535  -0.357  0.00  0.00    -0.075 SA
ATOM      3  C   UNL d   1      -1.849  -0.932  -0.160  0.00  0.00     0.088 A 
ATOM      4  C   UNL d   1      -0.169   0.709  -0.047  0.00  0.00    -0.004 A 
ATOM      5  C   UNL d   1      -0.485  -0.700  -0.046  0.00  0.00    -0.022 A 
ATOM      6  C   UNL d   1       1.202   1.117   0.025  0.00  0.00     0.010 C 
ATOM      7  C   UNL d   1       2.211   0.232   0.050  0.00  0.00    -0.025 C 
ATOM      8  C   UNL d   1       0.571  -1.768   0.074  0.00  0.00     0.045 C 
ATOM      9  C   UNL d   1       2.020  -1.257   0.004  0.00  0.00     0.032 C 
ENDROOT
BRANCH   1  10
ATOM     10  S   UNL d   1      -1.560   3.223  -0.093  0.00  0.00    -0.079 SA
ATOM     11  C   UNL d   1      -0.743   3.640  -1.658  0.00  0.00     0.108 C 
BRANCH  10  12
ATOM     12  N   UNL d   1      -0.314   3.559   0.851  0.00  0.00    -0.259 N 
ATOM     13  HN  UNL d   1       0.649   3.521   0.516  1.00  0.00     0.186 HD
BRANCH  12  14
ATOM     14  S   UNL d   1      -0.706   3.989   2.470  0.00  0.00     0.267 S 
ATOM     15  O   UNL d   1       0.538   4.219   3.185  0.00  0.00    -0.200 OA
ATOM     16  O   UNL d   1      -1.747   5.003   2.472  0.00  0.00    -0.200 OA
BRANCH  14  17
ATOM     17  C   UNL d   1      -1.409   2.490   3.142  0.00  0.00     0.080 A 
ATOM     18  C   UNL d   1      -0.562   1.502   3.658  0.00  0.00     0.027 A 
ATOM     19  C   UNL d   1      -1.113   0.354   4.234  0.00  0.00     0.025 A 
ATOM     20  C   UNL d   1      -2.499   0.203   4.296  0.00  0.00     0.034 A 
ATOM     21  C   UNL d   1      -3.343   1.191   3.788  0.00  0.00     0.025 A 
ATOM     22 CL   UNL d   1      -3.173  -1.205   5.020  0.00  0.00    -0.084 Cl
ATOM     23  C   UNL d   1      -2.799   2.344   3.216  0.00  0.00     0.027 A 
ENDBRANCH  14  17
ENDBRANCH  12  14
ENDBRANCH  10  12
ENDBRANCH   1  10
BRANCH   3  24
ATOM     24  C   UNL d   1      -2.535  -2.217  -0.188  0.00  0.00     0.300 C 
ATOM     25  O   UNL d   1      -1.984  -3.309  -0.117  0.00  0.00    -0.259 OA
BRANCH  24  26
ATOM     26  O   UNL d   1      -3.875  -2.052  -0.387  0.00  0.00    -0.317 OA
BRANCH  26  27
ATOM     27  C   UNL d   1      -4.583  -3.204  -0.854  0.00  0.00     0.174 C 
ATOM     28  C   UNL d   1      -4.482  -3.234  -2.369  0.00  0.00     0.034 C 
ENDBRANCH  26  27
ENDBRANCH  24  26
ENDBRANCH   3  24
TORSDOF 7
