REMARK  7 active torsions:
REMARK  status: ('A' for Active; 'I' for Inactive)
REMARK    1  A    between atoms: N_3  and  C_1 
REMARK       I    between atoms: C_8  and  N_3 
REMARK    2  A    between atoms: N_9  and  N_3 
REMARK    3  A    between atoms: C_11  and  C_6 
REMARK    4  A    between atoms: C_15  and  C_8 
REMARK       I    between atoms: C_10  and  N_9 
REMARK    5  A    between atoms: C_16  and  C_10 
REMARK    6  A    between atoms: O_25  and  C_11 
REMARK    7  A    between atoms: C_36  and  O_25 
ROOT
ATOM      1  N   UNL d   1       1.352  -2.990   0.122  0.00  0.00    -0.209 N 
ATOM      2  C   UNL d   1       2.031  -3.409   1.294  0.00  0.00     0.277 C 
ATOM      3  O   UNL d   1       2.765  -2.711   1.996  0.00  0.00    -0.265 OA
ENDROOT
BRANCH   1   4
ATOM      4  C   UNL d   1       1.188  -1.610  -0.033  0.00  0.00     0.116 A 
ATOM      5  C   UNL d   1       0.066  -0.810  -0.025  0.00  0.00     0.053 A 
ATOM      6  C   UNL d   1       0.397   0.608  -0.086  0.00  0.00    -0.017 A 
ATOM      7  C   UNL d   1      -1.315  -1.265   0.130  0.00  0.00     0.163 C 
ATOM      8  C   UNL d   1      -0.690   1.665  -0.054  0.00  0.00     0.050 C 
ATOM      9  C   UNL d   1       1.769   0.817  -0.156  0.00  0.00     0.089 A 
ATOM     10  C   UNL d   1      -2.085   1.126   0.376  0.00  0.00    -0.037 C 
ATOM     11  C   UNL d   1      -2.364  -0.244  -0.281  0.00  0.00     0.093 C 
ATOM     12  C   UNL d   1      -3.169   2.123  -0.074  0.00  0.00     0.015 C 
ATOM     13  C   UNL d   1      -2.164   1.004   1.913  0.00  0.00     0.015 C 
ATOM     14  S   UNL d   1       2.608  -0.684  -0.225  0.00  0.00    -0.063 SA
ATOM     15  O   UNL d   1      -1.624  -2.365   0.589  0.00  0.00    -0.292 OA
BRANCH   9  16
ATOM     16  C   UNL d   1       2.584   2.030  -0.188  0.00  0.00     0.300 C 
ATOM     17  O   UNL d   1       3.806   2.076  -0.281  0.00  0.00    -0.259 OA
BRANCH  16  18
ATOM     18  O   UNL d   1       1.800   3.147  -0.108  0.00  0.00    -0.317 OA
BRANCH  18  19
ATOM     19  C   UNL d   1       2.483   4.408  -0.222  0.00  0.00     0.174 C 
ATOM     20  C   UNL d   1       2.947   4.907   1.135  0.00  0.00     0.034 C 
ENDBRANCH  18  19
ENDBRANCH  16  18
ENDBRANCH   9  16
ENDBRANCH   1   4
BRANCH   1  21
ATOM     21  N   UNL d   1       0.731  -3.966  -0.698  0.00  0.00    -0.255 N 
ATOM     22  C   UNL d   1      -0.183  -3.777  -1.717  0.00  0.00     0.270 C 
ATOM     23  O   UNL d   1      -0.600  -2.724  -2.181  0.00  0.00    -0.266 OA
ATOM     24  H   UNL d   1       1.037  -4.914  -0.516  0.00  0.00     0.191 HD
BRANCH  22  25
ATOM     25  C   UNL d   1      -0.719  -5.067  -2.246  0.00  0.00     0.033 A 
ATOM     26  C   UNL d   1       0.139  -6.130  -2.564  0.00  0.00     0.019 A 
ATOM     27  C   UNL d   1      -0.392  -7.369  -2.943  0.00  0.00     0.025 A 
ATOM     28  C   UNL d   1      -1.774  -7.538  -3.015  0.00  0.00     0.034 A 
ATOM     29  C   UNL d   1      -2.632  -6.476  -2.735  0.00  0.00     0.025 A 
ATOM     30 CL   UNL d   1      -2.421  -9.076  -3.438  0.00  0.00    -0.084 Cl
ATOM     31  C   UNL d   1      -2.106  -5.235  -2.354  0.00  0.00     0.019 A 
ENDBRANCH  22  25
ENDBRANCH   1  21
BRANCH   2  32
ATOM     32  C   UNL d   1       1.823  -4.791   1.812  0.00  0.00     0.034 A 
ATOM     33  C   UNL d   1       2.936  -5.505   2.279  0.00  0.00     0.019 A 
ATOM     34  C   UNL d   1       2.760  -6.716   2.954  0.00  0.00     0.025 A 
ATOM     35  C   UNL d   1       1.474  -7.210   3.164  0.00  0.00     0.034 A 
ATOM     36  C   UNL d   1       0.362  -6.515   2.686  0.00  0.00     0.025 A 
ATOM     37 CL   UNL d   1       1.253  -8.662   4.060  0.00  0.00    -0.084 Cl
ATOM     38  C   UNL d   1       0.533  -5.298   2.018  0.00  0.00     0.019 A 
ENDBRANCH   2  32
TORSDOF 7
