REMARK  4 active torsions:
REMARK  status: ('A' for Active; 'I' for Inactive)
REMARK    1  A    between atoms: N_2  and  C_1 
REMARK    2  A    between atoms: C_5  and  C_7 
REMARK    3  A    between atoms: O_10  and  C_6 
REMARK    4  A    between atoms: C_7  and  O_10 
ROOT
ATOM      1  C   UNL d   1      -0.994   1.219   0.018  0.00  0.00     0.207 A 
ATOM      2  N   UNL d   1       0.377   1.139   0.012  0.00  0.00    -0.339 N 
ATOM      3  HN  UNL d   1       0.952   1.981   0.004  1.00  0.00     0.167 HD
ATOM      4  C   UNL d   1      -1.838   0.098   0.032  0.00  0.00     0.119 A 
ATOM      5  C   UNL d   1       0.940  -0.087   0.019  0.00  0.00     0.007 A 
ATOM      6  C   UNL d   1      -1.216  -1.153   0.034  0.00  0.00     0.043 A 
ATOM      7  C   UNL d   1       0.178  -1.248   0.032  0.00  0.00     0.027 A 
ATOM      8  C   UNL d   1       2.438  -0.163   0.001  0.00  0.00     0.068 C 
ENDROOT
BRANCH   4   9
ATOM      9  O   UNL d   1      -3.198   0.264  -0.039  0.00  0.00    -0.343 OA
BRANCH   9  10
ATOM     10  C   UNL d   1      -4.001  -0.762   0.552  0.00  0.00     0.218 C 
BRANCH  10  11
ATOM     11  C   UNL d   1      -5.461  -0.383   0.456  0.00  0.00     0.009 A 
ATOM     12  C   UNL d   1      -6.250  -0.784  -0.641  0.00  0.00     0.044 A 
ATOM     13 CL   UNL d   1      -5.601  -1.710  -1.952  0.00  0.00    -0.084 Cl
ATOM     14  C   UNL d   1      -7.611  -0.459  -0.716  0.00  0.00     0.024 A 
ATOM     15  C   UNL d   1      -8.211   0.286   0.293  0.00  0.00     0.003 A 
ATOM     16  C   UNL d   1      -7.447   0.714   1.374  0.00  0.00     0.024 A 
ATOM     17  C   UNL d   1      -6.087   0.388   1.454  0.00  0.00     0.044 A 
ATOM     18 CL   UNL d   1      -5.228   0.958   2.843  0.00  0.00    -0.084 Cl
ENDBRANCH  10  11
ENDBRANCH   9  10
ENDBRANCH   4   9
BRANCH   1  19
ATOM     19  N   UNL d   1      -1.646   2.537   0.017  0.00  0.00    -0.095 N 
ATOM     20  O   UNL d   1      -2.349   2.833   0.997  0.00  0.00    -0.530 OA
ATOM     21  O   UNL d   1      -1.410   3.282  -0.947  0.00  0.00    -0.530 OA
ENDBRANCH   1  19
TORSDOF 4
