REMARK  4 active torsions:
REMARK  status: ('A' for Active; 'I' for Inactive)
REMARK    1  A    between atoms: C_2  and  C_1 
REMARK    2  A    between atoms: C_4  and  C_2 
REMARK    3  A    between atoms: C_7  and  C_4 
REMARK    4  A    between atoms: O_13  and  C_12 
ROOT
ATOM      1  C   UNL d   1      -0.996  -3.464  -1.203  0.00  0.00     0.184 C 
ATOM      2  O   UNL d   1      -1.888  -3.633  -0.379  0.00  0.00    -0.287 OA
ENDROOT
BRANCH   1   3
ATOM      3  C   UNL d   1      -1.245  -2.873  -2.544  0.00  0.00     0.092 C 
BRANCH   3   4
ATOM      4  C   UNL d   1      -2.453  -2.750  -3.099  0.00  0.00     0.076 A 
ATOM      5  N   UNL d   1      -3.634  -3.151  -2.558  0.00  0.00    -0.321 N 
ATOM      6  C   UNL d   1      -4.788  -2.907  -3.264  0.00  0.00     0.232 A 
ATOM      7  H   UNL d   1      -3.672  -3.603  -1.647  0.00  0.00     0.169 HD
ATOM      8  O   UNL d   1      -5.905  -3.244  -2.895  0.00  0.00    -0.272 OA
ATOM      9  C   UNL d   1      -4.501  -2.136  -4.536  0.00  0.00     0.184 A 
ATOM     10  S   UNL d   1      -2.683  -2.044  -4.660  0.00  0.00    -0.103 SA
ENDBRANCH   3   4
ENDBRANCH   1   3
BRANCH   1  11
ATOM     11  C   UNL d   1       0.420  -3.799  -0.891  0.00  0.00     0.017 A 
ATOM     12  C   UNL d   1       0.927  -3.531   0.390  0.00  0.00     0.052 A 
ATOM     13  C   UNL d   1       2.273  -3.784   0.667  0.00  0.00     0.069 A 
ATOM     14  C   UNL d   1       3.091  -4.333  -0.326  0.00  0.00     0.037 A 
ATOM     15  C   UNL d   1       2.581  -4.634  -1.587  0.00  0.00     0.004 A 
ATOM     16  C   UNL d   1       1.244  -4.369  -1.871  0.00  0.00     0.015 A 
BRANCH  13  17
ATOM     17  O   UNL d   1       2.920  -3.537   1.846  0.00  0.00    -0.356 OA
ATOM     18  C   UNL d   1       2.170  -2.920   2.884  0.00  0.00     0.210 C 
ENDBRANCH  13  17
ENDBRANCH   1  11
TORSDOF 4
