REMARK  2 active torsions:
REMARK  status: ('A' for Active; 'I' for Inactive)
REMARK    1  A    between atoms: S_6  and  C_1 
REMARK    2  A    between atoms: C_9  and  C_5 
ROOT
ATOM      1  C   UNL d   1      -0.047  -1.397  -0.049  0.00  0.00     0.122 A 
ATOM      2  C   UNL d   1       1.172  -0.742  -0.056  0.00  0.00     0.086 A 
ATOM      3  S   UNL d   1      -1.348  -0.292  -0.017  0.00  0.00    -0.064 SA
ATOM      4  C   UNL d   1      -0.302   1.038   0.040  0.00  0.00     0.088 A 
ATOM      5  C   UNL d   1       1.040   0.705  -0.013  0.00  0.00     0.026 A 
ATOM      6  C   UNL d   1       2.422  -1.453  -0.085  0.00  0.00     0.102 C 
ATOM      7  N   UNL d   1       3.456  -1.974  -0.093  0.00  0.00    -0.191 NA
ATOM      8 CL   UNL d   1      -1.054   2.586   0.189  0.00  0.00    -0.075 Cl
ENDROOT
BRANCH   1   9
ATOM      9  S   UNL d   1      -0.511  -3.116  -0.027  0.00  0.00     0.179 S 
ATOM     10  O   UNL d   1       0.733  -3.845  -0.136  0.00  0.00    -0.222 OA
ATOM     11  O   UNL d   1      -1.387  -3.265   1.115  0.00  0.00    -0.222 OA
ATOM     12  C   UNL d   1      -1.434  -3.359  -1.521  0.00  0.00     0.167 C 
ENDBRANCH   1   9
BRANCH   5  13
ATOM     13  C   UNL d   1       2.125   1.703   0.038  0.00  0.00    -0.022 A 
ATOM     14  C   UNL d   1       2.065   2.893  -0.706  0.00  0.00     0.014 A 
ATOM     15  C   UNL d   1       3.080   3.853  -0.614  0.00  0.00     0.024 A 
ATOM     16  C   UNL d   1       4.193   3.613   0.185  0.00  0.00     0.034 A 
ATOM     17  C   UNL d   1       4.294   2.424   0.897  0.00  0.00     0.024 A 
ATOM     18 CL   UNL d   1       5.441   4.790   0.296  0.00  0.00    -0.084 Cl
ATOM     19  C   UNL d   1       3.259   1.483   0.837  0.00  0.00     0.014 A 
ENDBRANCH   5  13
TORSDOF 2
