REMARK  13 active torsions:
REMARK  status: ('A' for Active; 'I' for Inactive)
REMARK    1  A    between atoms: C_1  and  O_9 
REMARK    2  A    between atoms: C_2  and  O_10 
REMARK    3  A    between atoms: C_3  and  N_5 
REMARK    4  A    between atoms: C_4  and  O_11 
REMARK    5  A    between atoms: C_8  and  N_5 
REMARK    6  A    between atoms: C_7  and  C_17 
REMARK    7  A    between atoms: N_18  and  C_8 
REMARK    8  A    between atoms: C_12  and  O_9 
REMARK    9  A    between atoms: C_13  and  O_10 
REMARK   10  A    between atoms: C_14  and  O_11 
REMARK   11  A    between atoms: C_16  and  O_19 
REMARK   12  A    between atoms: O_19  and  C_17 
REMARK   13  A    between atoms: N_24  and  N_18 
ROOT
ATOM      1  C   UNL d   1       0.891  -1.292  -0.164  0.00  0.00     0.212 C 
ATOM      2  C   UNL d   1       1.671   0.025   0.032  0.00  0.00     0.198 C 
ATOM      3  C   UNL d   1      -0.518  -1.130   0.454  0.00  0.00     0.255 C 
ATOM      4  C   UNL d   1       0.867   1.290  -0.327  0.00  0.00     0.195 C 
ATOM      5  O   UNL d   1      -1.183  -0.006  -0.109  0.00  0.00    -0.354 OA
ATOM      6  C   UNL d   1      -0.540   1.221   0.277  0.00  0.00     0.180 C 
ENDROOT
BRANCH   3   7
ATOM      7  N   UNL d   1      -1.356  -2.268   0.146  0.00  0.00    -0.338 N 
ATOM      8  H   UNL d   1      -1.925  -2.186  -0.684  0.00  0.00     0.164 HD
BRANCH   7   9
ATOM      9  C   UNL d   1      -1.592  -3.358   0.942  0.00  0.00     0.184 C 
ATOM     10  S   UNL d   1      -1.367  -3.458   2.590  0.00  0.00    -0.040 SA
BRANCH   9  11
ATOM     11  N   UNL d   1      -2.015  -4.478   0.251  0.00  0.00    -0.300 N 
ATOM     12  H   UNL d   1      -2.110  -5.315   0.828  0.00  0.00     0.183 HD
BRANCH  11  13
ATOM     13  N   UNL d   1      -1.630  -4.672  -1.097  0.00  0.00    -0.248 NA
ATOM     14  H   UNL d   1      -0.899  -3.993  -1.330  0.00  0.00     0.143 HD
ATOM     15  H   UNL d   1      -2.426  -4.467  -1.702  0.00  0.00     0.143 HD
ENDBRANCH  11  13
ENDBRANCH   9  11
ENDBRANCH   7   9
ENDBRANCH   3   7
BRANCH   1  16
ATOM     16  O   UNL d   1       1.582  -2.370   0.523  0.00  0.00    -0.309 OA
BRANCH  16  17
ATOM     17  C   UNL d   1       2.516  -3.060  -0.185  0.00  0.00     0.255 C 
ATOM     18  O   UNL d   1       2.837  -2.845  -1.344  0.00  0.00    -0.266 OA
ATOM     19  C   UNL d   1       3.140  -4.121   0.667  0.00  0.00     0.126 C 
ENDBRANCH  16  17
ENDBRANCH   1  16
BRANCH   2  20
ATOM     20  O   UNL d   1       2.964   0.025  -0.628  0.00  0.00    -0.311 OA
BRANCH  20  21
ATOM     21  C   UNL d   1       2.988  -0.050  -1.989  0.00  0.00     0.255 C 
ATOM     22  O   UNL d   1       2.001  -0.123  -2.709  0.00  0.00    -0.266 OA
ATOM     23  C   UNL d   1       4.397   0.030  -2.482  0.00  0.00     0.126 C 
ENDBRANCH  20  21
ENDBRANCH   2  20
BRANCH   6  24
ATOM     24  C   UNL d   1      -1.390   2.404  -0.218  0.00  0.00     0.213 C 
BRANCH  24  25
ATOM     25  O   UNL d   1      -2.709   2.370   0.358  0.00  0.00    -0.319 OA
BRANCH  25  26
ATOM     26  C   UNL d   1      -2.793   2.767   1.654  0.00  0.00     0.254 C 
ATOM     27  O   UNL d   1      -1.858   3.179   2.326  0.00  0.00    -0.266 OA
ATOM     28  C   UNL d   1      -4.196   2.634   2.159  0.00  0.00     0.126 C 
ENDBRANCH  25  26
ENDBRANCH  24  25
ENDBRANCH   6  24
BRANCH   4  29
ATOM     29  O   UNL d   1       1.554   2.441   0.221  0.00  0.00    -0.311 OA
BRANCH  29  30
ATOM     30  C   UNL d   1       2.211   3.242  -0.662  0.00  0.00     0.255 C 
ATOM     31  O   UNL d   1       2.221   3.104  -1.872  0.00  0.00    -0.266 OA
ATOM     32  C   UNL d   1       2.904   4.366   0.050  0.00  0.00     0.126 C 
ENDBRANCH  29  30
ENDBRANCH   4  29
TORSDOF 13
