REMARK  3 active torsions:
REMARK  status: ('A' for Active; 'I' for Inactive)
REMARK    1  A    between atoms: C_6  and  C_1 
REMARK    2  A    between atoms: O_8  and  C_6 
REMARK    3  A    between atoms: C_12  and  O_8 
ROOT
ATOM      1  C   UNL d   1      -0.223  -1.228   0.015  0.00  0.00     0.115 A 
ATOM      2  N   UNL d   1      -1.048  -0.127   0.054  0.00  0.00    -0.354 N 
ATOM      3  C   UNL d   1       1.084  -0.752   0.042  0.00  0.00    -0.021 A 
ATOM      4  C   UNL d   1       1.019   0.683   0.047  0.00  0.00    -0.032 A 
ATOM      5  C   UNL d   1      -0.318   1.031   0.049  0.00  0.00     0.012 A 
ATOM      6  C   UNL d   1       2.342  -1.555   0.021  0.00  0.00     0.051 C 
ATOM      7  C   UNL d   1       2.169   1.630   0.028  0.00  0.00     0.050 C 
ATOM      8  C   UNL d   1      -0.968   2.368   0.031  0.00  0.00     0.068 C 
ATOM      9  H   UNL d   1      -2.059  -0.186   0.039  0.00  0.00     0.166 HD
ENDROOT
BRANCH   1  10
ATOM     10  C   UNL d   1      -0.713  -2.588  -0.080  0.00  0.00     0.310 C 
ATOM     11  O   UNL d   1      -0.031  -3.603  -0.099  0.00  0.00    -0.258 OA
BRANCH  10  12
ATOM     12  O   UNL d   1      -2.071  -2.567  -0.233  0.00  0.00    -0.317 OA
BRANCH  12  13
ATOM     13  C   UNL d   1      -2.646  -3.803  -0.681  0.00  0.00     0.175 C 
ATOM     14  C   UNL d   1      -2.652  -3.808  -2.200  0.00  0.00     0.034 C 
ENDBRANCH  12  13
ENDBRANCH  10  12
ENDBRANCH   1  10
TORSDOF 3
