REMARK  4 active torsions:
REMARK  status: ('A' for Active; 'I' for Inactive)
REMARK    1  A    between atoms: C_12  and  C_7 
REMARK    2  A    between atoms: O_17  and  C_9 
REMARK    3  A    between atoms: O_18  and  C_14 
REMARK    4  A    between atoms: C_19  and  O_18 
ROOT
ATOM      1  C   UNL d   1       3.306   1.247  -0.112  0.00  0.00     0.101 A 
ATOM      2  N   UNL d   1       2.643   3.521  -0.591  0.00  0.00    -0.299 N 
ATOM      3  N   UNL d   1       4.794   2.842  -1.137  0.00  0.00    -0.299 N 
ATOM      4  C   UNL d   1       2.266   2.312  -0.071  0.00  0.00     0.263 A 
ATOM      5  C   UNL d   1       4.648   1.563  -0.664  0.00  0.00     0.263 A 
ATOM      6  C   UNL d   1       3.854   3.823  -1.125  0.00  0.00     0.181 A 
ATOM      7  C   UNL d   1       2.941   0.036   0.354  0.00  0.00     0.034 C 
ATOM      8  S   UNL d   1       4.174   5.335  -1.740  0.00  0.00    -0.040 SA
ATOM      9  O   UNL d   1       1.138   2.144   0.380  0.00  0.00    -0.267 OA
ATOM     10  O   UNL d   1       5.588   0.779  -0.716  0.00  0.00    -0.267 OA
ATOM     11  H   UNL d   1       1.936   4.245  -0.573  0.00  0.00     0.171 HD
ATOM     12  H   UNL d   1       5.705   3.060  -1.521  0.00  0.00     0.171 HD
ENDROOT
BRANCH   7  13
ATOM     13  C   UNL d   1       3.755  -1.181   0.388  0.00  0.00    -0.032 A 
ATOM     14  C   UNL d   1       3.793  -2.027  -0.728  0.00  0.00     0.051 A 
ATOM     15  C   UNL d   1       4.508  -3.235  -0.703  0.00  0.00     0.102 A 
ATOM     16  C   UNL d   1       5.226  -3.578   0.459  0.00  0.00     0.102 A 
ATOM     17  C   UNL d   1       5.194  -2.713   1.566  0.00  0.00     0.040 A 
ATOM     18  C   UNL d   1       4.459  -1.528   1.538  0.00  0.00     0.014 A 
BRANCH  15  19
ATOM     19  O   UNL d   1       4.527  -4.105  -1.760  0.00  0.00    -0.353 OA
ATOM     20  C   UNL d   1       3.755  -3.801  -2.913  0.00  0.00     0.210 C 
ENDBRANCH  15  19
BRANCH  16  21
ATOM     21  O   UNL d   1       5.991  -4.695   0.696  0.00  0.00    -0.349 OA
BRANCH  21  22
ATOM     22  C   UNL d   1       6.112  -5.669  -0.335  0.00  0.00     0.171 C 
ATOM     23  C   UNL d   1       7.008  -6.793   0.155  0.00  0.00     0.034 C 
ENDBRANCH  21  22
ENDBRANCH  16  21
ENDBRANCH   7  13
TORSDOF 4
