REMARK  5 active torsions:
REMARK  status: ('A' for Active; 'I' for Inactive)
REMARK    1  A    between atoms: C_3  and  C_1 
REMARK    2  A    between atoms: C_2  and  C_8 
REMARK       I    between atoms: N_7  and  C_3 
REMARK    3  A    between atoms: O_19  and  C_4 
REMARK       I    between atoms: C_5  and  N_9 
REMARK    4  A    between atoms: C_11  and  C_5 
REMARK    5  A    between atoms: N_9  and  N_7 
ROOT
ATOM      1  C   UNL d   1       5.412  -0.577  -0.423  0.00  0.00     0.270 C 
ATOM      2  N   UNL d   1       4.402   0.273  -0.838  0.00  0.00    -0.263 N 
ATOM      3  O   UNL d   1       6.116  -0.343   0.554  0.00  0.00    -0.266 OA
ATOM      4  H   UNL d   1       3.652  -0.041  -1.456  0.00  0.00     0.190 HD
ENDROOT
BRANCH   2   5
ATOM      5  N   UNL d   1       4.048   1.333   0.016  0.00  0.00    -0.263 N 
ATOM      6  C   UNL d   1       2.749   1.820  -0.057  0.00  0.00     0.273 C 
ATOM      7  O   UNL d   1       1.997   1.413  -0.942  0.00  0.00    -0.266 OA
ATOM      8  H   UNL d   1       4.713   1.558   0.751  0.00  0.00     0.190 HD
BRANCH   6   9
ATOM      9  C   UNL d   1       2.354   2.772   0.989  0.00  0.00     0.073 A 
ATOM     10  C   UNL d   1       1.337   3.812   0.969  0.00  0.00     0.090 A 
ATOM     11  C   UNL d   1       1.265   4.493   2.168  0.00  0.00     0.087 A 
ATOM     12  S   UNL d   1       2.364   3.924   3.329  0.00  0.00    -0.110 SA
ATOM     13  C   UNL d   1       2.963   2.756   2.242  0.00  0.00     0.069 A 
BRANCH  10  14
ATOM     14  O   UNL d   1       0.523   4.292  -0.007  0.00  0.00    -0.354 OA
ATOM     15  C   UNL d   1       0.084   3.382  -0.996  0.00  0.00     0.210 C 
ENDBRANCH  10  14
ENDBRANCH   6   9
ENDBRANCH   2   5
BRANCH   1  16
ATOM     16  C   UNL d   1       5.555  -1.843  -1.198  0.00  0.00     0.034 A 
ATOM     17  C   UNL d   1       5.137  -1.942  -2.534  0.00  0.00     0.033 A 
ATOM     18  C   UNL d   1       5.196  -3.171  -3.212  0.00  0.00     0.048 A 
ATOM     19  C   UNL d   1       5.708  -4.293  -2.542  0.00  0.00     0.016 A 
ATOM     20  C   UNL d   1       6.165  -4.187  -1.227  0.00  0.00     0.002 A 
ATOM     21  C   UNL d   1       6.092  -2.965  -0.557  0.00  0.00     0.017 A 
BRANCH  18  22
ATOM     22  C   UNL d   1       4.688  -3.305  -4.629  0.00  0.00     0.417 C 
ATOM     23  F   UNL d   1       4.296  -2.120  -5.177  0.00  0.00    -0.166 F 
ATOM     24  F   UNL d   1       5.619  -3.822  -5.475  0.00  0.00    -0.166 F 
ATOM     25  F   UNL d   1       3.606  -4.128  -4.711  0.00  0.00    -0.166 F 
ENDBRANCH  18  22
ENDBRANCH   1  16
TORSDOF 5
