REMARK  6 active torsions:
REMARK  status: ('A' for Active; 'I' for Inactive)
REMARK    1  A    between atoms: N_7  and  S_1 
REMARK    2  A    between atoms: C_14  and  S_1 
REMARK    3  A    between atoms: N_2  and  C_15 
REMARK    4  A    between atoms: C_11  and  C_6 
REMARK       I    between atoms: N_13  and  C_10 
REMARK       I    between atoms: N_19  and  C_10 
REMARK    5  A    between atoms: N_20  and  N_19 
REMARK    6  A    between atoms: C_33  and  C_32 
ROOT
ATOM      1  S   UNL d   1      -0.567   2.422   0.828  0.00  0.00     0.276 S 
ATOM      2  O   UNL d   1      -0.018   3.709   1.214  0.00  0.00    -0.200 OA
ATOM      3  O   UNL d   1      -1.916   2.085   1.248  0.00  0.00    -0.200 OA
ENDROOT
BRANCH   1   4
ATOM      4  N   UNL d   1       0.454   1.262   1.305  0.00  0.00    -0.111 N 
ATOM      5  C   UNL d   1       0.719   1.120   2.577  0.00  0.00     0.704 C 
ATOM      6  N   UNL d   1       1.573   0.098   2.981  0.00  0.00    -0.216 N 
ATOM      7  N   UNL d   1       0.256   1.943   3.603  0.00  0.00    -0.132 N 
ATOM      8  C   UNL d   1       2.139  -0.068   4.315  0.00  0.00     0.141 C 
ATOM      9  C   UNL d   1       2.191  -0.842   2.050  0.00  0.00     0.141 C 
ATOM     10  C   UNL d   1       3.500  -0.692   4.060  0.00  0.00     0.022 C 
ATOM     11  C   UNL d   1       3.241  -1.594   2.870  0.00  0.00     0.022 C 
ATOM     12  H   UNL d   1      -0.155   2.826   3.300  0.00  0.00     0.205 HD
ATOM     13  HN  UNL d   1       0.888   0.645   0.618  1.00  0.00     0.197 HD
BRANCH   7  14
ATOM     14  N   UNL d   1      -0.081   1.492   4.849  0.00  0.00    -0.297 N 
ATOM     15  C   UNL d   1      -0.520   2.377   5.682  0.00  0.00     0.119 C 
ATOM     16  HN  UNL d   1       0.010   0.509   5.107  1.00  0.00     0.186 HD
BRANCH  15  17
ATOM     17  C   UNL d   1      -0.875   1.989   7.063  0.00  0.00    -0.019 A 
ATOM     18  C   UNL d   1      -0.704   0.667   7.494  0.00  0.00     0.014 A 
ATOM     19  C   UNL d   1      -1.033   0.310   8.803  0.00  0.00     0.024 A 
ATOM     20  C   UNL d   1      -1.532   1.276   9.675  0.00  0.00     0.034 A 
ATOM     21  C   UNL d   1      -1.700   2.595   9.251  0.00  0.00     0.024 A 
ATOM     22 CL   UNL d   1      -1.944   0.836  11.287  0.00  0.00    -0.084 Cl
ATOM     23  C   UNL d   1      -1.370   2.956   7.941  0.00  0.00     0.014 A 
ENDBRANCH  15  17
ENDBRANCH   7  14
ENDBRANCH   1   4
BRANCH   1  24
ATOM     24  C   UNL d   1      -0.591   2.339  -0.955  0.00  0.00     0.080 A 
ATOM     25  C   UNL d   1      -1.140   1.216  -1.587  0.00  0.00     0.027 A 
ATOM     26  C   UNL d   1      -1.226   1.175  -2.985  0.00  0.00     0.033 A 
ATOM     27  C   UNL d   1      -0.735   2.242  -3.752  0.00  0.00     0.057 A 
ATOM     28  C   UNL d   1      -0.235   3.384  -3.105  0.00  0.00     0.033 A 
ATOM     29  C   UNL d   1      -0.159   3.432  -1.710  0.00  0.00     0.027 A 
BRANCH  27  30
ATOM     30  N   UNL d   1      -0.755   2.160  -5.177  0.00  0.00    -0.255 N 
ATOM     31  C   UNL d   1       0.107   2.740  -6.106  0.00  0.00     0.076 C 
ATOM     32  C   UNL d   1      -0.500   2.567  -7.333  0.00  0.00     0.069 C 
ATOM     33  C   UNL d   1       1.398   3.321  -5.832  0.00  0.00     0.033 A 
ATOM     34  C   UNL d   1      -1.644   1.769  -7.098  0.00  0.00     0.135 C 
ATOM     35  N   UNL d   1      -1.735   1.441  -5.795  0.00  0.00    -0.289 N 
ATOM     36  HN  UNL d   1      -2.395   0.794  -5.363  1.00  0.00     0.187 HD
ATOM     37  S   UNL d   1       1.996   4.645  -6.747  0.00  0.00    -0.100 SA
ATOM     38  C   UNL d   1       2.323   2.923  -4.882  0.00  0.00     0.021 A 
ATOM     39  C   UNL d   1       3.434   4.725  -5.827  0.00  0.00     0.050 A 
ATOM     40  C   UNL d   1       3.477   3.757  -4.851  0.00  0.00     0.008 A 
BRANCH  34  41
ATOM     41  C   UNL d   1      -2.615   1.304  -8.154  0.00  0.00     0.434 C 
ATOM     42  F   UNL d   1      -3.641   0.557  -7.671  0.00  0.00    -0.165 F 
ATOM     43  F   UNL d   1      -3.175   2.359  -8.809  0.00  0.00    -0.165 F 
ATOM     44  F   UNL d   1      -1.996   0.553  -9.106  0.00  0.00    -0.165 F 
ENDBRANCH  34  41
ENDBRANCH  27  30
ENDBRANCH   1  24
TORSDOF 6
