REMARK  10 active torsions:
REMARK  status: ('A' for Active; 'I' for Inactive)
REMARK    1  A    between atoms: C_4  and  C_1 
REMARK    2  A    between atoms: C_5  and  C_1 
REMARK    3  A    between atoms: O_9  and  N_2 
REMARK    4  A    between atoms: O_12  and  C_8 
REMARK    5  A    between atoms: C_15  and  O_12 
REMARK    6  A    between atoms: C_16  and  C_15 
REMARK    7  A    between atoms: C_19  and  C_16 
REMARK    8  A    between atoms: C_17  and  C_18 
REMARK    9  A    between atoms: C_18  and  C_20 
REMARK   10  A    between atoms: C_20  and  C_19 
ROOT
ATOM      1  C   UNL d   1       2.538  -0.093   0.141  0.00  0.00    -0.007 A 
ATOM      2  C   UNL d   1       3.203   0.556   1.192  0.00  0.00     0.016 A 
ATOM      3  C   UNL d   1       3.302  -0.763  -0.821  0.00  0.00     0.016 A 
ATOM      4  C   UNL d   1       5.350  -0.143   0.317  0.00  0.00     0.068 A 
ATOM      5  C   UNL d   1       4.598   0.513   1.290  0.00  0.00     0.037 A 
ATOM      6  C   UNL d   1       4.698  -0.758  -0.751  0.00  0.00     0.037 A 
ENDROOT
BRANCH   1   7
ATOM      7  C   UNL d   1       1.034  -0.064   0.062  0.00  0.00     0.074 C 
ATOM      8  N   UNL d   1       0.333   0.033  -1.039  0.00  0.00    -0.268 N 
ATOM      9  HN  UNL d   1      -0.685  -0.019  -1.052  1.00  0.00     0.194 HD
BRANCH   8  10
ATOM     10  O   UNL d   1       1.095   0.212  -2.192  0.00  0.00    -0.289 OA
ATOM     11  H   UNL d   1       0.420   0.183  -2.894  0.00  0.00     0.244 HD
ENDBRANCH   8  10
BRANCH   7  12
ATOM     12  C   UNL d   1       0.236  -0.115   1.338  0.00  0.00    -0.007 A 
ATOM     13  C   UNL d   1       0.669  -0.823   2.467  0.00  0.00     0.014 A 
ATOM     14  C   UNL d   1      -0.080  -0.787   3.647  0.00  0.00     0.001 A 
ATOM     15  C   UNL d   1      -1.277  -0.074   3.699  0.00  0.00     0.000 A 
ATOM     16  C   UNL d   1      -1.734   0.603   2.569  0.00  0.00     0.001 A 
ATOM     17  C   UNL d   1      -0.980   0.583   1.394  0.00  0.00     0.014 A 
ENDBRANCH   7  12
ENDBRANCH   1   7
BRANCH   4  18
ATOM     18  O   UNL d   1       6.716  -0.196   0.282  0.00  0.00    -0.351 OA
BRANCH  18  19
ATOM     19  C   UNL d   1       7.353  -0.238   1.558  0.00  0.00     0.175 C 
BRANCH  19  20
ATOM     20  C   UNL d   1       8.857  -0.367   1.337  0.00  0.00     0.027 C 
BRANCH  20  21
ATOM     21  C   UNL d   1       9.592  -0.438   2.671  0.00  0.00     0.002 C 
BRANCH  21  22
ATOM     22  C   UNL d   1      11.105  -0.515   2.478  0.00  0.00     0.000 C 
BRANCH  22  23
ATOM     23  C   UNL d   1      11.817  -0.587   3.831  0.00  0.00    -0.000 C 
BRANCH  23  24
ATOM     24  C   UNL d   1      13.332  -0.666   3.659  0.00  0.00    -0.005 C 
ATOM     25  C   UNL d   1      14.034  -0.739   5.005  0.00  0.00     0.005 C 
ENDBRANCH  23  24
ENDBRANCH  22  23
ENDBRANCH  21  22
ENDBRANCH  20  21
ENDBRANCH  19  20
ENDBRANCH  18  19
ENDBRANCH   4  18
TORSDOF 10
