REMARK  1 active torsions:
REMARK  status: ('A' for Active; 'I' for Inactive)
REMARK    1  A    between atoms: C_11  and  C_2 
ROOT
ATOM      1  C   UNL d   1       0.007  -0.748  -0.010  0.00  0.00     0.050 A 
ATOM      2  C   UNL d   1       2.424   0.611  -0.020  0.00  0.00     0.090 A 
ATOM      3  C   UNL d   1       0.065   0.641   0.044  0.00  0.00     0.090 A 
ATOM      4  C   UNL d   1       2.504  -0.725  -0.079  0.00  0.00     0.093 A 
ATOM      5  O   UNL d   1       1.249   1.339   0.025  0.00  0.00    -0.309 OA
ATOM      6  C   UNL d   1       1.262  -1.508  -0.091  0.00  0.00     0.187 A 
ATOM      7  C   UNL d   1      -1.221  -1.412   0.020  0.00  0.00     0.042 A 
ATOM      8  C   UNL d   1      -1.117   1.377   0.129  0.00  0.00     0.046 A 
ATOM      9  C   UNL d   1      -2.404  -0.676   0.111  0.00  0.00     0.041 A 
ATOM     10  C   UNL d   1      -2.368   0.728   0.177  0.00  0.00    -0.038 A 
ATOM     11  O   UNL d   1       1.285  -2.730  -0.154  0.00  0.00    -0.287 OA
ATOM     12 CL   UNL d   1      -3.885  -1.563   0.142  0.00  0.00    -0.084 Cl
ATOM     13  C   UNL d   1      -3.600   1.586   0.272  0.00  0.00     0.050 C 
ENDROOT
BRANCH   2  14
ATOM     14  C   UNL d   1       3.656   1.403   0.022  0.00  0.00    -0.002 A 
ATOM     15  C   UNL d   1       4.293   1.789  -1.163  0.00  0.00     0.014 A 
ATOM     16  C   UNL d   1       5.517   2.461  -1.117  0.00  0.00     0.001 A 
ATOM     17  C   UNL d   1       6.108   2.751   0.112  0.00  0.00     0.000 A 
ATOM     18  C   UNL d   1       5.473   2.381   1.297  0.00  0.00     0.001 A 
ATOM     19  C   UNL d   1       4.249   1.710   1.253  0.00  0.00     0.014 A 
ENDBRANCH   2  14
TORSDOF 1
