REMARK  6 active torsions:
REMARK  status: ('A' for Active; 'I' for Inactive)
REMARK    1  A    between atoms: C_4  and  N_1 
REMARK    2  A    between atoms: N_2  and  C_3 
REMARK    3  A    between atoms: C_16  and  C_5 
REMARK    4  A    between atoms: C_9  and  C_6 
REMARK    5  A    between atoms: O_15  and  C_9 
REMARK    6  A    between atoms: C_17  and  C_16 
ROOT
ATOM      1  C   UNL d   1      -0.060  -3.006   1.998  0.00  0.00     0.112 A 
ATOM      2  C   UNL d   1       0.281  -1.200   0.488  0.00  0.00     0.112 A 
ATOM      3  C   UNL d   1       0.651  -1.822   1.711  0.00  0.00     0.008 A 
ATOM      4  C   UNL d   1      -1.323  -2.919  -0.080  0.00  0.00     0.042 A 
ATOM      5  C   UNL d   1      -1.021  -3.555   1.124  0.00  0.00     0.055 A 
ATOM      6  C   UNL d   1      -0.683  -1.725  -0.397  0.00  0.00     0.055 A 
ENDROOT
BRANCH   4   7
ATOM      7  C   UNL d   1      -2.387  -3.495  -0.936  0.00  0.00     0.176 C 
ATOM      8  O   UNL d   1      -3.328  -4.111  -0.470  0.00  0.00    -0.646 OA
BRANCH   7   9
ATOM      9  O   UNL d   1      -2.205  -3.297  -2.256  0.00  0.00    -0.773 OA
ATOM     10  H   UNL d   1      -1.335  -2.958  -2.537  0.00  0.00     0.167 HD
ENDBRANCH   7   9
ENDBRANCH   4   7
BRANCH   2  11
ATOM     11  N   UNL d   1       0.877   0.063   0.068  0.00  0.00    -0.115 N 
ATOM     12  O   UNL d   1       0.711   1.044   0.803  0.00  0.00    -0.532 OA
ATOM     13  O   UNL d   1       1.471   0.058  -1.019  0.00  0.00    -0.532 OA
ENDBRANCH   2  11
BRANCH   1  14
ATOM     14  N   UNL d   1       0.099  -3.727   3.247  0.00  0.00    -0.115 N 
ATOM     15  O   UNL d   1      -0.326  -3.173   4.268  0.00  0.00    -0.532 OA
ATOM     16  O   UNL d   1       0.608  -4.852   3.180  0.00  0.00    -0.532 OA
ENDBRANCH   1  14
BRANCH   3  17
ATOM     17  C   UNL d   1       1.659  -1.139   2.626  0.00  0.00     0.043 C 
BRANCH  17  18
ATOM     18  C   UNL d   1       2.580  -1.915   3.577  0.00  0.00     0.000 C 
ATOM     19  C   UNL d   1       3.511  -2.891   2.880  0.00  0.00     0.005 C 
ENDBRANCH  17  18
ENDBRANCH   3  17
TORSDOF 6
