REMARK  4 active torsions:
REMARK  status: ('A' for Active; 'I' for Inactive)
REMARK    1  A    between atoms: C_11  and  C_7 
REMARK    2  A    between atoms: C_15  and  C_10 
REMARK    3  A    between atoms: O_16  and  C_14 
REMARK    4  A    between atoms: O_18  and  C_15 
ROOT
ATOM      1  N   UNL d   1      -0.315  -0.589   0.024  0.00  0.00    -0.203 N 
ATOM      2  C   UNL d   1      -0.266   0.788   0.015  0.00  0.00     0.133 A 
ATOM      3  N   UNL d   1      -1.591  -1.057   0.032  0.00  0.00    -0.289 N 
ATOM      4  HN  UNL d   1      -1.897  -2.030   0.046  1.00  0.00     0.188 HD
ATOM      5  C   UNL d   1      -1.561   1.227   0.022  0.00  0.00     0.082 A 
ATOM      6  C   UNL d   1       0.821  -1.415   0.020  0.00  0.00     0.270 A 
ATOM      7  C   UNL d   1      -2.363   0.048   0.016  0.00  0.00     0.062 A 
ATOM      8  C   UNL d   1       2.113  -0.672   0.012  0.00  0.00     0.103 A 
ATOM      9  N   UNL d   1       0.936   1.402  -0.002  0.00  0.00    -0.342 N 
ATOM     10  C   UNL d   1       2.122   0.676   0.004  0.00  0.00     0.040 A 
ATOM     11  O   UNL d   1       0.748  -2.640   0.017  0.00  0.00    -0.266 OA
ATOM     12  H   UNL d   1       1.039   2.411   0.109  0.00  0.00     0.167 HD
ENDROOT
BRANCH   7  13
ATOM     13  C   UNL d   1      -3.832  -0.034  -0.024  0.00  0.00    -0.005 A 
ATOM     14  C   UNL d   1      -4.484  -1.276   0.071  0.00  0.00     0.050 A 
ATOM     15  C   UNL d   1      -5.880  -1.358   0.031  0.00  0.00     0.069 A 
ATOM     16  C   UNL d   1      -6.631  -0.198  -0.168  0.00  0.00     0.037 A 
ATOM     17  C   UNL d   1      -6.001   1.039  -0.273  0.00  0.00     0.004 A 
ATOM     18  C   UNL d   1      -4.612   1.123  -0.177  0.00  0.00     0.014 A 
BRANCH  15  19
ATOM     19  O   UNL d   1      -6.621  -2.500   0.174  0.00  0.00    -0.356 OA
ATOM     20  C   UNL d   1      -5.903  -3.681   0.516  0.00  0.00     0.210 C 
ENDBRANCH  15  19
ENDBRANCH   7  13
BRANCH  10  21
ATOM     21  C   UNL d   1       3.419   1.457  -0.013  0.00  0.00     0.224 C 
BRANCH  21  22
ATOM     22  O   UNL d   1       3.452   2.313   1.129  0.00  0.00    -0.390 OA
ATOM     23  C   UNL d   1       4.675   3.036   1.200  0.00  0.00     0.201 C 
ENDBRANCH  21  22
ENDBRANCH  10  21
TORSDOF 4
