REMARK  6 active torsions:
REMARK  status: ('A' for Active; 'I' for Inactive)
REMARK    1  A    between atoms: S_4  and  C_1 
REMARK    2  A    between atoms: C_7  and  C_2 
REMARK    3  A    between atoms: N_10  and  C_3 
REMARK    4  A    between atoms: C_11  and  S_4 
REMARK    5  A    between atoms: S_12  and  C_5 
REMARK    6  A    between atoms: O_14  and  C_7 
ROOT
ATOM      1  C   UNL d   1      -0.651  -1.223   0.049  0.00  0.00     0.111 A 
ATOM      2  C   UNL d   1      -0.104   1.064   0.050  0.00  0.00     0.109 A 
ATOM      3  C   UNL d   1      -1.127   0.130   0.176  0.00  0.00     0.072 A 
ATOM      4  C   UNL d   1       0.739  -1.261  -0.020  0.00  0.00     0.065 A 
ATOM      5  S   UNL d   1       1.416   0.304  -0.080  0.00  0.00    -0.073 SA
ENDROOT
BRANCH   1   6
ATOM      6  S   UNL d   1      -1.575  -2.697  -0.013  0.00  0.00     0.183 S 
ATOM      7  O   UNL d   1      -1.214  -3.280  -1.290  0.00  0.00    -0.222 OA
ATOM      8  O   UNL d   1      -1.243  -3.340   1.246  0.00  0.00    -0.222 OA
BRANCH   6   9
ATOM      9  C   UNL d   1      -3.334  -2.425  -0.010  0.00  0.00     0.105 C 
ATOM     10  C   UNL d   1      -3.847  -1.712  -1.256  0.00  0.00     0.026 C 
ATOM     11  C   UNL d   1      -4.055  -3.775   0.112  0.00  0.00     0.026 C 
ENDBRANCH   6   9
ENDBRANCH   1   6
BRANCH   3  12
ATOM     12  N   UNL d   1      -2.405   0.541   0.379  0.00  0.00    -0.397 N 
ATOM     13  H   UNL d   1      -2.581   1.552   0.474  0.00  0.00     0.156 HD
ATOM     14  H   UNL d   1      -3.045   0.041   0.988  0.00  0.00     0.156 HD
ENDBRANCH   3  12
BRANCH   4  15
ATOM     15  S   UNL d   1       1.811  -2.670   0.025  0.00  0.00    -0.126 SA
ATOM     16  C   UNL d   1       2.673  -2.528  -1.554  0.00  0.00     0.096 C 
ENDBRANCH   4  15
BRANCH   2  17
ATOM     17  C   UNL d   1      -0.220   2.518   0.067  0.00  0.00     0.302 C 
ATOM     18  O   UNL d   1      -1.270   3.130   0.234  0.00  0.00    -0.259 OA
BRANCH  17  19
ATOM     19  O   UNL d   1       0.987   3.127  -0.131  0.00  0.00    -0.322 OA
ATOM     20  C   UNL d   1       0.942   4.553  -0.128  0.00  0.00     0.213 C 
ENDBRANCH  17  19
ENDBRANCH   2  17
TORSDOF 6
