REMARK  4 active torsions:
REMARK  status: ('A' for Active; 'I' for Inactive)
REMARK    1  A    between atoms: C_3  and  C_7 
REMARK       I    between atoms: N_8  and  C_3 
REMARK    2  A    between atoms: N_4  and  N_8 
REMARK    3  A    between atoms: C_6  and  C_11 
REMARK    4  A    between atoms: O_12  and  C_9 
ROOT
ATOM      1  N   UNL d   1       6.163  -3.282   2.845  0.00  0.00    -0.197 NA
ATOM      2  C   UNL d   1       6.031  -2.585   1.930  0.00  0.00     0.068 C 
ATOM      3  C   UNL d   1       5.768  -1.722   0.781  0.00  0.00     0.228 C 
ENDROOT
BRANCH   3   4
ATOM      4  C   UNL d   1       4.311  -1.668   0.370  0.00  0.00     0.249 C 
ATOM      5  N   UNL d   1       3.409  -2.444   1.088  0.00  0.00    -0.270 N 
ATOM      6  H   UNL d   1       3.685  -2.989   1.903  0.00  0.00     0.190 HD
ATOM      7  O   UNL d   1       3.979  -0.944  -0.572  0.00  0.00    -0.271 OA
BRANCH   5   8
ATOM      8  N   UNL d   1       2.083  -2.353   0.786  0.00  0.00    -0.308 N 
ATOM      9  C   UNL d   1       1.273  -2.947   1.604  0.00  0.00     0.121 C 
ATOM     10  HN  UNL d   1       1.749  -1.848  -0.034  1.00  0.00     0.186 HD
BRANCH   9  11
ATOM     11  C   UNL d   1      -0.186  -2.831   1.422  0.00  0.00     0.014 A 
ATOM     12  C   UNL d   1      -0.755  -2.458   0.200  0.00  0.00     0.077 A 
ATOM     13  C   UNL d   1      -2.135  -2.308   0.089  0.00  0.00     0.037 A 
ATOM     14  C   UNL d   1      -2.947  -2.494   1.209  0.00  0.00     0.003 A 
ATOM     15  C   UNL d   1      -2.383  -2.862   2.431  0.00  0.00     0.001 A 
ATOM     16  C   UNL d   1      -1.002  -3.047   2.538  0.00  0.00     0.015 A 
BRANCH  12  17
ATOM     17  O   UNL d   1      -0.019  -2.219  -0.927  0.00  0.00    -0.360 OA
ATOM     18  H   UNL d   1       0.925  -2.136  -0.661  0.00  0.00     0.217 HD
ENDBRANCH  12  17
ENDBRANCH   9  11
ENDBRANCH   5   8
ENDBRANCH   3   4
TORSDOF 4
