REMARK  6 active torsions:
REMARK  status: ('A' for Active; 'I' for Inactive)
REMARK    1  A    between atoms: S_2  and  C_1 
REMARK    2  A    between atoms: C_5  and  C_1 
REMARK    3  A    between atoms: C_11  and  S_2 
REMARK    4  A    between atoms: N_4  and  C_3 
REMARK    5  A    between atoms: S_12  and  C_3 
REMARK    6  A    between atoms: N_6  and  C_5 
ROOT
ATOM      1  C   UNL d   1       0.989  -0.048   0.087  0.00  0.00     0.154 C 
ATOM      2  C   UNL d   1       0.325   0.084  -1.097  0.00  0.00     0.098 C 
ENDROOT
BRANCH   1   3
ATOM      3  S   UNL d   1       0.276  -0.051   1.672  0.00  0.00     0.190 S 
ATOM      4  O   UNL d   1       1.315  -0.338   2.651  0.00  0.00    -0.221 OA
ATOM      5  O   UNL d   1      -0.524   1.146   1.858  0.00  0.00    -0.221 OA
BRANCH   3   6
ATOM      6  C   UNL d   1      -0.830  -1.476   1.706  0.00  0.00     0.106 C 
ATOM      7  C   UNL d   1      -0.082  -2.788   1.489  0.00  0.00     0.026 C 
ATOM      8  C   UNL d   1      -1.593  -1.512   3.032  0.00  0.00     0.026 C 
ENDBRANCH   3   6
ENDBRANCH   1   3
BRANCH   1   9
ATOM      9  C   UNL d   1       2.509  -0.048   0.087  0.00  0.00    -0.022 C 
BRANCH   9  10
ATOM     10  N   UNL d   1       3.770  -0.048   0.087  0.00  0.00    -0.365 N 
ATOM     11  HN2 UNL d   1       2.750  -0.048   0.087  1.00  0.00     0.165 HD
ATOM     12  HN1 UNL d   1       4.790  -0.048   0.087  1.00  0.00     0.165 HD
ENDBRANCH   9  10
ENDBRANCH   1   9
BRANCH   2  13
ATOM     13  N   UNL d   1       1.022   0.060  -2.332  0.00  0.00    -0.374 N 
ATOM     14  C   UNL d   1       1.835  -1.087  -2.785  0.00  0.00     0.123 C 
ATOM     15  C   UNL d   1       3.193  -0.610  -3.302  0.00  0.00     0.020 C 
ATOM     16  C   UNL d   1       3.054   0.490  -4.353  0.00  0.00     0.003 C 
ATOM     17  C   UNL d   1       2.134   1.607  -3.867  0.00  0.00     0.020 C 
ATOM     18  C   UNL d   1       0.792   1.056  -3.393  0.00  0.00     0.123 C 
ENDBRANCH   2  13
BRANCH   2  19
ATOM     19  S   UNL d   1      -1.420   0.429  -1.091  0.00  0.00    -0.115 SA
ATOM     20  C   UNL d   1      -2.026  -0.552  -2.477  0.00  0.00     0.097 C 
ENDBRANCH   2  19
TORSDOF 6
