REMARK  5 active torsions:
REMARK  status: ('A' for Active; 'I' for Inactive)
REMARK    1  A    between atoms: S_15  and  C_4 
REMARK    2  A    between atoms: S_16  and  C_5 
REMARK    3  A    between atoms: C_14  and  C_10 
REMARK    4  A    between atoms: C_11  and  C_17 
REMARK    5  A    between atoms: C_17  and  S_15 
ROOT
ATOM      1  N   UNL d   1       3.522   5.233  -0.368  0.00  0.00    -0.352 N 
ATOM      2  HN  UNL d   1       4.350   4.666  -0.550  1.00  0.00     0.166 HD
ATOM      3  C   UNL d   1       3.509   6.619  -0.310  0.00  0.00     0.049 A 
ATOM      4  C   UNL d   1       2.313   4.751  -0.155  0.00  0.00     0.060 A 
ATOM      5  S   UNL d   1       1.105   5.934   0.169  0.00  0.00    -0.086 SA
ATOM      6  C   UNL d   1       2.273   7.171  -0.032  0.00  0.00     0.081 A 
ENDROOT
BRANCH   4   7
ATOM      7  C   UNL d   1       2.002   3.285  -0.110  0.00  0.00     0.146 C 
BRANCH   7   8
ATOM      8  S   UNL d   1       0.734   2.720  -1.269  0.00  0.00    -0.097 SA
BRANCH   8   9
ATOM      9  C   UNL d   1       1.352   3.165  -2.843  0.00  0.00     0.129 A 
ATOM     10  S   UNL d   1       2.994   3.150  -3.337  0.00  0.00    -0.038 SA
ATOM     11  C   UNL d   1       2.452   3.617  -4.895  0.00  0.00     0.128 A 
ATOM     12  N   UNL d   1       1.147   3.744  -4.998  0.00  0.00    -0.287 N 
ATOM     13  N   UNL d   1       0.508   3.474  -3.805  0.00  0.00    -0.287 N 
ATOM     14  HN  UNL d   1       0.666   4.011  -5.856  1.00  0.00     0.188 HD
ATOM     15  HN  UNL d   1      -0.504   3.510  -3.683  1.00  0.00     0.188 HD
BRANCH  11  16
ATOM     16  S   UNL d   1       3.536   3.892  -6.239  0.00  0.00    -0.108 SA
ATOM     17  C   UNL d   1       2.353   4.301  -7.545  0.00  0.00     0.097 C 
ENDBRANCH  11  16
ENDBRANCH   8   9
ENDBRANCH   7   8
ENDBRANCH   4   7
BRANCH   3  18
ATOM     18  C   UNL d   1       4.731   7.395  -0.495  0.00  0.00    -0.009 A 
ATOM     19  C   UNL d   1       4.707   8.697  -1.016  0.00  0.00     0.015 A 
ATOM     20  C   UNL d   1       5.893   9.419  -1.179  0.00  0.00     0.024 A 
ATOM     21  C   UNL d   1       7.111   8.846  -0.824  0.00  0.00     0.034 A 
ATOM     22  C   UNL d   1       7.154   7.553  -0.309  0.00  0.00     0.024 A 
ATOM     23 CL   UNL d   1       8.568   9.738  -1.026  0.00  0.00    -0.084 Cl
ATOM     24  C   UNL d   1       5.969   6.829  -0.149  0.00  0.00     0.015 A 
ENDBRANCH   3  18
TORSDOF 5
