REMARK  4 active torsions:
REMARK  status: ('A' for Active; 'I' for Inactive)
REMARK    1  A    between atoms: C_6  and  C_1 
REMARK    2  A    between atoms: C_14  and  C_3 
REMARK    3  A    between atoms: S_15  and  C_5 
REMARK    4  A    between atoms: S_16  and  C_10 
ROOT
ATOM      1  C   UNL d   1       1.331  -1.264  -0.058  0.00  0.00     0.045 A 
ATOM      2  C   UNL d   1      -0.683  -0.060   0.087  0.00  0.00     0.080 A 
ATOM      3  C   UNL d   1      -0.062  -1.372   0.010  0.00  0.00     0.016 A 
ATOM      4  S   UNL d   1       1.820   0.389  -0.115  0.00  0.00    -0.079 SA
ATOM      5  C   UNL d   1       0.229   0.972   0.013  0.00  0.00     0.063 A 
ATOM      6  C   UNL d   1      -2.091   0.177   0.238  0.00  0.00     0.102 C 
ATOM      7  N   UNL d   1      -3.234   0.377   0.316  0.00  0.00    -0.191 NA
ENDROOT
BRANCH   3   8
ATOM      8  C   UNL d   1      -0.787  -2.659   0.048  0.00  0.00    -0.023 A 
ATOM      9  C   UNL d   1      -1.957  -2.830  -0.711  0.00  0.00     0.012 A 
ATOM     10  C   UNL d   1      -2.699  -4.013  -0.637  0.00  0.00     0.001 A 
ATOM     11  C   UNL d   1      -2.258  -5.063   0.162  0.00  0.00     0.000 A 
ATOM     12  C   UNL d   1      -1.087  -4.922   0.901  0.00  0.00     0.001 A 
ATOM     13  C   UNL d   1      -0.371  -3.721   0.864  0.00  0.00     0.012 A 
ENDBRANCH   3   8
BRANCH   5  14
ATOM     14  S   UNL d   1      -0.067   2.709   0.095  0.00  0.00    -0.126 SA
ATOM     15  C   UNL d   1      -0.886   2.999  -1.490  0.00  0.00     0.096 C 
ENDBRANCH   5  14
BRANCH   1  16
ATOM     16  C   UNL d   1       2.398  -2.284  -0.120  0.00  0.00     0.053 A 
ATOM     17  N   UNL d   1       2.119  -3.350  -0.892  0.00  0.00    -0.336 N 
ATOM     18  C   UNL d   1       3.037  -4.328  -0.918  0.00  0.00     0.141 A 
ATOM     19  HN  UNL d   1       1.255  -3.411  -1.429  1.00  0.00     0.168 HD
ATOM     20  N   UNL d   1       4.207  -4.313  -0.263  0.00  0.00    -0.347 N 
ATOM     21  C   UNL d   1       4.457  -3.222   0.476  0.00  0.00     0.092 A 
ATOM     22  HN  UNL d   1       4.869  -5.086  -0.324  1.00  0.00     0.167 HD
ATOM     23  C   UNL d   1       3.580  -2.171   0.592  0.00  0.00     0.048 A 
BRANCH  18  24
ATOM     24  S   UNL d   1       2.631  -5.770  -1.852  0.00  0.00    -0.107 SA
ATOM     25  H   UNL d   1       1.420  -5.309  -2.188  0.00  0.00     0.110 HD
ENDBRANCH  18  24
ENDBRANCH   1  16
TORSDOF 4
