REMARK  3 active torsions:
REMARK  status: ('A' for Active; 'I' for Inactive)
REMARK    1  A    between atoms: C_12  and  N_4 
REMARK    2  A    between atoms: N_11  and  C_5 
REMARK    3  A    between atoms: N_18  and  C_10 
ROOT
ATOM      1  C   UNL d   1      -0.037   0.705   0.022  0.00  0.00     0.139 C 
ATOM      2  C   UNL d   1       0.013  -0.654   0.072  0.00  0.00     0.101 C 
ATOM      3  N   UNL d   1      -1.305   1.321  -0.090  0.00  0.00    -0.288 N 
ATOM      4  N   UNL d   1       1.202   1.427   0.004  0.00  0.00    -0.261 N 
ATOM      5  C   UNL d   1       2.414  -0.693  -0.005  0.00  0.00     0.193 C 
ATOM      6  N   UNL d   1      -2.442  -0.733   0.125  0.00  0.00    -0.270 N 
ATOM      7  C   UNL d   1      -2.514   0.634   0.074  0.00  0.00     0.332 C 
ATOM      8  C   UNL d   1      -1.270  -1.423  -0.020  0.00  0.00     0.267 C 
ATOM      9  C   UNL d   1       2.455   0.764  -0.108  0.00  0.00     0.289 C 
ATOM     10  C   UNL d   1       1.285  -1.409   0.119  0.00  0.00     0.064 C 
ATOM     11  O   UNL d   1      -3.596   1.221   0.123  0.00  0.00    -0.246 OA
ATOM     12  O   UNL d   1      -1.259  -2.639  -0.243  0.00  0.00    -0.267 OA
ATOM     13  O   UNL d   1       3.537   1.336  -0.253  0.00  0.00    -0.265 OA
ATOM     14  C   UNL d   1      -1.524   2.720  -0.438  0.00  0.00     0.163 C 
ATOM     15  C   UNL d   1      -3.676  -1.502   0.094  0.00  0.00     0.164 C 
ENDROOT
BRANCH   4  16
ATOM     16  C   UNL d   1       1.324   2.854   0.128  0.00  0.00     0.044 A 
ATOM     17  C   UNL d   1       1.949   3.592  -0.892  0.00  0.00     0.030 A 
ATOM     18  C   UNL d   1       1.977   4.986  -0.844  0.00  0.00     0.002 A 
ATOM     19  C   UNL d   1       1.399   5.654   0.233  0.00  0.00     0.000 A 
ATOM     20  C   UNL d   1       0.830   4.928   1.280  0.00  0.00     0.002 A 
ATOM     21  C   UNL d   1       0.806   3.531   1.239  0.00  0.00     0.030 A 
ENDBRANCH   4  16
BRANCH   5  22
ATOM     22  N   UNL d   1       3.667  -1.390  -0.012  0.00  0.00    -0.108 N 
ATOM     23  O   UNL d   1       3.858  -2.194  -0.938  0.00  0.00    -0.532 OA
ATOM     24  O   UNL d   1       4.444  -1.187   0.934  0.00  0.00    -0.532 OA
ENDBRANCH   5  22
BRANCH  10  25
ATOM     25  N   UNL d   1       1.242  -2.793   0.298  0.00  0.00    -0.300 NA
ATOM     26  H   UNL d   1       0.343  -3.219   0.026  0.00  0.00     0.124 HD
ATOM     27  H   UNL d   1       2.020  -3.313  -0.116  0.00  0.00     0.124 HD
ENDBRANCH  10  25
TORSDOF 3
