REMARK  10 active torsions:
REMARK  status: ('A' for Active; 'I' for Inactive)
REMARK    1  A    between atoms: C_3  and  S_1 
REMARK    2  A    between atoms: N_4  and  S_1 
REMARK    3  A    between atoms: S_2  and  C_3 
REMARK    4  A    between atoms: N_5  and  S_2 
REMARK    5  A    between atoms: C_16  and  N_4 
REMARK    6  A    between atoms: C_17  and  N_5 
REMARK    7  A    between atoms: O_18  and  C_14 
REMARK    8  A    between atoms: O_19  and  C_15 
REMARK    9  A    between atoms: C_22  and  O_18 
REMARK   10  A    between atoms: C_23  and  O_19 
ROOT
ATOM      1  C   UNL d   1       0.590  -1.334  -1.191  0.00  0.00     0.314 C 
ENDROOT
BRANCH   1   2
ATOM      2  S   UNL d   1       1.081  -0.788  -2.792  0.00  0.00     0.228 S 
ATOM      3  O   UNL d   1       0.350   0.401  -3.163  0.00  0.00    -0.210 OA
ATOM      4  O   UNL d   1       2.516  -0.874  -2.951  0.00  0.00    -0.210 OA
BRANCH   2   5
ATOM      5  N   UNL d   1       0.401  -2.010  -3.784  0.00  0.00    -0.183 NA
ATOM      6  H   UNL d   1       0.347  -1.639  -4.738  0.00  0.00     0.146 HD
BRANCH   5   7
ATOM      7  C   UNL d   1       0.990  -3.308  -3.692  0.00  0.00     0.038 A 
ATOM      8  C   UNL d   1       0.432  -4.260  -2.846  0.00  0.00     0.114 A 
ATOM      9  N   UNL d   1       0.953  -5.485  -2.639  0.00  0.00    -0.345 N 
ATOM     10  C   UNL d   1       2.066  -5.797  -3.344  0.00  0.00     0.148 A 
ATOM     11  HN  UNL d   1       0.531  -6.144  -1.985  1.00  0.00     0.167 HD
ATOM     12  C   UNL d   1       2.715  -4.904  -4.187  0.00  0.00     0.058 A 
ATOM     13  C   UNL d   1       2.164  -3.634  -4.362  0.00  0.00     0.030 A 
BRANCH  10  14
ATOM     14  O   UNL d   1       2.619  -7.064  -3.222  0.00  0.00    -0.294 OA
BRANCH  14  15
ATOM     15  C   UNL d   1       1.760  -8.113  -2.972  0.00  0.00     0.078 A 
ATOM     16  C   UNL d   1       0.495  -8.232  -3.563  0.00  0.00     0.040 A 
ATOM     17  C   UNL d   1      -0.313  -9.330  -3.269  0.00  0.00     0.045 A 
ATOM     18  C   UNL d   1       0.161 -10.319  -2.416  0.00  0.00     0.116 A 
ATOM     19  C   UNL d   1       1.432 -10.234  -1.856  0.00  0.00     0.045 A 
ATOM     20  F   UNL d   1      -0.616 -11.372  -2.134  0.00  0.00    -0.206 F 
ATOM     21  C   UNL d   1       2.237  -9.129  -2.139  0.00  0.00     0.040 A 
ENDBRANCH  14  15
ENDBRANCH  10  14
ENDBRANCH   5   7
ENDBRANCH   2   5
ENDBRANCH   1   2
BRANCH   1  22
ATOM     22  S   UNL d   1       1.068  -0.167   0.030  0.00  0.00     0.228 S 
ATOM     23  O   UNL d   1       0.263   1.027  -0.095  0.00  0.00    -0.210 OA
ATOM     24  O   UNL d   1       2.505  -0.115   0.164  0.00  0.00    -0.210 OA
BRANCH  22  25
ATOM     25  N   UNL d   1       0.424  -0.935   1.420  0.00  0.00    -0.183 NA
ATOM     26  H   UNL d   1      -0.127  -0.235   1.929  0.00  0.00     0.146 HD
BRANCH  25  27
ATOM     27  C   UNL d   1       1.342  -1.667   2.236  0.00  0.00     0.038 A 
ATOM     28  C   UNL d   1       2.115  -1.040   3.208  0.00  0.00     0.114 A 
ATOM     29  N   UNL d   1       2.995  -1.689   4.003  0.00  0.00    -0.345 N 
ATOM     30  C   UNL d   1       3.152  -3.014   3.781  0.00  0.00     0.148 A 
ATOM     31  HN  UNL d   1       3.516  -1.204   4.734  1.00  0.00     0.167 HD
ATOM     32  C   UNL d   1       2.430  -3.724   2.831  0.00  0.00     0.058 A 
ATOM     33  C   UNL d   1       1.516  -3.032   2.036  0.00  0.00     0.030 A 
BRANCH  30  34
ATOM     34  O   UNL d   1       4.043  -3.744   4.558  0.00  0.00    -0.294 OA
BRANCH  34  35
ATOM     35  C   UNL d   1       5.165  -3.102   5.032  0.00  0.00     0.078 A 
ATOM     36  C   UNL d   1       5.616  -3.485   6.300  0.00  0.00     0.040 A 
ATOM     37  C   UNL d   1       6.770  -2.908   6.833  0.00  0.00     0.045 A 
ATOM     38  C   UNL d   1       7.469  -1.960   6.092  0.00  0.00     0.116 A 
ATOM     39  C   UNL d   1       7.045  -1.590   4.821  0.00  0.00     0.045 A 
ATOM     40  F   UNL d   1       8.570  -1.401   6.608  0.00  0.00    -0.206 F 
ATOM     41  C   UNL d   1       5.898  -2.174   4.282  0.00  0.00     0.040 A 
ENDBRANCH  34  35
ENDBRANCH  30  34
ENDBRANCH  25  27
ENDBRANCH  22  25
ENDBRANCH   1  22
TORSDOF 10
