REMARK  5 active torsions:
REMARK  status: ('A' for Active; 'I' for Inactive)
REMARK    1  A    between atoms: C_6  and  N_1 
REMARK    2  A    between atoms: N_8  and  N_2 
REMARK       I    between atoms: C_9  and  N_8 
REMARK    3  A    between atoms: C_12  and  C_9 
REMARK    4  A    between atoms: C_26  and  C_25 
REMARK    5  A    between atoms: C_27  and  C_26 
ROOT
ATOM      1  N   UNL d   1      -0.850  -0.359  -1.609  0.00  0.00    -0.308 N 
ATOM      2  N   UNL d   1       0.791   1.162  -0.071  0.00  0.00    -0.248 N 
ATOM      3  C   UNL d   1       0.363   0.012  -2.217  0.00  0.00     0.244 C 
ATOM      4  C   UNL d   1      -0.404   0.726   0.478  0.00  0.00     0.257 C 
ATOM      5  C   UNL d   1       1.431   0.510  -1.216  0.00  0.00     0.255 C 
ATOM      6  C   UNL d   1      -0.866  -0.565  -0.158  0.00  0.00     0.236 C 
ATOM      7  O   UNL d   1      -1.010   1.301   1.375  0.00  0.00    -0.270 OA
ATOM      8  O   UNL d   1       0.598  -0.066  -3.418  0.00  0.00    -0.271 OA
ENDROOT
BRANCH   2   9
ATOM      9  N   UNL d   1       1.385   2.319   0.439  0.00  0.00    -0.261 N 
ATOM     10  C   UNL d   1       2.691   2.318   0.908  0.00  0.00     0.270 C 
ATOM     11  O   UNL d   1       3.457   1.367   0.826  0.00  0.00    -0.266 OA
ATOM     12  H   UNL d   1       0.741   3.076   0.656  0.00  0.00     0.190 HD
BRANCH  10  13
ATOM     13  C   UNL d   1       3.155   3.639   1.423  0.00  0.00     0.033 A 
ATOM     14  C   UNL d   1       2.305   4.512   2.120  0.00  0.00     0.017 A 
ATOM     15  C   UNL d   1       2.719   5.821   2.398  0.00  0.00     0.008 A 
ATOM     16  C   UNL d   1       3.983   6.267   1.989  0.00  0.00    -0.058 A 
ATOM     17  C   UNL d   1       4.862   5.357   1.387  0.00  0.00     0.008 A 
ATOM     18  C   UNL d   1       4.454   4.054   1.103  0.00  0.00     0.017 A 
BRANCH  16  19
ATOM     19  C   UNL d   1       4.372   7.718   2.161  0.00  0.00     0.038 C 
BRANCH  19  20
ATOM     20  C   UNL d   1       4.676   8.436   0.837  0.00  0.00     0.000 C 
ATOM     21  C   UNL d   1       3.488   8.483  -0.117  0.00  0.00     0.005 C 
ENDBRANCH  19  20
ENDBRANCH  16  19
ENDBRANCH  10  13
ENDBRANCH   2   9
BRANCH   1  22
ATOM     22  C   UNL d   1      -2.027  -0.669  -2.336  0.00  0.00     0.041 A 
ATOM     23  C   UNL d   1      -2.006  -1.497  -3.462  0.00  0.00     0.053 A 
ATOM     24  C   UNL d   1      -3.205  -1.835  -4.098  0.00  0.00     0.037 A 
ATOM     25 CL   UNL d   1      -3.191  -2.939  -5.419  0.00  0.00    -0.084 Cl
ATOM     26  C   UNL d   1      -4.421  -1.314  -3.661  0.00  0.00     0.048 A 
ATOM     27  C   UNL d   1      -4.435  -0.456  -2.568  0.00  0.00     0.037 A 
ATOM     28  C   UNL d   1      -3.253  -0.148  -1.896  0.00  0.00     0.053 A 
ATOM     29 CL   UNL d   1      -5.918   0.232  -2.034  0.00  0.00    -0.084 Cl
ENDBRANCH   1  22
TORSDOF 5
