REMARK  5 active torsions:
REMARK  status: ('A' for Active; 'I' for Inactive)
REMARK    1  A    between atoms: C_2  and  S_1 
REMARK    2  A    between atoms: N_6  and  S_1 
REMARK    3  A    between atoms: C_7  and  C_3 
REMARK    4  A    between atoms: C_12  and  N_6 
REMARK    5  A    between atoms: O_13  and  C_7 
ROOT
ATOM      1  S   UNL d   1       0.884   0.297   0.198  0.00  0.00     0.265 S 
ATOM      2  O   UNL d   1       0.469  -0.941  -0.429  0.00  0.00    -0.200 OA
ATOM      3  O   UNL d   1       2.293   0.592   0.337  0.00  0.00    -0.200 OA
ENDROOT
BRANCH   1   4
ATOM      4  C   UNL d   1       0.248   0.189   1.822  0.00  0.00     0.109 C 
ATOM      5  C   UNL d   1      -0.976  -0.412   2.089  0.00  0.00     0.103 C 
ATOM      6  S   UNL d   1      -1.256  -0.520   3.778  0.00  0.00    -0.094 SA
ATOM      7  C   UNL d   1       0.167   0.336   4.138  0.00  0.00     0.059 C 
ATOM      8  C   UNL d   1       0.881   0.709   3.014  0.00  0.00    -0.031 C 
ATOM      9  C   UNL d   1       2.131   1.524   3.109  0.00  0.00     0.050 C 
BRANCH   5  10
ATOM     10  C   UNL d   1      -1.994  -0.867   1.156  0.00  0.00     0.301 C 
ATOM     11  O   UNL d   1      -2.249  -0.336   0.080  0.00  0.00    -0.259 OA
BRANCH  10  12
ATOM     12  O   UNL d   1      -2.671  -1.938   1.665  0.00  0.00    -0.322 OA
ATOM     13  C   UNL d   1      -3.751  -2.418   0.857  0.00  0.00     0.213 C 
ENDBRANCH  10  12
ENDBRANCH   5  10
ENDBRANCH   1   4
BRANCH   1  14
ATOM     14  N   UNL d   1       0.096   1.556  -0.582  0.00  0.00    -0.281 N 
ATOM     15  H   UNL d   1      -0.068   1.332  -1.563  0.00  0.00     0.179 HD
BRANCH  14  16
ATOM     16  C   UNL d   1       0.482   2.900  -0.324  0.00  0.00     0.042 A 
ATOM     17  C   UNL d   1       1.687   3.413  -0.802  0.00  0.00     0.030 A 
ATOM     18  C   UNL d   1       1.952   4.782  -0.695  0.00  0.00     0.009 A 
ATOM     19  C   UNL d   1       1.010   5.647  -0.123  0.00  0.00    -0.062 A 
ATOM     20  C   UNL d   1      -0.185   5.117   0.375  0.00  0.00     0.009 A 
ATOM     21  C   UNL d   1       1.261   7.127  -0.110  0.00  0.00     0.048 C 
ATOM     22  C   UNL d   1      -0.450   3.747   0.270  0.00  0.00     0.030 A 
ENDBRANCH  14  16
ENDBRANCH   1  14
TORSDOF 5
