REMARK  5 active torsions:
REMARK  status: ('A' for Active; 'I' for Inactive)
REMARK    1  A    between atoms: C_2  and  C_1 
REMARK    2  A    between atoms: C_4  and  C_3 
REMARK    3  A    between atoms: S_11  and  C_6 
REMARK    4  A    between atoms: C_10  and  C_14 
REMARK    5  A    between atoms: C_14  and  S_11 
ROOT
ATOM      1  C   UNL d   1       0.845   1.174   0.077  0.00  0.00     0.082 A 
ATOM      2  C   UNL d   1       0.845  -1.269  -0.004  0.00  0.00     0.064 A 
ATOM      3  C   UNL d   1       1.538  -0.056   0.017  0.00  0.00     0.036 A 
ATOM      4  C   UNL d   1      -0.546   1.134   0.129  0.00  0.00     0.085 A 
ATOM      5  N   UNL d   1      -1.225  -0.041   0.090  0.00  0.00    -0.359 N 
ATOM      6  HN  UNL d   1      -2.245  -0.049   0.111  1.00  0.00     0.166 HD
ATOM      7  C   UNL d   1      -0.533  -1.201   0.023  0.00  0.00     0.105 A 
ENDROOT
BRANCH   4   8
ATOM      8  S   UNL d   1      -1.569   2.601   0.208  0.00  0.00    -0.107 SA
BRANCH   8   9
ATOM      9  C   UNL d   1      -3.115   1.893   0.889  0.00  0.00     0.121 C 
BRANCH   9  10
ATOM     10  C   UNL d   1      -4.265   2.882   0.926  0.00  0.00    -0.027 A 
ATOM     11  C   UNL d   1      -4.878   3.312   2.115  0.00  0.00     0.042 A 
ATOM     12  C   UNL d   1      -5.991   4.163   2.087  0.00  0.00     0.048 A 
ATOM     13 CL   UNL d   1      -4.328   2.804   3.675  0.00  0.00    -0.084 Cl
ATOM     14  C   UNL d   1      -6.502   4.594   0.865  0.00  0.00     0.035 A 
ATOM     15  C   UNL d   1      -5.913   4.185  -0.325  0.00  0.00     0.024 A 
ATOM     16 CL   UNL d   1      -7.878   5.625   0.830  0.00  0.00    -0.084 Cl
ATOM     17  C   UNL d   1      -4.805   3.334  -0.295  0.00  0.00     0.011 A 
ENDBRANCH   9  10
ENDBRANCH   8   9
ENDBRANCH   4   8
BRANCH   1  18
ATOM     18  C   UNL d   1       1.615   2.462   0.085  0.00  0.00     0.420 C 
ATOM     19  F   UNL d   1       2.968   2.260   0.061  0.00  0.00    -0.166 F 
ATOM     20  F   UNL d   1       1.358   3.251  -0.992  0.00  0.00    -0.166 F 
ATOM     21  F   UNL d   1       1.393   3.220   1.192  0.00  0.00    -0.166 F 
ENDBRANCH   1  18
BRANCH   2  22
ATOM     22  C   UNL d   1       1.526  -2.603  -0.047  0.00  0.00     0.418 C 
ATOM     23  F   UNL d   1       2.884  -2.517  -0.046  0.00  0.00    -0.166 F 
ATOM     24  F   UNL d   1       1.200  -3.385   1.018  0.00  0.00    -0.166 F 
ATOM     25  F   UNL d   1       1.196  -3.321  -1.155  0.00  0.00    -0.166 F 
ENDBRANCH   2  22
TORSDOF 5
