REMARK  7 active torsions:
REMARK  status: ('A' for Active; 'I' for Inactive)
REMARK    1  A    between atoms: N_9  and  C_1 
REMARK    2  A    between atoms: N_6  and  C_2 
REMARK    3  A    between atoms: C_13  and  C_3 
REMARK    4  A    between atoms: C_8  and  N_6 
REMARK    5  A    between atoms: N_11  and  C_8 
REMARK       I    between atoms: C_12  and  N_11 
REMARK    6  A    between atoms: C_20  and  C_12 
REMARK    7  A    between atoms: C_21  and  N_14 
ROOT
ATOM      1  C   UNL d   1       1.172   0.603  -0.238  0.00  0.00     0.118 A 
ATOM      2  C   UNL d   1       1.203  -0.782  -0.155  0.00  0.00     0.152 A 
ATOM      3  C   UNL d   1      -0.201   0.927  -0.424  0.00  0.00     0.062 A 
ATOM      4  N   UNL d   1      -0.957  -0.175  -0.514  0.00  0.00    -0.300 N 
ATOM      5  HN  UNL d   1      -1.968  -0.234  -0.638  1.00  0.00     0.186 HD
ATOM      6  N   UNL d   1      -0.085  -1.175  -0.405  0.00  0.00    -0.283 N 
ATOM      7  H   UNL d   1      -0.442  -2.125  -0.452  0.00  0.00     0.188 HD
ENDROOT
BRANCH   2   8
ATOM      8  N   UNL d   1       2.274  -1.613   0.186  0.00  0.00    -0.316 N 
ATOM      9  H   UNL d   1       3.056  -1.180   0.690  0.00  0.00     0.170 HD
BRANCH   8  10
ATOM     10  C   UNL d   1       2.285  -3.029  -0.022  0.00  0.00     0.180 C 
ATOM     11  S   UNL d   1       1.370  -3.909  -1.105  0.00  0.00    -0.040 SA
BRANCH  10  12
ATOM     12  N   UNL d   1       3.146  -3.720   0.797  0.00  0.00    -0.299 N 
ATOM     13  C   UNL d   1       3.845  -3.224   1.878  0.00  0.00     0.257 C 
ATOM     14  O   UNL d   1       4.067  -2.019   1.992  0.00  0.00    -0.267 OA
ATOM     15  H   UNL d   1       3.082  -4.718   0.664  0.00  0.00     0.171 HD
BRANCH  13  16
ATOM     16  C   UNL d   1       4.358  -4.212   2.888  0.00  0.00     0.032 A 
ATOM     17  C   UNL d   1       4.074  -5.587   2.852  0.00  0.00     0.017 A 
ATOM     18  C   UNL d   1       4.568  -6.440   3.847  0.00  0.00     0.001 A 
ATOM     19  C   UNL d   1       5.340  -5.932   4.888  0.00  0.00     0.000 A 
ATOM     20  C   UNL d   1       5.620  -4.570   4.940  0.00  0.00     0.001 A 
ATOM     21  C   UNL d   1       5.133  -3.715   3.948  0.00  0.00     0.017 A 
ENDBRANCH  13  16
ENDBRANCH  10  12
ENDBRANCH   8  10
ENDBRANCH   2   8
BRANCH   1  22
ATOM     22  N   UNL d   1       2.267   1.481  -0.114  0.00  0.00    -0.295 N 
ATOM     23  N   UNL d   1       3.276   1.047  -0.717  0.00  0.00    -0.300 N 
ATOM     24  HN  UNL d   1       3.250   0.218  -1.311  1.00  0.00     0.187 HD
ATOM     25  HN  UNL d   1       2.242   2.360   0.404  1.00  0.00     0.187 HD
BRANCH  23  26
ATOM     26  C   UNL d   1       4.452   1.800  -0.508  0.00  0.00     0.048 A 
ATOM     27  C   UNL d   1       4.486   3.196  -0.365  0.00  0.00     0.032 A 
ATOM     28  C   UNL d   1       5.700   3.869  -0.173  0.00  0.00     0.026 A 
ATOM     29  C   UNL d   1       6.900   3.157  -0.134  0.00  0.00     0.034 A 
ATOM     30  C   UNL d   1       6.891   1.772  -0.303  0.00  0.00     0.026 A 
ATOM     31 CL   UNL d   1       8.383   3.980   0.116  0.00  0.00    -0.084 Cl
ATOM     32  C   UNL d   1       5.675   1.108  -0.494  0.00  0.00     0.032 A 
ENDBRANCH  23  26
ENDBRANCH   1  22
BRANCH   3  33
ATOM     33  C   UNL d   1      -0.942   2.253  -0.522  0.00  0.00     0.040 A 
ATOM     34  C   UNL d   1      -0.380   3.421  -1.289  0.00  0.00     0.011 A 
ATOM     35  C   UNL d   1      -0.469   3.488   0.199  0.00  0.00     0.011 A 
ENDBRANCH   3  33
TORSDOF 7
