REMARK  5 active torsions:
REMARK  status: ('A' for Active; 'I' for Inactive)
REMARK    1  A    between atoms: C_2  and  C_1 
REMARK    2  A    between atoms: C_13  and  C_8 
REMARK    3  A    between atoms: N_9  and  C_12 
REMARK    4  A    between atoms: O_14  and  C_11 
REMARK    5  A    between atoms: C_19  and  O_14 
ROOT
ATOM      1  C   UNL d   1      -0.756  -2.433  -0.152  0.00  0.00     0.053 A 
ATOM      2  C   UNL d   1      -1.523  -2.947  -1.216  0.00  0.00     0.054 A 
ATOM      3  C   UNL d   1      -0.380  -3.313   0.890  0.00  0.00     0.090 A 
ATOM      4  C   UNL d   1      -1.853  -4.310  -1.266  0.00  0.00     0.104 A 
ATOM      5  C   UNL d   1      -0.649  -4.690   0.782  0.00  0.00     0.041 A 
ATOM      6  C   UNL d   1      -1.399  -5.189  -0.280  0.00  0.00     0.039 A 
ENDROOT
BRANCH   1   7
ATOM      7  C   UNL d   1      -0.306  -1.041  -0.188  0.00  0.00     0.177 A 
ATOM      8  O   UNL d   1      -1.031  -0.154  -0.954  0.00  0.00    -0.273 OA
ATOM      9  C   UNL d   1      -0.299   1.002  -0.817  0.00  0.00     0.174 A 
ATOM     10  N   UNL d   1       0.769   0.831  -0.065  0.00  0.00    -0.277 N 
ATOM     11  N   UNL d   1       0.759  -0.484   0.347  0.00  0.00    -0.277 N 
ATOM     12  HN  UNL d   1       1.469   1.535   0.168  1.00  0.00     0.189 HD
ATOM     13  HN  UNL d   1       1.445  -0.938   0.951  1.00  0.00     0.189 HD
BRANCH   9  14
ATOM     14  C   UNL d   1      -0.804   2.227  -1.434  0.00  0.00     0.018 A 
ATOM     15  C   UNL d   1      -2.000   2.271  -2.163  0.00  0.00     0.039 A 
ATOM     16  C   UNL d   1      -2.482   3.491  -2.651  0.00  0.00     0.035 A 
ATOM     17 CL   UNL d   1      -3.974   3.537  -3.511  0.00  0.00    -0.084 Cl
ATOM     18  C   UNL d   1      -1.781   4.676  -2.435  0.00  0.00     0.024 A 
ATOM     19  C   UNL d   1      -0.575   4.642  -1.742  0.00  0.00     0.003 A 
ATOM     20  C   UNL d   1      -0.090   3.426  -1.250  0.00  0.00     0.016 A 
ENDBRANCH   9  14
ENDBRANCH   1   7
BRANCH   3  21
ATOM     21  O   UNL d   1       0.286  -2.796   1.990  0.00  0.00    -0.308 OA
BRANCH  21  22
ATOM     22  C   UNL d   1       0.125  -3.402   3.216  0.00  0.00     0.093 A 
ATOM     23  C   UNL d   1      -1.096  -3.866   3.711  0.00  0.00     0.064 A 
ATOM     24  C   UNL d   1      -1.125  -4.526   4.936  0.00  0.00     0.052 A 
ATOM     25 CL   UNL d   1      -2.589  -5.204   5.526  0.00  0.00    -0.083 Cl
ATOM     26  C   UNL d   1       0.055  -4.651   5.653  0.00  0.00     0.111 A 
ATOM     27  N   UNL d   1       1.245  -4.160   5.229  0.00  0.00    -0.371 N 
ATOM     28  C   UNL d   1       1.249  -3.541   4.021  0.00  0.00     0.124 A 
ATOM     29  HN  UNL d   1       2.093  -4.251   5.788  1.00  0.00     0.164 HD
ENDBRANCH  21  22
ENDBRANCH   3  21
BRANCH   4  30
ATOM     30  N   UNL d   1      -2.663  -4.829  -2.374  0.00  0.00    -0.116 N 
ATOM     31  O   UNL d   1      -3.023  -4.024  -3.245  0.00  0.00    -0.532 OA
ATOM     32  O   UNL d   1      -2.943  -6.035  -2.369  0.00  0.00    -0.532 OA
ENDBRANCH   4  30
TORSDOF 5
