REMARK  1 active torsions:
REMARK  status: ('A' for Active; 'I' for Inactive)
REMARK    1  A    between atoms: N_5  and  C_6 
ROOT
ATOM      1  C   UNL d   1      -3.916  -0.341   1.095  0.00  0.00     0.154 C 
ATOM      2  N   UNL d   1      -4.607  -0.028   2.373  0.00  0.00    -0.352 N 
ATOM      3  O   UNL d   1      -3.043  -1.494   1.187  0.00  0.00    -0.316 OA
ATOM      4  C   UNL d   1      -3.017   0.971   0.911  0.00  0.00     0.033 C 
ATOM      5  C   UNL d   1      -2.294  -3.499   0.067  0.00  0.00     0.136 A 
ATOM      6  C   UNL d   1      -3.294  -2.563   0.355  0.00  0.00     0.111 A 
ATOM      7  C   UNL d   1      -4.934   1.332   2.244  0.00  0.00     0.039 A 
ATOM      8  C   UNL d   1      -5.026  -0.539   0.031  0.00  0.00     0.067 C 
ATOM      9  C   UNL d   1      -4.041   1.988   1.371  0.00  0.00    -0.019 A 
ATOM     10  C   UNL d   1      -5.604  -1.752  -0.061  0.00  0.00     0.046 C 
ATOM     11  C   UNL d   1      -4.572  -2.785  -0.185  0.00  0.00    -0.022 A 
ATOM     12  C   UNL d   1      -5.425  -0.952   3.111  0.00  0.00     0.153 C 
ATOM     13  C   UNL d   1      -2.586  -4.674  -0.649  0.00  0.00     0.039 A 
ATOM     14  C   UNL d   1      -1.830   0.996   1.910  0.00  0.00     0.025 C 
ATOM     15  C   UNL d   1      -2.451   1.190  -0.493  0.00  0.00     0.025 C 
ATOM     16  C   UNL d   1      -5.996   2.026   2.795  0.00  0.00     0.030 A 
ATOM     17  C   UNL d   1      -4.201   3.318   1.021  0.00  0.00     0.010 A 
ATOM     18  C   UNL d   1      -3.886  -4.916  -1.098  0.00  0.00     0.003 A 
ATOM     19  C   UNL d   1      -4.877  -3.964  -0.880  0.00  0.00     0.010 A 
ATOM     20  C   UNL d   1      -5.295   4.003   1.549  0.00  0.00     0.001 A 
ATOM     21  C   UNL d   1      -6.184   3.363   2.428  0.00  0.00     0.002 A 
ENDROOT
BRANCH   5  22
ATOM     22  N   UNL d   1      -0.897  -3.238   0.401  0.00  0.00    -0.113 N 
ATOM     23  O   UNL d   1      -0.492  -2.068   0.345  0.00  0.00    -0.532 OA
ATOM     24  O   UNL d   1      -0.177  -4.222   0.632  0.00  0.00    -0.532 OA
ENDBRANCH   5  22
TORSDOF 1
