REMARK  2 active torsions:
REMARK  status: ('A' for Active; 'I' for Inactive)
REMARK    1  A    between atoms: S_10  and  C_4 
REMARK    2  A    between atoms: C_9  and  C_5 
ROOT
ATOM      1  C   UNL d   1      -0.315  -1.335  -0.027  0.00  0.00     0.108 A 
ATOM      2  N   UNL d   1      -0.473   0.929  -0.055  0.00  0.00    -0.296 N 
ATOM      3  HN  UNL d   1      -0.830   1.884  -0.088  1.00  0.00     0.187 HD
ATOM      4  C   UNL d   1       0.972  -0.830  -0.022  0.00  0.00     0.109 A 
ATOM      5  C   UNL d   1      -1.188  -0.207  -0.017  0.00  0.00     0.082 A 
ATOM      6  N   UNL d   1       0.816   0.536  -0.040  0.00  0.00    -0.288 N 
ATOM      7  C   UNL d   1      -0.705  -2.702  -0.049  0.00  0.00     0.104 C 
ATOM      8  N   UNL d   1      -1.021  -3.820  -0.046  0.00  0.00    -0.191 NA
ATOM      9  C   UNL d   1       1.817   1.581  -0.037  0.00  0.00     0.178 C 
ENDROOT
BRANCH   4  10
ATOM     10  S   UNL d   1       2.570  -1.531  -0.008  0.00  0.00    -0.114 SA
ATOM     11  C   UNL d   1       2.333  -3.313   0.099  0.00  0.00     0.097 C 
ENDBRANCH   4  10
BRANCH   5  12
ATOM     12  C   UNL d   1      -2.659  -0.161   0.013  0.00  0.00    -0.006 A 
ATOM     13  C   UNL d   1      -3.344   0.894  -0.612  0.00  0.00     0.014 A 
ATOM     14  C   UNL d   1      -4.741   0.953  -0.594  0.00  0.00     0.001 A 
ATOM     15  C   UNL d   1      -5.474  -0.042   0.049  0.00  0.00     0.000 A 
ATOM     16  C   UNL d   1      -4.810  -1.087   0.684  0.00  0.00     0.001 A 
ATOM     17  C   UNL d   1      -3.413  -1.141   0.674  0.00  0.00     0.014 A 
ENDBRANCH   5  12
TORSDOF 2
