REMARK  10 active torsions:
REMARK  status: ('A' for Active; 'I' for Inactive)
REMARK    1  A    between atoms: O_10  and  C_1 
REMARK    2  A    between atoms: O_9  and  C_2 
REMARK    3  A    between atoms: C_12  and  C_3 
REMARK    4  A    between atoms: C_11  and  C_4 
REMARK    5  A    between atoms: C_5  and  O_10 
REMARK    6  A    between atoms: C_13  and  C_5 
REMARK    7  A    between atoms: C_6  and  O_9 
REMARK    8  A    between atoms: C_14  and  C_6 
REMARK    9  A    between atoms: C_15  and  C_18 
REMARK   10  A    between atoms: C_16  and  C_17 
ROOT
ATOM      1  C   UNL d   1       1.261  -0.347   0.397  0.00  0.00     0.087 C 
ATOM      2  C   UNL d   1      -1.391   0.458   0.055  0.00  0.00     0.087 C 
ATOM      3  C   UNL d   1       0.365  -1.226  -0.249  0.00  0.00    -0.014 C 
ATOM      4  C   UNL d   1      -0.467   1.419   0.524  0.00  0.00    -0.014 C 
ATOM      5  C   UNL d   1      -0.977  -0.833  -0.295  0.00  0.00     0.048 C 
ATOM      6  C   UNL d   1       0.868   0.953   0.766  0.00  0.00     0.048 C 
ENDROOT
BRANCH   1   7
ATOM      7  O   UNL d   1       2.599  -0.880   0.645  0.00  0.00    -0.274 OA
BRANCH   7   8
ATOM      8  C   UNL d   1       3.766  -0.620   1.402  0.00  0.00     0.298 C 
ATOM      9  O   UNL d   1       3.918   0.329   2.144  0.00  0.00    -0.259 OA
BRANCH   8  10
ATOM     10  C   UNL d   1       4.822  -1.680   1.102  0.00  0.00     0.040 A 
ATOM     11  C   UNL d   1       6.152  -1.504   1.495  0.00  0.00     0.018 A 
ATOM     12  C   UNL d   1       7.162  -2.409   1.076  0.00  0.00     0.009 A 
ATOM     13  C   UNL d   1       6.882  -3.508   0.241  0.00  0.00    -0.051 A 
ATOM     14  C   UNL d   1       5.532  -3.749  -0.019  0.00  0.00     0.009 A 
ATOM     15  C   UNL d   1       4.537  -2.853   0.402  0.00  0.00     0.018 A 
BRANCH  13  16
ATOM     16  C   UNL d   1       7.969  -4.386  -0.420  0.00  0.00    -0.024 C 
ATOM     17  C   UNL d   1       7.594  -4.721  -1.890  0.00  0.00     0.019 C 
ATOM     18  C   UNL d   1       9.342  -3.680  -0.478  0.00  0.00     0.019 C 
ATOM     19  C   UNL d   1       8.139  -5.717   0.340  0.00  0.00     0.019 C 
ENDBRANCH  13  16
ENDBRANCH   8  10
ENDBRANCH   7   8
ENDBRANCH   1   7
BRANCH   3  20
ATOM     20  C   UNL d   1       0.796  -2.552  -0.888  0.00  0.00    -0.021 C 
ATOM     21  C   UNL d   1       1.073  -3.567   0.238  0.00  0.00     0.019 C 
ATOM     22  C   UNL d   1      -0.279  -3.210  -1.798  0.00  0.00     0.019 C 
ATOM     23  C   UNL d   1       1.981  -2.308  -1.859  0.00  0.00     0.019 C 
ENDBRANCH   3  20
BRANCH   4  24
ATOM     24  C   UNL d   1      -0.868   2.897   0.762  0.00  0.00    -0.021 C 
ATOM     25  C   UNL d   1      -1.422   3.047   2.190  0.00  0.00     0.019 C 
ATOM     26  C   UNL d   1       0.326   3.868   0.591  0.00  0.00     0.019 C 
ATOM     27  C   UNL d   1      -1.942   3.417  -0.233  0.00  0.00     0.019 C 
ENDBRANCH   4  24
BRANCH   2  28
ATOM     28  O   UNL d   1      -2.790   0.726   0.019  0.00  0.00    -0.274 OA
BRANCH  28  29
ATOM     29  C   UNL d   1      -3.525   0.293  -1.085  0.00  0.00     0.298 C 
ATOM     30  O   UNL d   1      -3.067  -0.171  -2.123  0.00  0.00    -0.259 OA
BRANCH  29  31
ATOM     31  C   UNL d   1      -4.998   0.414  -0.881  0.00  0.00     0.040 A 
ATOM     32  C   UNL d   1      -5.833  -0.295  -1.755  0.00  0.00     0.018 A 
ATOM     33  C   UNL d   1      -7.226  -0.160  -1.694  0.00  0.00     0.009 A 
ATOM     34  C   UNL d   1      -7.837   0.706  -0.773  0.00  0.00    -0.051 A 
ATOM     35  C   UNL d   1      -6.987   1.355   0.147  0.00  0.00     0.009 A 
ATOM     36  C   UNL d   1      -5.586   1.218   0.094  0.00  0.00     0.018 A 
BRANCH  34  37
ATOM     37  C   UNL d   1      -9.366   0.927  -0.774  0.00  0.00    -0.024 C 
ATOM     38  C   UNL d   1      -9.743   2.370  -0.364  0.00  0.00     0.019 C 
ATOM     39  C   UNL d   1      -9.997   0.699  -2.171  0.00  0.00     0.019 C 
ATOM     40  C   UNL d   1     -10.026  -0.052   0.215  0.00  0.00     0.019 C 
ENDBRANCH  34  37
ENDBRANCH  29  31
ENDBRANCH  28  29
ENDBRANCH   2  28
TORSDOF 10
