REMARK  5 active torsions:
REMARK  status: ('A' for Active; 'I' for Inactive)
REMARK    1  A    between atoms: C_14  and  N_1 
REMARK    2  A    between atoms: C_10  and  C_5 
REMARK    3  A    between atoms: S_6  and  C_13 
REMARK    4  A    between atoms: N_8  and  S_6 
REMARK    5  A    between atoms: N_28  and  C_12 
ROOT
ATOM      1  N   UNL d   1       1.000  -0.614  -0.169  0.00  0.00    -0.255 N 
ATOM      2  C   UNL d   1       0.808   0.688   0.284  0.00  0.00     0.076 C 
ATOM      3  N   UNL d   1      -0.140  -1.114  -0.720  0.00  0.00    -0.289 N 
ATOM      4  HN  UNL d   1      -0.242  -1.974  -1.259  1.00  0.00     0.187 HD
ATOM      5  C   UNL d   1      -1.104  -0.230  -0.403  0.00  0.00     0.135 C 
ATOM      6  C   UNL d   1      -0.558   0.887   0.274  0.00  0.00     0.069 C 
ATOM      7  C   UNL d   1       1.837   1.662   0.541  0.00  0.00     0.033 A 
ATOM      8  S   UNL d   1       1.681   2.847   1.770  0.00  0.00    -0.100 SA
ATOM      9  C   UNL d   1       3.010   1.839  -0.172  0.00  0.00     0.021 A 
ATOM     10  C   UNL d   1       3.164   3.585   1.344  0.00  0.00     0.050 A 
ATOM     11  C   UNL d   1       3.780   2.940   0.297  0.00  0.00     0.008 A 
ENDROOT
BRANCH   1  12
ATOM     12  C   UNL d   1       2.181  -1.412  -0.143  0.00  0.00     0.057 A 
ATOM     13  C   UNL d   1       3.161  -1.221   0.843  0.00  0.00     0.033 A 
ATOM     14  C   UNL d   1       4.334  -1.978   0.823  0.00  0.00     0.027 A 
ATOM     15  C   UNL d   1       4.528  -2.926  -0.184  0.00  0.00     0.080 A 
ATOM     16  C   UNL d   1       3.541  -3.155  -1.147  0.00  0.00     0.027 A 
ATOM     17  C   UNL d   1       2.360  -2.407  -1.117  0.00  0.00     0.033 A 
BRANCH  15  18
ATOM     18  S   UNL d   1       6.023  -3.905  -0.196  0.00  0.00     0.263 S 
ATOM     19  O   UNL d   1       6.517  -3.929   1.169  0.00  0.00    -0.200 OA
ATOM     20  O   UNL d   1       5.709  -5.147  -0.873  0.00  0.00    -0.200 OA
BRANCH  18  21
ATOM     21  N   UNL d   1       7.034  -3.029  -1.113  0.00  0.00    -0.277 N 
ATOM     22  C   UNL d   1       8.208  -3.530  -1.277  0.00  0.00     0.188 C 
ATOM     23  HN  UNL d   1       6.757  -2.141  -1.532  1.00  0.00     0.179 HD
BRANCH  22  24
ATOM     24  N   UNL d   1       9.237  -2.979  -2.008  0.00  0.00    -0.385 N 
ATOM     25  C   UNL d   1      10.539  -3.619  -2.114  0.00  0.00     0.149 C 
ATOM     26  C   UNL d   1       9.086  -1.727  -2.733  0.00  0.00     0.149 C 
ENDBRANCH  22  24
ENDBRANCH  18  21
ENDBRANCH  15  18
ENDBRANCH   1  12
BRANCH   5  27
ATOM     27  C   UNL d   1      -2.547  -0.393  -0.804  0.00  0.00     0.434 C 
ATOM     28  F   UNL d   1      -2.792  -1.509  -1.538  0.00  0.00    -0.165 F 
ATOM     29  F   UNL d   1      -3.367  -0.446   0.280  0.00  0.00    -0.165 F 
ATOM     30  F   UNL d   1      -2.973   0.665  -1.551  0.00  0.00    -0.165 F 
ENDBRANCH   5  27
TORSDOF 5
