REMARK  6 active torsions:
REMARK  status: ('A' for Active; 'I' for Inactive)
REMARK    1  A    between atoms: C_10  and  C_5 
REMARK    2  A    between atoms: S_13  and  C_8 
REMARK    3  A    between atoms: O_20  and  C_9 
REMARK    4  A    between atoms: C_11  and  C_19 
REMARK       I    between atoms: N_12  and  C_11 
REMARK    5  A    between atoms: C_14  and  N_12 
REMARK    6  A    between atoms: C_19  and  S_13 
ROOT
ATOM      1  N   UNL d   1      -0.079   1.336  -0.751  0.00  0.00    -0.322 N 
ATOM      2  HN  UNL d   1       0.178   2.152  -1.306  1.00  0.00     0.169 HD
ATOM      3  N   UNL d   1      -1.096  -0.777  -0.590  0.00  0.00    -0.307 N 
ATOM      4  HN  UNL d   1      -1.640  -1.540  -0.994  1.00  0.00     0.171 HD
ATOM      5  C   UNL d   1      -0.803   0.337  -1.253  0.00  0.00     0.120 A 
ATOM      6  N   UNL d   1       0.056   0.137   1.274  0.00  0.00    -0.302 N 
ATOM      7  HN  UNL d   1       0.366   0.055   2.243  1.00  0.00     0.171 HD
ATOM      8  C   UNL d   1       0.286   1.200   0.517  0.00  0.00     0.149 A 
ATOM      9  C   UNL d   1      -0.616  -0.804   0.642  0.00  0.00     0.224 A 
ENDROOT
BRANCH   8  10
ATOM     10  S   UNL d   1       0.993   2.614   1.328  0.00  0.00    -0.084 SA
BRANCH  10  11
ATOM     11  C   UNL d   1       0.477   3.918   0.172  0.00  0.00     0.185 C 
BRANCH  11  12
ATOM     12  C   UNL d   1      -1.027   3.990  -0.077  0.00  0.00     0.231 C 
ATOM     13  N   UNL d   1      -1.831   3.720   1.019  0.00  0.00    -0.326 N 
ATOM     14  H   UNL d   1      -1.362   3.594   1.909  0.00  0.00     0.169 HD
ATOM     15  O   UNL d   1      -1.431   4.371  -1.176  0.00  0.00    -0.272 OA
BRANCH  13  16
ATOM     16  C   UNL d   1      -3.244   3.783   1.043  0.00  0.00     0.036 A 
ATOM     17  C   UNL d   1      -4.028   3.806  -0.114  0.00  0.00     0.053 A 
ATOM     18  C   UNL d   1      -5.409   3.989  -0.024  0.00  0.00     0.036 A 
ATOM     19 CL   UNL d   1      -6.355   4.061  -1.460  0.00  0.00    -0.084 Cl
ATOM     20  C   UNL d   1      -6.026   4.129   1.215  0.00  0.00     0.024 A 
ATOM     21  C   UNL d   1      -5.260   4.043   2.377  0.00  0.00     0.004 A 
ATOM     22  C   UNL d   1      -3.876   3.853   2.291  0.00  0.00     0.029 A 
ENDBRANCH  13  16
ENDBRANCH  11  12
ENDBRANCH  10  11
ENDBRANCH   8  10
BRANCH   9  23
ATOM     23  O   UNL d   1      -0.883  -1.911   1.387  0.00  0.00    -0.332 OA
ATOM     24  H   UNL d   1      -0.445  -1.661   2.218  0.00  0.00     0.221 HD
ENDBRANCH   9  23
BRANCH   5  25
ATOM     25  C   UNL d   1      -1.387   0.541  -2.595  0.00  0.00     0.008 A 
ATOM     26  C   UNL d   1      -2.395  -0.306  -3.094  0.00  0.00     0.017 A 
ATOM     27  C   UNL d   1      -2.981  -0.085  -4.346  0.00  0.00     0.025 A 
ATOM     28  C   UNL d   1      -2.563   0.988  -5.128  0.00  0.00     0.034 A 
ATOM     29  C   UNL d   1      -1.570   1.842  -4.668  0.00  0.00     0.025 A 
ATOM     30 CL   UNL d   1      -3.282   1.259  -6.667  0.00  0.00    -0.084 Cl
ATOM     31  C   UNL d   1      -0.991   1.620  -3.412  0.00  0.00     0.017 A 
ENDBRANCH   5  25
TORSDOF 6
