REMARK  2 active torsions:
REMARK  status: ('A' for Active; 'I' for Inactive)
REMARK    1  A    between atoms: C_2  and  N_1 
REMARK    2  A    between atoms: N_4  and  C_5 
REMARK       I    between atoms: C_7  and  N_4 
ROOT
ATOM      1  C   UNL d   1       0.390  -0.500   1.123  0.00  0.00     0.104 A 
ATOM      2  C   UNL d   1       0.862  -0.066   2.365  0.00  0.00     0.062 A 
ATOM      3  C   UNL d   1      -0.861  -1.409   3.476  0.00  0.00     0.056 A 
ATOM      4  C   UNL d   1       0.236  -0.522   3.530  0.00  0.00     0.063 A 
ATOM      5  C   UNL d   1      -0.695  -1.378   1.045  0.00  0.00     0.038 A 
ATOM      6  C   UNL d   1      -1.312  -1.826   2.219  0.00  0.00     0.034 A 
ATOM      7 CL   UNL d   1       0.849   0.036   5.051  0.00  0.00    -0.082 Cl
ENDROOT
BRANCH   3   8
ATOM      8  N   UNL d   1      -1.455  -1.837   4.689  0.00  0.00    -0.326 N 
ATOM      9  C   UNL d   1      -2.531  -2.690   4.843  0.00  0.00     0.218 C 
ATOM     10  O   UNL d   1      -3.171  -3.225   3.942  0.00  0.00    -0.274 OA
ATOM     11  C   UNL d   1      -2.909  -2.935   6.281  0.00  0.00     0.117 C 
ATOM     12  H   UNL d   1      -1.030  -1.459   5.531  0.00  0.00     0.169 HD
ENDBRANCH   3   8
BRANCH   1  13
ATOM     13  N   UNL d   1       1.034  -0.033  -0.110  0.00  0.00    -0.116 N 
ATOM     14  O   UNL d   1       1.992   0.743   0.003  0.00  0.00    -0.532 OA
ATOM     15  O   UNL d   1       0.581  -0.443  -1.188  0.00  0.00    -0.532 OA
ENDBRANCH   1  13
TORSDOF 2
