REMARK  2 active torsions:
REMARK  status: ('A' for Active; 'I' for Inactive)
REMARK    1  A    between atoms: N_7  and  C_2 
REMARK    2  A    between atoms: C_9  and  C_5 
ROOT
ATOM      1  C   UNL d   1      -0.627   1.265   0.054  0.00  0.00     0.136 A 
ATOM      2  C   UNL d   1      -1.397   0.152  -0.017  0.00  0.00     0.060 A 
ATOM      3  C   UNL d   1      -0.686  -1.118  -0.079  0.00  0.00     0.069 A 
ATOM      4  C   UNL d   1       0.867   1.201   0.043  0.00  0.00     0.312 A 
ATOM      5  C   UNL d   1       0.649  -1.195  -0.029  0.00  0.00     0.092 A 
ATOM      6  O   UNL d   1       1.441  -0.036   0.041  0.00  0.00    -0.273 OA
ATOM      7  O   UNL d   1       1.567   2.209   0.051  0.00  0.00    -0.258 OA
ATOM      8 CL   UNL d   1      -1.272   2.865   0.270  0.00  0.00    -0.075 Cl
ENDROOT
BRANCH   5   9
ATOM      9  C   UNL d   1       1.399  -2.470   0.005  0.00  0.00    -0.002 A 
ATOM     10  C   UNL d   1       0.914  -3.637  -0.606  0.00  0.00     0.014 A 
ATOM     11  C   UNL d   1       1.615  -4.843  -0.519  0.00  0.00     0.001 A 
ATOM     12  C   UNL d   1       2.824  -4.899   0.170  0.00  0.00     0.000 A 
ATOM     13  C   UNL d   1       3.336  -3.747   0.761  0.00  0.00     0.001 A 
ATOM     14  C   UNL d   1       2.631  -2.542   0.677  0.00  0.00     0.014 A 
ENDBRANCH   5   9
BRANCH   2  15
ATOM     15  N   UNL d   1      -2.807   0.074  -0.022  0.00  0.00    -0.388 N 
ATOM     16  C   UNL d   1      -3.679   1.061  -0.670  0.00  0.00     0.149 C 
ATOM     17  C   UNL d   1      -3.567  -1.023   0.591  0.00  0.00     0.149 C 
ENDBRANCH   2  15
TORSDOF 2
