REMARK  0 active torsions:
REMARK  status: ('A' for Active; 'I' for Inactive)
ROOT
ATOM      1  C   UNL d   1      -0.001   1.729  -0.004  0.00  0.00     0.194 A 
ATOM      2  C   UNL d   1      -1.175   0.833  -0.003  0.00  0.00     0.028 A 
ATOM      3  C   UNL d   1       0.744  -0.479  -0.004  0.00  0.00    -0.009 A 
ATOM      4  C   UNL d   1      -0.712  -0.498  -0.004  0.00  0.00     0.010 A 
ATOM      5  C   UNL d   1       1.189   0.856  -0.004  0.00  0.00     0.026 A 
ATOM      6  N   UNL d   1      -0.974  -4.029  -0.011  0.00  0.00    -0.191 NA
ATOM      7  C   UNL d   1      -1.274  -2.908  -0.008  0.00  0.00     0.100 C 
ATOM      8  C   UNL d   1      -1.648  -1.526  -0.004  0.00  0.00     0.056 A 
ATOM      9  O   UNL d   1      -0.016   2.942  -0.004  0.00  0.00    -0.287 OA
ATOM     10  C   UNL d   1      -2.513   1.185  -0.001  0.00  0.00     0.016 A 
ATOM     11  C   UNL d   1       1.687  -1.496  -0.003  0.00  0.00     0.013 A 
ATOM     12  C   UNL d   1       2.523   1.220  -0.002  0.00  0.00     0.016 A 
ATOM     13  C   UNL d   1      -3.444   0.150   0.001  0.00  0.00     0.003 A 
ATOM     14  C   UNL d   1      -3.017  -1.191  -0.001  0.00  0.00     0.023 A 
ATOM     15  C   UNL d   1       3.047  -1.153  -0.001  0.00  0.00     0.001 A 
ATOM     16  C   UNL d   1       3.462   0.190  -0.000  0.00  0.00     0.001 A 
ENDROOT
TORSDOF 0
