REMARK  4 active torsions:
REMARK  status: ('A' for Active; 'I' for Inactive)
REMARK    1  A    between atoms: C_4  and  C_1 
REMARK    2  A    between atoms: N_10  and  C_2 
REMARK    3  A    between atoms: O_15  and  C_4 
REMARK    4  A    between atoms: C_11  and  N_10 
ROOT
ATOM      1  C   UNL d   1       3.783   3.630   0.699  0.00  0.00     0.139 C 
ATOM      2  C   UNL d   1       5.023   3.183   0.167  0.00  0.00     0.112 C 
ATOM      3  C   UNL d   1       3.739   4.868   1.399  0.00  0.00     0.112 C 
ATOM      4  N   UNL d   1       6.018   2.775  -0.266  0.00  0.00    -0.191 NA
ATOM      5  N   UNL d   1       3.695   5.865   1.992  0.00  0.00    -0.191 NA
ATOM      6  C   UNL d   1       2.662   2.894   0.577  0.00  0.00     0.122 C 
ENDROOT
BRANCH   6   7
ATOM      7  N   UNL d   1       2.478   1.653  -0.010  0.00  0.00    -0.362 N 
ATOM      8  H   UNL d   1       3.354   1.187  -0.255  0.00  0.00     0.165 HD
BRANCH   7   9
ATOM      9  C   UNL d   1       1.340   0.903  -0.077  0.00  0.00     0.055 A 
ATOM     10  C   UNL d   1       0.019   1.325  -0.182  0.00  0.00     0.106 A 
ATOM     11  S   UNL d   1      -1.053  -0.033  -0.179  0.00  0.00    -0.094 SA
ATOM     12  C   UNL d   1       0.225  -1.151  -0.088  0.00  0.00     0.053 A 
ATOM     13  C   UNL d   1       1.447  -0.524  -0.060  0.00  0.00     0.038 A 
BRANCH  10  14
ATOM     14  C   UNL d   1      -0.534   2.661  -0.355  0.00  0.00     0.302 C 
ATOM     15  O   UNL d   1       0.071   3.641  -0.777  0.00  0.00    -0.259 OA
BRANCH  14  16
ATOM     16  O   UNL d   1      -1.841   2.706   0.047  0.00  0.00    -0.322 OA
ATOM     17  C   UNL d   1      -2.476   3.976  -0.098  0.00  0.00     0.213 C 
ENDBRANCH  14  16
ENDBRANCH  10  14
ENDBRANCH   7   9
ENDBRANCH   6   7
TORSDOF 4
