REMARK  5 active torsions:
REMARK  status: ('A' for Active; 'I' for Inactive)
REMARK    1  A    between atoms: S_8  and  C_2 
REMARK    2  A    between atoms: S_11  and  C_3 
REMARK    3  A    between atoms: C_15  and  S_8 
REMARK    4  A    between atoms: C_9  and  C_10 
REMARK    5  A    between atoms: C_16  and  C_15 
ROOT
ATOM      1  S   UNL d   1       2.332  -1.478  -0.974  0.00  0.00    -0.088 SA
ENDROOT
BRANCH   1   2
ATOM      2  C   UNL d   1       0.712  -0.958  -0.669  0.00  0.00     0.163 A 
ATOM      3  N   UNL d   1       0.180   0.222  -1.122  0.00  0.00    -0.310 N 
ATOM      4  C   UNL d   1      -1.124   0.208  -0.695  0.00  0.00     0.160 A 
ATOM      5  C   UNL d   1       0.829   1.264  -1.873  0.00  0.00     0.160 C 
ATOM      6  N   UNL d   1      -1.358  -0.889  -0.011  0.00  0.00    -0.278 N 
ATOM      7  N   UNL d   1      -0.196  -1.626   0.007  0.00  0.00    -0.278 N 
ATOM      8  HN  UNL d   1      -2.241  -1.147   0.429  1.00  0.00     0.189 HD
ATOM      9  HN  UNL d   1      -0.064  -2.529   0.462  1.00  0.00     0.189 HD
BRANCH   4  10
ATOM     10  S   UNL d   1      -2.298   1.440  -1.003  0.00  0.00    -0.105 SA
ATOM     11  H   UNL d   1      -1.592   2.268  -1.781  0.00  0.00     0.110 HD
ENDBRANCH   4  10
ENDBRANCH   1   2
BRANCH   1  12
ATOM     12  C   UNL d   1       2.397  -3.020  -0.001  0.00  0.00     0.121 C 
BRANCH  12  13
ATOM     13  C   UNL d   1       3.718  -3.761  -0.079  0.00  0.00    -0.049 A 
ATOM     14  C   UNL d   1       4.957  -3.113  -0.091  0.00  0.00     0.008 A 
ATOM     15  C   UNL d   1       6.154  -3.841  -0.134  0.00  0.00     0.008 A 
ATOM     16  C   UNL d   1       6.167  -5.248  -0.134  0.00  0.00    -0.051 A 
ATOM     17  C   UNL d   1       4.922  -5.891  -0.079  0.00  0.00     0.008 A 
ATOM     18  C   UNL d   1       3.722  -5.163  -0.049  0.00  0.00     0.008 A 
BRANCH  16  19
ATOM     19  C   UNL d   1       7.503  -6.010  -0.198  0.00  0.00    -0.024 C 
ATOM     20  C   UNL d   1       7.351  -7.547  -0.132  0.00  0.00     0.019 C 
ATOM     21  C   UNL d   1       8.221  -5.679  -1.525  0.00  0.00     0.019 C 
ATOM     22  C   UNL d   1       8.412  -5.596   0.981  0.00  0.00     0.019 C 
ENDBRANCH  16  19
ENDBRANCH  12  13
ENDBRANCH   1  12
TORSDOF 5
