REMARK  4 active torsions:
REMARK  status: ('A' for Active; 'I' for Inactive)
REMARK    1  A    between atoms: O_6  and  N_1 
REMARK    2  A    between atoms: C_3  and  O_6 
REMARK    3  A    between atoms: C_4  and  C_3 
REMARK    4  A    between atoms: C_5  and  C_11 
ROOT
ATOM      1  N   UNL d   1       1.012   0.028  -0.025  0.00  0.00    -0.261 N 
ATOM      2  HN  UNL d   1       0.499  -0.848  -0.126  1.00  0.00     0.194 HD
ATOM      3  C   UNL d   1       2.309   0.099   0.023  0.00  0.00     0.039 C 
ATOM      4  C   UNL d   1       3.059   1.408   0.128  0.00  0.00     0.071 C 
ENDROOT
BRANCH   1   5
ATOM      5  O   UNL d   1       0.387   1.292   0.079  0.00  0.00    -0.195 OA
BRANCH   5   6
ATOM      6  C   UNL d   1      -0.970   1.129  -0.001  0.00  0.00     0.315 C 
ATOM      7  O   UNL d   1      -1.578   0.083  -0.196  0.00  0.00    -0.257 OA
BRANCH   6   8
ATOM      8  C   UNL d   1      -1.693   2.420   0.189  0.00  0.00     0.043 A 
ATOM      9  C   UNL d   1      -1.054   3.638   0.445  0.00  0.00     0.043 A 
ATOM     10  C   UNL d   1      -1.811   4.806   0.629  0.00  0.00     0.056 A 
ATOM     11 CL   UNL d   1      -0.956   6.276   0.945  0.00  0.00    -0.083 Cl
ATOM     12  C   UNL d   1      -3.210   4.763   0.558  0.00  0.00     0.055 A 
ATOM     13  C   UNL d   1      -3.850   3.551   0.300  0.00  0.00     0.026 A 
ATOM     14 CL   UNL d   1      -4.200   6.161   0.782  0.00  0.00    -0.083 Cl
ATOM     15  C   UNL d   1      -3.096   2.389   0.118  0.00  0.00     0.019 A 
ENDBRANCH   6   8
ENDBRANCH   5   6
ENDBRANCH   1   5
BRANCH   3  16
ATOM     16  C   UNL d   1       3.093  -1.175  -0.038  0.00  0.00    -0.009 A 
ATOM     17  C   UNL d   1       2.580  -2.260  -0.765  0.00  0.00     0.059 A 
ATOM     18  C   UNL d   1       3.304  -3.448  -0.830  0.00  0.00     0.155 A 
ATOM     19  F   UNL d   1       2.818  -4.476  -1.540  0.00  0.00    -0.203 F 
ATOM     20  C   UNL d   1       4.522  -3.573  -0.170  0.00  0.00     0.154 A 
ATOM     21  C   UNL d   1       5.030  -2.512   0.570  0.00  0.00     0.046 A 
ATOM     22  F   UNL d   1       5.212  -4.720  -0.238  0.00  0.00    -0.203 F 
ATOM     23  C   UNL d   1       4.315  -1.311   0.641  0.00  0.00     0.017 A 
ENDBRANCH   3  16
TORSDOF 4
