REMARK  8 active torsions:
REMARK  status: ('A' for Active; 'I' for Inactive)
REMARK    1  A    between atoms: S_2  and  C_1 
REMARK    2  A    between atoms: C_12  and  S_2 
REMARK    3  A    between atoms: C_7  and  C_3 
REMARK    4  A    between atoms: N_14  and  C_4 
REMARK    5  A    between atoms: O_11  and  C_7 
REMARK    6  A    between atoms: C_10  and  C_16 
REMARK    7  A    between atoms: C_13  and  C_10 
REMARK    8  A    between atoms: C_16  and  O_11 
ROOT
ATOM      1  C   UNL d   1      -0.666  -1.253  -0.013  0.00  0.00     0.093 A 
ATOM      2  C   UNL d   1      -0.200   1.051  -0.094  0.00  0.00     0.107 A 
ATOM      3  C   UNL d   1      -1.191   0.080   0.018  0.00  0.00     0.071 A 
ATOM      4  S   UNL d   1       1.357   0.322  -0.154  0.00  0.00    -0.092 SA
ATOM      5  C   UNL d   1       0.710  -1.254  -0.080  0.00  0.00     0.076 A 
ENDROOT
BRANCH   2   6
ATOM      6  C   UNL d   1      -0.361   2.505  -0.161  0.00  0.00     0.303 C 
ATOM      7  O   UNL d   1      -1.433   3.093  -0.044  0.00  0.00    -0.259 OA
BRANCH   6   8
ATOM      8  O   UNL d   1       0.811   3.132  -0.476  0.00  0.00    -0.310 OA
BRANCH   8   9
ATOM      9  C   UNL d   1       0.731   4.502  -0.882  0.00  0.00     0.258 C 
BRANCH   9  10
ATOM     10  C   UNL d   1       1.186   5.526   0.166  0.00  0.00     0.158 C 
ATOM     11  O   UNL d   1       1.405   5.182   1.331  0.00  0.00    -0.295 OA
BRANCH  10  12
ATOM     12  C   UNL d   1       1.292   7.017  -0.261  0.00  0.00     0.012 C 
ATOM     13  C   UNL d   1      -0.077   7.683  -0.073  0.00  0.00     0.022 C 
ATOM     14  C   UNL d   1       2.325   7.729   0.632  0.00  0.00     0.022 C 
ATOM     15  C   UNL d   1       1.740   7.189  -1.720  0.00  0.00     0.022 C 
ENDBRANCH  10  12
ENDBRANCH   9  10
ENDBRANCH   8   9
ENDBRANCH   6   8
ENDBRANCH   2   6
BRANCH   3  16
ATOM     16  N   UNL d   1      -2.512   0.372   0.129  0.00  0.00    -0.397 N 
ATOM     17  H   UNL d   1      -2.780   1.347   0.301  0.00  0.00     0.156 HD
ATOM     18  H   UNL d   1      -3.109  -0.252   0.678  0.00  0.00     0.156 HD
ENDBRANCH   3  16
BRANCH   1  19
ATOM     19  S   UNL d   1      -1.595  -2.719   0.061  0.00  0.00     0.181 S 
ATOM     20  O   UNL d   1      -0.620  -3.785  -0.039  0.00  0.00    -0.222 OA
ATOM     21  O   UNL d   1      -2.416  -2.542   1.245  0.00  0.00    -0.222 OA
BRANCH  19  22
ATOM     22  C   UNL d   1      -2.663  -2.751  -1.383  0.00  0.00     0.105 C 
ATOM     23  C   UNL d   1      -1.889  -2.638  -2.690  0.00  0.00     0.026 C 
ATOM     24  C   UNL d   1      -3.493  -4.037  -1.380  0.00  0.00     0.026 C 
ENDBRANCH  19  22
ENDBRANCH   1  19
TORSDOF 8
