REMARK  2 active torsions:
REMARK  status: ('A' for Active; 'I' for Inactive)
REMARK    1  A    between atoms: C_9  and  N_2 
REMARK    2  A    between atoms: C_12  and  C_9 
ROOT
ATOM      1  S   UNL d   1      -2.428   0.850  -0.478  0.00  0.00     0.310 S 
ATOM      2  N   UNL d   1      -2.402  -0.629   0.275  0.00  0.00    -0.224 N 
ATOM      3  C   UNL d   1      -1.233  -1.419   0.237  0.00  0.00     0.270 C 
ATOM      4  N   UNL d   1      -1.061   1.494   0.261  0.00  0.00    -0.167 NA
ATOM      5  C   UNL d   1       0.057  -0.703   0.056  0.00  0.00     0.055 A 
ATOM      6  C   UNL d   1       0.114   0.698   0.080  0.00  0.00     0.040 A 
ATOM      7  O   UNL d   1      -2.104   0.687  -1.876  0.00  0.00    -0.188 OA
ATOM      8  O   UNL d   1      -3.541   1.659  -0.045  0.00  0.00    -0.188 OA
ATOM      9  O   UNL d   1      -1.246  -2.616   0.493  0.00  0.00    -0.266 OA
ATOM     10  C   UNL d   1       1.241  -1.446  -0.046  0.00  0.00     0.019 A 
ATOM     11  C   UNL d   1       1.354   1.341   0.106  0.00  0.00     0.025 A 
ATOM     12  C   UNL d   1       2.474  -0.794  -0.075  0.00  0.00     0.001 A 
ATOM     13  C   UNL d   1       2.530   0.596   0.016  0.00  0.00     0.002 A 
ATOM     14  H   UNL d   1      -0.966   2.475   0.001  0.00  0.00     0.147 HD
ENDROOT
BRANCH   2  15
ATOM     15  C   UNL d   1      -3.478  -0.916   1.234  0.00  0.00     0.184 C 
BRANCH  15  16
ATOM     16  C   UNL d   1      -4.678  -1.587   0.618  0.00  0.00    -0.039 A 
ATOM     17  C   UNL d   1      -4.704  -2.979   0.453  0.00  0.00     0.009 A 
ATOM     18  C   UNL d   1      -5.809  -3.603  -0.128  0.00  0.00     0.001 A 
ATOM     19  C   UNL d   1      -6.894  -2.841  -0.556  0.00  0.00     0.000 A 
ATOM     20  C   UNL d   1      -6.879  -1.457  -0.399  0.00  0.00     0.001 A 
ATOM     21  C   UNL d   1      -5.777  -0.832   0.186  0.00  0.00     0.009 A 
ENDBRANCH  15  16
ENDBRANCH   2  15
TORSDOF 2
