REMARK  6 active torsions:
REMARK  status: ('A' for Active; 'I' for Inactive)
REMARK    1  A    between atoms: C_4  and  C_1 
REMARK    2  A    between atoms: C_2  and  N_5 
REMARK    3  A    between atoms: N_10  and  C_3 
REMARK    4  A    between atoms: N_5  and  C_4 
REMARK    5  A    between atoms: C_14  and  N_10 
REMARK    6  A    between atoms: C_11  and  C_14 
ROOT
ATOM      1  C   UNL d   1      -1.185   4.518   0.067  0.00  0.00     0.122 C 
ATOM      2  C   UNL d   1      -2.076   5.096   0.907  0.00  0.00     0.122 C 
ATOM      3  C   UNL d   1      -0.227   5.294  -0.672  0.00  0.00     0.114 C 
ATOM      4  C   UNL d   1      -2.140   6.523   1.074  0.00  0.00     0.114 C 
ATOM      5  N   UNL d   1       0.552   5.883  -1.298  0.00  0.00    -0.190 NA
ATOM      6  N   UNL d   1      -2.224   7.667   1.240  0.00  0.00    -0.190 NA
ENDROOT
BRANCH   1   7
ATOM      7  N   UNL d   1      -1.134   3.135  -0.190  0.00  0.00    -0.278 NA
ATOM      8  H   UNL d   1      -0.165   2.824  -0.290  0.00  0.00     0.128 HD
BRANCH   7   9
ATOM      9  C   UNL d   1      -1.899   2.595  -1.325  0.00  0.00     0.136 C 
BRANCH   9  10
ATOM     10  C   UNL d   1      -2.297   1.154  -1.133  0.00  0.00     0.015 A 
ATOM     11  C   UNL d   1      -3.474   0.636  -1.704  0.00  0.00     0.044 A 
ATOM     12 CL   UNL d   1      -4.532   1.606  -2.671  0.00  0.00    -0.084 Cl
ATOM     13  C   UNL d   1      -3.830  -0.710  -1.539  0.00  0.00     0.024 A 
ATOM     14  C   UNL d   1      -3.012  -1.571  -0.813  0.00  0.00     0.005 A 
ATOM     15  C   UNL d   1      -1.825  -1.089  -0.274  0.00  0.00     0.043 A 
ATOM     16  C   UNL d   1      -1.472   0.250  -0.451  0.00  0.00     0.125 A 
ATOM     17  F   UNL d   1      -0.291   0.650   0.045  0.00  0.00    -0.205 F 
ENDBRANCH   9  10
ENDBRANCH   7   9
ENDBRANCH   1   7
BRANCH   2  18
ATOM     18  N   UNL d   1      -3.010   4.381   1.679  0.00  0.00    -0.278 NA
ATOM     19  H   UNL d   1      -3.912   4.861   1.676  0.00  0.00     0.128 HD
BRANCH  18  20
ATOM     20  C   UNL d   1      -2.685   4.068   3.081  0.00  0.00     0.133 C 
BRANCH  20  21
ATOM     21  C   UNL d   1      -3.470   2.860   3.530  0.00  0.00    -0.023 A 
ATOM     22  C   UNL d   1      -4.320   2.850   4.645  0.00  0.00     0.041 A 
ATOM     23 CL   UNL d   1      -4.572   4.248   5.628  0.00  0.00    -0.084 Cl
ATOM     24  C   UNL d   1      -5.000   1.681   5.011  0.00  0.00     0.024 A 
ATOM     25  C   UNL d   1      -4.835   0.508   4.275  0.00  0.00     0.002 A 
ATOM     26  C   UNL d   1      -3.984   0.497   3.175  0.00  0.00     0.001 A 
ATOM     27  C   UNL d   1      -3.305   1.660   2.812  0.00  0.00     0.010 A 
ENDBRANCH  20  21
ENDBRANCH  18  20
ENDBRANCH   2  18
TORSDOF 6
