REMARK  4 active torsions:
REMARK  status: ('A' for Active; 'I' for Inactive)
REMARK    1  A    between atoms: C_4  and  C_1 
REMARK    2  A    between atoms: C_16  and  C_9 
REMARK    3  A    between atoms: C_11  and  O_17 
REMARK    4  A    between atoms: O_17  and  C_24 
ROOT
ATOM      1  C   UNL d   1      -1.260  -1.518   0.126  0.00  0.00     0.127 C 
ATOM      2  C   UNL d   1       0.005  -0.695  -0.059  0.00  0.00     0.026 C 
ATOM      3  C   UNL d   1      -2.533  -0.684  -0.034  0.00  0.00     0.059 C 
ATOM      4  C   UNL d   1      -0.025   0.651  -0.104  0.00  0.00     0.020 C 
ATOM      5  N   UNL d   1      -1.240   1.312  -0.080  0.00  0.00    -0.362 N 
ATOM      6  C   UNL d   1      -2.471   0.670  -0.087  0.00  0.00     0.023 C 
ATOM      7  C   UNL d   1      -3.782  -1.378  -0.086  0.00  0.00     0.098 C 
ATOM      8  C   UNL d   1       1.296  -1.428  -0.164  0.00  0.00     0.158 C 
ATOM      9  N   UNL d   1      -4.792  -1.940  -0.147  0.00  0.00    -0.192 NA
ATOM     10  O   UNL d   1       1.328  -2.657  -0.136  0.00  0.00    -0.293 OA
ATOM     11  C   UNL d   1       1.228   1.494  -0.135  0.00  0.00     0.058 C 
ATOM     12  C   UNL d   1      -3.705   1.537  -0.120  0.00  0.00     0.069 C 
ATOM     13  C   UNL d   1       2.546  -0.621  -0.419  0.00  0.00     0.084 C 
ATOM     14  C   UNL d   1       2.465   0.713   0.303  0.00  0.00     0.014 C 
ATOM     15  H   UNL d   1      -1.234   2.329  -0.111  0.00  0.00     0.165 HD
ENDROOT
BRANCH   1  16
ATOM     16  C   UNL d   1      -1.252  -2.220   1.456  0.00  0.00     0.067 A 
ATOM     17  O   UNL d   1      -1.155  -1.419   2.557  0.00  0.00    -0.313 OA
ATOM     18  C   UNL d   1      -1.163  -2.233   3.646  0.00  0.00     0.086 A 
ATOM     19  C   UNL d   1      -1.264  -3.549   3.245  0.00  0.00     0.040 A 
ATOM     20  C   UNL d   1      -1.313  -3.543   1.833  0.00  0.00     0.036 A 
BRANCH  18  21
ATOM     21  C   UNL d   1      -1.105  -1.574   4.940  0.00  0.00    -0.002 A 
ATOM     22  C   UNL d   1      -1.729  -2.169   6.041  0.00  0.00     0.017 A 
ATOM     23  C   UNL d   1      -1.697  -1.564   7.299  0.00  0.00     0.038 A 
ATOM     24  C   UNL d   1      -0.992  -0.380   7.488  0.00  0.00     0.078 A 
ATOM     25  C   UNL d   1      -0.390   0.237   6.386  0.00  0.00     0.038 A 
ATOM     26  C   UNL d   1      -0.445  -0.353   5.119  0.00  0.00     0.017 A 
BRANCH  24  27
ATOM     27  O   UNL d   1      -0.853   0.287   8.665  0.00  0.00    -0.255 OA
BRANCH  27  28
ATOM     28  C   UNL d   1      -0.905  -0.430   9.891  0.00  0.00     0.530 C 
ATOM     29  F   UNL d   1      -0.873  -1.773   9.758  0.00  0.00    -0.144 F 
ATOM     30  F   UNL d   1       0.164  -0.071  10.638  0.00  0.00    -0.144 F 
ATOM     31  F   UNL d   1      -2.023  -0.086  10.565  0.00  0.00    -0.144 F 
ENDBRANCH  27  28
ENDBRANCH  24  27
ENDBRANCH  18  21
ENDBRANCH   1  16
TORSDOF 4
