REMARK  2 active torsions:
REMARK  status: ('A' for Active; 'I' for Inactive)
REMARK    1  A    between atoms: C_7  and  C_3 
REMARK    2  A    between atoms: C_8  and  C_11 
ROOT
ATOM      1  C   UNL d   1      -0.008  -0.657  -0.047  0.00  0.00     0.024 C 
ATOM      2  C   UNL d   1      -2.556  -0.624  -0.039  0.00  0.00     0.057 C 
ATOM      3  C   UNL d   1      -1.286  -1.462   0.130  0.00  0.00     0.104 C 
ATOM      4  C   UNL d   1      -0.032   0.689  -0.144  0.00  0.00     0.020 C 
ATOM      5  N   UNL d   1      -1.245   1.354  -0.170  0.00  0.00    -0.362 N 
ATOM      6  C   UNL d   1      -2.481   0.723  -0.147  0.00  0.00     0.023 C 
ATOM      7  C   UNL d   1      -3.810  -1.306  -0.058  0.00  0.00     0.098 C 
ATOM      8  C   UNL d   1       1.283  -1.390  -0.175  0.00  0.00     0.158 C 
ATOM      9  N   UNL d   1      -4.832  -1.863  -0.083  0.00  0.00    -0.192 NA
ATOM     10  O   UNL d   1       1.306  -2.620  -0.197  0.00  0.00    -0.293 OA
ATOM     11  C   UNL d   1       1.221   1.530  -0.186  0.00  0.00     0.058 C 
ATOM     12  C   UNL d   1      -3.704   1.605  -0.186  0.00  0.00     0.069 C 
ATOM     13  C   UNL d   1       2.544  -0.587  -0.399  0.00  0.00     0.084 C 
ATOM     14  C   UNL d   1       2.450   0.761   0.291  0.00  0.00     0.014 C 
ATOM     15  H   UNL d   1      -1.230   2.371  -0.183  0.00  0.00     0.165 HD
ENDROOT
BRANCH   3  16
ATOM     16  C   UNL d   1      -1.295  -2.234   1.459  0.00  0.00    -0.022 A 
ATOM     17  C   UNL d   1      -1.343  -1.636   2.733  0.00  0.00     0.042 A 
ATOM     18  C   UNL d   1      -1.347  -2.420   3.891  0.00  0.00     0.040 A 
ATOM     19 CL   UNL d   1      -1.387   0.070   2.995  0.00  0.00    -0.084 Cl
ATOM     20  C   UNL d   1      -1.291  -3.817   3.818  0.00  0.00     0.049 A 
ATOM     21  C   UNL d   1      -1.235  -4.420   2.558  0.00  0.00     0.017 A 
ATOM     22  C   UNL d   1      -1.241  -3.642   1.398  0.00  0.00     0.011 A 
BRANCH  20  23
ATOM     23  C   UNL d   1      -1.279  -4.655   5.070  0.00  0.00     0.417 C 
ATOM     24  F   UNL d   1      -1.346  -3.919   6.215  0.00  0.00    -0.166 F 
ATOM     25  F   UNL d   1      -2.324  -5.525   5.125  0.00  0.00    -0.166 F 
ATOM     26  F   UNL d   1      -0.152  -5.410   5.180  0.00  0.00    -0.166 F 
ENDBRANCH  20  23
ENDBRANCH   3  16
TORSDOF 2
