REMARK  5 active torsions:
REMARK  status: ('A' for Active; 'I' for Inactive)
REMARK    1  A    between atoms: C_3  and  S_1 
REMARK    2  A    between atoms: C_6  and  S_1 
REMARK    3  A    between atoms: C_4  and  N_2 
REMARK    4  A    between atoms: C_13  and  C_3 
REMARK    5  A    between atoms: N_5  and  C_13 
ROOT
ATOM      1  N   UNL d   1      -1.410   2.926   2.905  0.00  0.00    -0.364 N 
ATOM      2  N   UNL d   1       0.535   0.884   3.786  0.00  0.00     0.092 N 
ATOM      3  C   UNL d   1       0.027   3.208   2.807  0.00  0.00     0.154 C 
ATOM      4  C   UNL d   1      -1.806   1.519   2.929  0.00  0.00     0.154 C 
ATOM      5  C   UNL d   1       0.827   2.338   3.804  0.00  0.00     0.292 C 
ATOM      6  C   UNL d   1      -0.932   0.721   3.929  0.00  0.00     0.292 C 
ENDROOT
BRANCH   2   7
ATOM      7  C   UNL d   1       1.043   0.182   2.592  0.00  0.00     0.287 C 
BRANCH   7   8
ATOM      8  C   UNL d   1       2.568   0.151   2.556  0.00  0.00     0.176 C 
BRANCH   8   9
ATOM      9  S   UNL d   1       3.156  -0.815   1.183  0.00  0.00     0.177 S 
ATOM     10  O   UNL d   1       2.740  -0.157  -0.045  0.00  0.00    -0.223 OA
ATOM     11  O   UNL d   1       2.838  -2.208   1.421  0.00  0.00    -0.223 OA
BRANCH   9  12
ATOM     12  C   UNL d   1       4.923  -0.637   1.306  0.00  0.00     0.059 A 
ATOM     13  C   UNL d   1       5.661  -1.567   2.042  0.00  0.00     0.024 A 
ATOM     14  C   UNL d   1       7.051  -1.446   2.103  0.00  0.00     0.008 A 
ATOM     15  C   UNL d   1       7.707  -0.409   1.424  0.00  0.00    -0.062 A 
ATOM     16  C   UNL d   1       6.951   0.520   0.697  0.00  0.00     0.008 A 
ATOM     17  C   UNL d   1       9.206  -0.327   1.454  0.00  0.00     0.048 C 
ATOM     18  C   UNL d   1       5.561   0.406   0.632  0.00  0.00     0.024 A 
ENDBRANCH   9  12
ENDBRANCH   8   9
ENDBRANCH   7   8
ENDBRANCH   2   7
BRANCH   1  19
ATOM     19  C   UNL d   1      -2.290   3.948   2.615  0.00  0.00     0.102 A 
ATOM     20  N   UNL d   1      -1.913   5.209   2.925  0.00  0.00    -0.352 N 
ATOM     21  C   UNL d   1      -2.800   6.218   2.772  0.00  0.00     0.089 A 
ATOM     22  HN  UNL d   1      -0.971   5.397   3.270  1.00  0.00     0.166 HD
ATOM     23  C   UNL d   1      -4.080   6.052   2.285  0.00  0.00     0.017 A 
ATOM     24  C   UNL d   1      -4.461   4.773   1.919  0.00  0.00     0.005 A 
ATOM     25  C   UNL d   1      -3.562   3.718   2.087  0.00  0.00     0.048 A 
ENDBRANCH   1  19
TORSDOF 5
