REMARK  7 active torsions:
REMARK  status: ('A' for Active; 'I' for Inactive)
REMARK    1  A    between atoms: C_6  and  C_1 
REMARK    2  A    between atoms: C_10  and  N_2 
REMARK    3  A    between atoms: C_18  and  C_3 
REMARK       I    between atoms: N_8  and  C_6 
REMARK    4  A    between atoms: C_12  and  N_8 
REMARK    5  A    between atoms: C_13  and  N_9 
REMARK    6  A    between atoms: C_19  and  C_13 
REMARK    7  A    between atoms: C_24  and  C_18 
ROOT
ATOM      1  C   UNL d   1      -0.608   2.426   0.641  0.00  0.00     0.255 C 
ATOM      2  N   UNL d   1      -0.382   3.722   0.255  0.00  0.00    -0.352 N 
ATOM      3  O   UNL d   1       0.302   1.597   0.656  0.00  0.00    -0.268 OA
ATOM      4  H   UNL d   1      -1.151   4.369   0.259  0.00  0.00     0.163 HD
ENDROOT
BRANCH   1   5
ATOM      5  C   UNL d   1      -1.962   2.053   1.043  0.00  0.00     0.073 C 
ATOM      6  C   UNL d   1      -3.224   2.671   1.015  0.00  0.00     0.051 C 
ATOM      7  N   UNL d   1      -4.109   1.729   1.571  0.00  0.00    -0.260 N 
ATOM      8  N   UNL d   1      -3.535   0.506   1.653  0.00  0.00    -0.304 N 
ATOM      9  C   UNL d   1      -2.247   0.730   1.452  0.00  0.00     0.126 C 
ATOM     10  HN  UNL d   1      -3.993  -0.388   1.831  1.00  0.00     0.186 HD
BRANCH   6  11
ATOM     11  C   UNL d   1      -3.722   3.894   0.285  0.00  0.00     0.060 C 
BRANCH  11  12
ATOM     12  C   UNL d   1      -3.692   5.222   1.043  0.00  0.00     0.002 C 
ATOM     13  C   UNL d   1      -4.510   6.280   0.304  0.00  0.00     0.005 C 
ENDBRANCH  11  12
ENDBRANCH   6  11
BRANCH   7  14
ATOM     14  C   UNL d   1      -5.446   1.846   2.054  0.00  0.00     0.056 A 
ATOM     15  C   UNL d   1      -6.288   0.722   1.992  0.00  0.00     0.031 A 
ATOM     16  C   UNL d   1      -7.556   0.749   2.577  0.00  0.00     0.002 A 
ATOM     17  C   UNL d   1      -7.986   1.889   3.249  0.00  0.00     0.000 A 
ATOM     18  C   UNL d   1      -7.153   3.004   3.326  0.00  0.00     0.002 A 
ATOM     19  C   UNL d   1      -5.887   2.985   2.729  0.00  0.00     0.031 A 
ENDBRANCH   7  14
ENDBRANCH   1   5
BRANCH   2  20
ATOM     20  C   UNL d   1       0.920   4.150  -0.271  0.00  0.00     0.088 C 
ATOM     21  C   UNL d   1       2.007   4.296   0.800  0.00  0.00     0.055 C 
ATOM     22  C   UNL d   1       1.772   5.503   1.705  0.00  0.00     0.275 C 
ATOM     23  N   UNL d   1       1.550   6.764   0.970  0.00  0.00     0.092 N 
ATOM     24  C   UNL d   1       0.505   6.624  -0.054  0.00  0.00     0.275 C 
ATOM     25  C   UNL d   1       0.792   5.473  -1.018  0.00  0.00     0.055 C 
BRANCH  23  26
ATOM     26  C   UNL d   1       1.213   7.821   1.953  0.00  0.00     0.311 C 
BRANCH  26  27
ATOM     27  C   UNL d   1       0.867   9.168   1.360  0.00  0.00    -0.030 A 
ATOM     28  C   UNL d   1      -0.428   9.693   1.505  0.00  0.00     0.009 A 
ATOM     29  C   UNL d   1      -0.756  10.934   0.959  0.00  0.00     0.001 A 
ATOM     30  C   UNL d   1       0.202  11.664   0.264  0.00  0.00     0.000 A 
ATOM     31  C   UNL d   1       1.492  11.153   0.110  0.00  0.00     0.001 A 
ATOM     32  C   UNL d   1       1.824   9.913   0.656  0.00  0.00     0.009 A 
ENDBRANCH  26  27
ENDBRANCH  23  26
ENDBRANCH   2  20
TORSDOF 7
