REMARK  9 active torsions:
REMARK  status: ('A' for Active; 'I' for Inactive)
REMARK    1  A    between atoms: C_6  and  C_1 
REMARK    2  A    between atoms: C_10  and  C_2 
REMARK    3  A    between atoms: C_20  and  N_3 
REMARK    4  A    between atoms: C_8  and  C_11 
REMARK    5  A    between atoms: C_9  and  C_12 
REMARK    6  A    between atoms: O_21  and  C_10 
REMARK    7  A    between atoms: C_13  and  C_14 
REMARK    8  A    between atoms: N_34  and  C_14 
REMARK    9  A    between atoms: N_15  and  O_21 
ROOT
ATOM      1  C   UNL d   1       3.787  -2.716  -1.522  0.00  0.00     0.109 C 
ATOM      2  N   UNL d   1       2.775  -1.909  -1.558  0.00  0.00    -0.246 N 
ATOM      3  HN  UNL d   1       2.606  -1.231  -2.301  1.00  0.00     0.196 HD
ENDROOT
BRANCH   2   4
ATOM      4  O   UNL d   1       1.935  -2.088  -0.434  0.00  0.00    -0.193 OA
BRANCH   4   5
ATOM      5  C   UNL d   1       1.044  -1.045  -0.351  0.00  0.00     0.318 C 
ATOM      6  O   UNL d   1       1.322   0.136  -0.516  0.00  0.00    -0.257 OA
BRANCH   5   7
ATOM      7  C   UNL d   1      -0.302  -1.514  -0.036  0.00  0.00     0.091 A 
ATOM      8  C   UNL d   1      -1.430  -0.775   0.317  0.00  0.00     0.158 A 
ATOM      9  N   UNL d   1      -2.478  -1.676   0.435  0.00  0.00    -0.251 N 
ATOM     10  N   UNL d   1      -2.032  -2.953   0.311  0.00  0.00    -0.303 N 
ATOM     11  C   UNL d   1      -0.752  -2.842  -0.033  0.00  0.00     0.127 A 
ATOM     12  HN  UNL d   1      -2.564  -3.812   0.450  1.00  0.00     0.186 HD
BRANCH   8  13
ATOM     13  C   UNL d   1      -1.578   0.657   0.628  0.00  0.00     0.435 C 
ATOM     14  F   UNL d   1      -0.413   1.256   0.968  0.00  0.00    -0.165 F 
ATOM     15  F   UNL d   1      -2.088   1.349  -0.420  0.00  0.00    -0.165 F 
ATOM     16  F   UNL d   1      -2.403   0.869   1.687  0.00  0.00    -0.165 F 
ENDBRANCH   8  13
BRANCH   9  17
ATOM     17  C   UNL d   1      -3.860  -1.466   0.737  0.00  0.00     0.057 A 
ATOM     18  C   UNL d   1      -4.539  -0.293   0.385  0.00  0.00     0.033 A 
ATOM     19  C   UNL d   1      -5.835  -0.060   0.859  0.00  0.00     0.026 A 
ATOM     20  C   UNL d   1      -6.468  -1.010   1.655  0.00  0.00     0.034 A 
ATOM     21  C   UNL d   1      -5.841  -2.222   1.931  0.00  0.00     0.026 A 
ATOM     22 CL   UNL d   1      -8.023  -0.679   2.310  0.00  0.00    -0.084 Cl
ATOM     23  C   UNL d   1      -4.547  -2.460   1.457  0.00  0.00     0.033 A 
ENDBRANCH   9  17
ENDBRANCH   5   7
ENDBRANCH   4   5
ENDBRANCH   2   4
BRANCH   1  24
ATOM     24  C   UNL d   1       4.694  -2.776  -2.722  0.00  0.00     0.005 A 
ATOM     25  C   UNL d   1       4.738  -1.720  -3.641  0.00  0.00     0.031 A 
ATOM     26  C   UNL d   1       5.606  -1.768  -4.748  0.00  0.00     0.049 A 
ATOM     27  C   UNL d   1       6.428  -2.895  -4.922  0.00  0.00     0.032 A 
ATOM     28  C   UNL d   1       6.395  -3.962  -4.012  0.00  0.00     0.049 A 
ATOM     29  C   UNL d   1       5.506  -3.901  -2.927  0.00  0.00     0.031 A 
BRANCH  26  30
ATOM     30  C   UNL d   1       5.669  -0.610  -5.719  0.00  0.00     0.417 C 
ATOM     31  F   UNL d   1       6.601  -0.784  -6.699  0.00  0.00    -0.166 F 
ATOM     32  F   UNL d   1       4.489  -0.396  -6.360  0.00  0.00    -0.166 F 
ATOM     33  F   UNL d   1       5.990   0.562  -5.107  0.00  0.00    -0.166 F 
ENDBRANCH  26  30
BRANCH  28  34
ATOM     34  C   UNL d   1       7.318  -5.149  -4.159  0.00  0.00     0.417 C 
ATOM     35  F   UNL d   1       8.206  -5.025  -5.181  0.00  0.00    -0.166 F 
ATOM     36  F   UNL d   1       8.065  -5.350  -3.037  0.00  0.00    -0.166 F 
ATOM     37  F   UNL d   1       6.647  -6.312  -4.375  0.00  0.00    -0.166 F 
ENDBRANCH  28  34
ENDBRANCH   1  24
BRANCH   1  38
ATOM     38  N   UNL d   1       4.088  -3.515  -0.439  0.00  0.00    -0.286 NA
ATOM     39  H   UNL d   1       5.080  -3.666  -0.271  0.00  0.00     0.125 HD
ATOM     40  H   UNL d   1       3.624  -3.205   0.408  0.00  0.00     0.125 HD
ENDBRANCH   1  38
TORSDOF 9
