REMARK  2 active torsions:
REMARK  status: ('A' for Active; 'I' for Inactive)
REMARK    1  A    between atoms: N_5  and  N_1 
REMARK       I    between atoms: C_3  and  N_5 
REMARK       I    between atoms: N_9  and  C_3 
REMARK    2  A    between atoms: C_13  and  N_9 
ROOT
ATOM      1  C   UNL d   1       3.850  -2.671   0.111  0.00  0.00     0.341 C 
ATOM      2  N   UNL d   1       3.538  -1.382  -0.322  0.00  0.00    -0.237 N 
ATOM      3  N   UNL d   1       5.102  -3.120  -0.273  0.00  0.00    -0.307 N 
ATOM      4  O   UNL d   1       3.043  -3.353   0.738  0.00  0.00    -0.245 OA
ATOM      5  C   UNL d   1       4.414  -0.433  -0.994  0.00  0.00     0.183 C 
ATOM      6  H   UNL d   1       5.789  -2.413  -0.484  0.00  0.00     0.170 HD
ENDROOT
BRANCH   2   7
ATOM      7  N   UNL d   1       2.250  -0.844   0.033  0.00  0.00    -0.209 N 
ATOM      8  C   UNL d   1       2.170   0.361   0.729  0.00  0.00     0.280 A 
ATOM      9  C   UNL d   1       0.794   0.810   1.046  0.00  0.00     0.060 A 
ATOM     10  O   UNL d   1       3.127   1.058   1.054  0.00  0.00    -0.265 OA
ATOM     11  C   UNL d   1       0.562   2.051   1.653  0.00  0.00     0.019 A 
ATOM     12  C   UNL d   1      -0.266  -0.039   0.726  0.00  0.00     0.049 A 
ATOM     13  C   UNL d   1      -0.742   2.425   1.981  0.00  0.00     0.001 A 
ATOM     14  C   UNL d   1      -1.801   1.557   1.718  0.00  0.00     0.002 A 
ATOM     15  C   UNL d   1      -1.562   0.332   1.089  0.00  0.00     0.030 A 
ATOM     16  N   UNL d   1      -0.087  -1.240   0.021  0.00  0.00    -0.350 N 
ATOM     17  C   UNL d   1       1.123  -1.572  -0.289  0.00  0.00     0.211 A 
ATOM     18  HN  UNL d   1      -0.880  -1.828  -0.236  1.00  0.00     0.166 HD
ENDBRANCH   2   7
BRANCH   3  19
ATOM     19  C   UNL d   1       5.600  -4.439  -0.162  0.00  0.00     0.036 A 
ATOM     20  C   UNL d   1       4.800  -5.552   0.117  0.00  0.00     0.031 A 
ATOM     21  C   UNL d   1       5.369  -6.824   0.255  0.00  0.00     0.026 A 
ATOM     22  C   UNL d   1       6.742  -6.990   0.102  0.00  0.00     0.034 A 
ATOM     23  C   UNL d   1       7.546  -5.900  -0.219  0.00  0.00     0.026 A 
ATOM     24 CL   UNL d   1       7.447  -8.544   0.312  0.00  0.00    -0.084 Cl
ATOM     25  C   UNL d   1       6.974  -4.630  -0.359  0.00  0.00     0.031 A 
ENDBRANCH   3  19
TORSDOF 2
