REMARK  7 active torsions:
REMARK  status: ('A' for Active; 'I' for Inactive)
REMARK    1  A    between atoms: N_5  and  C_1 
REMARK    2  A    between atoms: C_3  and  C_2 
REMARK       I    between atoms: N_6  and  C_3 
REMARK    3  A    between atoms: O_30  and  C_4 
REMARK       I    between atoms: C_8  and  N_6 
REMARK       I    between atoms: N_17  and  C_8 
REMARK    4  A    between atoms: C_9  and  C_14 
REMARK    5  A    between atoms: C_10  and  C_13 
REMARK    6  A    between atoms: O_32  and  C_11 
REMARK    7  A    between atoms: C_16  and  N_17 
ROOT
ATOM      1  C   UNL d   1       2.299   2.542  -0.210  0.00  0.00     0.265 C 
ATOM      2  N   UNL d   1       3.660   2.177  -0.242  0.00  0.00    -0.275 N 
ATOM      3  C   UNL d   1       4.745   2.447  -1.065  0.00  0.00     0.327 C 
ATOM      4  N   UNL d   1       4.640   3.431  -2.003  0.00  0.00    -0.309 N 
ATOM      5  O   UNL d   1       1.927   3.675  -0.460  0.00  0.00    -0.267 OA
ATOM      6  O   UNL d   1       5.685   1.659  -0.967  0.00  0.00    -0.247 OA
ATOM      7  H   UNL d   1       3.843   1.235   0.084  0.00  0.00     0.173 HD
ATOM      8  H   UNL d   1       3.762   3.946  -2.015  0.00  0.00     0.170 HD
ENDROOT
BRANCH   1   9
ATOM      9  C   UNL d   1       1.314   1.404   0.142  0.00  0.00     0.103 C 
ATOM     10  C   UNL d   1       1.661   0.080  -0.219  0.00  0.00     0.119 C 
ATOM     11  C   UNL d   1       0.665  -0.845  -0.564  0.00  0.00     0.139 C 
ATOM     12  C   UNL d   1      -0.670  -0.568  -0.271  0.00  0.00     0.065 C 
ATOM     13  C   UNL d   1      -1.003   0.644   0.334  0.00  0.00     0.070 C 
ATOM     14  C   UNL d   1      -0.018   1.634   0.571  0.00  0.00     0.108 C 
ATOM     15 CL   UNL d   1      -2.694   0.890   0.631  0.00  0.00    -0.081 Cl
BRANCH  10  16
ATOM     16  O   UNL d   1       2.984  -0.287  -0.134  0.00  0.00    -0.352 OA
ATOM     17  C   UNL d   1       3.202  -1.177   0.978  0.00  0.00     0.210 C 
ENDBRANCH  10  16
BRANCH  11  18
ATOM     18  N   UNL d   1       0.970  -2.034  -1.378  0.00  0.00    -0.113 N 
ATOM     19  O   UNL d   1       2.136  -2.220  -1.745  0.00  0.00    -0.532 OA
ATOM     20  O   UNL d   1       0.020  -2.766  -1.688  0.00  0.00    -0.532 OA
ENDBRANCH  11  18
BRANCH  14  21
ATOM     21  O   UNL d   1      -0.322   2.823   1.187  0.00  0.00    -0.353 OA
ATOM     22  C   UNL d   1      -0.942   2.702   2.481  0.00  0.00     0.210 C 
ENDBRANCH  14  21
ENDBRANCH   1   9
BRANCH   4  23
ATOM     23  C   UNL d   1       5.465   3.482  -3.173  0.00  0.00     0.037 C 
ATOM     24  C   UNL d   1       4.867   3.939  -4.350  0.00  0.00     0.045 C 
ATOM     25  C   UNL d   1       5.474   3.715  -5.601  0.00  0.00     0.050 C 
ATOM     26  C   UNL d   1       6.765   3.168  -5.660  0.00  0.00     0.032 C 
ATOM     27  C   UNL d   1       7.437   2.795  -4.490  0.00  0.00     0.050 C 
ATOM     28  C   UNL d   1       6.771   2.956  -3.251  0.00  0.00     0.045 C 
BRANCH  25  29
ATOM     29  C   UNL d   1       4.692   3.973  -6.870  0.00  0.00     0.417 C 
ATOM     30  F   UNL d   1       5.140   3.248  -7.932  0.00  0.00    -0.166 F 
ATOM     31  F   UNL d   1       3.374   3.646  -6.736  0.00  0.00    -0.166 F 
ATOM     32  F   UNL d   1       4.720   5.273  -7.257  0.00  0.00    -0.166 F 
ENDBRANCH  25  29
BRANCH  27  33
ATOM     33  C   UNL d   1       8.821   2.179  -4.567  0.00  0.00     0.417 C 
ATOM     34  F   UNL d   1       9.233   1.958  -5.851  0.00  0.00    -0.166 F 
ATOM     35  F   UNL d   1       9.783   2.964  -4.008  0.00  0.00    -0.166 F 
ATOM     36  F   UNL d   1       8.898   0.974  -3.942  0.00  0.00    -0.166 F 
ENDBRANCH  27  33
ENDBRANCH   4  23
TORSDOF 7
