REMARK  8 active torsions:
REMARK  status: ('A' for Active; 'I' for Inactive)
REMARK    1  A    between atoms: C_2  and  N_1 
REMARK    2  A    between atoms: N_5  and  C_3 
REMARK    3  A    between atoms: N_7  and  C_4 
REMARK    4  A    between atoms: S_14  and  C_4 
REMARK       I    between atoms: C_8  and  N_7 
REMARK    5  A    between atoms: O_17  and  C_8 
REMARK    6  A    between atoms: S_18  and  C_15 
REMARK    7  A    between atoms: C_20  and  S_18 
REMARK    8  A    between atoms: C_22  and  C_20 
ROOT
ATOM      1  C   UNL d   1       3.373   4.265  -1.980  0.00  0.00     0.129 A 
ATOM      2  C   UNL d   1       2.181   3.948  -1.313  0.00  0.00     0.068 A 
ATOM      3  C   UNL d   1       1.308   5.014  -1.036  0.00  0.00     0.050 A 
ATOM      4  C   UNL d   1       3.732   5.580  -2.303  0.00  0.00     0.040 A 
ATOM      5  C   UNL d   1       1.647   6.343  -1.333  0.00  0.00     0.002 A 
ATOM      6  C   UNL d   1       2.866   6.616  -1.965  0.00  0.00     0.021 A 
ENDROOT
BRANCH   2   7
ATOM      7  N   UNL d   1       1.808   2.611  -1.107  0.00  0.00    -0.335 N 
ATOM      8  C   UNL d   1       1.263   2.102  -0.057  0.00  0.00     0.148 C 
ATOM      9  HN  UNL d   1       1.990   1.968  -1.878  1.00  0.00     0.168 HD
BRANCH   8  10
ATOM     10  N   UNL d   1       0.875   0.790  -0.007  0.00  0.00    -0.283 N 
ATOM     11  C   UNL d   1       0.719  -0.069  -1.059  0.00  0.00     0.366 C 
ATOM     12  O   UNL d   1       1.133   0.052  -2.202  0.00  0.00    -0.238 OA
ATOM     13  H   UNL d   1       0.406   0.498   0.835  0.00  0.00     0.173 HD
BRANCH  11  14
ATOM     14  O   UNL d   1      -0.029  -1.118  -0.626  0.00  0.00    -0.309 OA
ATOM     15  C   UNL d   1      -0.420  -2.029  -1.656  0.00  0.00     0.215 C 
ENDBRANCH  11  14
ENDBRANCH   8  10
BRANCH   8  16
ATOM     16  S   UNL d   1       0.796   2.854   1.446  0.00  0.00    -0.098 SA
ATOM     17  C   UNL d   1       2.353   3.516   2.051  0.00  0.00     0.099 C 
ENDBRANCH   8  16
ENDBRANCH   2   7
BRANCH   1  18
ATOM     18  N   UNL d   1       4.264   3.211  -2.422  0.00  0.00    -0.113 N 
ATOM     19  O   UNL d   1       4.818   2.529  -1.546  0.00  0.00    -0.532 OA
ATOM     20  O   UNL d   1       4.491   3.142  -3.642  0.00  0.00    -0.532 OA
ENDBRANCH   1  18
BRANCH   5  21
ATOM     21  S   UNL d   1       0.541   7.722  -1.087  0.00  0.00    -0.130 SA
BRANCH  21  22
ATOM     22  C   UNL d   1      -0.298   7.315   0.485  0.00  0.00     0.079 C 
BRANCH  22  23
ATOM     23  C   UNL d   1      -1.229   8.477   0.833  0.00  0.00     0.006 C 
ATOM     24  C   UNL d   1      -1.996   8.230   2.122  0.00  0.00     0.006 C 
ENDBRANCH  22  23
ENDBRANCH  21  22
ENDBRANCH   5  21
TORSDOF 8
