REMARK  7 active torsions:
REMARK  status: ('A' for Active; 'I' for Inactive)
REMARK    1  A    between atoms: C_12  and  C_1 
REMARK    2  A    between atoms: S_14  and  C_2 
REMARK    3  A    between atoms: N_4  and  C_3 
REMARK    4  A    between atoms: N_9  and  C_13 
REMARK    5  A    between atoms: C_11  and  S_14 
REMARK    6  A    between atoms: O_22  and  C_12 
REMARK    7  A    between atoms: C_24  and  O_22 
ROOT
ATOM      1  S   UNL d   1       1.642   2.642   0.266  0.00  0.00    -0.063 SA
ENDROOT
BRANCH   1   2
ATOM      2  C   UNL d   1       1.798   2.973  -1.485  0.00  0.00     0.040 A 
ATOM      3  C   UNL d   1       2.929   2.659  -2.255  0.00  0.00     0.122 A 
ATOM      4  C   UNL d   1       3.040   3.002  -3.612  0.00  0.00     0.073 A 
ATOM      5  C   UNL d   1       1.985   3.694  -4.214  0.00  0.00     0.105 A 
ATOM      6  C   UNL d   1       0.836   4.013  -3.479  0.00  0.00     0.037 A 
ATOM      7  C   UNL d   1       0.748   3.653  -2.125  0.00  0.00     0.024 A 
BRANCH   3   8
ATOM      8  N   UNL d   1       4.049   1.951  -1.672  0.00  0.00    -0.114 N 
ATOM      9  O   UNL d   1       4.256   0.805  -2.088  0.00  0.00    -0.532 OA
ATOM     10  O   UNL d   1       4.739   2.564  -0.848  0.00  0.00    -0.532 OA
ENDBRANCH   3   8
BRANCH   5  11
ATOM     11  N   UNL d   1       2.093   4.102  -5.621  0.00  0.00    -0.116 N 
ATOM     12  O   UNL d   1       3.146   3.835  -6.215  0.00  0.00    -0.532 OA
ATOM     13  O   UNL d   1       1.127   4.693  -6.123  0.00  0.00    -0.532 OA
ENDBRANCH   5  11
ENDBRANCH   1   2
BRANCH   1  14
ATOM     14  C   UNL d   1       0.704   1.165   0.172  0.00  0.00     0.118 A 
ATOM     15  S   UNL d   1       1.416  -0.381   0.241  0.00  0.00    -0.057 SA
ATOM     16  C   UNL d   1      -0.140  -1.100   0.089  0.00  0.00     0.104 A 
ATOM     17  C   UNL d   1      -1.105  -0.101   0.046  0.00  0.00     0.030 A 
ATOM     18  N   UNL d   1      -0.602   1.196   0.069  0.00  0.00    -0.347 N 
ATOM     19  C   UNL d   1      -2.583  -0.260  -0.042  0.00  0.00     0.070 C 
ATOM     20  HN  UNL d   1      -1.166   2.044   0.014  1.00  0.00     0.167 HD
BRANCH  16  21
ATOM     21  C   UNL d   1      -0.236  -2.540  -0.008  0.00  0.00     0.302 C 
ATOM     22  O   UNL d   1       0.700  -3.329   0.005  0.00  0.00    -0.259 OA
BRANCH  21  23
ATOM     23  O   UNL d   1      -1.534  -2.904  -0.215  0.00  0.00    -0.317 OA
BRANCH  23  24
ATOM     24  C   UNL d   1      -1.741  -4.229  -0.722  0.00  0.00     0.174 C 
ATOM     25  C   UNL d   1      -1.690  -4.167  -2.238  0.00  0.00     0.034 C 
ENDBRANCH  23  24
ENDBRANCH  21  23
ENDBRANCH  16  21
ENDBRANCH   1  14
TORSDOF 7
