REMARK  10 active torsions:
REMARK  status: ('A' for Active; 'I' for Inactive)
REMARK    1  A    between atoms: N_3  and  C_1 
REMARK    2  A    between atoms: N_4  and  C_2 
REMARK    3  A    between atoms: C_5  and  O_17 
REMARK    4  A    between atoms: O_18  and  C_6 
REMARK    5  A    between atoms: C_7  and  C_20 
REMARK    6  A    between atoms: C_8  and  C_19 
REMARK    7  A    between atoms: C_24  and  C_9 
REMARK    8  A    between atoms: C_23  and  C_10 
REMARK    9  A    between atoms: O_17  and  C_11 
REMARK   10  A    between atoms: C_12  and  O_18 
ROOT
ATOM      1  C   UNL d   1       2.339  -2.801  -0.023  0.00  0.00     0.084 C 
ATOM      2  C   UNL d   1       5.092  -3.234   0.132  0.00  0.00     0.084 C 
ATOM      3  C   UNL d   1       4.396  -3.891  -0.883  0.00  0.00    -0.014 C 
ATOM      4  C   UNL d   1       3.023  -2.257   1.078  0.00  0.00    -0.014 C 
ATOM      5  C   UNL d   1       3.051  -3.512  -1.020  0.00  0.00     0.048 C 
ATOM      6  C   UNL d   1       4.426  -2.368   1.029  0.00  0.00     0.048 C 
ENDROOT
BRANCH   1   7
ATOM      7  O   UNL d   1       0.961  -2.650  -0.103  0.00  0.00    -0.308 OA
BRANCH   7   8
ATOM      8  C   UNL d   1       0.266  -3.403  -1.024  0.00  0.00     0.109 A 
ATOM      9  C   UNL d   1       0.190  -4.805  -1.042  0.00  0.00     0.137 A 
ATOM     10  C   UNL d   1      -0.356  -5.463  -2.161  0.00  0.00     0.055 A 
ATOM     11  C   UNL d   1      -0.883  -4.731  -3.238  0.00  0.00     0.050 A 
ATOM     12  C   UNL d   1      -0.921  -3.333  -3.146  0.00  0.00     0.019 A 
ATOM     13  C   UNL d   1      -0.351  -2.675  -2.050  0.00  0.00     0.040 A 
BRANCH   9  14
ATOM     14  N   UNL d   1       0.714  -5.636   0.047  0.00  0.00    -0.113 N 
ATOM     15  O   UNL d   1       0.846  -5.134   1.169  0.00  0.00    -0.532 OA
ATOM     16  O   UNL d   1       0.967  -6.821  -0.215  0.00  0.00    -0.532 OA
ENDBRANCH   9  14
BRANCH  11  17
ATOM     17  C   UNL d   1      -1.384  -5.430  -4.483  0.00  0.00     0.417 C 
ATOM     18  F   UNL d   1      -1.128  -6.766  -4.489  0.00  0.00    -0.166 F 
ATOM     19  F   UNL d   1      -2.726  -5.300  -4.650  0.00  0.00    -0.166 F 
ATOM     20  F   UNL d   1      -0.809  -4.937  -5.615  0.00  0.00    -0.166 F 
ENDBRANCH  11  17
ENDBRANCH   7   8
ENDBRANCH   1   7
BRANCH   4  21
ATOM     21  C   UNL d   1       2.378  -1.587   2.319  0.00  0.00    -0.021 C 
ATOM     22  C   UNL d   1       0.925  -2.021   2.617  0.00  0.00     0.019 C 
ATOM     23  C   UNL d   1       3.163  -1.943   3.618  0.00  0.00     0.019 C 
ATOM     24  C   UNL d   1       2.398  -0.055   2.161  0.00  0.00     0.019 C 
ENDBRANCH   4  21
BRANCH   3  25
ATOM     25  C   UNL d   1       4.977  -4.979  -1.819  0.00  0.00    -0.021 C 
ATOM     26  C   UNL d   1       6.074  -5.848  -1.157  0.00  0.00     0.019 C 
ATOM     27  C   UNL d   1       3.894  -6.010  -2.259  0.00  0.00     0.019 C 
ATOM     28  C   UNL d   1       5.551  -4.326  -3.085  0.00  0.00     0.019 C 
ENDBRANCH   3  25
BRANCH   2  29
ATOM     29  O   UNL d   1       6.463  -3.363   0.197  0.00  0.00    -0.308 OA
BRANCH  29  30
ATOM     30  C   UNL d   1       7.086  -3.551   1.412  0.00  0.00     0.109 A 
ATOM     31  C   UNL d   1       8.439  -3.218   1.514  0.00  0.00     0.137 A 
ATOM     32  C   UNL d   1       9.154  -3.370   2.714  0.00  0.00     0.055 A 
ATOM     33  C   UNL d   1       8.504  -3.871   3.850  0.00  0.00     0.050 A 
ATOM     34  C   UNL d   1       7.150  -4.226   3.748  0.00  0.00     0.019 A 
ATOM     35  C   UNL d   1       6.456  -4.094   2.538  0.00  0.00     0.040 A 
BRANCH  31  36
ATOM     36  N   UNL d   1       9.151  -2.719   0.352  0.00  0.00    -0.113 N 
ATOM     37  O   UNL d   1       9.246  -3.466  -0.626  0.00  0.00    -0.532 OA
ATOM     38  O   UNL d   1       9.661  -1.593   0.458  0.00  0.00    -0.532 OA
ENDBRANCH  31  36
BRANCH  33  39
ATOM     39  C   UNL d   1       9.233  -4.057   5.153  0.00  0.00     0.417 C 
ATOM     40  F   UNL d   1      10.566  -3.796   5.073  0.00  0.00    -0.166 F 
ATOM     41  F   UNL d   1       8.749  -3.250   6.142  0.00  0.00    -0.166 F 
ATOM     42  F   UNL d   1       9.132  -5.331   5.627  0.00  0.00    -0.166 F 
ENDBRANCH  33  39
ENDBRANCH  29  30
ENDBRANCH   2  29
TORSDOF 10
