REMARK  5 active torsions:
REMARK  status: ('A' for Active; 'I' for Inactive)
REMARK    1  A    between atoms: C_13  and  N_1 
REMARK    2  A    between atoms: C_10  and  C_2 
REMARK    3  A    between atoms: N_3  and  C_7 
REMARK    4  A    between atoms: C_4  and  C_11 
REMARK    5  A    between atoms: C_24  and  C_13 
ROOT
ATOM      1  N   UNL d   1       0.866  -0.664   0.080  0.00  0.00    -0.337 N 
ATOM      2  C   UNL d   1       0.923   0.721   0.073  0.00  0.00     0.117 A 
ATOM      3  N   UNL d   1      -0.309   1.209   0.031  0.00  0.00    -0.350 N 
ATOM      4  HN  UNL d   1      -0.570   2.194   0.002  1.00  0.00     0.166 HD
ATOM      5  C   UNL d   1      -1.163   0.142   0.033  0.00  0.00     0.107 A 
ATOM      6  C   UNL d   1      -0.461  -1.034   0.045  0.00  0.00     0.110 A 
ENDROOT
BRANCH   1   7
ATOM      7  C   UNL d   1       1.962  -1.625   0.014  0.00  0.00     0.168 C 
BRANCH   7   8
ATOM      8  C   UNL d   1       2.514  -2.015   1.373  0.00  0.00    -0.040 A 
ATOM      9  C   UNL d   1       1.705  -2.107   2.518  0.00  0.00     0.011 A 
ATOM     10  C   UNL d   1       2.251  -2.437   3.762  0.00  0.00     0.037 A 
ATOM     11  C   UNL d   1       3.622  -2.697   3.867  0.00  0.00     0.102 A 
ATOM     12  C   UNL d   1       4.442  -2.638   2.735  0.00  0.00     0.037 A 
ATOM     13  C   UNL d   1       3.885  -2.311   1.494  0.00  0.00     0.011 A 
BRANCH  11  14
ATOM     14  N   UNL d   1       4.199  -3.033   5.173  0.00  0.00    -0.116 N 
ATOM     15  O   UNL d   1       5.420  -3.241   5.226  0.00  0.00    -0.532 OA
ATOM     16  O   UNL d   1       3.432  -3.090   6.146  0.00  0.00    -0.532 OA
ENDBRANCH  11  14
ENDBRANCH   7   8
ENDBRANCH   1   7
BRANCH   2  17
ATOM     17  C   UNL d   1       2.129   1.567   0.063  0.00  0.00     0.008 A 
ATOM     18  C   UNL d   1       2.124   2.764  -0.671  0.00  0.00     0.016 A 
ATOM     19  C   UNL d   1       3.253   3.593  -0.707  0.00  0.00     0.017 A 
ATOM     20  C   UNL d   1       4.419   3.241  -0.014  0.00  0.00     0.048 A 
ATOM     21  C   UNL d   1       4.416   2.067   0.746  0.00  0.00     0.017 A 
ATOM     22  C   UNL d   1       3.275   1.261   0.800  0.00  0.00     0.016 A 
BRANCH  20  23
ATOM     23  C   UNL d   1       5.640   4.128  -0.058  0.00  0.00     0.417 C 
ATOM     24  F   UNL d   1       6.713   3.601   0.600  0.00  0.00    -0.166 F 
ATOM     25  F   UNL d   1       6.068   4.365  -1.329  0.00  0.00    -0.166 F 
ATOM     26  F   UNL d   1       5.424   5.349   0.502  0.00  0.00    -0.166 F 
ENDBRANCH  20  23
ENDBRANCH   2  17
TORSDOF 5
