REMARK  4 active torsions:
REMARK  status: ('A' for Active; 'I' for Inactive)
REMARK    1  A    between atoms: N_5  and  C_1 
REMARK    2  A    between atoms: S_8  and  C_2 
REMARK    3  A    between atoms: C_13  and  S_8 
REMARK    4  A    between atoms: C_11  and  C_12 
ROOT
ATOM      1  S   UNL d   1       0.477  -2.986  -0.197  0.00  0.00    -0.069 SA
ENDROOT
BRANCH   1   2
ATOM      2  C   UNL d   1      -0.073  -4.346   0.735  0.00  0.00     0.128 A 
ATOM      3  C   UNL d   1      -0.491  -4.483   2.049  0.00  0.00     0.209 A 
ATOM      4  N   UNL d   1      -0.992  -5.755   2.280  0.00  0.00    -0.331 N 
ATOM      5  C   UNL d   1      -0.892  -6.373   1.129  0.00  0.00     0.185 A 
ATOM      6  HN  UNL d   1      -1.358  -6.129   3.156  1.00  0.00     0.168 HD
ATOM      7  N   UNL d   1      -0.324  -5.577   0.167  0.00  0.00    -0.339 N 
ATOM      8  C   UNL d   1      -0.103  -6.039  -1.183  0.00  0.00     0.158 C 
BRANCH   3   9
ATOM      9  N   UNL d   1      -0.519  -3.507   3.122  0.00  0.00    -0.095 N 
ATOM     10  O   UNL d   1      -0.101  -2.368   2.874  0.00  0.00    -0.530 OA
ATOM     11  O   UNL d   1      -0.957  -3.879   4.220  0.00  0.00    -0.530 OA
ENDBRANCH   3   9
ENDBRANCH   1   2
BRANCH   1  12
ATOM     12  C   UNL d   1       2.242  -3.102   0.035  0.00  0.00     0.007 A 
ATOM     13  C   UNL d   1       3.029  -3.647  -0.978  0.00  0.00     0.019 A 
ATOM     14  C   UNL d   1       4.426  -3.646  -0.880  0.00  0.00     0.009 A 
ATOM     15  C   UNL d   1       5.089  -3.088   0.228  0.00  0.00    -0.051 A 
ATOM     16  C   UNL d   1       4.283  -2.543   1.241  0.00  0.00     0.009 A 
ATOM     17  C   UNL d   1       2.880  -2.543   1.144  0.00  0.00     0.019 A 
BRANCH  15  18
ATOM     18  C   UNL d   1       6.628  -3.083   0.278  0.00  0.00    -0.024 C 
ATOM     19  C   UNL d   1       7.212  -2.421   1.546  0.00  0.00     0.019 C 
ATOM     20  C   UNL d   1       7.153  -4.535   0.232  0.00  0.00     0.019 C 
ATOM     21  C   UNL d   1       7.200  -2.314  -0.936  0.00  0.00     0.019 C 
ENDBRANCH  15  18
ENDBRANCH   1  12
TORSDOF 4
