REMARK  5 active torsions:
REMARK  status: ('A' for Active; 'I' for Inactive)
REMARK       I    between atoms: N_2  and  C_1 
REMARK    1  A    between atoms: C_3  and  C_1 
REMARK       I    between atoms: C_4  and  N_2 
REMARK       I    between atoms: N_8  and  C_4 
REMARK    2  A    between atoms: C_6  and  C_5 
REMARK       I    between atoms: N_9  and  C_6 
REMARK    3  A    between atoms: C_7  and  N_8 
REMARK    4  A    between atoms: C_18  and  N_9 
REMARK    5  A    between atoms: C_10  and  C_18 
ROOT
ATOM      1  C   UNL d   1       4.195  -3.911  -3.990  0.00  0.00     0.264 C 
ATOM      2  N   UNL d   1       3.861  -2.825  -3.193  0.00  0.00    -0.275 N 
ATOM      3  C   UNL d   1       2.577  -2.395  -2.979  0.00  0.00     0.327 C 
ATOM      4  N   UNL d   1       2.377  -1.629  -1.860  0.00  0.00    -0.308 N 
ATOM      5  O   UNL d   1       3.442  -4.422  -4.807  0.00  0.00    -0.267 OA
ATOM      6  O   UNL d   1       1.588  -2.726  -3.622  0.00  0.00    -0.247 OA
ATOM      7  H   UNL d   1       4.561  -2.477  -2.558  0.00  0.00     0.173 HD
ATOM      8  H   UNL d   1       1.406  -1.663  -1.556  0.00  0.00     0.170 HD
ENDROOT
BRANCH   4   9
ATOM      9  C   UNL d   1       3.286  -0.969  -1.016  0.00  0.00     0.052 A 
ATOM     10  C   UNL d   1       3.102  -0.990   0.378  0.00  0.00     0.058 A 
ATOM     11  C   UNL d   1       3.914  -0.191   1.198  0.00  0.00     0.019 A 
ATOM     12  C   UNL d   1       4.901   0.622   0.640  0.00  0.00     0.001 A 
ATOM     13  C   UNL d   1       5.090   0.635  -0.740  0.00  0.00     0.002 A 
ATOM     14  C   UNL d   1       4.290  -0.160  -1.567  0.00  0.00     0.030 A 
BRANCH  10  15
ATOM     15  C   UNL d   1       2.108  -1.870   1.066  0.00  0.00     0.253 C 
ATOM     16  N   UNL d   1       1.815  -3.074   0.458  0.00  0.00    -0.356 N 
ATOM     17  H   UNL d   1       2.287  -3.354  -0.390  0.00  0.00     0.162 HD
ATOM     18  O   UNL d   1       1.625  -1.520   2.135  0.00  0.00    -0.268 OA
BRANCH  16  19
ATOM     19  C   UNL d   1       0.859  -3.986   1.041  0.00  0.00     0.127 C 
BRANCH  19  20
ATOM     20  C   UNL d   1       0.715  -5.208   0.191  0.00  0.00     0.003 A 
ATOM     21  C   UNL d   1       0.103  -5.155  -1.188  0.00  0.00     0.007 A 
ATOM     22  C   UNL d   1      -0.659  -5.783  -0.055  0.00  0.00     0.007 A 
ENDBRANCH  19  20
ENDBRANCH  16  19
ENDBRANCH  10  15
ENDBRANCH   4   9
BRANCH   1  23
ATOM     23  C   UNL d   1       5.591  -4.433  -3.856  0.00  0.00     0.092 A 
ATOM     24  C   UNL d   1       6.616  -3.578  -3.432  0.00  0.00     0.133 A 
ATOM     25  F   UNL d   1       6.350  -2.309  -3.082  0.00  0.00    -0.205 F 
ATOM     26  C   UNL d   1       7.943  -3.999  -3.344  0.00  0.00     0.043 A 
ATOM     27  C   UNL d   1       8.275  -5.304  -3.684  0.00  0.00     0.005 A 
ATOM     28  C   UNL d   1       7.274  -6.182  -4.094  0.00  0.00     0.025 A 
ATOM     29  C   UNL d   1       5.934  -5.758  -4.176  0.00  0.00     0.052 A 
ATOM     30 CL   UNL d   1       4.794  -6.979  -4.619  0.00  0.00    -0.083 Cl
ENDBRANCH   1  23
TORSDOF 5
