REMARK  7 active torsions:
REMARK  status: ('A' for Active; 'I' for Inactive)
REMARK    1  A    between atoms: C_2  and  C_1 
REMARK    2  A    between atoms: C_3  and  C_1 
REMARK    3  A    between atoms: C_5  and  C_1 
REMARK    4  A    between atoms: O_20  and  C_1 
REMARK       I    between atoms: C_4  and  N_6 
REMARK       I    between atoms: N_9  and  C_4 
REMARK    5  A    between atoms: O_22  and  C_5 
REMARK    6  A    between atoms: N_6  and  C_7 
REMARK    7  A    between atoms: C_13  and  N_9 
ROOT
ATOM      1  C   UNL d   1       0.830  -0.299   0.397  0.00  0.00    -0.004 C 
ATOM      2  C   UNL d   1      -1.998  -0.090   0.099  0.00  0.00     0.042 C 
ATOM      3  C   UNL d   1       0.104   0.723   1.037  0.00  0.00     0.020 C 
ATOM      4  C   UNL d   1      -1.304   0.833   0.909  0.00  0.00    -0.035 C 
ATOM      5  C   UNL d   1       0.089  -1.303  -0.229  0.00  0.00     0.013 C 
ATOM      6  C   UNL d   1      -1.291  -1.196  -0.376  0.00  0.00     0.031 C 
ATOM      7  C   UNL d   1      -2.003   1.906   1.702  0.00  0.00     0.050 C 
ENDROOT
BRANCH   2   8
ATOM      8  N   UNL d   1      -3.344   0.160  -0.299  0.00  0.00    -0.308 N 
ATOM      9  C   UNL d   1      -4.055  -0.574  -1.242  0.00  0.00     0.325 C 
ATOM     10  N   UNL d   1      -5.175   0.098  -1.710  0.00  0.00    -0.309 N 
ATOM     11  O   UNL d   1      -3.718  -1.680  -1.655  0.00  0.00    -0.247 OA
ATOM     12  H   UNL d   1      -5.367   1.006  -1.318  0.00  0.00     0.170 HD
ATOM     13  H   UNL d   1      -3.758   1.019   0.019  0.00  0.00     0.170 HD
BRANCH  10  14
ATOM     14  C   UNL d   1      -6.035  -0.338  -2.753  0.00  0.00     0.037 A 
ATOM     15  C   UNL d   1      -5.887  -1.552  -3.438  0.00  0.00     0.053 A 
ATOM     16  C   UNL d   1      -6.758  -1.905  -4.471  0.00  0.00     0.036 A 
ATOM     17 CL   UNL d   1      -6.545  -3.401  -5.298  0.00  0.00    -0.084 Cl
ATOM     18  C   UNL d   1      -7.794  -1.056  -4.840  0.00  0.00     0.024 A 
ATOM     19  C   UNL d   1      -7.957   0.154  -4.168  0.00  0.00     0.004 A 
ATOM     20  C   UNL d   1      -7.084   0.511  -3.134  0.00  0.00     0.029 A 
ENDBRANCH  10  14
ENDBRANCH   2   8
BRANCH   1  21
ATOM     21  C   UNL d   1       2.358  -0.293   0.283  0.00  0.00     0.271 C 
BRANCH  21  22
ATOM     22  C   UNL d   1       2.912   1.011  -0.346  0.00  0.00     0.432 C 
ATOM     23  F   UNL d   1       1.973   1.746  -0.990  0.00  0.00    -0.167 F 
ATOM     24  F   UNL d   1       3.520   1.833   0.535  0.00  0.00    -0.167 F 
ATOM     25  F   UNL d   1       3.851   0.693  -1.285  0.00  0.00    -0.167 F 
ENDBRANCH  21  22
BRANCH  21  26
ATOM     26  C   UNL d   1       3.075  -0.408   1.631  0.00  0.00     0.307 C 
ATOM     27  O   UNL d   1       2.663   0.020   2.701  0.00  0.00    -0.261 OA
BRANCH  26  28
ATOM     28  O   UNL d   1       4.295  -1.015   1.470  0.00  0.00    -0.324 OA
ATOM     29  C   UNL d   1       5.045  -1.177   2.676  0.00  0.00     0.213 C 
ENDBRANCH  26  28
ENDBRANCH  21  26
BRANCH  21  30
ATOM     30  O   UNL d   1       2.738  -1.439  -0.540  0.00  0.00    -0.368 OA
ATOM     31  H   UNL d   1       3.624  -1.247  -0.904  0.00  0.00     0.212 HD
ENDBRANCH  21  30
ENDBRANCH   1  21
TORSDOF 7
