REMARK  3 active torsions:
REMARK  status: ('A' for Active; 'I' for Inactive)
REMARK    1  A    between atoms: C_14  and  C_4 
REMARK    2  A    between atoms: N_7  and  N_9 
REMARK    3  A    between atoms: C_10  and  C_13 
ROOT
ATOM      1  N   UNL d   1       1.629  -0.651  -0.611  0.00  0.00    -0.334 N 
ATOM      2  HN  UNL d   1       0.752  -0.892  -1.071  1.00  0.00     0.168 HD
ATOM      3  C   UNL d   1       2.455  -1.525  -0.078  0.00  0.00     0.163 A 
ATOM      4  C   UNL d   1       2.110   0.637  -0.464  0.00  0.00     0.051 A 
ATOM      5  S   UNL d   1       3.856  -0.827   0.656  0.00  0.00    -0.062 SA
ATOM      6  C   UNL d   1       3.299   0.736   0.232  0.00  0.00     0.083 A 
ATOM      7  N   UNL d   1       2.299  -2.876  -0.078  0.00  0.00    -0.279 N 
ATOM      8  H   UNL d   1       3.122  -3.420   0.156  0.00  0.00     0.189 HD
ENDROOT
BRANCH   7   9
ATOM      9  N   UNL d   1       1.072  -3.462  -0.111  0.00  0.00    -0.302 N 
ATOM     10  C   UNL d   1       0.979  -4.758  -0.054  0.00  0.00     0.033 C 
ATOM     11  C   UNL d   1       2.173  -5.688  -0.021  0.00  0.00     0.070 C 
ATOM     12  HN  UNL d   1       0.231  -2.889  -0.180  1.00  0.00     0.186 HD
BRANCH  10  13
ATOM     13  C   UNL d   1      -0.386  -5.359  -0.051  0.00  0.00     0.003 A 
ATOM     14  C   UNL d   1      -0.662  -6.570   0.562  0.00  0.00     0.101 A 
ATOM     15  N   UNL d   1      -1.884  -7.156   0.573  0.00  0.00    -0.369 N 
ATOM     16  C   UNL d   1      -2.895  -6.497  -0.040  0.00  0.00     0.005 A 
ATOM     17  HN  UNL d   1      -2.035  -8.058   1.025  1.00  0.00     0.165 HD
ATOM     18  C   UNL d   1      -2.716  -5.263  -0.658  0.00  0.00     0.025 A 
ATOM     19  C   UNL d   1      -4.239  -7.161  -0.014  0.00  0.00     0.068 C 
ATOM     20  C   UNL d   1      -1.446  -4.686  -0.658  0.00  0.00     0.017 A 
ENDBRANCH  10  13
ENDBRANCH   7   9
BRANCH   4  21
ATOM     21  C   UNL d   1       1.407   1.772  -1.050  0.00  0.00    -0.009 A 
ATOM     22  C   UNL d   1       1.463   3.051  -0.475  0.00  0.00     0.015 A 
ATOM     23  C   UNL d   1       0.797   4.122  -1.063  0.00  0.00     0.024 A 
ATOM     24  C   UNL d   1       0.064   3.929  -2.237  0.00  0.00     0.034 A 
ATOM     25  C   UNL d   1      -0.005   2.668  -2.820  0.00  0.00     0.024 A 
ATOM     26 CL   UNL d   1      -0.754   5.259  -2.959  0.00  0.00    -0.084 Cl
ATOM     27  C   UNL d   1       0.664   1.589  -2.224  0.00  0.00     0.015 A 
ENDBRANCH   4  21
TORSDOF 3
