REMARK  6 active torsions:
REMARK  status: ('A' for Active; 'I' for Inactive)
REMARK    1  A    between atoms: C_6  and  C_1 
REMARK    2  A    between atoms: C_8  and  C_2 
REMARK    3  A    between atoms: C_13  and  N_3 
REMARK    4  A    between atoms: O_18  and  C_8 
REMARK    5  A    between atoms: N_11  and  O_18 
REMARK    6  A    between atoms: C_21  and  C_19 
ROOT
ATOM      1  N   UNL d   1      -5.823 -11.036   0.963  0.00  0.00    -0.191 NA
ATOM      2  C   UNL d   1      -5.429  -9.946   0.975  0.00  0.00     0.099 C 
ATOM      3  C   UNL d   1      -4.944  -8.594   0.990  0.00  0.00     0.044 A 
ATOM      4  C   UNL d   1      -3.990  -5.955   1.024  0.00  0.00    -0.019 A 
ATOM      5  C   UNL d   1      -3.770  -8.264   0.306  0.00  0.00     0.023 A 
ATOM      6  C   UNL d   1      -5.638  -7.599   1.692  0.00  0.00     0.023 A 
ATOM      7  C   UNL d   1      -3.296  -6.948   0.325  0.00  0.00     0.014 A 
ATOM      8  C   UNL d   1      -5.163  -6.279   1.713  0.00  0.00     0.014 A 
ENDROOT
BRANCH   4   9
ATOM      9  C   UNL d   1      -3.477  -4.561   1.038  0.00  0.00     0.126 C 
ATOM     10  N   UNL d   1      -2.401  -4.262   0.389  0.00  0.00    -0.268 N 
ATOM     11  HN  UNL d   1      -1.861  -4.933  -0.158  1.00  0.00     0.194 HD
BRANCH  10  12
ATOM     12  O   UNL d   1      -2.056  -2.899   0.525  0.00  0.00    -0.195 OA
BRANCH  12  13
ATOM     13  C   UNL d   1      -0.853  -2.679  -0.129  0.00  0.00     0.318 C 
ATOM     14  O   UNL d   1      -0.224  -3.517  -0.763  0.00  0.00    -0.257 OA
BRANCH  13  15
ATOM     15  C   UNL d   1      -0.371  -1.313   0.002  0.00  0.00     0.091 C 
ATOM     16  C   UNL d   1       0.959  -0.896  -0.022  0.00  0.00     0.158 C 
ATOM     17  N   UNL d   1       0.951   0.485   0.053  0.00  0.00    -0.251 N 
ATOM     18  N   UNL d   1      -0.311   0.941   0.300  0.00  0.00    -0.303 N 
ATOM     19  C   UNL d   1      -1.095  -0.130   0.202  0.00  0.00     0.127 C 
ATOM     20  HN  UNL d   1      -0.592   1.898   0.515  1.00  0.00     0.186 HD
BRANCH  16  21
ATOM     21  C   UNL d   1       2.198  -1.694   0.022  0.00  0.00     0.435 C 
ATOM     22  F   UNL d   1       1.988  -2.963   0.449  0.00  0.00    -0.165 F 
ATOM     23  F   UNL d   1       2.802  -1.780  -1.186  0.00  0.00    -0.165 F 
ATOM     24  F   UNL d   1       3.103  -1.174   0.891  0.00  0.00    -0.165 F 
ENDBRANCH  16  21
BRANCH  17  25
ATOM     25  C   UNL d   1       2.019   1.430  -0.049  0.00  0.00     0.057 A 
ATOM     26  C   UNL d   1       3.168   1.181  -0.809  0.00  0.00     0.031 A 
ATOM     27  C   UNL d   1       4.221   2.102  -0.824  0.00  0.00     0.002 A 
ATOM     28  C   UNL d   1       4.129   3.286  -0.098  0.00  0.00     0.000 A 
ATOM     29  C   UNL d   1       2.968   3.568   0.618  0.00  0.00     0.002 A 
ATOM     30  C   UNL d   1       1.910   2.654   0.632  0.00  0.00     0.031 A 
ENDBRANCH  17  25
ENDBRANCH  13  15
ENDBRANCH  12  13
ENDBRANCH  10  12
ENDBRANCH   4   9
TORSDOF 6
