REMARK  9 active torsions:
REMARK  status: ('A' for Active; 'I' for Inactive)
REMARK    1  A    between atoms: N_8  and  S_1 
REMARK    2  A    between atoms: C_12  and  S_1 
REMARK    3  A    between atoms: S_2  and  N_10 
REMARK    4  A    between atoms: C_13  and  S_2 
REMARK    5  A    between atoms: N_4  and  C_3 
REMARK    6  A    between atoms: C_5  and  N_8 
REMARK    7  A    between atoms: S_14  and  C_6 
REMARK    8  A    between atoms: N_10  and  C_7 
REMARK    9  A    between atoms: C_25  and  S_14 
ROOT
ATOM      1  C   UNL d   1       2.503   1.794   3.663  0.00  0.00     0.122 A 
ATOM      2  C   UNL d   1       0.951   1.563   1.830  0.00  0.00     0.072 A 
ATOM      3  C   UNL d   1       1.561   2.477   4.444  0.00  0.00     0.041 A 
ATOM      4  C   UNL d   1       0.004   2.306   2.563  0.00  0.00     0.071 A 
ATOM      5  C   UNL d   1       2.211   1.330   2.369  0.00  0.00     0.070 A 
ATOM      6  C   UNL d   1       0.305   2.729   3.867  0.00  0.00     0.054 A 
ENDROOT
BRANCH   2   7
ATOM      7  N   UNL d   1       0.639   1.014   0.556  0.00  0.00    -0.278 N 
ATOM      8  H   UNL d   1       0.728   0.009   0.412  0.00  0.00     0.179 HD
BRANCH   7   9
ATOM      9  S   UNL d   1       0.798   1.923  -0.846  0.00  0.00     0.263 S 
ATOM     10  O   UNL d   1       0.167   3.208  -0.611  0.00  0.00    -0.200 OA
ATOM     11  O   UNL d   1       0.382   1.070  -1.935  0.00  0.00    -0.200 OA
BRANCH   9  12
ATOM     12  C   UNL d   1       2.557   2.143  -0.972  0.00  0.00     0.079 A 
ATOM     13  C   UNL d   1       3.329   1.151  -1.589  0.00  0.00     0.026 A 
ATOM     14  C   UNL d   1       4.715   1.308  -1.677  0.00  0.00     0.008 A 
ATOM     15  C   UNL d   1       5.332   2.455  -1.162  0.00  0.00    -0.062 A 
ATOM     16  C   UNL d   1       4.544   3.454  -0.573  0.00  0.00     0.008 A 
ATOM     17  C   UNL d   1       6.825   2.600  -1.243  0.00  0.00     0.048 C 
ATOM     18  C   UNL d   1       3.157   3.305  -0.486  0.00  0.00     0.026 A 
ENDBRANCH   9  12
ENDBRANCH   7   9
ENDBRANCH   2   7
BRANCH   4  19
ATOM     19  N   UNL d   1      -1.260   2.676   2.014  0.00  0.00    -0.278 N 
ATOM     20  H   UNL d   1      -1.256   3.097   1.078  0.00  0.00     0.179 HD
BRANCH  19  21
ATOM     21  S   UNL d   1      -2.640   1.777   2.358  0.00  0.00     0.263 S 
ATOM     22  O   UNL d   1      -2.693   1.540   3.785  0.00  0.00    -0.200 OA
ATOM     23  O   UNL d   1      -3.742   2.413   1.662  0.00  0.00    -0.200 OA
BRANCH  21  24
ATOM     24  C   UNL d   1      -2.337   0.222   1.556  0.00  0.00     0.079 A 
ATOM     25  C   UNL d   1      -1.875  -0.868   2.297  0.00  0.00     0.026 A 
ATOM     26  C   UNL d   1      -1.568  -2.062   1.642  0.00  0.00     0.008 A 
ATOM     27  C   UNL d   1      -1.729  -2.175   0.253  0.00  0.00    -0.062 A 
ATOM     28  C   UNL d   1      -2.255  -1.093  -0.466  0.00  0.00     0.008 A 
ATOM     29  C   UNL d   1      -1.344  -3.446  -0.445  0.00  0.00     0.048 C 
ATOM     30  C   UNL d   1      -2.569   0.102   0.183  0.00  0.00     0.026 A 
ENDBRANCH  21  24
ENDBRANCH  19  21
ENDBRANCH   4  19
BRANCH   1  31
ATOM     31  N   UNL d   1       3.839   1.530   4.154  0.00  0.00    -0.114 N 
ATOM     32  O   UNL d   1       3.950   0.725   5.081  0.00  0.00    -0.532 OA
ATOM     33  O   UNL d   1       4.772   2.070   3.546  0.00  0.00    -0.532 OA
ENDBRANCH   1  31
BRANCH   3  34
ATOM     34  S   UNL d   1       1.887   3.173   6.062  0.00  0.00    -0.088 SA
BRANCH  34  35
ATOM     35  C   UNL d   1       1.462   1.827   7.156  0.00  0.00     0.005 A 
ATOM     36  C   UNL d   1       2.410   1.373   8.081  0.00  0.00     0.020 A 
ATOM     37  C   UNL d   1       2.114   0.309   8.940  0.00  0.00     0.025 A 
ATOM     38  C   UNL d   1       0.861  -0.296   8.883  0.00  0.00     0.034 A 
ATOM     39  C   UNL d   1      -0.105   0.173   7.996  0.00  0.00     0.025 A 
ATOM     40 CL   UNL d   1       0.506  -1.632   9.907  0.00  0.00    -0.084 Cl
ATOM     41  C   UNL d   1       0.192   1.238   7.140  0.00  0.00     0.020 A 
ENDBRANCH  34  35
ENDBRANCH   3  34
TORSDOF 9
