REMARK  8 active torsions:
REMARK  status: ('A' for Active; 'I' for Inactive)
REMARK    1  A    between atoms: C_4  and  S_1 
REMARK    2  A    between atoms: N_6  and  S_1 
REMARK    3  A    between atoms: S_2  and  C_3 
REMARK    4  A    between atoms: N_7  and  S_2 
REMARK    5  A    between atoms: C_3  and  C_5 
REMARK    6  A    between atoms: C_5  and  C_4 
REMARK    7  A    between atoms: C_13  and  N_6 
REMARK    8  A    between atoms: C_14  and  N_7 
ROOT
ATOM      1  C   UNL d   1       1.008  -1.196   2.243  0.00  0.00     0.157 C 
ATOM      2  O   UNL d   1       0.589  -1.606   3.328  0.00  0.00    -0.296 OA
ENDROOT
BRANCH   1   3
ATOM      3  C   UNL d   1       1.952  -1.994   1.393  0.00  0.00     0.237 C 
BRANCH   3   4
ATOM      4  S   UNL d   1       3.283  -2.741   2.306  0.00  0.00     0.220 S 
ATOM      5  O   UNL d   1       2.832  -3.371   3.520  0.00  0.00    -0.211 OA
ATOM      6  O   UNL d   1       4.075  -3.484   1.345  0.00  0.00    -0.211 OA
BRANCH   4   7
ATOM      7  N   UNL d   1       4.256  -1.391   2.657  0.00  0.00    -0.185 NA
ATOM      8  H   UNL d   1       5.166  -1.562   2.217  0.00  0.00     0.146 HD
BRANCH   7   9
ATOM      9  C   UNL d   1       4.367  -0.972   4.016  0.00  0.00     0.022 A 
ATOM     10  C   UNL d   1       5.272  -1.592   4.880  0.00  0.00     0.026 A 
ATOM     11  C   UNL d   1       5.454  -1.088   6.172  0.00  0.00     0.026 A 
ATOM     12  C   UNL d   1       4.721   0.021   6.593  0.00  0.00     0.034 A 
ATOM     13  C   UNL d   1       3.786   0.612   5.744  0.00  0.00     0.026 A 
ATOM     14 CL   UNL d   1       4.988   0.684   8.158  0.00  0.00    -0.084 Cl
ATOM     15  C   UNL d   1       3.606   0.110   4.454  0.00  0.00     0.026 A 
ENDBRANCH   7   9
ENDBRANCH   4   7
ENDBRANCH   3   4
ENDBRANCH   1   3
BRANCH   1  16
ATOM     16  C   UNL d   1       0.580   0.170   1.783  0.00  0.00     0.237 C 
BRANCH  16  17
ATOM     17  S   UNL d   1      -0.103   0.117   0.151  0.00  0.00     0.220 S 
ATOM     18  O   UNL d   1      -1.252  -0.760   0.171  0.00  0.00    -0.211 OA
ATOM     19  O   UNL d   1       0.969  -0.075  -0.799  0.00  0.00    -0.211 OA
BRANCH  17  20
ATOM     20  N   UNL d   1      -0.728   1.682   0.009  0.00  0.00    -0.185 NA
ATOM     21  H   UNL d   1      -1.716   1.631  -0.254  0.00  0.00     0.146 HD
BRANCH  20  22
ATOM     22  C   UNL d   1       0.024   2.650  -0.718  0.00  0.00     0.022 A 
ATOM     23  C   UNL d   1       0.008   2.661  -2.114  0.00  0.00     0.026 A 
ATOM     24  C   UNL d   1       0.681   3.671  -2.810  0.00  0.00     0.026 A 
ATOM     25  C   UNL d   1       1.365   4.659  -2.104  0.00  0.00     0.034 A 
ATOM     26  C   UNL d   1       1.403   4.634  -0.710  0.00  0.00     0.026 A 
ATOM     27 CL   UNL d   1       2.151   5.929  -2.957  0.00  0.00    -0.084 Cl
ATOM     28  C   UNL d   1       0.733   3.623  -0.014  0.00  0.00     0.026 A 
ENDBRANCH  20  22
ENDBRANCH  17  20
ENDBRANCH  16  17
ENDBRANCH   1  16
TORSDOF 8
