REMARK  5 active torsions:
REMARK  status: ('A' for Active; 'I' for Inactive)
REMARK    1  A    between atoms: S_4  and  C_1 
REMARK    2  A    between atoms: C_7  and  C_2 
REMARK    3  A    between atoms: C_10  and  S_4 
REMARK    4  A    between atoms: S_12  and  C_5 
REMARK    5  A    between atoms: O_14  and  C_7 
ROOT
ATOM      1  C   UNL d   1      -0.285  -1.292  -0.039  0.00  0.00     0.101 C 
ATOM      2  C   UNL d   1       1.001   0.706  -0.143  0.00  0.00     0.097 C 
ATOM      3  C   UNL d   1       1.004  -0.676  -0.291  0.00  0.00     0.053 C 
ATOM      4  C   UNL d   1      -1.262  -0.316   0.100  0.00  0.00     0.064 C 
ATOM      5  S   UNL d   1      -0.595   1.255   0.149  0.00  0.00    -0.074 SA
ATOM      6  I   UNL d   1       2.728  -1.711  -0.868  0.00  0.00    -0.041 I 
ENDROOT
BRANCH   1   7
ATOM      7  S   UNL d   1      -0.589  -3.014   0.062  0.00  0.00     0.182 S 
ATOM      8  O   UNL d   1       0.620  -3.570   0.633  0.00  0.00    -0.222 OA
ATOM      9  O   UNL d   1      -1.838  -3.160   0.781  0.00  0.00    -0.222 OA
BRANCH   7  10
ATOM     10  C   UNL d   1      -0.790  -3.608  -1.620  0.00  0.00     0.105 C 
ATOM     11  C   UNL d   1      -0.981  -5.125  -1.598  0.00  0.00     0.026 C 
ATOM     12  C   UNL d   1      -1.960  -2.946  -2.337  0.00  0.00     0.026 C 
ENDBRANCH   7  10
ENDBRANCH   1   7
BRANCH   4  13
ATOM     13  S   UNL d   1      -3.021  -0.453   0.157  0.00  0.00    -0.126 SA
ATOM     14  C   UNL d   1      -3.302  -0.453   1.941  0.00  0.00     0.096 C 
ENDBRANCH   4  13
BRANCH   2  15
ATOM     15  C   UNL d   1       2.088   1.681  -0.224  0.00  0.00     0.184 C 
ATOM     16  O   UNL d   1       3.253   1.456  -0.514  0.00  0.00    -0.646 OA
BRANCH  15  17
ATOM     17  O   UNL d   1       1.696   2.951   0.078  0.00  0.00    -0.772 OA
ATOM     18  H   UNL d   1       0.748   3.008   0.304  0.00  0.00     0.167 HD
ENDBRANCH  15  17
ENDBRANCH   2  15
TORSDOF 5
