REMARK  6 active torsions:
REMARK  status: ('A' for Active; 'I' for Inactive)
REMARK    1  A    between atoms: C_9  and  C_1 
REMARK    2  A    between atoms: C_13  and  C_10 
REMARK    3  A    between atoms: O_19  and  C_13 
REMARK    4  A    between atoms: C_20  and  O_19 
REMARK    5  A    between atoms: C_21  and  C_20 
REMARK    6  A    between atoms: C_22  and  C_21 
ROOT
ATOM      1  C   UNL d   1       1.297   0.600   0.208  0.00  0.00     0.134 A 
ATOM      2  C   UNL d   1       0.088  -1.280   0.003  0.00  0.00     0.069 A 
ATOM      3  N   UNL d   1       0.165   0.959  -0.424  0.00  0.00    -0.294 N 
ATOM      4  HN  UNL d   1      -0.093   1.887  -0.760  1.00  0.00     0.187 HD
ATOM      5  C   UNL d   1       1.281  -0.790   0.502  0.00  0.00     0.068 A 
ATOM      6  N   UNL d   1      -0.551  -0.178  -0.516  0.00  0.00    -0.295 N 
ATOM      7  C   UNL d   1      -0.410  -2.631  -0.007  0.00  0.00     0.034 A 
ATOM      8  S   UNL d   1       0.015  -3.761   1.219  0.00  0.00    -0.082 SA
ATOM      9  C   UNL d   1      -0.844  -5.036   0.467  0.00  0.00     0.081 A 
ATOM     10  C   UNL d   1      -1.220  -3.227  -0.954  0.00  0.00     0.023 A 
ATOM     11  C   UNL d   1      -1.503  -4.589  -0.662  0.00  0.00     0.026 A 
ATOM     12  C   UNL d   1      -1.872  -0.095  -1.098  0.00  0.00     0.178 C 
ENDROOT
BRANCH   9  13
ATOM     13  C   UNL d   1      -0.747  -6.393   0.974  0.00  0.00     0.300 C 
ATOM     14  O   UNL d   1      -0.054  -6.788   1.902  0.00  0.00    -0.259 OA
BRANCH  13  15
ATOM     15  O   UNL d   1      -1.454  -7.219   0.145  0.00  0.00    -0.317 OA
BRANCH  15  16
ATOM     16  C   UNL d   1      -0.807  -8.454  -0.165  0.00  0.00     0.179 C 
BRANCH  16  17
ATOM     17  C   UNL d   1      -1.557  -9.649   0.406  0.00  0.00     0.026 C 
BRANCH  17  18
ATOM     18  C   UNL d   1      -0.914 -10.941  -0.099  0.00  0.00    -0.002 C 
ATOM     19  C   UNL d   1      -1.597 -12.183   0.440  0.00  0.00     0.005 C 
ENDBRANCH  17  18
ENDBRANCH  16  17
ENDBRANCH  15  16
ENDBRANCH  13  15
ENDBRANCH   9  13
BRANCH   1  20
ATOM     20  C   UNL d   1       2.404   1.569   0.529  0.00  0.00     0.434 C 
ATOM     21  F   UNL d   1       2.144   2.847   0.143  0.00  0.00    -0.165 F 
ATOM     22  F   UNL d   1       2.663   1.612   1.865  0.00  0.00    -0.165 F 
ATOM     23  F   UNL d   1       3.572   1.212  -0.074  0.00  0.00    -0.165 F 
ENDBRANCH   1  20
TORSDOF 6
