REMARK  2 active torsions:
REMARK  status: ('A' for Active; 'I' for Inactive)
REMARK    1  A    between atoms: C_2  and  C_1 
REMARK    2  A    between atoms: C_6  and  C_3 
ROOT
ATOM      1  C   UNL d   1       2.458   1.585   0.026  0.00  0.00     0.072 A 
ATOM      2  C   UNL d   1       3.467   1.617  -0.913  0.00  0.00     0.143 A 
ATOM      3  O   UNL d   1       4.417   2.502  -0.481  0.00  0.00    -0.234 OA
ATOM      4  N   UNL d   1       4.011   3.099   0.699  0.00  0.00    -0.264 N 
ATOM      5  HN  UNL d   1       4.512   3.809   1.233  1.00  0.00     0.194 HD
ATOM      6  C   UNL d   1       2.825   2.553   0.994  0.00  0.00     0.045 A 
ATOM      7  C   UNL d   1       2.103   2.966   2.222  0.00  0.00     0.071 C 
ENDROOT
BRANCH   1   8
ATOM      8  C   UNL d   1       1.275   0.749   0.085  0.00  0.00     0.142 A 
ATOM      9  N   UNL d   1       1.357  -0.585  -0.213  0.00  0.00    -0.323 N 
ATOM     10  C   UNL d   1       0.112  -0.975  -0.079  0.00  0.00     0.144 A 
ATOM     11  HN  UNL d   1       2.176  -1.135  -0.472  1.00  0.00     0.169 HD
ATOM     12  C   UNL d   1      -0.490  -2.293  -0.334  0.00  0.00     0.100 C 
ATOM     13  O   UNL d   1      -0.721   0.013   0.360  0.00  0.00    -0.223 OA
ATOM     14  N   UNL d   1       0.067   1.161   0.494  0.00  0.00    -0.242 N 
ATOM     15  HN  UNL d   1      -0.209   2.086   0.822  1.00  0.00     0.196 HD
ENDBRANCH   1   8
BRANCH   2  16
ATOM     16  C   UNL d   1       3.570   0.881  -2.206  0.00  0.00     0.094 A 
ATOM     17  N   UNL d   1       2.565   0.177  -2.737  0.00  0.00    -0.258 N 
ATOM     18  O   UNL d   1       3.045  -0.341  -3.922  0.00  0.00    -0.242 OA
ATOM     19  HN  UNL d   1       1.632   0.049  -2.345  1.00  0.00     0.195 HD
ATOM     20  C   UNL d   1       4.327   0.066  -4.107  0.00  0.00     0.074 A 
ATOM     21  C   UNL d   1       4.704   0.864  -3.053  0.00  0.00     0.068 A 
ATOM     22  C   UNL d   1       4.984  -0.416  -5.333  0.00  0.00     0.079 C 
ENDBRANCH   2  16
TORSDOF 2
