REMARK  6 active torsions:
REMARK  status: ('A' for Active; 'I' for Inactive)
REMARK    1  A    between atoms: C_3  and  S_1 
REMARK    2  A    between atoms: C_4  and  S_1 
REMARK    3  A    between atoms: C_2  and  C_5 
REMARK    4  A    between atoms: N_14  and  C_2 
REMARK    5  A    between atoms: C_11  and  C_4 
REMARK    6  A    between atoms: O_16  and  N_8 
ROOT
ATOM      1  C   UNL d   1      -0.368  -4.801   0.909  0.00  0.00     0.004 A 
ATOM      2  C   UNL d   1      -0.444  -3.631   0.139  0.00  0.00     0.022 A 
ATOM      3  C   UNL d   1      -1.187  -3.604  -1.052  0.00  0.00    -0.043 A 
ATOM      4  C   UNL d   1      -1.021  -5.960   0.482  0.00  0.00     0.015 A 
ATOM      5  C   UNL d   1      -1.747  -5.948  -0.709  0.00  0.00     0.002 A 
ATOM      6  C   UNL d   1      -1.829  -4.779  -1.471  0.00  0.00     0.008 A 
ENDROOT
BRANCH   3   7
ATOM      7  C   UNL d   1      -1.313  -2.324  -1.843  0.00  0.00     0.184 C 
BRANCH   7   8
ATOM      8  S   UNL d   1      -0.072  -2.270  -3.128  0.00  0.00     0.179 S 
ATOM      9  O   UNL d   1       1.246  -2.200  -2.528  0.00  0.00    -0.222 OA
ATOM     10  O   UNL d   1      -0.382  -3.272  -4.135  0.00  0.00    -0.222 OA
BRANCH   8  11
ATOM     11  C   UNL d   1      -0.358  -0.681  -3.904  0.00  0.00     0.059 A 
ATOM     12  C   UNL d   1       0.386   0.432  -3.494  0.00  0.00     0.025 A 
ATOM     13  C   UNL d   1       0.229   1.650  -4.162  0.00  0.00     0.025 A 
ATOM     14  C   UNL d   1      -0.659   1.746  -5.235  0.00  0.00     0.034 A 
ATOM     15  C   UNL d   1      -1.399   0.636  -5.644  0.00  0.00     0.025 A 
ATOM     16 CL   UNL d   1      -0.825   3.239  -6.074  0.00  0.00    -0.084 Cl
ATOM     17  C   UNL d   1      -1.246  -0.585  -4.981  0.00  0.00     0.025 A 
ENDBRANCH   8  11
ENDBRANCH   7   8
ENDBRANCH   3   7
BRANCH   1  18
ATOM     18  C   UNL d   1       0.371  -4.788   2.208  0.00  0.00     0.108 C 
ATOM     19  N   UNL d   1       0.491  -3.655   2.841  0.00  0.00    -0.258 N 
ATOM     20  HN  UNL d   1       0.114  -2.766   2.512  1.00  0.00     0.195 HD
BRANCH  19  21
ATOM     21  O   UNL d   1       1.210  -3.821   4.037  0.00  0.00    -0.289 OA
ATOM     22  H   UNL d   1       1.114  -2.944   4.451  0.00  0.00     0.244 HD
ENDBRANCH  19  21
BRANCH  18  23
ATOM     23  N   UNL d   1       0.895  -5.962   2.697  0.00  0.00    -0.287 NA
ATOM     24  H   UNL d   1       1.343  -6.548   2.002  0.00  0.00     0.125 HD
ATOM     25  H   UNL d   1       1.520  -5.750   3.472  0.00  0.00     0.125 HD
ENDBRANCH  18  23
ENDBRANCH   1  18
TORSDOF 6
