REMARK  8 active torsions:
REMARK  status: ('A' for Active; 'I' for Inactive)
REMARK    1  A    between atoms: C_7  and  C_1 
REMARK    2  A    between atoms: S_2  and  C_10 
REMARK    3  A    between atoms: N_9  and  S_2 
REMARK    4  A    between atoms: C_11  and  C_4 
REMARK    5  A    between atoms: C_8  and  C_5 
REMARK    6  A    between atoms: O_26  and  C_8 
REMARK    7  A    between atoms: C_25  and  N_9 
REMARK    8  A    between atoms: C_24  and  C_25 
ROOT
ATOM      1  C   UNL d   1       5.093   2.973   0.120  0.00  0.00     0.074 A 
ATOM      2  C   UNL d   1       2.703   1.476   0.062  0.00  0.00    -0.025 A 
ATOM      3  C   UNL d   1       4.849   2.098  -0.938  0.00  0.00     0.025 A 
ATOM      4  C   UNL d   1       4.162   3.096   1.144  0.00  0.00     0.025 A 
ATOM      5  C   UNL d   1       3.662   1.347  -0.957  0.00  0.00     0.014 A 
ATOM      6  C   UNL d   1       2.961   2.396   1.079  0.00  0.00     0.014 A 
ENDROOT
BRANCH   1   7
ATOM      7  S   UNL d   1       6.566   3.967   0.171  0.00  0.00     0.241 S 
ATOM      8  O   UNL d   1       7.227   3.709   1.427  0.00  0.00    -0.206 OA
ATOM      9  O   UNL d   1       7.229   3.804  -1.107  0.00  0.00    -0.206 OA
BRANCH   7  10
ATOM     10  N   UNL d   1       5.949   5.543   0.183  0.00  0.00    -0.211 NA
ATOM     11  H   UNL d   1       5.153   5.641  -0.450  0.00  0.00     0.140 HD
BRANCH  10  12
ATOM     12  C   UNL d   1       5.728   6.159   1.504  0.00  0.00     0.144 C 
BRANCH  12  13
ATOM     13  C   UNL d   1       5.175   7.550   1.386  0.00  0.00    -0.029 A 
ATOM     14  C   UNL d   1       3.942   7.888   1.936  0.00  0.00     0.096 A 
ATOM     15  N   UNL d   1       3.390   9.118   1.863  0.00  0.00    -0.375 N 
ATOM     16  C   UNL d   1       4.107  10.066   1.219  0.00  0.00     0.087 A 
ATOM     17  HN  UNL d   1       2.479   9.322   2.273  1.00  0.00     0.164 HD
ATOM     18  C   UNL d   1       5.347   9.837   0.648  0.00  0.00     0.018 A 
ATOM     19  C   UNL d   1       5.888   8.559   0.734  0.00  0.00     0.011 A 
ENDBRANCH  12  13
ENDBRANCH  10  12
ENDBRANCH   7  10
ENDBRANCH   1   7
BRANCH   2  20
ATOM     20  C   UNL d   1       1.452   0.696   0.025  0.00  0.00    -0.002 A 
ATOM     21  C   UNL d   1       0.743   0.256   1.147  0.00  0.00     0.100 A 
ATOM     22  S   UNL d   1      -0.638  -0.669   0.683  0.00  0.00    -0.079 SA
ATOM     23  C   UNL d   1      -0.318  -0.510  -0.980  0.00  0.00     0.081 A 
ATOM     24  C   UNL d   1       0.817   0.247  -1.188  0.00  0.00     0.038 A 
BRANCH  21  25
ATOM     25  C   UNL d   1       0.987   0.428   2.622  0.00  0.00     0.424 C 
ATOM     26  F   UNL d   1       0.130  -0.277   3.407  0.00  0.00    -0.166 F 
ATOM     27  F   UNL d   1       2.238   0.040   2.979  0.00  0.00    -0.166 F 
ATOM     28  F   UNL d   1       0.846   1.723   3.018  0.00  0.00    -0.166 F 
ENDBRANCH  21  25
BRANCH  23  29
ATOM     29  C   UNL d   1      -1.200  -1.138  -1.945  0.00  0.00     0.299 C 
ATOM     30  O   UNL d   1      -2.199  -1.803  -1.697  0.00  0.00    -0.259 OA
BRANCH  29  31
ATOM     31  O   UNL d   1      -0.751  -0.879  -3.210  0.00  0.00    -0.322 OA
ATOM     32  C   UNL d   1      -1.555  -1.450  -4.242  0.00  0.00     0.213 C 
ENDBRANCH  29  31
ENDBRANCH  23  29
ENDBRANCH   2  20
TORSDOF 8
