REMARK  2 active torsions:
REMARK  status: ('A' for Active; 'I' for Inactive)
REMARK    1  A    between atoms: C_2  and  C_1 
REMARK    2  A    between atoms: O_5  and  C_2 
ROOT
ATOM      1  C   UNL d   1       1.411   1.193   0.019  0.00  0.00     0.054 A 
ATOM      2  C   UNL d   1       0.761  -0.050   0.018  0.00  0.00     0.023 A 
ATOM      3  I   UNL d   1      -1.322  -0.315  -0.054  0.00  0.00    -0.043 I 
ATOM      4  C   UNL d   1       2.819   1.219   0.005  0.00  0.00     0.019 A 
ATOM      5  C   UNL d   1       1.518  -1.235   0.022  0.00  0.00     0.019 A 
ATOM      6  C   UNL d   1       3.564   0.039   0.004  0.00  0.00     0.001 A 
ATOM      7  C   UNL d   1       2.912  -1.188   0.014  0.00  0.00     0.001 A 
ENDROOT
BRANCH   1   8
ATOM      8  C   UNL d   1       0.763   2.536  -0.007  0.00  0.00     0.177 C 
ATOM      9  O   UNL d   1       1.287   3.496  -0.545  0.00  0.00    -0.646 OA
BRANCH   8  10
ATOM     10  O   UNL d   1      -0.376   2.646   0.703  0.00  0.00    -0.773 OA
ATOM     11  H   UNL d   1      -0.715   1.808   1.070  0.00  0.00     0.167 HD
ENDBRANCH   8  10
ENDBRANCH   1   8
TORSDOF 2
