REMARK  5 active torsions:
REMARK  status: ('A' for Active; 'I' for Inactive)
REMARK    1  A    between atoms: S_13  and  C_3 
REMARK    2  A    between atoms: N_4  and  C_10 
REMARK    3  A    between atoms: C_18  and  C_5 
REMARK    4  A    between atoms: C_17  and  S_13 
REMARK    5  A    between atoms: C_14  and  C_17 
ROOT
ATOM      1  N   UNL d   1      -0.629   1.249  -0.186  0.00  0.00    -0.335 N 
ATOM      2  HN  UNL d   1      -1.089   2.156  -0.263  1.00  0.00     0.168 HD
ATOM      3  C   UNL d   1      -1.335   0.102  -0.255  0.00  0.00     0.094 A 
ATOM      4  C   UNL d   1       0.700   1.158  -0.011  0.00  0.00     0.116 A 
ATOM      5  C   UNL d   1      -0.741  -1.144  -0.125  0.00  0.00     0.100 A 
ATOM      6  N   UNL d   1       1.364  -0.007   0.077  0.00  0.00    -0.344 N 
ATOM      7  HN  UNL d   1       2.378  -0.030   0.188  1.00  0.00     0.167 HD
ATOM      8  C   UNL d   1       0.640  -1.148   0.015  0.00  0.00     0.030 A 
ATOM      9  C   UNL d   1      -1.481  -2.366  -0.157  0.00  0.00     0.104 C 
ATOM     10  N   UNL d   1      -2.033  -3.384  -0.173  0.00  0.00    -0.191 NA
ATOM     11  C   UNL d   1       1.438  -2.424   0.058  0.00  0.00     0.070 C 
ENDROOT
BRANCH   3  12
ATOM     12  S   UNL d   1      -3.093   0.294  -0.590  0.00  0.00    -0.106 SA
BRANCH  12  13
ATOM     13  C   UNL d   1      -3.139   2.017  -1.206  0.00  0.00     0.122 C 
BRANCH  13  14
ATOM     14  C   UNL d   1      -4.427   2.324  -1.948  0.00  0.00    -0.015 A 
ATOM     15  C   UNL d   1      -5.663   2.692  -1.366  0.00  0.00     0.110 A 
ATOM     16  C   UNL d   1      -6.793   2.923  -2.182  0.00  0.00     0.037 A 
ATOM     17  C   UNL d   1      -6.712   2.802  -3.568  0.00  0.00     0.002 A 
ATOM     18  C   UNL d   1      -5.505   2.450  -4.155  0.00  0.00     0.001 A 
ATOM     19  C   UNL d   1      -4.383   2.211  -3.358  0.00  0.00     0.010 A 
BRANCH  15  20
ATOM     20  N   UNL d   1      -5.853   2.878   0.089  0.00  0.00    -0.115 N 
ATOM     21  O   UNL d   1      -4.861   2.876   0.826  0.00  0.00    -0.532 OA
ATOM     22  O   UNL d   1      -7.009   3.064   0.496  0.00  0.00    -0.532 OA
ENDBRANCH  15  20
ENDBRANCH  13  14
ENDBRANCH  12  13
ENDBRANCH   3  12
BRANCH   4  23
ATOM     23  C   UNL d   1       1.476   2.412   0.006  0.00  0.00     0.008 A 
ATOM     24  C   UNL d   1       0.832   3.666   0.009  0.00  0.00     0.015 A 
ATOM     25  C   UNL d   1       1.557   4.861  -0.019  0.00  0.00     0.001 A 
ATOM     26  C   UNL d   1       2.947   4.830  -0.045  0.00  0.00     0.000 A 
ATOM     27  C   UNL d   1       3.612   3.607  -0.033  0.00  0.00     0.001 A 
ATOM     28  C   UNL d   1       2.884   2.413  -0.004  0.00  0.00     0.015 A 
ENDBRANCH   4  23
TORSDOF 5
