REMARK  5 active torsions:
REMARK  status: ('A' for Active; 'I' for Inactive)
REMARK    1  A    between atoms: N_6  and  C_1 
REMARK    2  A    between atoms: C_8  and  C_2 
REMARK       I    between atoms: C_7  and  N_6 
REMARK       I    between atoms: N_12  and  C_7 
REMARK    3  A    between atoms: O_17  and  C_8 
REMARK    4  A    between atoms: C_16  and  N_12 
REMARK    5  A    between atoms: C_25  and  O_17 
ROOT
ATOM      1  C   UNL d   1       2.520  -0.634   0.044  0.00  0.00     0.095 C 
ATOM      2  C   UNL d   1       1.347  -1.322   0.349  0.00  0.00     0.080 C 
ATOM      3  C   UNL d   1       0.208  -0.462   0.148  0.00  0.00    -0.022 C 
ATOM      4  C   UNL d   1       0.587   0.860  -0.008  0.00  0.00     0.020 C 
ATOM      5  S   UNL d   1       2.262   1.013  -0.279  0.00  0.00    -0.073 SA
ATOM      6  N   UNL d   1      -1.739   1.658   0.399  0.00  0.00     0.089 N 
ATOM      7  C   UNL d   1      -0.361   2.033  -0.010  0.00  0.00     0.318 C 
ATOM      8  C   UNL d   1      -1.250  -0.832   0.190  0.00  0.00     0.071 C 
ATOM      9  C   UNL d   1      -2.135   0.372  -0.217  0.00  0.00     0.277 C 
ATOM     10  C   UNL d   1      -1.894   1.620   1.855  0.00  0.00     0.310 C 
ENDROOT
BRANCH   1  11
ATOM     11  N   UNL d   1       3.795  -1.156   0.098  0.00  0.00    -0.302 N 
ATOM     12  C   UNL d   1       4.958  -0.911  -0.562  0.00  0.00     0.325 C 
ATOM     13  N   UNL d   1       4.976   0.032  -1.543  0.00  0.00    -0.309 N 
ATOM     14  O   UNL d   1       5.896  -1.658  -0.276  0.00  0.00    -0.247 OA
ATOM     15  H   UNL d   1       4.243   0.724  -1.509  0.00  0.00     0.170 HD
ATOM     16  H   UNL d   1       3.869  -2.053   0.573  0.00  0.00     0.171 HD
BRANCH  13  17
ATOM     17  C   UNL d   1       5.961   0.164  -2.556  0.00  0.00     0.036 A 
ATOM     18  C   UNL d   1       6.955  -0.796  -2.797  0.00  0.00     0.032 A 
ATOM     19  C   UNL d   1       7.853  -0.653  -3.859  0.00  0.00     0.044 A 
ATOM     20  C   UNL d   1       7.761   0.455  -4.686  0.00  0.00     0.116 A 
ATOM     21  C   UNL d   1       6.795   1.429  -4.460  0.00  0.00     0.044 A 
ATOM     22  F   UNL d   1       8.606   0.584  -5.717  0.00  0.00    -0.206 F 
ATOM     23  C   UNL d   1       5.894   1.282  -3.398  0.00  0.00     0.032 A 
ENDBRANCH  13  17
ENDBRANCH   1  11
BRANCH   2  24
ATOM     24  C   UNL d   1       1.296  -2.736   0.744  0.00  0.00     0.296 C 
ATOM     25  O   UNL d   1       0.257  -3.385   0.823  0.00  0.00    -0.259 OA
BRANCH  24  26
ATOM     26  O   UNL d   1       2.535  -3.241   1.009  0.00  0.00    -0.318 OA
BRANCH  26  27
ATOM     27  C   UNL d   1       2.698  -4.660   1.140  0.00  0.00     0.174 C 
ATOM     28  C   UNL d   1       3.355  -4.971   2.472  0.00  0.00     0.034 C 
ENDBRANCH  26  27
ENDBRANCH  24  26
ENDBRANCH   2  24
TORSDOF 5
