REMARK  4 active torsions:
REMARK  status: ('A' for Active; 'I' for Inactive)
REMARK    1  A    between atoms: C_2  and  S_1 
REMARK    2  A    between atoms: N_6  and  S_1 
REMARK    3  A    between atoms: S_3  and  C_4 
REMARK    4  A    between atoms: C_13  and  S_3 
ROOT
ATOM      1  C   UNL d   1       0.424   1.417   0.874  0.00  0.00     0.116 A 
ATOM      2  C   UNL d   1       0.001   3.696   1.727  0.00  0.00     0.106 A 
ATOM      3  S   UNL d   1       0.947   2.999   0.486  0.00  0.00    -0.065 SA
ATOM      4  C   UNL d   1      -0.479   1.422   1.919  0.00  0.00     0.034 A 
ATOM      5  C   UNL d   1      -0.723   2.736   2.411  0.00  0.00     0.033 A 
ENDROOT
BRANCH   2   6
ATOM      6  S   UNL d   1       0.071   5.466   1.901  0.00  0.00     0.213 S 
ATOM      7  O   UNL d   1      -0.299   5.714   3.280  0.00  0.00    -0.217 OA
ATOM      8  O   UNL d   1       1.343   5.911   1.361  0.00  0.00    -0.217 OA
BRANCH   6   9
ATOM      9  C   UNL d   1      -1.231   6.076   0.862  0.00  0.00     0.064 A 
ATOM     10  C   UNL d   1      -2.502   6.282   1.405  0.00  0.00     0.024 A 
ATOM     11  C   UNL d   1      -3.523   6.776   0.593  0.00  0.00     0.002 A 
ATOM     12  C   UNL d   1      -3.269   7.068  -0.748  0.00  0.00     0.000 A 
ATOM     13  C   UNL d   1      -1.993   6.872  -1.282  0.00  0.00     0.002 A 
ATOM     14  C   UNL d   1      -0.967   6.378  -0.476  0.00  0.00     0.024 A 
ENDBRANCH   6   9
ENDBRANCH   2   6
BRANCH   1  15
ATOM     15  S   UNL d   1       1.116   0.109  -0.111  0.00  0.00     0.250 S 
ATOM     16  O   UNL d   1       0.379  -1.077   0.276  0.00  0.00    -0.205 OA
ATOM     17  O   UNL d   1       2.547   0.204   0.084  0.00  0.00    -0.205 OA
BRANCH  15  18
ATOM     18  N   UNL d   1       0.760   0.450  -1.744  0.00  0.00    -0.206 NA
ATOM     19  C   UNL d   1      -0.658   0.287  -2.146  0.00  0.00     0.107 C 
ATOM     20  C   UNL d   1      -0.704  -1.086  -2.788  0.00  0.00     0.017 C 
ATOM     21  C   UNL d   1       0.611  -1.156  -3.542  0.00  0.00     0.017 C 
ATOM     22  C   UNL d   1       1.583  -0.306  -2.731  0.00  0.00     0.107 C 
ENDBRANCH  15  18
ENDBRANCH   1  15
TORSDOF 4
