REMARK  6 active torsions:
REMARK  status: ('A' for Active; 'I' for Inactive)
REMARK    1  A    between atoms: C_11  and  C_1 
REMARK    2  A    between atoms: N_6  and  C_2 
REMARK    3  A    between atoms: C_7  and  C_5 
REMARK    4  A    between atoms: N_8  and  N_6 
REMARK    5  A    between atoms: C_12  and  C_7 
REMARK    6  A    between atoms: O_23  and  C_11 
ROOT
ATOM      1  C   UNL d   1      -2.756   0.960   0.524  0.00  0.00     0.109 A 
ATOM      2  C   UNL d   1      -2.212  -0.164  -0.080  0.00  0.00     0.092 A 
ATOM      3  C   UNL d   1      -0.896   0.076  -0.589  0.00  0.00     0.080 A 
ATOM      4  S   UNL d   1      -1.671   2.289   0.456  0.00  0.00    -0.092 SA
ATOM      5  C   UNL d   1      -0.490   1.376  -0.375  0.00  0.00     0.075 A 
ATOM      6  C   UNL d   1      -0.069  -0.862  -1.294  0.00  0.00     0.102 C 
ATOM      7  N   UNL d   1       0.614  -1.599  -1.872  0.00  0.00    -0.191 NA
ENDROOT
BRANCH   2   8
ATOM      8  N   UNL d   1      -2.886  -1.351  -0.194  0.00  0.00    -0.297 N 
ATOM      9  H   UNL d   1      -3.887  -1.352   0.066  0.00  0.00     0.187 HD
BRANCH   8  10
ATOM     10  N   UNL d   1      -2.213  -2.542  -0.154  0.00  0.00    -0.287 N 
ATOM     11  C   UNL d   1      -2.744  -3.622  -0.662  0.00  0.00     0.180 C 
ATOM     12  C   UNL d   1      -4.023  -3.518  -1.323  0.00  0.00     0.123 C 
ATOM     13  N   UNL d   1      -5.064  -3.392  -1.827  0.00  0.00    -0.190 NA
ATOM     14  HN  UNL d   1      -1.289  -2.587   0.276  1.00  0.00     0.188 HD
BRANCH  11  15
ATOM     15  C   UNL d   1      -1.994  -4.926  -0.624  0.00  0.00     0.227 C 
ATOM     16  O   UNL d   1      -2.125  -5.670  -1.591  0.00  0.00    -0.284 OA
BRANCH  15  17
ATOM     17  C   UNL d   1      -1.172  -5.191   0.544  0.00  0.00     0.058 A 
ATOM     18  S   UNL d   1       0.212  -6.191   0.361  0.00  0.00    -0.098 SA
ATOM     19  C   UNL d   1       0.664  -5.990   1.996  0.00  0.00     0.050 A 
ATOM     20  C   UNL d   1      -0.239  -5.216   2.688  0.00  0.00     0.009 A 
ATOM     21  C   UNL d   1      -1.304  -4.761   1.853  0.00  0.00     0.023 A 
ENDBRANCH  15  17
ENDBRANCH  11  15
ENDBRANCH   8  10
ENDBRANCH   2   8
BRANCH   1  22
ATOM     22  C   UNL d   1      -4.055   1.059   1.169  0.00  0.00     0.302 C 
ATOM     23  O   UNL d   1      -4.850   0.128   1.249  0.00  0.00    -0.259 OA
BRANCH  22  24
ATOM     24  O   UNL d   1      -4.285   2.305   1.675  0.00  0.00    -0.322 OA
ATOM     25  C   UNL d   1      -5.554   2.456   2.312  0.00  0.00     0.213 C 
ENDBRANCH  22  24
ENDBRANCH   1  22
TORSDOF 6
