REMARK  4 active torsions:
REMARK  status: ('A' for Active; 'I' for Inactive)
REMARK    1  A    between atoms: C_4  and  S_1 
REMARK    2  A    between atoms: C_11  and  S_1 
REMARK    3  A    between atoms: N_9  and  C_5 
REMARK    4  A    between atoms: N_14  and  C_6 
ROOT
ATOM      1  N   UNL d   1      -0.623  -0.754  -3.850  0.00  0.00    -0.180 N 
ATOM      2  HN  UNL d   1      -0.957  -1.552  -4.390  1.00  0.00     0.185 HD
ATOM      3  C   UNL d   1       0.306   0.131  -1.860  0.00  0.00     0.118 A 
ATOM      4  C   UNL d   1      -0.651   0.486  -4.377  0.00  0.00     0.681 A 
ATOM      5  C   UNL d   1      -0.148  -0.923  -2.605  0.00  0.00     0.117 A 
ATOM      6  N   UNL d   1      -0.202   1.558  -3.704  0.00  0.00    -0.200 N 
ATOM      7  HN  UNL d   1      -0.204   2.486  -4.128  1.00  0.00     0.183 HD
ATOM      8  C   UNL d   1       0.252   1.366  -2.450  0.00  0.00     0.133 A 
ENDROOT
BRANCH   3   9
ATOM      9  S   UNL d   1       0.881  -0.048  -0.228  0.00  0.00     0.211 S 
ATOM     10  O   UNL d   1      -0.172  -0.742   0.498  0.00  0.00    -0.217 OA
ATOM     11  O   UNL d   1       1.337   1.253   0.225  0.00  0.00    -0.217 OA
BRANCH   9  12
ATOM     12  C   UNL d   1       2.323  -1.089  -0.221  0.00  0.00     0.064 A 
ATOM     13  C   UNL d   1       3.428  -0.737  -1.003  0.00  0.00     0.025 A 
ATOM     14  C   UNL d   1       4.565  -1.549  -0.985  0.00  0.00     0.025 A 
ATOM     15  C   UNL d   1       4.591  -2.695  -0.187  0.00  0.00     0.034 A 
ATOM     16  C   UNL d   1       3.493  -3.035   0.602  0.00  0.00     0.025 A 
ATOM     17 CL   UNL d   1       5.994  -3.691  -0.170  0.00  0.00    -0.084 Cl
ATOM     18  C   UNL d   1       2.352  -2.230   0.589  0.00  0.00     0.025 A 
ENDBRANCH   9  12
ENDBRANCH   3   9
BRANCH   5  19
ATOM     19  N   UNL d   1      -0.130  -2.245  -2.164  0.00  0.00    -0.287 NA
ATOM     20  H   UNL d   1      -0.543  -2.814  -2.904  0.00  0.00     0.125 HD
ATOM     21  H   UNL d   1      -0.639  -2.362  -1.289  0.00  0.00     0.125 HD
ENDBRANCH   5  19
BRANCH   4  22
ATOM     22  N   UNL d   1      -1.158   0.646  -5.644  0.00  0.00    -0.218 N 
ATOM     23  C   UNL d   1      -1.324   1.971  -6.224  0.00  0.00     0.141 C 
ATOM     24  C   UNL d   1      -2.695   1.915  -6.898  0.00  0.00     0.022 C 
ATOM     25  C   UNL d   1      -2.858   0.445  -7.251  0.00  0.00     0.022 C 
ATOM     26  C   UNL d   1      -2.207  -0.270  -6.070  0.00  0.00     0.141 C 
ENDBRANCH   4  22
TORSDOF 4
