REMARK  2 active torsions:
REMARK  status: ('A' for Active; 'I' for Inactive)
REMARK       I    between atoms: N_3  and  C_1 
REMARK    1  A    between atoms: C_4  and  C_1 
REMARK    2  A    between atoms: C_5  and  N_3 
ROOT
ATOM      1  C   UNL d   1       1.162  -0.265   0.086  0.00  0.00     0.251 C 
ATOM      2  N   UNL d   1       1.166   0.457   1.264  0.00  0.00    -0.323 N 
ATOM      3  O   UNL d   1       1.678  -1.377  -0.043  0.00  0.00    -0.270 OA
ATOM      4  H   UNL d   1       0.413   1.123   1.404  0.00  0.00     0.169 HD
ENDROOT
BRANCH   1   5
ATOM      5  C   UNL d   1       0.364   0.401  -1.056  0.00  0.00     0.221 C 
ATOM      6  O   UNL d   1       0.664   1.793  -1.197  0.00  0.00    -0.336 OA
ATOM      7  C   UNL d   1       1.869   2.048  -1.801  0.00  0.00     0.076 A 
ATOM      8  C   UNL d   1       2.393   3.327  -1.614  0.00  0.00     0.037 A 
ATOM      9  C   UNL d   1       2.561   1.106  -2.571  0.00  0.00    -0.025 A 
ATOM     10  C   UNL d   1       3.641   3.653  -2.143  0.00  0.00     0.003 A 
ATOM     11  C   UNL d   1       4.364   2.702  -2.859  0.00  0.00     0.001 A 
ATOM     12  C   UNL d   1       3.825   1.434  -3.077  0.00  0.00     0.010 A 
ATOM     13  C   UNL d   1       1.982  -0.253  -2.846  0.00  0.00     0.044 C 
ATOM     14  C   UNL d   1       0.530  -0.331  -2.387  0.00  0.00     0.047 C 
ENDBRANCH   1   5
BRANCH   2  15
ATOM     15  C   UNL d   1       1.938   0.107   2.393  0.00  0.00     0.056 A 
ATOM     16  C   UNL d   1       1.466   0.389   3.684  0.00  0.00     0.062 A 
ATOM     17  C   UNL d   1       2.199   0.003   4.809  0.00  0.00     0.050 A 
ATOM     18 CL   UNL d   1      -0.068   1.153   3.923  0.00  0.00    -0.082 Cl
ATOM     19  C   UNL d   1       3.432  -0.624   4.643  0.00  0.00     0.035 A 
ATOM     20  C   UNL d   1       3.940  -0.862   3.368  0.00  0.00     0.026 A 
ATOM     21 CL   UNL d   1       4.336  -1.112   6.023  0.00  0.00    -0.084 Cl
ATOM     22  C   UNL d   1       3.192  -0.502   2.248  0.00  0.00     0.033 A 
ENDBRANCH   2  15
TORSDOF 2
