REMARK  3 active torsions:
REMARK  status: ('A' for Active; 'I' for Inactive)
REMARK    1  A    between atoms: C_8  and  C_1 
REMARK    2  A    between atoms: C_7  and  C_2 
REMARK    3  A    between atoms: O_12  and  C_7 
ROOT
ATOM      1  C   UNL d   1      -1.877  -1.181  -0.266  0.00  0.00     0.095 A 
ATOM      2  C   UNL d   1      -0.637  -1.699  -0.099  0.00  0.00     0.069 A 
ATOM      3  C   UNL d   1      -2.059   0.297  -0.289  0.00  0.00     0.261 A 
ATOM      4  N   UNL d   1      -0.954   1.079  -0.120  0.00  0.00    -0.322 N 
ATOM      5  C   UNL d   1       0.547  -0.808  -0.013  0.00  0.00     0.009 A 
ATOM      6  C   UNL d   1       0.343   0.578  -0.016  0.00  0.00     0.046 A 
ATOM      7  O   UNL d   1      -3.157   0.818  -0.470  0.00  0.00    -0.267 OA
ATOM      8  C   UNL d   1       1.869  -1.271   0.062  0.00  0.00     0.015 A 
ATOM      9  C   UNL d   1       1.409   1.479   0.054  0.00  0.00     0.030 A 
ATOM     10  C   UNL d   1       2.944  -0.375   0.115  0.00  0.00     0.001 A 
ATOM     11  C   UNL d   1       2.714   0.999   0.112  0.00  0.00     0.002 A 
ATOM     12  H   UNL d   1      -1.114   2.078  -0.151  0.00  0.00     0.169 HD
ENDROOT
BRANCH   2  13
ATOM     13  C   UNL d   1      -0.482  -3.173  -0.070  0.00  0.00     0.178 C 
ATOM     14  O   UNL d   1       0.298  -3.829  -0.730  0.00  0.00    -0.646 OA
BRANCH  13  15
ATOM     15  O   UNL d   1      -1.273  -3.740   0.862  0.00  0.00    -0.773 OA
ATOM     16  H   UNL d   1      -1.172  -4.699   0.687  0.00  0.00     0.167 HD
ENDBRANCH  13  15
ENDBRANCH   2  13
BRANCH   1  17
ATOM     17  C   UNL d   1      -3.064  -2.064  -0.506  0.00  0.00     0.162 C 
ATOM     18  O   UNL d   1      -2.973  -3.039  -1.256  0.00  0.00    -0.293 OA
ATOM     19  C   UNL d   1      -4.367  -1.769   0.193  0.00  0.00     0.097 C 
ENDBRANCH   1  17
TORSDOF 3
