REMARK  7 active torsions:
REMARK  status: ('A' for Active; 'I' for Inactive)
REMARK    1  A    between atoms: C_8  and  N_1 
REMARK    2  A    between atoms: C_12  and  C_2 
REMARK    3  A    between atoms: S_11  and  C_5 
REMARK    4  A    between atoms: C_21  and  S_11 
REMARK    5  A    between atoms: C_15  and  C_21 
REMARK    6  A    between atoms: C_28  and  C_15 
REMARK    7  A    between atoms: C_17  and  C_18 
ROOT
ATOM      1  N   UNL d   1      -0.345  -1.292  -0.040  0.00  0.00    -0.275 N 
ATOM      2  C   UNL d   1       0.903  -0.642  -0.014  0.00  0.00     0.139 C 
ATOM      3  N   UNL d   1       0.700   0.663   0.075  0.00  0.00    -0.282 N 
ATOM      4  HN  UNL d   1       1.426   1.369   0.198  1.00  0.00     0.188 HD
ATOM      5  C   UNL d   1      -1.256  -0.242  -0.135  0.00  0.00     0.168 C 
ATOM      6  N   UNL d   1      -0.639   0.911  -0.022  0.00  0.00    -0.278 N 
ATOM      7  HN  UNL d   1      -1.081   1.830  -0.010  1.00  0.00     0.189 HD
ENDROOT
BRANCH   2   8
ATOM      8  C   UNL d   1       2.245  -1.246  -0.113  0.00  0.00     0.010 A 
ATOM      9  C   UNL d   1       2.522  -2.359  -0.915  0.00  0.00     0.016 A 
ATOM     10  C   UNL d   1       3.782  -2.972  -0.897  0.00  0.00     0.009 A 
ATOM     11  C   UNL d   1       4.842  -2.451  -0.137  0.00  0.00    -0.051 A 
ATOM     12  C   UNL d   1       4.580  -1.282   0.597  0.00  0.00     0.009 A 
ATOM     13  C   UNL d   1       3.305  -0.694   0.614  0.00  0.00     0.016 A 
BRANCH  11  14
ATOM     14  C   UNL d   1       6.213  -3.152  -0.129  0.00  0.00    -0.024 C 
ATOM     15  C   UNL d   1       7.275  -2.403   0.707  0.00  0.00     0.019 C 
ATOM     16  C   UNL d   1       6.072  -4.571   0.467  0.00  0.00     0.019 C 
ATOM     17  C   UNL d   1       6.765  -3.275  -1.565  0.00  0.00     0.019 C 
ENDBRANCH  11  14
ENDBRANCH   2   8
BRANCH   1  18
ATOM     18  C   UNL d   1      -0.584  -2.706   0.028  0.00  0.00     0.046 A 
ATOM     19  C   UNL d   1      -1.637  -3.295  -0.688  0.00  0.00     0.069 A 
ATOM     20  C   UNL d   1      -1.751  -4.672  -0.662  0.00  0.00     0.107 A 
ATOM     21  O   UNL d   1      -2.704  -5.397  -1.308  0.00  0.00    -0.323 OA
ATOM     22  C   UNL d   1      -0.859  -5.470   0.013  0.00  0.00     0.105 A 
ATOM     23  C   UNL d   1      -2.313  -6.740  -0.954  0.00  0.00     0.352 A 
ATOM     24  O   UNL d   1      -1.126  -6.793  -0.136  0.00  0.00    -0.323 OA
ATOM     25  C   UNL d   1       0.180  -4.934   0.735  0.00  0.00     0.042 A 
ATOM     26  C   UNL d   1       0.293  -3.538   0.770  0.00  0.00     0.033 A 
ENDBRANCH   1  18
BRANCH   5  27
ATOM     27  S   UNL d   1      -2.990  -0.380  -0.152  0.00  0.00    -0.084 SA
BRANCH  27  28
ATOM     28  C   UNL d   1      -3.491   1.117  -1.059  0.00  0.00     0.166 C 
BRANCH  28  29
ATOM     29  C   UNL d   1      -3.048   1.133  -2.515  0.00  0.00     0.169 C 
ATOM     30  O   UNL d   1      -2.360   0.247  -3.025  0.00  0.00    -0.291 OA
BRANCH  29  31
ATOM     31  C   UNL d   1      -3.507   2.275  -3.382  0.00  0.00     0.010 A 
ATOM     32  C   UNL d   1      -4.411   3.249  -2.941  0.00  0.00     0.015 A 
ATOM     33  C   UNL d   1      -4.823   4.272  -3.812  0.00  0.00     0.001 A 
ATOM     34  C   UNL d   1      -4.342   4.330  -5.111  0.00  0.00     0.000 A 
ATOM     35  C   UNL d   1      -3.439   3.365  -5.556  0.00  0.00     0.001 A 
ATOM     36  C   UNL d   1      -3.025   2.345  -4.700  0.00  0.00     0.015 A 
ENDBRANCH  29  31
ENDBRANCH  28  29
ENDBRANCH  27  28
ENDBRANCH   5  27
TORSDOF 7
