REMARK  7 active torsions:
REMARK  status: ('A' for Active; 'I' for Inactive)
REMARK    1  A    between atoms: C_11  and  C_1 
REMARK    2  A    between atoms: C_13  and  C_3 
REMARK    3  A    between atoms: C_16  and  C_6 
REMARK    4  A    between atoms: C_7  and  S_12 
REMARK    5  A    between atoms: O_18  and  C_11 
REMARK    6  A    between atoms: S_12  and  C_13 
REMARK    7  A    between atoms: C_22  and  O_18 
ROOT
ATOM      1  C   UNL d   1       0.104   1.288   0.017  0.00  0.00     0.105 A 
ATOM      2  S   UNL d   1      -1.044   0.018   0.108  0.00  0.00    -0.064 SA
ATOM      3  C   UNL d   1       1.391   0.764  -0.018  0.00  0.00     0.043 A 
ATOM      4  N   UNL d   1       1.423  -0.633  -0.036  0.00  0.00    -0.351 N 
ATOM      5  HN  UNL d   1       2.278  -1.187  -0.092  1.00  0.00     0.166 HD
ATOM      6  C   UNL d   1       0.210  -1.147   0.029  0.00  0.00     0.085 A 
ENDROOT
BRANCH   3   7
ATOM      7  C   UNL d   1       2.677   1.557  -0.041  0.00  0.00     0.141 C 
BRANCH   7   8
ATOM      8  S   UNL d   1       4.201   0.558   0.058  0.00  0.00    -0.088 SA
BRANCH   8   9
ATOM      9  C   UNL d   1       5.394   1.816   0.012  0.00  0.00     0.146 A 
ATOM     10  N   UNL d   1       6.747   1.594   0.027  0.00  0.00    -0.341 N 
ATOM     11  C   UNL d   1       7.360   2.825  -0.013  0.00  0.00     0.109 A 
ATOM     12  C   UNL d   1       7.476   0.350   0.071  0.00  0.00     0.158 C 
ATOM     13  C   UNL d   1       6.333   3.737  -0.051  0.00  0.00     0.107 A 
ATOM     14  N   UNL d   1       5.120   3.101  -0.036  0.00  0.00    -0.345 N 
ATOM     15  HN  UNL d   1       4.197   3.534  -0.059  1.00  0.00     0.167 HD
ENDBRANCH   8   9
ENDBRANCH   7   8
ENDBRANCH   3   7
BRANCH   1  16
ATOM     16  C   UNL d   1      -0.405   2.636  -0.057  0.00  0.00     0.302 C 
ATOM     17  O   UNL d   1      -1.522   3.004   0.292  0.00  0.00    -0.259 OA
BRANCH  16  18
ATOM     18  O   UNL d   1       0.488   3.434  -0.707  0.00  0.00    -0.317 OA
BRANCH  18  19
ATOM     19  C   UNL d   1      -0.065   4.639  -1.257  0.00  0.00     0.174 C 
ATOM     20  C   UNL d   1      -0.647   4.325  -2.625  0.00  0.00     0.034 C 
ENDBRANCH  18  19
ENDBRANCH  16  18
ENDBRANCH   1  16
BRANCH   6  21
ATOM     21  C   UNL d   1      -0.093  -2.589  -0.005  0.00  0.00    -0.002 A 
ATOM     22  C   UNL d   1       0.845  -3.470  -0.566  0.00  0.00     0.014 A 
ATOM     23  C   UNL d   1       0.602  -4.846  -0.614  0.00  0.00     0.001 A 
ATOM     24  C   UNL d   1      -0.583  -5.364  -0.097  0.00  0.00     0.000 A 
ATOM     25  C   UNL d   1      -1.526  -4.507   0.466  0.00  0.00     0.001 A 
ATOM     26  C   UNL d   1      -1.283  -3.132   0.511  0.00  0.00     0.014 A 
ENDBRANCH   6  21
TORSDOF 7
