REMARK  3 active torsions:
REMARK  status: ('A' for Active; 'I' for Inactive)
REMARK    1  A    between atoms: C_7  and  C_3 
REMARK    2  A    between atoms: C_5  and  C_8 
REMARK    3  A    between atoms: O_15  and  C_5 
ROOT
ATOM      1  C   UNL d   1       2.383   1.864  -0.013  0.00  0.00     0.015 A 
ATOM      2  C   UNL d   1       4.426   3.788  -0.083  0.00  0.00     0.039 A 
ATOM      3  C   UNL d   1       3.331   1.849  -1.045  0.00  0.00     0.017 A 
ATOM      4  C   UNL d   1       2.469   2.837   0.991  0.00  0.00     0.017 A 
ATOM      5  C   UNL d   1       4.354   2.806  -1.081  0.00  0.00     0.018 A 
ATOM      6  C   UNL d   1       3.481   3.797   0.951  0.00  0.00     0.018 A 
ENDROOT
BRANCH   1   7
ATOM      7  C   UNL d   1       1.283   0.883  -0.026  0.00  0.00     0.149 C 
ATOM      8  N   UNL d   1       1.061  -0.002  -0.946  0.00  0.00    -0.360 N 
ATOM      9  C   UNL d   1      -0.151  -0.705  -0.483  0.00  0.00     0.046 C 
ATOM     10  HN  UNL d   1       1.600  -0.173  -1.795  1.00  0.00     0.162 HD
ATOM     11  C   UNL d   1      -0.631   0.091   0.727  0.00  0.00     0.207 C 
ATOM     12  C   UNL d   1      -1.181  -0.700  -1.610  0.00  0.00     0.040 C 
ATOM     13  C   UNL d   1       0.226  -2.139  -0.106  0.00  0.00     0.040 C 
ATOM     14  O   UNL d   1       0.445   0.968   1.032  0.00  0.00    -0.333 OA
ENDBRANCH   1   7
BRANCH   2  15
ATOM     15  C   UNL d   1       5.456   4.855  -0.089  0.00  0.00     0.292 C 
ATOM     16  O   UNL d   1       5.313   5.924   0.483  0.00  0.00    -0.259 OA
BRANCH  15  17
ATOM     17  O   UNL d   1       6.562   4.447  -0.757  0.00  0.00    -0.323 OA
ATOM     18  C   UNL d   1       7.628   5.399  -0.724  0.00  0.00     0.213 C 
ENDBRANCH  15  17
ENDBRANCH   2  15
TORSDOF 3
