REMARK  7 active torsions:
REMARK  status: ('A' for Active; 'I' for Inactive)
REMARK    1  A    between atoms: C_11  and  C_1 
REMARK    2  A    between atoms: C_20  and  C_5 
REMARK    3  A    between atoms: N_7  and  C_6 
REMARK    4  A    between atoms: C_10  and  C_12 
REMARK    5  A    between atoms: O_17  and  C_11 
REMARK    6  A    between atoms: N_22  and  C_12 
REMARK    7  A    between atoms: N_13  and  O_17 
ROOT
ATOM      1  C   UNL d   1       1.242  -0.823  -0.074  0.00  0.00     0.324 C 
ATOM      2  O   UNL d   1       1.572   0.354  -0.194  0.00  0.00    -0.257 OA
ENDROOT
BRANCH   1   3
ATOM      3  C   UNL d   1      -0.128  -1.289   0.018  0.00  0.00     0.106 A 
ATOM      4  S   UNL d   1      -0.568  -2.947   0.076  0.00  0.00    -0.064 SA
ATOM      5  C   UNL d   1      -2.237  -2.523   0.075  0.00  0.00     0.085 A 
ATOM      6  N   UNL d   1      -2.465  -1.226   0.031  0.00  0.00    -0.352 N 
ATOM      7  C   UNL d   1      -1.278  -0.513   0.017  0.00  0.00     0.029 A 
ATOM      8  HN  UNL d   1      -3.392  -0.802   0.011  1.00  0.00     0.166 HD
ATOM      9  C   UNL d   1      -1.362   0.972  -0.012  0.00  0.00     0.070 C 
BRANCH   5  10
ATOM     10  C   UNL d   1      -3.311  -3.533   0.096  0.00  0.00    -0.002 A 
ATOM     11  C   UNL d   1      -3.170  -4.788   0.707  0.00  0.00     0.014 A 
ATOM     12  C   UNL d   1      -4.242  -5.687   0.752  0.00  0.00     0.001 A 
ATOM     13  C   UNL d   1      -5.468  -5.348   0.184  0.00  0.00     0.000 A 
ATOM     14  C   UNL d   1      -5.625  -4.111  -0.433  0.00  0.00     0.001 A 
ATOM     15  C   UNL d   1      -4.556  -3.212  -0.474  0.00  0.00     0.014 A 
ENDBRANCH   5  10
ENDBRANCH   1   3
BRANCH   1  16
ATOM     16  O   UNL d   1       2.151  -1.857  -0.013  0.00  0.00    -0.193 OA
BRANCH  16  17
ATOM     17  N   UNL d   1       3.097  -1.669  -1.047  0.00  0.00    -0.244 N 
ATOM     18  C   UNL d   1       4.309  -1.988  -0.699  0.00  0.00     0.133 C 
ATOM     19  HN  UNL d   1       2.853  -1.317  -1.973  1.00  0.00     0.196 HD
BRANCH  18  20
ATOM     20  C   UNL d   1       5.282  -1.916  -1.779  0.00  0.00     0.117 A 
ATOM     21  O   UNL d   1       6.595  -2.220  -1.517  0.00  0.00    -0.285 OA
ATOM     22  C   UNL d   1       7.252  -2.109  -2.705  0.00  0.00     0.215 A 
ATOM     23  C   UNL d   1       6.410  -1.729  -3.722  0.00  0.00     0.066 A 
ATOM     24  C   UNL d   1       5.137  -1.597  -3.120  0.00  0.00     0.045 A 
BRANCH  22  25
ATOM     25  N   UNL d   1       8.650  -2.402  -2.697  0.00  0.00    -0.090 N 
ATOM     26  O   UNL d   1       9.230  -2.337  -3.789  0.00  0.00    -0.530 OA
ATOM     27  O   UNL d   1       9.173  -2.693  -1.613  0.00  0.00    -0.530 OA
ENDBRANCH  22  25
ENDBRANCH  18  20
BRANCH  18  28
ATOM     28  N   UNL d   1       4.672  -2.351   0.576  0.00  0.00    -0.285 NA
ATOM     29  H   UNL d   1       5.659  -2.228   0.786  0.00  0.00     0.125 HD
ATOM     30  H   UNL d   1       4.059  -1.989   1.296  0.00  0.00     0.125 HD
ENDBRANCH  18  28
ENDBRANCH  16  17
ENDBRANCH   1  16
TORSDOF 7
