REMARK  6 active torsions:
REMARK  status: ('A' for Active; 'I' for Inactive)
REMARK    1  A    between atoms: S_14  and  C_1 
REMARK    2  A    between atoms: N_5  and  C_2 
REMARK    3  A    between atoms: N_4  and  C_3 
REMARK    4  A    between atoms: C_8  and  S_14 
REMARK    5  A    between atoms: C_17  and  C_9 
REMARK    6  A    between atoms: C_10  and  C_11 
ROOT
ATOM      1  C   UNL d   1       2.492  -0.243  -1.409  0.00  0.00     0.073 A 
ATOM      2  C   UNL d   1       1.103  -0.255  -1.636  0.00  0.00     0.123 A 
ATOM      3  C   UNL d   1       3.272   0.125  -2.521  0.00  0.00     0.123 A 
ATOM      4  C   UNL d   1       1.321   0.484  -3.950  0.00  0.00     0.052 A 
ATOM      5  C   UNL d   1       0.516   0.093  -2.873  0.00  0.00     0.053 A 
ATOM      6  C   UNL d   1       2.711   0.484  -3.768  0.00  0.00     0.053 A 
ENDROOT
BRANCH   1   7
ATOM      7  S   UNL d   1       3.192  -0.503   0.216  0.00  0.00    -0.060 SA
BRANCH   7   8
ATOM      8  C   UNL d   1       3.513  -2.225   0.224  0.00  0.00     0.117 A 
ATOM      9  N   UNL d   1       3.170  -3.042  -0.744  0.00  0.00    -0.347 N 
ATOM     10  C   UNL d   1       3.532  -4.352  -0.409  0.00  0.00     0.024 A 
ATOM     11  HN  UNL d   1       2.709  -2.764  -1.611  1.00  0.00     0.167 HD
ATOM     12  C   UNL d   1       4.161  -4.469   0.822  0.00  0.00     0.078 A 
ATOM     13  S   UNL d   1       4.301  -2.942   1.567  0.00  0.00    -0.075 SA
BRANCH  10  14
ATOM     14  C   UNL d   1       3.213  -5.512  -1.349  0.00  0.00    -0.008 C 
ATOM     15  C   UNL d   1       2.569  -5.011  -2.656  0.00  0.00     0.021 C 
ATOM     16  C   UNL d   1       4.497  -6.285  -1.712  0.00  0.00     0.021 C 
ATOM     17  C   UNL d   1       2.230  -6.485  -0.666  0.00  0.00     0.021 C 
ENDBRANCH  10  14
ENDBRANCH   7   8
ENDBRANCH   1   7
BRANCH   2  18
ATOM     18  N   UNL d   1       0.174  -0.573  -0.567  0.00  0.00    -0.114 N 
ATOM     19  O   UNL d   1       0.045   0.264   0.334  0.00  0.00    -0.532 OA
ATOM     20  O   UNL d   1      -0.474  -1.620  -0.687  0.00  0.00    -0.532 OA
ENDBRANCH   2  18
BRANCH   3  21
ATOM     21  N   UNL d   1       4.721   0.199  -2.438  0.00  0.00    -0.114 N 
ATOM     22  O   UNL d   1       5.205   1.035  -1.665  0.00  0.00    -0.532 OA
ATOM     23  O   UNL d   1       5.359  -0.529  -3.208  0.00  0.00    -0.532 OA
ENDBRANCH   3  21
BRANCH   4  24
ATOM     24  C   UNL d   1       0.721   0.933  -5.265  0.00  0.00     0.417 C 
ATOM     25  F   UNL d   1      -0.634   0.834  -5.300  0.00  0.00    -0.166 F 
ATOM     26  F   UNL d   1       1.013   2.233  -5.537  0.00  0.00    -0.166 F 
ATOM     27  F   UNL d   1       1.185   0.211  -6.319  0.00  0.00    -0.166 F 
ENDBRANCH   4  24
TORSDOF 6
