REMARK  6 active torsions:
REMARK  status: ('A' for Active; 'I' for Inactive)
REMARK    1  A    between atoms: C_2  and  S_1 
REMARK    2  A    between atoms: O_3  and  S_1 
REMARK    3  A    between atoms: C_11  and  O_3 
REMARK    4  A    between atoms: O_12  and  C_13 
REMARK    5  A    between atoms: C_16  and  O_12 
REMARK    6  A    between atoms: C_21  and  C_16 
ROOT
ATOM      1  C   UNL d   1       0.682  -0.619  -2.526  0.00  0.00     0.089 A 
ATOM      2  C   UNL d   1       1.451  -0.388  -5.212  0.00  0.00     0.069 A 
ATOM      3  C   UNL d   1       2.019  -0.391  -2.856  0.00  0.00     0.041 A 
ATOM      4  C   UNL d   1      -0.264  -0.748  -3.541  0.00  0.00     0.041 A 
ATOM      5  C   UNL d   1       2.399  -0.268  -4.194  0.00  0.00     0.039 A 
ATOM      6  C   UNL d   1       0.116  -0.613  -4.877  0.00  0.00     0.039 A 
ENDROOT
BRANCH   1   7
ATOM      7  O   UNL d   1       0.397  -0.700  -1.187  0.00  0.00    -0.229 OA
BRANCH   7   8
ATOM      8  S   UNL d   1      -1.123  -0.493  -0.630  0.00  0.00     0.303 S 
ATOM      9  O   UNL d   1      -1.676   0.739  -1.159  0.00  0.00    -0.193 OA
ATOM     10  O   UNL d   1      -1.843  -1.745  -0.757  0.00  0.00    -0.193 OA
BRANCH   8  11
ATOM     11  C   UNL d   1      -0.869  -0.213   1.105  0.00  0.00     0.090 A 
ATOM     12  C   UNL d   1      -0.560   1.079   1.543  0.00  0.00     0.049 A 
ATOM     13  C   UNL d   1      -0.411   1.312   2.906  0.00  0.00     0.037 A 
ATOM     14 CL   UNL d   1      -0.036   2.895   3.463  0.00  0.00    -0.084 Cl
ATOM     15  C   UNL d   1      -0.569   0.275   3.825  0.00  0.00     0.047 A 
ATOM     16  C   UNL d   1      -0.883  -1.006   3.371  0.00  0.00     0.037 A 
ATOM     17  C   UNL d   1      -1.038  -1.262   2.012  0.00  0.00     0.049 A 
ATOM     18 CL   UNL d   1      -1.087  -2.285   4.503  0.00  0.00    -0.084 Cl
ENDBRANCH   8  11
ENDBRANCH   7   8
ENDBRANCH   1   7
BRANCH   2  19
ATOM     19  O   UNL d   1       1.938  -0.273  -6.485  0.00  0.00    -0.347 OA
BRANCH  19  20
ATOM     20  C   UNL d   1       1.058  -0.706  -7.524  0.00  0.00     0.214 C 
BRANCH  20  21
ATOM     21  C   UNL d   1       1.830  -0.923  -8.802  0.00  0.00    -0.034 A 
ATOM     22  C   UNL d   1       3.008  -1.681  -8.799  0.00  0.00     0.009 A 
ATOM     23  C   UNL d   1       3.676  -1.955  -9.992  0.00  0.00     0.001 A 
ATOM     24  C   UNL d   1       3.169  -1.478 -11.200  0.00  0.00     0.000 A 
ATOM     25  C   UNL d   1       1.997  -0.723 -11.214  0.00  0.00     0.001 A 
ATOM     26  C   UNL d   1       1.328  -0.448 -10.022  0.00  0.00     0.009 A 
ENDBRANCH  20  21
ENDBRANCH  19  20
ENDBRANCH   2  19
TORSDOF 6
