REMARK  5 active torsions:
REMARK  status: ('A' for Active; 'I' for Inactive)
REMARK    1  A    between atoms: C_8  and  C_3 
REMARK    2  A    between atoms: C_9  and  C_5 
REMARK       I    between atoms: N_17  and  C_8 
REMARK    3  A    between atoms: O_22  and  C_11 
REMARK    4  A    between atoms: O_23  and  C_14 
REMARK    5  A    between atoms: N_21  and  N_17 
ROOT
ATOM      1  N   UNL d   1       1.226  -1.240   0.000  0.00  0.00    -0.355 N 
ATOM      2  HN  UNL d   1       1.236  -2.260   0.015  1.00  0.00     0.166 HD
ATOM      3  C   UNL d   1       1.203   1.532  -0.021  0.00  0.00     0.048 A 
ATOM      4  C   UNL d   1       0.056  -0.579   0.011  0.00  0.00     0.044 A 
ATOM      5  C   UNL d   1       2.391  -0.553  -0.029  0.00  0.00     0.044 A 
ATOM      6  C   UNL d   1      -0.028   0.826  -0.002  0.00  0.00     0.006 A 
ATOM      7  C   UNL d   1       2.413   0.830  -0.053  0.00  0.00     0.048 A 
ATOM      8  C   UNL d   1      -1.320   1.413   0.007  0.00  0.00     0.015 A 
ATOM      9  C   UNL d   1      -1.114  -1.336   0.025  0.00  0.00     0.037 A 
ATOM     10  C   UNL d   1      -2.480   0.636   0.003  0.00  0.00     0.007 A 
ATOM     11  C   UNL d   1      -2.387  -0.751   0.009  0.00  0.00    -0.060 A 
ATOM     12  C   UNL d   1      -3.618  -1.608   0.024  0.00  0.00     0.048 C 
ENDROOT
BRANCH   5  13
ATOM     13  C   UNL d   1       3.617  -1.375  -0.024  0.00  0.00    -0.007 A 
ATOM     14  C   UNL d   1       3.645  -2.626  -0.668  0.00  0.00     0.053 A 
ATOM     15  C   UNL d   1       4.768  -3.463  -0.605  0.00  0.00     0.102 A 
ATOM     16  C   UNL d   1       5.909  -3.040   0.102  0.00  0.00     0.101 A 
ATOM     17  C   UNL d   1       5.912  -1.781   0.705  0.00  0.00     0.040 A 
ATOM     18  C   UNL d   1       4.778  -0.965   0.648  0.00  0.00     0.016 A 
BRANCH  15  19
ATOM     19  O   UNL d   1       4.839  -4.707  -1.182  0.00  0.00    -0.353 OA
ATOM     20  C   UNL d   1       3.693  -5.174  -1.881  0.00  0.00     0.210 C 
ENDBRANCH  15  19
BRANCH  16  21
ATOM     21  O   UNL d   1       6.956  -3.926   0.160  0.00  0.00    -0.353 OA
ATOM     22  C   UNL d   1       8.090  -3.554   0.930  0.00  0.00     0.210 C 
ENDBRANCH  16  21
ENDBRANCH   5  13
BRANCH   3  23
ATOM     23  C   UNL d   1       1.270   3.023  -0.080  0.00  0.00     0.266 C 
ATOM     24  O   UNL d   1       0.429   3.686  -0.678  0.00  0.00    -0.266 OA
ATOM     25  N   UNL d   1       2.353   3.620   0.568  0.00  0.00    -0.290 N 
ATOM     26  H   UNL d   1       2.947   3.096   1.206  0.00  0.00     0.183 HD
BRANCH  25  27
ATOM     27  N   UNL d   1       2.446   5.030   0.578  0.00  0.00    -0.247 NA
ATOM     28  H   UNL d   1       1.527   5.385   0.274  0.00  0.00     0.143 HD
ATOM     29  H   UNL d   1       3.069   5.311  -0.184  0.00  0.00     0.143 HD
ENDBRANCH  25  27
ENDBRANCH   3  23
TORSDOF 5
