REMARK  5 active torsions:
REMARK  status: ('A' for Active; 'I' for Inactive)
REMARK    1  A    between atoms: N_2  and  C_1 
REMARK    2  A    between atoms: N_5  and  N_2 
REMARK       I    between atoms: C_4  and  N_5 
REMARK    3  A    between atoms: C_10  and  C_4 
REMARK    4  A    between atoms: C_14  and  C_10 
REMARK    5  A    between atoms: C_15  and  C_14 
ROOT
ATOM      1  C   UNL d   1       3.485  -3.772   0.101  0.00  0.00     0.232 C 
ATOM      2  N   UNL d   1       3.054  -3.963  -1.196  0.00  0.00    -0.287 N 
ATOM      3  O   UNL d   1       2.671  -3.691   1.020  0.00  0.00    -0.272 OA
ATOM      4  H   UNL d   1       2.056  -3.827  -1.343  0.00  0.00     0.184 HD
ENDROOT
BRANCH   2   5
ATOM      5  N   UNL d   1       3.884  -3.679  -2.299  0.00  0.00    -0.202 NA
ATOM      6  H   UNL d   1       4.871  -3.840  -2.092  0.00  0.00     0.153 HD
BRANCH   5   7
ATOM      7  C   UNL d   1       3.538  -4.383  -3.491  0.00  0.00     0.051 A 
ATOM      8  C   UNL d   1       4.603  -4.940  -4.230  0.00  0.00     0.050 A 
ATOM      9  C   UNL d   1       4.383  -5.553  -5.463  0.00  0.00     0.035 A 
ATOM     10 CL   UNL d   1       5.713  -6.213  -6.332  0.00  0.00    -0.084 Cl
ATOM     11  C   UNL d   1       3.103  -5.616  -6.000  0.00  0.00     0.026 A 
ATOM     12  C   UNL d   1       2.034  -5.068  -5.291  0.00  0.00     0.027 A 
ATOM     13  C   UNL d   1       2.245  -4.452  -4.048  0.00  0.00     0.057 A 
ATOM     14 CL   UNL d   1       0.860  -3.740  -3.291  0.00  0.00    -0.082 Cl
ENDBRANCH   5   7
ENDBRANCH   2   5
BRANCH   1  15
ATOM     15  C   UNL d   1       4.978  -3.722   0.364  0.00  0.00     0.108 C 
BRANCH  15  16
ATOM     16  C   UNL d   1       5.593  -5.117   0.266  0.00  0.00     0.048 C 
BRANCH  16  17
ATOM     17  C   UNL d   1       7.103  -5.100   0.207  0.00  0.00    -0.058 A 
ATOM     18  C   UNL d   1       7.855  -4.504   1.229  0.00  0.00     0.007 A 
ATOM     19  C   UNL d   1       9.251  -4.514   1.185  0.00  0.00     0.001 A 
ATOM     20  C   UNL d   1       9.912  -5.128   0.123  0.00  0.00     0.000 A 
ATOM     21  C   UNL d   1       9.177  -5.731  -0.896  0.00  0.00     0.001 A 
ATOM     22  C   UNL d   1       7.780  -5.719  -0.855  0.00  0.00     0.007 A 
ENDBRANCH  16  17
ENDBRANCH  15  16
ENDBRANCH   1  15
TORSDOF 5
