REMARK  1 active torsions:
REMARK  status: ('A' for Active; 'I' for Inactive)
REMARK    1  A    between atoms: S_11  and  C_4 
ROOT
ATOM      1  N   UNL d   1       1.643   1.062  -0.003  0.00  0.00    -0.343 N 
ATOM      2  HN  UNL d   1       1.910   2.047  -0.004  1.00  0.00     0.167 HD
ATOM      3  C   UNL d   1       0.334   0.589  -0.002  0.00  0.00     0.072 A 
ATOM      4  C   UNL d   1       2.482   0.057  -0.003  0.00  0.00     0.110 A 
ATOM      5  C   UNL d   1       0.220  -0.807  -0.002  0.00  0.00     0.037 A 
ATOM      6  S   UNL d   1       1.795  -1.505  -0.003  0.00  0.00    -0.063 SA
ATOM      7  C   UNL d   1      -0.869   1.330  -0.002  0.00  0.00     0.063 A 
ATOM      8  C   UNL d   1      -1.028  -1.457  -0.002  0.00  0.00     0.045 A 
ATOM      9  C   UNL d   1      -2.119   0.715  -0.001  0.00  0.00     0.050 A 
ATOM     10  C   UNL d   1      -2.185  -0.671  -0.001  0.00  0.00     0.037 A 
ATOM     11 CL   UNL d   1      -0.712   3.034  -0.002  0.00  0.00    -0.082 Cl
ATOM     12 CL   UNL d   1      -3.723  -1.446   0.001  0.00  0.00    -0.084 Cl
ENDROOT
BRANCH   4  13
ATOM     13  S   UNL d   1       4.205   0.333  -0.001  0.00  0.00    -0.118 SA
ATOM     14  H   UNL d   1       4.134   1.671   0.002  0.00  0.00     0.109 HD
ENDBRANCH   4  13
TORSDOF 1
