REMARK  4 active torsions:
REMARK  status: ('A' for Active; 'I' for Inactive)
REMARK    1  A    between atoms: C_2  and  C_1 
REMARK       I    between atoms: N_3  and  C_2 
REMARK       I    between atoms: C_4  and  N_3 
REMARK       I    between atoms: N_10  and  C_4 
REMARK    2  A    between atoms: O_22  and  C_5 
REMARK    3  A    between atoms: O_21  and  C_6 
REMARK    4  A    between atoms: C_7  and  N_10 
ROOT
ATOM      1  C   UNL d   1       0.408  -3.621  -0.981  0.00  0.00     0.244 C 
ATOM      2  N   UNL d   1       1.689  -3.266  -1.361  0.00  0.00    -0.175 NA
ATOM      3  C   UNL d   1       2.739  -3.935  -0.755  0.00  0.00     0.305 C 
ATOM      4  N   UNL d   1       3.259  -3.278   0.335  0.00  0.00    -0.312 N 
ATOM      5  O   UNL d   1      -0.057  -4.667  -1.431  0.00  0.00    -0.273 OA
ATOM      6  O   UNL d   1       3.161  -4.962  -1.272  0.00  0.00    -0.253 OA
ATOM      7  H   UNL d   1       1.735  -3.741  -2.260  0.00  0.00     0.141 HD
ATOM      8  H   UNL d   1       2.627  -2.573   0.691  0.00  0.00     0.170 HD
ENDROOT
BRANCH   1   9
ATOM      9  C   UNL d   1      -0.456  -2.682  -0.172  0.00  0.00     0.096 C 
ATOM     10  C   UNL d   1       0.070  -1.696   0.684  0.00  0.00     0.108 C 
ATOM     11  C   UNL d   1      -0.749  -1.105   1.666  0.00  0.00     0.070 C 
ATOM     12 CL   UNL d   1      -0.104  -0.096   2.915  0.00  0.00    -0.081 Cl
ATOM     13  C   UNL d   1      -2.111  -1.371   1.708  0.00  0.00     0.053 C 
ATOM     14  C   UNL d   1      -2.677  -2.214   0.759  0.00  0.00     0.070 C 
ATOM     15  C   UNL d   1      -1.868  -2.845  -0.206  0.00  0.00     0.108 C 
ATOM     16 CL   UNL d   1      -4.377  -2.500   0.896  0.00  0.00    -0.081 Cl
BRANCH  10  17
ATOM     17  O   UNL d   1       1.392  -1.351   0.599  0.00  0.00    -0.353 OA
ATOM     18  C   UNL d   1       1.589   0.015   0.203  0.00  0.00     0.210 C 
ENDBRANCH  10  17
BRANCH  15  19
ATOM     19  O   UNL d   1      -2.422  -3.666  -1.159  0.00  0.00    -0.353 OA
ATOM     20  C   UNL d   1      -3.360  -3.027  -2.029  0.00  0.00     0.210 C 
ENDBRANCH  15  19
ENDBRANCH   1   9
BRANCH   4  21
ATOM     21  C   UNL d   1       4.322  -3.662   1.196  0.00  0.00     0.048 C 
ATOM     22  C   UNL d   1       5.418  -4.465   0.821  0.00  0.00    -0.033 C 
ATOM     23  C   UNL d   1       6.288  -4.955   1.822  0.00  0.00     0.028 C 
ATOM     24  C   UNL d   1       5.808  -4.790  -0.596  0.00  0.00     0.050 C 
ATOM     25  C   UNL d   1       6.137  -4.585   3.147  0.00  0.00     0.012 C 
ATOM     26  C   UNL d   1       5.156  -3.678   3.499  0.00  0.00     0.028 C 
ATOM     27 BR   UNL d   1       7.309  -5.272   4.463  0.00  0.00    -0.051 Br
ATOM     28  C   UNL d   1       4.263  -3.185   2.536  0.00  0.00    -0.033 C 
ATOM     29  C   UNL d   1       3.255  -2.165   2.996  0.00  0.00     0.050 C 
ENDBRANCH   4  21
TORSDOF 4
