REMARK  6 active torsions:
REMARK  status: ('A' for Active; 'I' for Inactive)
REMARK    1  A    between atoms: C_5  and  C_1 
REMARK    2  A    between atoms: C_2  and  S_4 
REMARK    3  A    between atoms: C_6  and  C_2 
REMARK    4  A    between atoms: C_3  and  O_7 
REMARK    5  A    between atoms: S_4  and  C_16 
REMARK    6  A    between atoms: O_7  and  C_20 
ROOT
ATOM      1  C   UNL d   1      -1.142  -2.735  -5.986  0.00  0.00     0.224 C 
ATOM      2  O   UNL d   1      -1.330  -2.959  -7.176  0.00  0.00    -0.279 OA
ENDROOT
BRANCH   1   3
ATOM      3  S   UNL d   1      -1.173  -1.107  -5.327  0.00  0.00    -0.048 SA
BRANCH   3   4
ATOM      4  C   UNL d   1      -2.681  -0.363  -5.927  0.00  0.00     0.008 A 
ATOM      5  C   UNL d   1      -3.256   0.637  -5.129  0.00  0.00     0.020 A 
ATOM      6  C   UNL d   1      -4.388   1.341  -5.555  0.00  0.00     0.017 A 
ATOM      7  C   UNL d   1      -4.976   1.062  -6.795  0.00  0.00     0.048 A 
ATOM      8  C   UNL d   1      -4.415   0.052  -7.587  0.00  0.00     0.017 A 
ATOM      9  C   UNL d   1      -3.276  -0.645  -7.159  0.00  0.00     0.020 A 
BRANCH   7  10
ATOM     10  C   UNL d   1      -6.166   1.859  -7.266  0.00  0.00     0.417 C 
ATOM     11  F   UNL d   1      -6.623   1.489  -8.495  0.00  0.00    -0.166 F 
ATOM     12  F   UNL d   1      -5.897   3.189  -7.356  0.00  0.00    -0.166 F 
ATOM     13  F   UNL d   1      -7.234   1.751  -6.424  0.00  0.00    -0.166 F 
ENDBRANCH   7  10
ENDBRANCH   3   4
ENDBRANCH   1   3
BRANCH   1  14
ATOM     14  C   UNL d   1      -0.817  -3.865  -5.066  0.00  0.00     0.021 A 
ATOM     15  C   UNL d   1      -0.200  -3.707  -3.816  0.00  0.00     0.019 A 
ATOM     16  C   UNL d   1       0.104  -4.825  -3.025  0.00  0.00     0.038 A 
ATOM     17  C   UNL d   1      -0.175  -6.110  -3.487  0.00  0.00     0.078 A 
ATOM     18  C   UNL d   1      -0.821  -6.271  -4.713  0.00  0.00     0.038 A 
ATOM     19  C   UNL d   1      -1.130  -5.160  -5.502  0.00  0.00     0.019 A 
BRANCH  17  20
ATOM     20  O   UNL d   1       0.055  -7.261  -2.798  0.00  0.00    -0.255 OA
BRANCH  20  21
ATOM     21  C   UNL d   1       1.275  -7.394  -2.079  0.00  0.00     0.530 C 
ATOM     22  F   UNL d   1       2.102  -6.333  -2.186  0.00  0.00    -0.144 F 
ATOM     23  F   UNL d   1       0.997  -7.594  -0.773  0.00  0.00    -0.144 F 
ATOM     24  F   UNL d   1       1.931  -8.482  -2.542  0.00  0.00    -0.144 F 
ENDBRANCH  20  21
ENDBRANCH  17  20
ENDBRANCH   1  14
TORSDOF 6
