REMARK  2 active torsions:
REMARK  status: ('A' for Active; 'I' for Inactive)
REMARK    1  A    between atoms: S_6  and  C_1 
REMARK    2  A    between atoms: C_7  and  S_6 
ROOT
ATOM      1  C   UNL d   1      -1.280  -1.165  -0.009  0.00  0.00     0.040 A 
ATOM      2  C   UNL d   1      -2.052  -0.021   0.059  0.00  0.00     0.024 A 
ATOM      3  N   UNL d   1      -1.186   1.046   0.021  0.00  0.00    -0.358 N 
ATOM      4  C   UNL d   1       0.093  -0.779  -0.038  0.00  0.00     0.010 A 
ATOM      5  C   UNL d   1       0.118   0.616  -0.020  0.00  0.00     0.044 A 
ATOM      6  C   UNL d   1      -3.517   0.198   0.159  0.00  0.00     0.069 C 
ATOM      7  C   UNL d   1       1.324  -1.469  -0.062  0.00  0.00     0.015 A 
ATOM      8  C   UNL d   1       1.308   1.356  -0.031  0.00  0.00     0.030 A 
ATOM      9  C   UNL d   1       2.523  -0.745  -0.064  0.00  0.00     0.001 A 
ATOM     10  C   UNL d   1       2.512   0.647  -0.050  0.00  0.00     0.002 A 
ATOM     11  H   UNL d   1      -1.462   2.018   0.052  0.00  0.00     0.166 HD
ENDROOT
BRANCH   1  12
ATOM     12  S   UNL d   1      -1.857  -2.817   0.040  0.00  0.00    -0.088 SA
BRANCH  12  13
ATOM     13  C   UNL d   1      -1.996  -3.295  -1.676  0.00  0.00     0.005 A 
ATOM     14  C   UNL d   1      -1.725  -4.628  -2.020  0.00  0.00     0.020 A 
ATOM     15  C   UNL d   1      -1.905  -5.079  -3.332  0.00  0.00     0.025 A 
ATOM     16  C   UNL d   1      -2.362  -4.198  -4.308  0.00  0.00     0.034 A 
ATOM     17  C   UNL d   1      -2.626  -2.870  -3.987  0.00  0.00     0.025 A 
ATOM     18 CL   UNL d   1      -2.622  -4.757  -5.915  0.00  0.00    -0.084 Cl
ATOM     19  C   UNL d   1      -2.445  -2.422  -2.673  0.00  0.00     0.020 A 
ENDBRANCH  12  13
ENDBRANCH   1  12
TORSDOF 2
