REMARK  6 active torsions:
REMARK  status: ('A' for Active; 'I' for Inactive)
REMARK       I    between atoms: N_2  and  C_1 
REMARK       I    between atoms: N_4  and  C_1 
REMARK    1  A    between atoms: C_6  and  N_2 
REMARK    2  A    between atoms: C_3  and  C_5 
REMARK    3  A    between atoms: O_12  and  C_3 
REMARK    4  A    between atoms: C_9  and  N_4 
REMARK    5  A    between atoms: O_13  and  C_11 
REMARK    6  A    between atoms: C_19  and  O_13 
ROOT
ATOM      1  C   UNL d   1       0.773  -0.454  -0.150  0.00  0.00     0.325 C 
ATOM      2  N   UNL d   1       0.122  -1.208   0.790  0.00  0.00    -0.306 N 
ATOM      3  N   UNL d   1      -0.006   0.260  -1.025  0.00  0.00    -0.309 N 
ATOM      4  O   UNL d   1       1.992  -0.312  -0.224  0.00  0.00    -0.247 OA
ATOM      5  H   UNL d   1      -0.606  -1.765   0.379  0.00  0.00     0.171 HD
ATOM      6  H   UNL d   1       0.569   0.964  -1.474  0.00  0.00     0.170 HD
ENDROOT
BRANCH   2   7
ATOM      7  C   UNL d   1       0.821  -1.869   1.826  0.00  0.00     0.069 A 
ATOM      8  C   UNL d   1       1.618  -1.229   2.789  0.00  0.00     0.095 A 
ATOM      9  C   UNL d   1       2.309  -2.013   3.725  0.00  0.00     0.039 A 
ATOM     10  C   UNL d   1       2.193  -3.405   3.725  0.00  0.00     0.003 A 
ATOM     11  C   UNL d   1       1.377  -4.032   2.790  0.00  0.00     0.002 A 
ATOM     12  C   UNL d   1       0.681  -3.266   1.858  0.00  0.00     0.032 A 
BRANCH   8  13
ATOM     13  O   UNL d   1       1.827   0.117   2.939  0.00  0.00    -0.349 OA
BRANCH  13  14
ATOM     14  C   UNL d   1       0.671   0.948   2.843  0.00  0.00     0.171 C 
ATOM     15  C   UNL d   1       0.948   2.237   3.603  0.00  0.00     0.034 C 
ENDBRANCH  13  14
ENDBRANCH   8  13
ENDBRANCH   2   7
BRANCH   3  16
ATOM     16  C   UNL d   1      -1.397   0.466  -1.044  0.00  0.00     0.037 A 
ATOM     17  C   UNL d   1      -2.339  -0.557  -0.925  0.00  0.00     0.048 A 
ATOM     18  C   UNL d   1      -3.710  -0.262  -0.928  0.00  0.00     0.039 A 
ATOM     19  C   UNL d   1      -4.144   1.057  -1.096  0.00  0.00     0.018 A 
ATOM     20  C   UNL d   1      -3.206   2.075  -1.258  0.00  0.00     0.003 A 
ATOM     21  C   UNL d   1      -1.841   1.777  -1.249  0.00  0.00     0.029 A 
BRANCH  18  22
ATOM     22  C   UNL d   1      -4.662  -1.394  -0.811  0.00  0.00     0.176 C 
ATOM     23  O   UNL d   1      -4.405  -2.513  -1.229  0.00  0.00    -0.646 OA
BRANCH  22  24
ATOM     24  O   UNL d   1      -5.799  -1.090  -0.155  0.00  0.00    -0.773 OA
ATOM     25  H   UNL d   1      -5.808  -0.224   0.291  0.00  0.00     0.167 HD
ENDBRANCH  22  24
ENDBRANCH  18  22
ENDBRANCH   3  16
TORSDOF 6
