REMARK  6 active torsions:
REMARK  status: ('A' for Active; 'I' for Inactive)
REMARK    1  A    between atoms: C_3  and  C_1 
REMARK    2  A    between atoms: C_8  and  C_2 
REMARK       I    between atoms: N_15  and  C_8 
REMARK    3  A    between atoms: C_16  and  C_12 
REMARK    4  A    between atoms: N_20  and  N_15 
REMARK    5  A    between atoms: O_17  and  C_16 
REMARK    6  A    between atoms: C_18  and  O_17 
ROOT
ATOM      1  C   UNL d   1       0.366  -2.703  -0.125  0.00  0.00     0.054 A 
ATOM      2  N   UNL d   1       1.109  -3.191   0.939  0.00  0.00    -0.351 N 
ATOM      3  HN  UNL d   1       1.397  -2.644   1.750  1.00  0.00     0.166 HD
ATOM      4  C   UNL d   1       0.067  -3.630  -1.100  0.00  0.00     0.082 A 
ATOM      5  C   UNL d   1       1.388  -4.467   0.750  0.00  0.00     0.075 A 
ATOM      6  S   UNL d   1       0.748  -5.149  -0.697  0.00  0.00    -0.084 SA
ENDROOT
BRANCH   1   7
ATOM      7  C   UNL d   1      -0.060  -1.308  -0.061  0.00  0.00     0.057 A 
ATOM      8  C   UNL d   1      -0.221  -0.364  -1.114  0.00  0.00     0.138 A 
ATOM      9  N   UNL d   1      -0.665   0.811  -0.621  0.00  0.00    -0.255 N 
ATOM     10  O   UNL d   1      -0.763   0.647   0.744  0.00  0.00    -0.241 OA
ATOM     11  HN  UNL d   1      -0.885   1.654  -1.152  1.00  0.00     0.195 HD
ATOM     12  C   UNL d   1      -0.394  -0.614   1.080  0.00  0.00     0.087 A 
ATOM     13  C   UNL d   1      -0.450  -0.955   2.515  0.00  0.00     0.080 C 
BRANCH   8  14
ATOM     14  C   UNL d   1       0.043  -0.488  -2.550  0.00  0.00     0.285 C 
ATOM     15  O   UNL d   1       0.528  -1.486  -3.084  0.00  0.00    -0.265 OA
ATOM     16  N   UNL d   1      -0.306   0.645  -3.288  0.00  0.00    -0.288 N 
ATOM     17  H   UNL d   1      -0.769   1.412  -2.797  0.00  0.00     0.183 HD
BRANCH  16  18
ATOM     18  N   UNL d   1      -0.217   0.649  -4.699  0.00  0.00    -0.247 NA
ATOM     19  H   UNL d   1       0.099  -0.288  -4.987  0.00  0.00     0.143 HD
ATOM     20  H   UNL d   1       0.550   1.270  -4.968  0.00  0.00     0.143 HD
ENDBRANCH  16  18
ENDBRANCH   8  14
ENDBRANCH   1   7
BRANCH   5  21
ATOM     21  C   UNL d   1       2.240  -5.308   1.656  0.00  0.00     0.240 C 
BRANCH  21  22
ATOM     22  O   UNL d   1       1.373  -5.942   2.602  0.00  0.00    -0.345 OA
BRANCH  22  23
ATOM     23  C   UNL d   1       1.990  -6.746   3.522  0.00  0.00     0.069 A 
ATOM     24  C   UNL d   1       1.315  -6.894   4.738  0.00  0.00     0.038 A 
ATOM     25  C   UNL d   1       1.839  -7.709   5.747  0.00  0.00     0.026 A 
ATOM     26  C   UNL d   1       3.033  -8.391   5.531  0.00  0.00     0.034 A 
ATOM     27  C   UNL d   1       3.703  -8.266   4.317  0.00  0.00     0.026 A 
ATOM     28 CL   UNL d   1       3.681  -9.402   6.763  0.00  0.00    -0.084 Cl
ATOM     29  C   UNL d   1       3.181  -7.446   3.311  0.00  0.00     0.038 A 
ENDBRANCH  22  23
ENDBRANCH  21  22
ENDBRANCH   5  21
TORSDOF 6
