REMARK  7 active torsions:
REMARK  status: ('A' for Active; 'I' for Inactive)
REMARK    1  A    between atoms: N_8  and  C_1 
REMARK    2  A    between atoms: N_10  and  C_1 
REMARK    3  A    between atoms: N_4  and  N_8 
REMARK    4  A    between atoms: N_9  and  C_7 
REMARK    5  A    between atoms: C_18  and  N_9 
REMARK    6  A    between atoms: C_15  and  C_13 
REMARK    7  A    between atoms: C_14  and  C_18 
ROOT
ATOM      1  N   UNL d   1      -9.864   0.097  -5.074  0.00  0.00    -0.197 NA
ATOM      2  C   UNL d   1      -9.075  -0.584  -4.557  0.00  0.00     0.060 C 
ATOM      3  C   UNL d   1      -8.092  -1.448  -3.892  0.00  0.00     0.143 C 
ENDROOT
BRANCH   3   4
ATOM      4  C   UNL d   1      -8.234  -1.331  -2.372  0.00  0.00     0.136 C 
BRANCH   4   5
ATOM      5  N   UNL d   1      -7.399  -2.311  -1.657  0.00  0.00    -0.384 N 
ATOM      6  C   UNL d   1      -8.126  -3.411  -1.017  0.00  0.00     0.149 C 
BRANCH   5   7
ATOM      7  C   UNL d   1      -6.017  -2.222  -1.576  0.00  0.00     0.029 A 
ATOM      8  C   UNL d   1      -5.317  -1.015  -1.765  0.00  0.00     0.030 A 
ATOM      9  C   UNL d   1      -3.913  -0.930  -1.655  0.00  0.00     0.015 A 
ATOM     10  C   UNL d   1      -3.175  -2.070  -1.355  0.00  0.00    -0.019 A 
ATOM     11  C   UNL d   1      -3.838  -3.279  -1.167  0.00  0.00     0.015 A 
ATOM     12  C   UNL d   1      -5.229  -3.347  -1.286  0.00  0.00     0.030 A 
BRANCH  10  13
ATOM     13  C   UNL d   1      -1.698  -2.033  -1.254  0.00  0.00     0.118 C 
ATOM     14  N   UNL d   1      -1.051  -3.121  -0.981  0.00  0.00    -0.309 N 
ATOM     15  HN  UNL d   1      -1.540  -4.002  -0.817  1.00  0.00     0.186 HD
BRANCH  14  16
ATOM     16  N   UNL d   1       0.307  -3.044  -0.923  0.00  0.00    -0.277 N 
ATOM     17  H   UNL d   1       0.795  -2.174  -1.114  0.00  0.00     0.189 HD
BRANCH  16  18
ATOM     18  C   UNL d   1       1.051  -4.176  -0.632  0.00  0.00     0.186 C 
ATOM     19  S   UNL d   1       2.712  -4.098  -0.592  0.00  0.00    -0.040 SA
BRANCH  18  20
ATOM     20  N   UNL d   1       0.267  -5.276  -0.402  0.00  0.00    -0.370 N 
ATOM     21  C   UNL d   1       0.648  -6.630  -0.073  0.00  0.00     0.148 C 
ATOM     22  H   UNL d   1      -0.719  -5.053  -0.504  0.00  0.00     0.161 HD
ENDBRANCH  18  20
ENDBRANCH  16  18
ENDBRANCH  14  16
ENDBRANCH  10  13
ENDBRANCH   5   7
ENDBRANCH   4   5
ENDBRANCH   3   4
TORSDOF 7
