REMARK  4 active torsions:
REMARK  status: ('A' for Active; 'I' for Inactive)
REMARK    1  A    between atoms: C_5  and  C_1 
REMARK    2  A    between atoms: C_7  and  C_2 
REMARK       I    between atoms: N_10  and  C_7 
REMARK    3  A    between atoms: C_9  and  N_11 
REMARK    4  A    between atoms: N_11  and  N_10 
ROOT
ATOM      1  C   UNL d   1      -1.377  -0.700   0.218  0.00  0.00     0.088 A 
ATOM      2  C   UNL d   1      -0.070  -1.282   0.082  0.00  0.00     0.094 A 
ATOM      3  N   UNL d   1      -1.267   0.625   0.415  0.00  0.00    -0.259 N 
ATOM      4  HN  UNL d   1      -2.027   1.273   0.621  1.00  0.00     0.195 HD
ATOM      5  O   UNL d   1       0.059   0.939   0.287  0.00  0.00    -0.241 OA
ATOM      6  C   UNL d   1       0.777  -0.188   0.064  0.00  0.00     0.090 A 
ATOM      7  C   UNL d   1       2.217   0.040  -0.170  0.00  0.00     0.080 C 
ENDROOT
BRANCH   2   8
ATOM      8  C   UNL d   1       0.303  -2.676  -0.065  0.00  0.00     0.271 C 
ATOM      9  N   UNL d   1       1.473  -3.024   0.591  0.00  0.00    -0.282 N 
ATOM     10  H   UNL d   1       2.061  -2.346   1.065  0.00  0.00     0.184 HD
ATOM     11  O   UNL d   1      -0.380  -3.490  -0.685  0.00  0.00    -0.266 OA
BRANCH   9  12
ATOM     12  N   UNL d   1       2.010  -4.313   0.400  0.00  0.00    -0.201 NA
ATOM     13  H   UNL d   1       1.259  -4.964   0.139  0.00  0.00     0.153 HD
BRANCH  12  14
ATOM     14  C   UNL d   1       2.800  -4.796   1.483  0.00  0.00     0.051 A 
ATOM     15  C   UNL d   1       2.693  -6.163   1.806  0.00  0.00     0.050 A 
ATOM     16  C   UNL d   1       3.486  -6.736   2.805  0.00  0.00     0.035 A 
ATOM     17 CL   UNL d   1       3.317  -8.408   3.178  0.00  0.00    -0.084 Cl
ATOM     18  C   UNL d   1       4.420  -5.972   3.495  0.00  0.00     0.026 A 
ATOM     19  C   UNL d   1       4.574  -4.627   3.172  0.00  0.00     0.027 A 
ATOM     20  C   UNL d   1       3.786  -4.045   2.167  0.00  0.00     0.057 A 
ATOM     21 CL   UNL d   1       4.135  -2.389   1.800  0.00  0.00    -0.082 Cl
ENDBRANCH  12  14
ENDBRANCH   9  12
ENDBRANCH   2   8
BRANCH   1  22
ATOM     22  C   UNL d   1      -2.700  -1.327   0.230  0.00  0.00     0.054 A 
ATOM     23  C   UNL d   1      -3.804  -0.787  -0.460  0.00  0.00     0.049 A 
ATOM     24 CL   UNL d   1      -3.704   0.613  -1.478  0.00  0.00    -0.083 Cl
ATOM     25  C   UNL d   1      -5.068  -1.393  -0.379  0.00  0.00     0.025 A 
ATOM     26  C   UNL d   1      -5.248  -2.556   0.365  0.00  0.00     0.005 A 
ATOM     27  C   UNL d   1      -4.166  -3.109   1.040  0.00  0.00     0.043 A 
ATOM     28  C   UNL d   1      -2.916  -2.489   0.982  0.00  0.00     0.130 A 
ATOM     29  F   UNL d   1      -1.923  -3.029   1.706  0.00  0.00    -0.205 F 
ENDBRANCH   1  22
TORSDOF 4
