REMARK  6 active torsions:
REMARK  status: ('A' for Active; 'I' for Inactive)
REMARK    1  A    between atoms: C_12  and  C_1 
REMARK    2  A    between atoms: S_8  and  C_3 
REMARK    3  A    between atoms: C_27  and  S_8 
REMARK    4  A    between atoms: C_9  and  N_15 
REMARK    5  A    between atoms: C_14  and  C_13 
REMARK       I    between atoms: N_15  and  C_14 
REMARK    6  A    between atoms: C_29  and  C_27 
ROOT
ATOM      1  C   UNL d   1       0.014   0.935   0.206  0.00  0.00     0.134 A 
ATOM      2  C   UNL d   1      -0.519  -1.206  -0.200  0.00  0.00     0.069 A 
ATOM      3  N   UNL d   1      -1.159   0.968  -0.454  0.00  0.00    -0.294 N 
ATOM      4  HN  UNL d   1      -1.699   1.790  -0.723  1.00  0.00     0.187 HD
ATOM      5  C   UNL d   1       0.441  -0.408   0.394  0.00  0.00     0.068 A 
ATOM      6  N   UNL d   1      -1.460  -0.326  -0.681  0.00  0.00    -0.295 N 
ATOM      7  C   UNL d   1      -0.582  -2.639  -0.310  0.00  0.00     0.034 A 
ATOM      8  S   UNL d   1      -0.143  -3.667   0.996  0.00  0.00    -0.083 SA
ATOM      9  C   UNL d   1      -0.595  -5.080   0.148  0.00  0.00     0.073 A 
ATOM     10  C   UNL d   1      -0.977  -3.379  -1.407  0.00  0.00     0.023 A 
ATOM     11  C   UNL d   1      -0.995  -4.776  -1.140  0.00  0.00     0.026 A 
ATOM     12  C   UNL d   1      -2.708  -0.625  -1.347  0.00  0.00     0.178 C 
ENDROOT
BRANCH   9  13
ATOM     13  C   UNL d   1      -0.545  -6.422   0.717  0.00  0.00     0.263 C 
ATOM     14  N   UNL d   1      -0.335  -6.513   2.084  0.00  0.00    -0.321 N 
ATOM     15  H   UNL d   1      -0.429  -5.667   2.646  0.00  0.00     0.169 HD
ATOM     16  O   UNL d   1      -0.781  -7.412   0.023  0.00  0.00    -0.267 OA
BRANCH  14  17
ATOM     17  C   UNL d   1      -0.264  -7.735   2.757  0.00  0.00     0.063 A 
ATOM     18  C   UNL d   1      -0.818  -8.002   4.050  0.00  0.00     0.092 A 
ATOM     19  C   UNL d   1      -0.497  -9.258   4.518  0.00  0.00     0.075 A 
ATOM     20  S   UNL d   1       0.396 -10.156   3.372  0.00  0.00    -0.110 SA
ATOM     21  C   UNL d   1       0.359  -8.859   2.251  0.00  0.00     0.080 A 
BRANCH  18  22
ATOM     22  S   UNL d   1      -1.893  -6.928   4.875  0.00  0.00     0.178 S 
ATOM     23  O   UNL d   1      -2.187  -7.573   6.140  0.00  0.00    -0.223 OA
ATOM     24  O   UNL d   1      -1.223  -5.643   4.784  0.00  0.00    -0.223 OA
BRANCH  22  25
ATOM     25  C   UNL d   1      -3.353  -6.900   3.845  0.00  0.00     0.145 C 
BRANCH  25  26
ATOM     26  C   UNL d   1      -4.445  -6.035   4.464  0.00  0.00     0.011 C 
ATOM     27  C   UNL d   1      -5.662  -5.925   3.559  0.00  0.00     0.006 C 
ENDBRANCH  25  26
ENDBRANCH  22  25
ENDBRANCH  18  22
ENDBRANCH  14  17
ENDBRANCH   9  13
BRANCH   1  28
ATOM     28  C   UNL d   1       0.742   2.175   0.653  0.00  0.00     0.434 C 
ATOM     29  F   UNL d   1       0.079   3.331   0.378  0.00  0.00    -0.165 F 
ATOM     30  F   UNL d   1       0.970   2.168   1.995  0.00  0.00    -0.165 F 
ATOM     31  F   UNL d   1       1.963   2.277   0.059  0.00  0.00    -0.165 F 
ENDBRANCH   1  28
TORSDOF 6
