REMARK  0 active torsions:
REMARK  status: ('A' for Active; 'I' for Inactive)
ROOT
ATOM      1  C   UNL d   1      -0.009   1.514  -0.000  0.00  0.00     0.198 A 
ATOM      2  C   UNL d   1      -1.257   0.740   0.001  0.00  0.00     0.049 A 
ATOM      3  C   UNL d   1      -1.183  -0.652   0.000  0.00  0.00     0.092 A 
ATOM      4  O   UNL d   1      -0.001  -1.355   0.000  0.00  0.00    -0.309 OA
ATOM      5  C   UNL d   1       1.243   0.748  -0.000  0.00  0.00     0.049 A 
ATOM      6  C   UNL d   1       1.176  -0.645   0.000  0.00  0.00     0.090 A 
ATOM      7  C   UNL d   1      -2.360  -1.404   0.000  0.00  0.00     0.062 A 
ATOM      8  C   UNL d   1      -2.494   1.392   0.001  0.00  0.00     0.020 A 
ATOM      9  O   UNL d   1      -0.015   2.737   0.000  0.00  0.00    -0.286 OA
ATOM     10  C   UNL d   1      -3.596  -0.754   0.001  0.00  0.00     0.036 A 
ATOM     11  C   UNL d   1      -3.669   0.640   0.001  0.00  0.00     0.025 A 
ATOM     12 CL   UNL d   1      -5.048  -1.678   0.000  0.00  0.00    -0.084 Cl
ATOM     13  C   UNL d   1       2.477   1.405  -0.000  0.00  0.00     0.018 A 
ATOM     14  C   UNL d   1       2.359  -1.387  -0.000  0.00  0.00     0.038 A 
ATOM     15  C   UNL d   1       3.655   0.660  -0.000  0.00  0.00     0.001 A 
ATOM     16  C   UNL d   1       3.595  -0.734  -0.001  0.00  0.00     0.003 A 
ENDROOT
TORSDOF 0
