REMARK  4 active torsions:
REMARK  status: ('A' for Active; 'I' for Inactive)
REMARK    1  A    between atoms: C_9  and  C_1 
REMARK    2  A    between atoms: C_10  and  C_7 
REMARK    3  A    between atoms: C_8  and  O_11 
REMARK    4  A    between atoms: O_11  and  C_19 
ROOT
ATOM      1  C   UNL d   1       0.150  -0.946   0.530  0.00  0.00     0.176 A 
ATOM      2  O   UNL d   1      -0.501   0.191   0.945  0.00  0.00    -0.273 OA
ATOM      3  N   UNL d   1       0.832  -0.764  -0.581  0.00  0.00    -0.277 N 
ATOM      4  HN  UNL d   1       1.391  -1.460  -1.074  1.00  0.00     0.189 HD
ATOM      5  N   UNL d   1       0.643   0.549  -0.947  0.00  0.00    -0.277 N 
ATOM      6  HN  UNL d   1       1.032   1.016  -1.766  1.00  0.00     0.189 HD
ATOM      7  C   UNL d   1      -0.141   1.086  -0.029  0.00  0.00     0.174 A 
ENDROOT
BRANCH   7   8
ATOM      8  C   UNL d   1      -0.649   2.450   0.064  0.00  0.00     0.017 A 
ATOM      9  C   UNL d   1      -1.462   2.892   1.119  0.00  0.00     0.018 A 
ATOM     10  C   UNL d   1      -1.947   4.210   1.157  0.00  0.00     0.038 A 
ATOM     11  C   UNL d   1      -1.644   5.099   0.127  0.00  0.00     0.078 A 
ATOM     12  C   UNL d   1      -0.804   4.676  -0.905  0.00  0.00     0.038 A 
ATOM     13  C   UNL d   1      -0.317   3.369  -0.940  0.00  0.00     0.018 A 
BRANCH  11  14
ATOM     14  O   UNL d   1      -2.075   6.384  -0.001  0.00  0.00    -0.255 OA
BRANCH  14  15
ATOM     15  C   UNL d   1      -3.211   6.797   0.740  0.00  0.00     0.530 C 
ATOM     16  F   UNL d   1      -4.146   5.827   0.840  0.00  0.00    -0.144 F 
ATOM     17  F   UNL d   1      -2.844   7.193   1.977  0.00  0.00    -0.144 F 
ATOM     18  F   UNL d   1      -3.775   7.849   0.106  0.00  0.00    -0.144 F 
ENDBRANCH  14  15
ENDBRANCH  11  14
ENDBRANCH   7   8
BRANCH   1  19
ATOM     19  C   UNL d   1       0.013  -2.140   1.345  0.00  0.00     0.032 A 
ATOM     20  C   UNL d   1       0.729  -3.289   1.018  0.00  0.00     0.103 A 
ATOM     21  N   UNL d   1       0.677  -4.452   1.714  0.00  0.00    -0.374 N 
ATOM     22  C   UNL d   1      -0.133  -4.478   2.793  0.00  0.00     0.087 A 
ATOM     23  HN  UNL d   1       1.223  -5.267   1.436  1.00  0.00     0.164 HD
ATOM     24  C   UNL d   1      -0.892  -3.395   3.205  0.00  0.00     0.018 A 
ATOM     25  C   UNL d   1      -0.816  -2.212   2.469  0.00  0.00     0.018 A 
ENDBRANCH   1  19
TORSDOF 4
