REMARK  9 active torsions:
REMARK  status: ('A' for Active; 'I' for Inactive)
REMARK    1  A    between atoms: C_4  and  S_1 
REMARK    2  A    between atoms: N_6  and  S_1 
REMARK    3  A    between atoms: S_2  and  C_11 
REMARK    4  A    between atoms: C_10  and  S_2 
REMARK    5  A    between atoms: C_5  and  C_3 
REMARK    6  A    between atoms: C_7  and  N_6 
REMARK    7  A    between atoms: C_11  and  C_21 
REMARK    8  A    between atoms: S_20  and  C_14 
REMARK    9  A    between atoms: C_21  and  S_20 
ROOT
ATOM      1  C   UNL d   1       1.224  -0.835   2.894  0.00  0.00     0.059 A 
ATOM      2  C   UNL d   1       2.509  -1.408   2.800  0.00  0.00     0.027 A 
ATOM      3  C   UNL d   1       0.330  -1.311   3.873  0.00  0.00     0.031 A 
ATOM      4  C   UNL d   1       2.798  -2.507   3.642  0.00  0.00     0.021 A 
ATOM      5  C   UNL d   1       0.626  -2.418   4.663  0.00  0.00     0.002 A 
ATOM      6  C   UNL d   1       1.866  -3.019   4.547  0.00  0.00     0.002 A 
ENDROOT
BRANCH   1   7
ATOM      7  N   UNL d   1       0.716   0.235   2.099  0.00  0.00    -0.279 N 
ATOM      8  H   UNL d   1       0.183   0.969   2.563  0.00  0.00     0.179 HD
BRANCH   7   9
ATOM      9  S   UNL d   1       0.385   0.147   0.453  0.00  0.00     0.264 S 
ATOM     10  O   UNL d   1      -0.002   1.499   0.122  0.00  0.00    -0.200 OA
ATOM     11  O   UNL d   1       1.475  -0.526  -0.212  0.00  0.00    -0.200 OA
BRANCH   9  12
ATOM     12  C   UNL d   1      -1.070  -0.843   0.122  0.00  0.00     0.094 A 
ATOM     13  C   UNL d   1      -1.552  -0.927  -1.204  0.00  0.00     0.071 A 
ATOM     14  C   UNL d   1      -2.713  -1.697  -1.458  0.00  0.00     0.018 A 
ATOM     15  C   UNL d   1      -3.371  -2.381  -0.442  0.00  0.00     0.001 A 
ATOM     16  C   UNL d   1      -2.892  -2.289   0.857  0.00  0.00     0.002 A 
ATOM     17  C   UNL d   1      -1.760  -1.515   1.136  0.00  0.00     0.026 A 
BRANCH  13  18
ATOM     18  C   UNL d   1      -0.933  -0.258  -2.416  0.00  0.00     0.419 C 
ATOM     19  F   UNL d   1       0.216   0.429  -2.237  0.00  0.00    -0.166 F 
ATOM     20  F   UNL d   1      -0.660  -1.172  -3.393  0.00  0.00    -0.166 F 
ATOM     21  F   UNL d   1      -1.802   0.626  -2.987  0.00  0.00    -0.166 F 
ENDBRANCH  13  18
ENDBRANCH   9  12
ENDBRANCH   7   9
ENDBRANCH   1   7
BRANCH   2  22
ATOM     22  S   UNL d   1       3.891  -1.017   1.725  0.00  0.00    -0.127 SA
BRANCH  22  23
ATOM     23  C   UNL d   1       4.023   0.804   1.644  0.00  0.00     0.095 C 
BRANCH  23  24
ATOM     24  C   UNL d   1       4.509   1.446   2.927  0.00  0.00     0.156 C 
BRANCH  24  25
ATOM     25  S   UNL d   1       5.026   3.138   2.715  0.00  0.00     0.176 S 
ATOM     26  O   UNL d   1       5.519   3.581   4.005  0.00  0.00    -0.223 OA
ATOM     27  O   UNL d   1       5.879   3.230   1.542  0.00  0.00    -0.223 OA
BRANCH  25  28
ATOM     28  C   UNL d   1       3.580   4.123   2.358  0.00  0.00     0.059 A 
ATOM     29  C   UNL d   1       3.192   5.129   3.248  0.00  0.00     0.025 A 
ATOM     30  C   UNL d   1       2.130   5.980   2.920  0.00  0.00     0.025 A 
ATOM     31  C   UNL d   1       1.457   5.815   1.710  0.00  0.00     0.034 A 
ATOM     32  C   UNL d   1       1.849   4.819   0.816  0.00  0.00     0.025 A 
ATOM     33 CL   UNL d   1       0.160   6.869   1.302  0.00  0.00    -0.084 Cl
ATOM     34  C   UNL d   1       2.928   3.986   1.127  0.00  0.00     0.025 A 
ENDBRANCH  25  28
ENDBRANCH  24  25
ENDBRANCH  23  24
ENDBRANCH  22  23
ENDBRANCH   2  22
TORSDOF 9
