REMARK  9 active torsions:
REMARK  status: ('A' for Active; 'I' for Inactive)
REMARK    1  A    between atoms: C_8  and  C_1 
REMARK    2  A    between atoms: C_9  and  C_2 
REMARK    3  A    between atoms: C_6  and  C_13 
REMARK    4  A    between atoms: O_23  and  C_8 
REMARK    5  A    between atoms: N_11  and  C_9 
REMARK    6  A    between atoms: C_10  and  O_15 
REMARK       I    between atoms: N_14  and  C_10 
REMARK    7  A    between atoms: O_15  and  N_11 
REMARK    8  A    between atoms: C_18  and  N_14 
REMARK    9  A    between atoms: C_29  and  O_23 
ROOT
ATOM      1  N   UNL d   1      -3.640  -0.960  -0.563  0.00  0.00    -0.258 N 
ATOM      2  HN  UNL d   1      -4.421  -1.502  -0.931  1.00  0.00     0.194 HD
ENDROOT
BRANCH   1   3
ATOM      3  C   UNL d   1      -2.436  -1.412  -0.348  0.00  0.00     0.066 C 
ATOM      4  C   UNL d   1      -1.325  -0.530   0.218  0.00  0.00     0.073 C 
BRANCH   3   5
ATOM      5  C   UNL d   1      -2.069  -2.761  -0.714  0.00  0.00     0.141 A 
ATOM      6  C   UNL d   1      -2.746  -3.930  -1.023  0.00  0.00     0.101 A 
ATOM      7  C   UNL d   1      -1.700  -4.851  -1.351  0.00  0.00     0.048 A 
ATOM      8  N   UNL d   1      -0.495  -4.297  -1.195  0.00  0.00    -0.264 N 
ATOM      9  C   UNL d   1      -1.779  -6.259  -1.816  0.00  0.00     0.071 C 
ATOM     10  O   UNL d   1      -0.727  -3.006  -0.802  0.00  0.00    -0.235 OA
ATOM     11  HN  UNL d   1       0.411  -4.743  -1.338  1.00  0.00     0.194 HD
BRANCH   6  12
ATOM     12  C   UNL d   1      -4.174  -4.166  -0.962  0.00  0.00     0.298 C 
ATOM     13  O   UNL d   1      -5.010  -3.322  -0.666  0.00  0.00    -0.259 OA
BRANCH  12  14
ATOM     14  O   UNL d   1      -4.475  -5.480  -1.174  0.00  0.00    -0.318 OA
BRANCH  14  15
ATOM     15  C   UNL d   1      -5.760  -5.920  -0.713  0.00  0.00     0.174 C 
ATOM     16  C   UNL d   1      -5.612  -6.388   0.724  0.00  0.00     0.034 C 
ENDBRANCH  14  15
ENDBRANCH  12  14
ENDBRANCH   6  12
ENDBRANCH   3   5
ENDBRANCH   1   3
BRANCH   1  17
ATOM     17  O   UNL d   1      -3.682   0.402  -0.205  0.00  0.00    -0.181 OA
BRANCH  17  18
ATOM     18  C   UNL d   1      -4.897   1.025  -0.372  0.00  0.00     0.387 C 
ATOM     19  N   UNL d   1      -5.936   0.209  -0.767  0.00  0.00    -0.301 N 
ATOM     20  H   UNL d   1      -5.685  -0.773  -0.814  0.00  0.00     0.171 HD
ATOM     21  O   UNL d   1      -4.967   2.227  -0.130  0.00  0.00    -0.236 OA
BRANCH  19  22
ATOM     22  C   UNL d   1      -7.275   0.613  -0.967  0.00  0.00     0.037 A 
ATOM     23  C   UNL d   1      -7.670   1.958  -0.992  0.00  0.00     0.045 A 
ATOM     24  C   UNL d   1      -9.018   2.332  -1.123  0.00  0.00     0.050 A 
ATOM     25  C   UNL d   1      -9.984   1.330  -1.251  0.00  0.00     0.016 A 
ATOM     26  C   UNL d   1      -9.603  -0.014  -1.266  0.00  0.00     0.003 A 
ATOM     27  C   UNL d   1      -8.254  -0.371  -1.131  0.00  0.00     0.029 A 
BRANCH  24  28
ATOM     28  C   UNL d   1      -9.414   3.788  -1.099  0.00  0.00     0.417 C 
ATOM     29  F   UNL d   1      -8.360   4.650  -1.094  0.00  0.00    -0.166 F 
ATOM     30  F   UNL d   1     -10.172   4.139  -2.176  0.00  0.00    -0.166 F 
ATOM     31  F   UNL d   1     -10.159   4.104  -0.003  0.00  0.00    -0.166 F 
ENDBRANCH  24  28
ENDBRANCH  19  22
ENDBRANCH  17  18
ENDBRANCH   1  17
TORSDOF 9
