REMARK  3 active torsions:
REMARK  status: ('A' for Active; 'I' for Inactive)
REMARK    1  A    between atoms: N_3  and  C_1 
REMARK    2  A    between atoms: S_9  and  C_6 
REMARK    3  A    between atoms: C_10  and  S_9 
ROOT
ATOM      1  C   UNL d   1      -2.642  -0.728   0.075  0.00  0.00     0.121 A 
ATOM      2  N   UNL d   1       1.872  -0.024  -0.045  0.00  0.00    -0.289 N 
ATOM      3  C   UNL d   1       1.123  -1.159   0.002  0.00  0.00     0.259 A 
ATOM      4  C   UNL d   1       1.107   1.101  -0.061  0.00  0.00     0.259 A 
ATOM      5  C   UNL d   1      -2.687   0.691   0.038  0.00  0.00     0.039 A 
ATOM      6  C   UNL d   1      -0.275  -0.730   0.025  0.00  0.00     0.050 A 
ATOM      7  C   UNL d   1      -0.285   0.651  -0.025  0.00  0.00     0.049 A 
ATOM      8  C   UNL d   1      -1.441  -1.461   0.066  0.00  0.00     0.055 A 
ATOM      9  C   UNL d   1      -1.462   1.379  -0.051  0.00  0.00     0.039 A 
ATOM     10  O   UNL d   1       1.470   2.258  -0.091  0.00  0.00    -0.267 OA
ATOM     11  O   UNL d   1       1.498  -2.312   0.021  0.00  0.00    -0.267 OA
ATOM     12  H   UNL d   1       2.880  -0.016  -0.066  0.00  0.00     0.172 HD
ENDROOT
BRANCH   5  13
ATOM     13  S   UNL d   1      -4.174   1.681  -0.093  0.00  0.00    -0.085 SA
BRANCH  13  14
ATOM     14  C   UNL d   1      -4.725   1.923   1.611  0.00  0.00     0.049 A 
ATOM     15  C   UNL d   1      -4.014   2.706   2.545  0.00  0.00     0.052 A 
ATOM     16 CL   UNL d   1      -2.549   3.549   2.175  0.00  0.00    -0.083 Cl
ATOM     17  C   UNL d   1      -4.499   2.911   3.846  0.00  0.00     0.025 A 
ATOM     18  C   UNL d   1      -5.717   2.373   4.240  0.00  0.00     0.003 A 
ATOM     19  C   UNL d   1      -6.462   1.638   3.326  0.00  0.00     0.025 A 
ATOM     20  C   UNL d   1      -5.982   1.423   2.024  0.00  0.00     0.052 A 
ATOM     21 CL   UNL d   1      -7.053   0.568   0.958  0.00  0.00    -0.083 Cl
ENDBRANCH  13  14
ENDBRANCH   5  13
BRANCH   1  22
ATOM     22  N   UNL d   1      -3.861  -1.509   0.100  0.00  0.00    -0.114 N 
ATOM     23  O   UNL d   1      -4.493  -1.515   1.163  0.00  0.00    -0.532 OA
ATOM     24  O   UNL d   1      -4.116  -2.177  -0.908  0.00  0.00    -0.532 OA
ENDBRANCH   1  22
TORSDOF 3
