REMARK  5 active torsions:
REMARK  status: ('A' for Active; 'I' for Inactive)
REMARK    1  A    between atoms: C_13  and  N_1 
REMARK    2  A    between atoms: C_9  and  C_3 
REMARK    3  A    between atoms: O_11  and  C_9 
REMARK    4  A    between atoms: C_10  and  O_11 
REMARK    5  A    between atoms: C_14  and  C_13 
ROOT
ATOM      1  N   UNL d   1       0.655  -0.453   0.718  0.00  0.00    -0.306 N 
ATOM      2  C   UNL d   1      -0.610  -0.885   0.401  0.00  0.00     0.194 A 
ATOM      3  C   UNL d   1       0.916   0.551  -0.148  0.00  0.00     0.125 A 
ATOM      4  N   UNL d   1      -0.061   0.806  -0.981  0.00  0.00    -0.285 N 
ATOM      5  HN  UNL d   1      -0.091   1.521  -1.708  1.00  0.00     0.188 HD
ATOM      6  N   UNL d   1      -1.027  -0.097  -0.659  0.00  0.00    -0.275 N 
ATOM      7  S   UNL d   1      -1.549  -2.072   1.076  0.00  0.00    -0.039 SA
ATOM      8  H   UNL d   1      -1.922  -0.131  -1.133  0.00  0.00     0.189 HD
ENDROOT
BRANCH   3   9
ATOM      9  C   UNL d   1       2.180   1.398  -0.166  0.00  0.00     0.253 C 
BRANCH   9  10
ATOM     10  O   UNL d   1       3.383   0.726   0.172  0.00  0.00    -0.343 OA
BRANCH  10  11
ATOM     11  C   UNL d   1       4.547   1.434  -0.005  0.00  0.00     0.075 A 
ATOM     12  C   UNL d   1       5.616   1.154   0.867  0.00  0.00    -0.027 A 
ATOM     13  C   UNL d   1       6.838   1.834   0.705  0.00  0.00     0.033 A 
ATOM     14  C   UNL d   1       5.498   0.195   2.018  0.00  0.00     0.051 C 
ATOM     15  C   UNL d   1       7.006   2.752  -0.327  0.00  0.00     0.034 A 
ATOM     16  C   UNL d   1       5.963   3.011  -1.205  0.00  0.00     0.026 A 
ATOM     17 CL   UNL d   1       8.512   3.560  -0.524  0.00  0.00    -0.084 Cl
ATOM     18  C   UNL d   1       4.740   2.351  -1.048  0.00  0.00     0.039 A 
ENDBRANCH  10  11
ENDBRANCH   9  10
ENDBRANCH   3   9
BRANCH   1  19
ATOM     19  C   UNL d   1       1.496  -0.957   1.792  0.00  0.00     0.159 C 
BRANCH  19  20
ATOM     20  C   UNL d   1       2.371  -2.104   1.363  0.00  0.00    -0.017 C 
ATOM     21  C   UNL d   1       2.442  -2.707   0.168  0.00  0.00     0.008 C 
ENDBRANCH  19  20
ENDBRANCH   1  19
TORSDOF 5
