REMARK  4 active torsions:
REMARK  status: ('A' for Active; 'I' for Inactive)
REMARK    1  A    between atoms: C_2  and  C_1 
REMARK    2  A    between atoms: N_5  and  C_3 
REMARK       I    between atoms: C_4  and  N_5 
REMARK       I    between atoms: N_11  and  C_4 
REMARK    3  A    between atoms: C_7  and  C_10 
REMARK    4  A    between atoms: C_8  and  N_11 
ROOT
ATOM      1  C   UNL d   1      -0.177  -2.117  -0.421  0.00  0.00     0.324 C 
ATOM      2  N   UNL d   1      -0.153  -2.150   0.947  0.00  0.00    -0.308 N 
ATOM      3  N   UNL d   1      -0.137  -0.898  -1.036  0.00  0.00    -0.319 N 
ATOM      4  O   UNL d   1      -0.191  -3.106  -1.154  0.00  0.00    -0.247 OA
ATOM      5  H   UNL d   1       0.198  -1.314   1.387  0.00  0.00     0.170 HD
ATOM      6  H   UNL d   1      -0.189  -1.017  -2.043  0.00  0.00     0.170 HD
ENDROOT
BRANCH   2   7
ATOM      7  C   UNL d   1       0.002  -3.349   1.693  0.00  0.00     0.051 C 
ATOM      8  C   UNL d   1      -0.490  -4.609   1.317  0.00  0.00     0.074 C 
ATOM      9  C   UNL d   1       0.055  -5.758   1.932  0.00  0.00     0.018 C 
ATOM     10  C   UNL d   1       0.935  -5.650   3.005  0.00  0.00     0.001 C 
ATOM     11  C   UNL d   1       1.246  -4.395   3.509  0.00  0.00     0.002 C 
ATOM     12  C   UNL d   1       0.789  -3.249   2.852  0.00  0.00     0.030 C 
BRANCH   8  13
ATOM     13  C   UNL d   1      -1.689  -4.825   0.418  0.00  0.00     0.419 C 
ATOM     14  F   UNL d   1      -2.425  -3.711   0.143  0.00  0.00    -0.166 F 
ATOM     15  F   UNL d   1      -2.590  -5.670   1.023  0.00  0.00    -0.166 F 
ATOM     16  F   UNL d   1      -1.403  -5.429  -0.766  0.00  0.00    -0.166 F 
ENDBRANCH   8  13
ENDBRANCH   2   7
BRANCH   3  17
ATOM     17  C   UNL d   1       0.088   0.365  -0.554  0.00  0.00     0.093 C 
ATOM     18  C   UNL d   1       0.212   1.404  -1.396  0.00  0.00     0.029 C 
BRANCH  18  19
ATOM     19  C   UNL d   1       0.572   2.747  -1.042  0.00  0.00    -0.028 A 
ATOM     20  C   UNL d   1       0.649   3.748  -1.991  0.00  0.00     0.061 A 
ATOM     21  S   UNL d   1       1.175   5.237  -1.332  0.00  0.00    -0.113 SA
ATOM     22  C   UNL d   1       1.297   4.560   0.232  0.00  0.00     0.050 A 
ATOM     23  C   UNL d   1       0.934   3.231   0.253  0.00  0.00     0.019 A 
ENDBRANCH  18  19
ENDBRANCH   3  17
TORSDOF 4
