REMARK  6 active torsions:
REMARK  status: ('A' for Active; 'I' for Inactive)
REMARK    1  A    between atoms: C_8  and  C_1 
REMARK    2  A    between atoms: C_11  and  C_4 
REMARK    3  A    between atoms: S_13  and  C_6 
REMARK    4  A    between atoms: O_14  and  C_8 
REMARK    5  A    between atoms: O_15  and  C_11 
REMARK    6  A    between atoms: O_16  and  C_11 
ROOT
ATOM      1  C   UNL d   1      -0.677   1.284  -0.012  0.00  0.00     0.068 A 
ATOM      2  N   UNL d   1      -0.611  -1.123  -0.109  0.00  0.00    -0.348 N 
ATOM      3  HN  UNL d   1      -1.105  -2.015  -0.135  1.00  0.00     0.166 HD
ATOM      4  C   UNL d   1      -1.326   0.048  -0.042  0.00  0.00     0.082 A 
ATOM      5  C   UNL d   1       1.447   0.086  -0.107  0.00  0.00     0.079 A 
ATOM      6  C   UNL d   1       0.741  -1.107  -0.140  0.00  0.00     0.088 A 
ATOM      7  C   UNL d   1       0.728   1.285  -0.045  0.00  0.00     0.045 A 
ATOM      8  C   UNL d   1       2.873   0.133  -0.122  0.00  0.00     0.102 C 
ATOM      9  N   UNL d   1       4.033   0.169  -0.118  0.00  0.00    -0.191 NA
ENDROOT
BRANCH   6  10
ATOM     10  S   UNL d   1       1.476  -2.726  -0.228  0.00  0.00    -0.124 SA
ATOM     11  H   UNL d   1       2.751  -2.385   0.005  0.00  0.00     0.108 HD
ENDBRANCH   6  10
BRANCH   1  12
ATOM     12  C   UNL d   1      -1.409   2.578   0.040  0.00  0.00     0.295 C 
ATOM     13  O   UNL d   1      -2.549   2.753  -0.344  0.00  0.00    -0.259 OA
BRANCH  12  14
ATOM     14  O   UNL d   1      -0.604   3.516   0.602  0.00  0.00    -0.322 OA
ATOM     15  C   UNL d   1      -1.141   4.841   0.676  0.00  0.00     0.213 C 
ENDBRANCH  12  14
ENDBRANCH   1  12
BRANCH   4  16
ATOM     16  C   UNL d   1      -2.851  -0.101  -0.015  0.00  0.00     0.310 C 
BRANCH  16  17
ATOM     17  O   UNL d   1      -3.273  -0.157  -1.384  0.00  0.00    -0.360 OA
ATOM     18  C   UNL d   1      -4.683  -0.277  -1.508  0.00  0.00     0.205 C 
ENDBRANCH  16  17
BRANCH  16  19
ATOM     19  O   UNL d   1      -3.269  -1.294   0.672  0.00  0.00    -0.360 OA
ATOM     20  C   UNL d   1      -2.961  -1.292   2.057  0.00  0.00     0.205 C 
ENDBRANCH  16  19
ENDBRANCH   4  16
TORSDOF 6
