REMARK  1 active torsions:
REMARK  status: ('A' for Active; 'I' for Inactive)
REMARK    1  A    between atoms: O_14  and  C_10 
ROOT
ATOM      1  C   UNL d   1      -0.632   2.104   0.003  0.00  0.00     0.299 A 
ATOM      2  O   UNL d   1       0.752   1.999   0.002  0.00  0.00    -0.274 OA
ATOM      3  C   UNL d   1       1.429   0.760   0.001  0.00  0.00     0.093 A 
ATOM      4  C   UNL d   1       0.722  -0.443  -0.000  0.00  0.00     0.009 A 
ATOM      5  C   UNL d   1      -0.744  -0.407   0.000  0.00  0.00    -0.007 A 
ATOM      6  C   UNL d   1      -1.400   0.833   0.002  0.00  0.00     0.051 A 
ATOM      7  C   UNL d   1       2.826   0.814   0.002  0.00  0.00     0.075 A 
ATOM      8  C   UNL d   1       1.484  -1.619  -0.002  0.00  0.00     0.018 A 
ATOM      9  O   UNL d   1      -1.194   3.196   0.005  0.00  0.00    -0.259 OA
ATOM     10  C   UNL d   1       3.563  -0.367  -0.000  0.00  0.00     0.070 A 
ATOM     11  C   UNL d   1       2.885  -1.585  -0.002  0.00  0.00     0.038 A 
ATOM     12  C   UNL d   1      -1.544  -1.567   0.001  0.00  0.00     0.013 A 
ATOM     13  C   UNL d   1      -2.805   0.906   0.003  0.00  0.00     0.018 A 
ATOM     14  C   UNL d   1      -2.940  -1.493   0.003  0.00  0.00     0.001 A 
ATOM     15  C   UNL d   1      -3.571  -0.256   0.004  0.00  0.00     0.001 A 
ENDROOT
BRANCH  10  16
ATOM     16  O   UNL d   1       4.922  -0.216   0.001  0.00  0.00    -0.356 OA
ATOM     17  C   UNL d   1       5.694  -1.412   0.000  0.00  0.00     0.210 C 
ENDBRANCH  10  16
TORSDOF 1
