REMARK  10 active torsions:
REMARK  status: ('A' for Active; 'I' for Inactive)
REMARK    1  A    between atoms: C_8  and  N_1 
REMARK    2  A    between atoms: N_2  and  C_7 
REMARK    3  A    between atoms: O_20  and  C_3 
REMARK    4  A    between atoms: C_4  and  O_21 
REMARK    5  A    between atoms: C_28  and  C_5 
REMARK    6  A    between atoms: C_29  and  C_6 
REMARK    7  A    between atoms: S_11  and  C_9 
REMARK    8  A    between atoms: C_10  and  S_11 
REMARK    9  A    between atoms: C_24  and  O_20 
REMARK   10  A    between atoms: O_21  and  C_25 
ROOT
ATOM      1  S   UNL d   1      -1.046  -9.790   2.087  0.00  0.00    -0.089 SA
ENDROOT
BRANCH   1   2
ATOM      2  C   UNL d   1      -0.717 -11.148   0.970  0.00  0.00     0.012 A 
ATOM      3  C   UNL d   1      -1.805 -11.981   0.667  0.00  0.00     0.030 A 
ATOM      4  C   UNL d   1      -1.711 -13.164  -0.100  0.00  0.00    -0.015 A 
ATOM      5  C   UNL d   1      -0.434 -13.475  -0.619  0.00  0.00     0.085 A 
ATOM      6  C   UNL d   1       0.675 -12.697  -0.229  0.00  0.00     0.046 A 
ATOM      7  C   UNL d   1       0.556 -11.525   0.537  0.00  0.00    -0.042 A 
ATOM      8  C   UNL d   1       1.797 -10.753   0.878  0.00  0.00     0.049 C 
BRANCH   4   9
ATOM      9  C   UNL d   1      -3.000 -13.992  -0.345  0.00  0.00    -0.021 C 
ATOM     10  C   UNL d   1      -3.519 -13.686  -1.761  0.00  0.00     0.019 C 
ATOM     11  C   UNL d   1      -2.790 -15.509  -0.144  0.00  0.00     0.019 C 
ATOM     12  C   UNL d   1      -4.160 -13.641   0.640  0.00  0.00     0.019 C 
ENDBRANCH   4   9
BRANCH   5  13
ATOM     13  O   UNL d   1      -0.285 -14.577  -1.454  0.00  0.00    -0.293 OA
BRANCH  13  14
ATOM     14  C   UNL d   1       0.876 -14.694  -2.213  0.00  0.00     0.148 A 
ATOM     15  N   UNL d   1       1.338 -13.607  -2.881  0.00  0.00    -0.344 N 
ATOM     16  C   UNL d   1       2.564 -13.708  -3.457  0.00  0.00     0.126 A 
ATOM     17  HN  UNL d   1       0.789 -12.750  -2.947  1.00  0.00     0.167 HD
ATOM     18  C   UNL d   1       3.325 -14.865  -3.422  0.00  0.00     0.118 A 
ATOM     19  C   UNL d   1       2.791 -16.006  -2.818  0.00  0.00     0.041 A 
ATOM     20  C   UNL d   1       1.535 -15.917  -2.203  0.00  0.00     0.059 A 
BRANCH  18  21
ATOM     21  N   UNL d   1       4.682 -14.851  -3.953  0.00  0.00    -0.114 N 
ATOM     22  O   UNL d   1       5.125 -13.773  -4.373  0.00  0.00    -0.532 OA
ATOM     23  O   UNL d   1       5.320 -15.912  -3.926  0.00  0.00    -0.532 OA
ENDBRANCH  18  21
ENDBRANCH  13  14
ENDBRANCH   5  13
ENDBRANCH   1   2
BRANCH   1  24
ATOM     24  C   UNL d   1      -1.205  -8.339   1.049  0.00  0.00     0.012 A 
ATOM     25  C   UNL d   1      -2.265  -8.068   0.175  0.00  0.00    -0.042 A 
ATOM     26  C   UNL d   1      -2.297  -6.825  -0.478  0.00  0.00     0.046 A 
ATOM     27  C   UNL d   1      -3.378  -9.023  -0.131  0.00  0.00     0.049 C 
ATOM     28  C   UNL d   1      -1.321  -5.839  -0.253  0.00  0.00     0.085 A 
ATOM     29  C   UNL d   1      -0.322  -6.032   0.722  0.00  0.00    -0.015 A 
ATOM     30  C   UNL d   1      -0.271  -7.317   1.317  0.00  0.00     0.030 A 
BRANCH  28  31
ATOM     31  O   UNL d   1      -1.411  -4.630  -0.910  0.00  0.00    -0.293 OA
BRANCH  31  32
ATOM     32  C   UNL d   1      -1.684  -4.594  -2.265  0.00  0.00     0.148 A 
ATOM     33  C   UNL d   1      -1.313  -5.597  -3.161  0.00  0.00     0.059 A 
ATOM     34  C   UNL d   1      -1.551  -5.415  -4.526  0.00  0.00     0.041 A 
ATOM     35  C   UNL d   1      -2.118  -4.215  -4.955  0.00  0.00     0.118 A 
ATOM     36  C   UNL d   1      -2.470  -3.269  -4.006  0.00  0.00     0.126 A 
ATOM     37  N   UNL d   1      -2.265  -3.440  -2.675  0.00  0.00    -0.344 N 
ATOM     38  HN  UNL d   1      -2.539  -2.722  -2.004  1.00  0.00     0.167 HD
BRANCH  35  39
ATOM     39  N   UNL d   1      -2.289  -3.927  -6.372  0.00  0.00    -0.114 N 
ATOM     40  O   UNL d   1      -2.743  -2.818  -6.685  0.00  0.00    -0.532 OA
ATOM     41  O   UNL d   1      -1.956  -4.805  -7.180  0.00  0.00    -0.532 OA
ENDBRANCH  35  39
ENDBRANCH  31  32
ENDBRANCH  28  31
BRANCH  29  42
ATOM     42  C   UNL d   1       0.618  -4.906   1.218  0.00  0.00    -0.021 C 
ATOM     43  C   UNL d   1      -0.215  -3.726   1.774  0.00  0.00     0.019 C 
ATOM     44  C   UNL d   1       1.551  -5.342   2.382  0.00  0.00     0.019 C 
ATOM     45  C   UNL d   1       1.543  -4.401   0.094  0.00  0.00     0.019 C 
ENDBRANCH  29  42
ENDBRANCH   1  24
TORSDOF 10
