REMARK  2 active torsions:
REMARK  status: ('A' for Active; 'I' for Inactive)
REMARK    1  A    between atoms: C_6  and  C_1 
REMARK    2  A    between atoms: C_7  and  C_2 
ROOT
ATOM      1  C   UNL d   1      -0.738   1.266   0.105  0.00  0.00     0.026 A 
ATOM      2  C   UNL d   1       0.656   1.266   0.002  0.00  0.00    -0.002 A 
ATOM      3  S   UNL d   1      -1.355  -0.342   0.202  0.00  0.00    -0.100 SA
ATOM      4  C   UNL d   1       0.188  -1.028   0.064  0.00  0.00     0.058 A 
ATOM      5  C   UNL d   1       1.194  -0.089  -0.034  0.00  0.00    -0.043 A 
ATOM      6  C   UNL d   1       2.631  -0.486  -0.162  0.00  0.00     0.049 C 
ENDROOT
BRANCH   1   7
ATOM      7  C   UNL d   1      -1.723   2.370   0.183  0.00  0.00    -0.018 A 
ATOM      8  C   UNL d   1      -2.891   2.355  -0.602  0.00  0.00     0.013 A 
ATOM      9  C   UNL d   1      -3.821   3.397  -0.531  0.00  0.00     0.001 A 
ATOM     10  C   UNL d   1      -3.591   4.478   0.312  0.00  0.00     0.000 A 
ATOM     11  C   UNL d   1      -2.438   4.516   1.093  0.00  0.00     0.001 A 
ATOM     12  C   UNL d   1      -1.518   3.463   1.037  0.00  0.00     0.013 A 
ENDBRANCH   1   7
BRANCH   2  13
ATOM     13  C   UNL d   1       1.448   2.504  -0.062  0.00  0.00    -0.024 A 
ATOM     14  C   UNL d   1       2.544   2.683   0.798  0.00  0.00     0.012 A 
ATOM     15  C   UNL d   1       3.310   3.850   0.749  0.00  0.00     0.001 A 
ATOM     16  C   UNL d   1       2.971   4.868  -0.141  0.00  0.00     0.000 A 
ATOM     17  C   UNL d   1       1.880   4.710  -0.992  0.00  0.00     0.001 A 
ATOM     18  C   UNL d   1       1.134   3.529  -0.966  0.00  0.00     0.012 A 
ENDBRANCH   2  13
TORSDOF 2
