REMARK  4 active torsions:
REMARK  status: ('A' for Active; 'I' for Inactive)
REMARK    1  A    between atoms: C_9  and  C_3 
REMARK    2  A    between atoms: O_8  and  C_4 
REMARK    3  A    between atoms: C_10  and  O_8 
REMARK    4  A    between atoms: O_16  and  C_11 
ROOT
ATOM      1  N   UNL d   1       1.145  -0.560   0.718  0.00  0.00    -0.315 N 
ATOM      2  HN  UNL d   1       1.847  -0.955   1.343  1.00  0.00     0.170 HD
ATOM      3  C   UNL d   1       0.905   0.803   0.527  0.00  0.00     0.124 A 
ATOM      4  C   UNL d   1       0.321  -1.250  -0.040  0.00  0.00     0.210 A 
ATOM      5  N   UNL d   1      -0.083   1.159  -0.311  0.00  0.00    -0.308 N 
ATOM      6  HN  UNL d   1      -0.364   2.111  -0.545  1.00  0.00     0.176 HD
ATOM      7  S   UNL d   1      -0.764  -0.249  -0.896  0.00  0.00     0.032 SA
ENDROOT
BRANCH   4   8
ATOM      8  O   UNL d   1       0.326  -2.580  -0.149  0.00  0.00    -0.287 OA
BRANCH   8   9
ATOM      9  C   UNL d   1       1.507  -3.277  -0.020  0.00  0.00     0.078 A 
ATOM     10  C   UNL d   1       1.445  -4.562   0.520  0.00  0.00     0.040 A 
ATOM     11  C   UNL d   1       2.617  -5.320   0.661  0.00  0.00     0.039 A 
ATOM     12  C   UNL d   1       3.842  -4.793   0.250  0.00  0.00     0.068 A 
ATOM     13  C   UNL d   1       3.889  -3.529  -0.335  0.00  0.00     0.039 A 
ATOM     14  C   UNL d   1       2.727  -2.772  -0.473  0.00  0.00     0.040 A 
BRANCH  12  15
ATOM     15  O   UNL d   1       5.046  -5.439   0.316  0.00  0.00    -0.356 OA
ATOM     16  C   UNL d   1       5.198  -6.346   1.400  0.00  0.00     0.210 C 
ENDBRANCH  12  15
ENDBRANCH   8   9
ENDBRANCH   4   8
BRANCH   3  17
ATOM     17  C   UNL d   1       1.739   1.791   1.222  0.00  0.00     0.009 A 
ATOM     18  C   UNL d   1       2.789   1.371   2.056  0.00  0.00     0.015 A 
ATOM     19  C   UNL d   1       3.597   2.305   2.713  0.00  0.00     0.001 A 
ATOM     20  C   UNL d   1       3.365   3.667   2.544  0.00  0.00     0.000 A 
ATOM     21  C   UNL d   1       2.326   4.100   1.722  0.00  0.00     0.001 A 
ATOM     22  C   UNL d   1       1.519   3.167   1.064  0.00  0.00     0.015 A 
ENDBRANCH   3  17
TORSDOF 4
