REMARK  5 active torsions:
REMARK  status: ('A' for Active; 'I' for Inactive)
REMARK    1  A    between atoms: N_6  and  C_1 
REMARK    2  A    between atoms: S_2  and  N_6 
REMARK    3  A    between atoms: C_9  and  S_2 
REMARK    4  A    between atoms: C_10  and  C_12 
REMARK    5  A    between atoms: C_11  and  C_13 
ROOT
ATOM      1  C   UNL d   1      -3.134   2.750  -1.435  0.00  0.00     0.081 A 
ATOM      2  C   UNL d   1      -3.794   3.366  -3.705  0.00  0.00     0.050 A 
ATOM      3  C   UNL d   1      -4.853   1.462  -2.582  0.00  0.00     0.050 A 
ATOM      4  C   UNL d   1      -4.045   1.688  -1.451  0.00  0.00     0.041 A 
ATOM      5  C   UNL d   1      -3.009   3.589  -2.554  0.00  0.00     0.041 A 
ATOM      6  C   UNL d   1      -4.709   2.299  -3.702  0.00  0.00     0.032 A 
ENDROOT
BRANCH   1   7
ATOM      7  S   UNL d   1      -2.349   3.215   0.115  0.00  0.00     0.263 S 
ATOM      8  O   UNL d   1      -3.138   2.652   1.188  0.00  0.00    -0.200 OA
ATOM      9  O   UNL d   1      -2.106   4.640   0.031  0.00  0.00    -0.200 OA
BRANCH   7  10
ATOM     10  N   UNL d   1      -0.830   2.488   0.094  0.00  0.00    -0.277 N 
ATOM     11  H   UNL d   1      -0.150   3.087  -0.373  0.00  0.00     0.179 HD
BRANCH  10  12
ATOM     12  C   UNL d   1      -0.658   1.109  -0.014  0.00  0.00     0.090 A 
ATOM     13  C   UNL d   1      -0.327   0.411  -1.151  0.00  0.00     0.053 A 
ATOM     14  N   UNL d   1      -0.210  -0.900  -0.755  0.00  0.00    -0.299 N 
ATOM     15  C   UNL d   1      -0.124   0.862  -2.547  0.00  0.00     0.072 C 
ATOM     16  C   UNL d   1       0.090  -2.058  -1.563  0.00  0.00     0.177 C 
ATOM     17  N   UNL d   1      -0.386  -1.077   0.565  0.00  0.00    -0.301 N 
ATOM     18  C   UNL d   1      -0.640   0.153   1.035  0.00  0.00     0.051 A 
ATOM     19  HN  UNL d   1      -0.337  -1.950   1.090  1.00  0.00     0.187 HD
ATOM     20  C   UNL d   1      -0.765   0.365   2.499  0.00  0.00     0.072 C 
ENDBRANCH  10  12
ENDBRANCH   7  10
ENDBRANCH   1   7
BRANCH   3  21
ATOM     21  C   UNL d   1      -5.928   0.396  -2.578  0.00  0.00     0.417 C 
ATOM     22  F   UNL d   1      -5.929  -0.375  -1.458  0.00  0.00    -0.166 F 
ATOM     23  F   UNL d   1      -7.175   0.931  -2.672  0.00  0.00    -0.166 F 
ATOM     24  F   UNL d   1      -5.808  -0.462  -3.628  0.00  0.00    -0.166 F 
ENDBRANCH   3  21
BRANCH   2  25
ATOM     25  C   UNL d   1      -3.719   4.278  -4.910  0.00  0.00     0.417 C 
ATOM     26  F   UNL d   1      -2.812   5.282  -4.780  0.00  0.00    -0.166 F 
ATOM     27  F   UNL d   1      -3.376   3.606  -6.043  0.00  0.00    -0.166 F 
ATOM     28  F   UNL d   1      -4.913   4.878  -5.179  0.00  0.00    -0.166 F 
ENDBRANCH   2  25
TORSDOF 5
