REMARK  6 active torsions:
REMARK  status: ('A' for Active; 'I' for Inactive)
REMARK    1  A    between atoms: C_10  and  C_1 
REMARK    2  A    between atoms: C_11  and  C_1 
REMARK    3  A    between atoms: N_4  and  N_2 
REMARK    4  A    between atoms: C_8  and  N_4 
REMARK    5  A    between atoms: O_5  and  C_9 
REMARK    6  A    between atoms: C_6  and  O_5 
ROOT
ATOM      1  C   UNL d   1       0.067  -2.840  -2.031  0.00  0.00     0.082 A 
ATOM      2  C   UNL d   1      -0.714  -2.054  -2.903  0.00  0.00     0.104 A 
ATOM      3  C   UNL d   1       0.322  -4.175  -2.399  0.00  0.00     0.034 A 
ATOM      4  C   UNL d   1      -1.333  -2.648  -4.015  0.00  0.00     0.040 A 
ATOM      5  C   UNL d   1      -0.263  -4.747  -3.530  0.00  0.00     0.002 A 
ATOM      6  C   UNL d   1      -1.113  -3.989  -4.325  0.00  0.00     0.003 A 
ENDROOT
BRANCH   1   7
ATOM      7  N   UNL d   1       0.679  -2.409  -0.823  0.00  0.00    -0.297 N 
ATOM      8  H   UNL d   1       1.704  -2.465  -0.922  0.00  0.00     0.187 HD
BRANCH   7   9
ATOM      9  N   UNL d   1       0.162  -1.331  -0.169  0.00  0.00    -0.294 N 
ATOM     10  C   UNL d   1       0.954  -0.646   0.611  0.00  0.00     0.139 C 
ATOM     11  HN  UNL d   1      -0.817  -1.067  -0.286  1.00  0.00     0.187 HD
BRANCH  10  12
ATOM     12  C   UNL d   1       0.370   0.568   1.286  0.00  0.00     0.177 C 
ATOM     13  O   UNL d   1       1.130   1.435   1.692  0.00  0.00    -0.291 OA
ATOM     14  C   UNL d   1      -1.128   0.671   1.401  0.00  0.00     0.098 C 
ENDBRANCH  10  12
BRANCH  10  15
ATOM     15  C   UNL d   1       2.412  -1.018   0.824  0.00  0.00     0.177 C 
ATOM     16  O   UNL d   1       3.082  -1.406  -0.137  0.00  0.00    -0.291 OA
ATOM     17  C   UNL d   1       2.957  -0.985   2.221  0.00  0.00     0.098 C 
ENDBRANCH  10  15
ENDBRANCH   7   9
ENDBRANCH   1   7
BRANCH   2  18
ATOM     18  O   UNL d   1      -1.019  -0.722  -2.747  0.00  0.00    -0.307 OA
BRANCH  18  19
ATOM     19  C   UNL d   1      -0.038   0.250  -2.744  0.00  0.00     0.098 A 
ATOM     20  C   UNL d   1      -0.482   1.576  -2.602  0.00  0.00     0.069 A 
ATOM     21  C   UNL d   1       0.424   2.619  -2.394  0.00  0.00     0.050 A 
ATOM     22 CL   UNL d   1      -2.165   1.973  -2.665  0.00  0.00    -0.081 Cl
ATOM     23  C   UNL d   1       1.784   2.338  -2.324  0.00  0.00     0.035 A 
ATOM     24  C   UNL d   1       2.247   1.044  -2.540  0.00  0.00     0.026 A 
ATOM     25 CL   UNL d   1       2.900   3.593  -1.953  0.00  0.00    -0.084 Cl
ATOM     26  C   UNL d   1       1.339   0.010  -2.792  0.00  0.00     0.041 A 
ENDBRANCH  18  19
ENDBRANCH   2  18
TORSDOF 6
