REMARK  3 active torsions:
REMARK  status: ('A' for Active; 'I' for Inactive)
REMARK    1  A    between atoms: C_3  and  C_1 
REMARK    2  A    between atoms: O_11  and  C_2 
REMARK    3  A    between atoms: C_13  and  O_11 
ROOT
ATOM      1  C   UNL d   1       2.001  -1.176  -1.244  0.00  0.00     0.055 C 
ATOM      2  C   UNL d   1       2.202  -1.049  -2.570  0.00  0.00     0.126 C 
ATOM      3  N   UNL d   1       1.057   0.775  -3.999  0.00  0.00    -0.191 NA
ATOM      4  N   UNL d   1       3.741  -2.768  -3.736  0.00  0.00    -0.191 NA
ATOM      5  C   UNL d   1       1.572  -0.043  -3.356  0.00  0.00     0.111 C 
ATOM      6  C   UNL d   1       3.055  -1.985  -3.226  0.00  0.00     0.111 C 
ENDROOT
BRANCH   1   7
ATOM      7  C   UNL d   1       1.105  -0.348  -0.510  0.00  0.00     0.040 A 
ATOM      8  C   UNL d   1       1.313   0.875   0.105  0.00  0.00     0.093 A 
ATOM      9  C   UNL d   1       0.161   1.336   0.812  0.00  0.00     0.046 A 
ATOM     10  C   UNL d   1      -0.914   0.492   0.653  0.00  0.00     0.053 A 
ATOM     11  S   UNL d   1      -0.518  -0.878  -0.283  0.00  0.00    -0.099 SA
BRANCH   8  12
ATOM     12  O   UNL d   1       2.527   1.482   0.050  0.00  0.00    -0.309 OA
BRANCH  12  13
ATOM     13  C   UNL d   1       2.652   2.852   0.092  0.00  0.00     0.076 A 
ATOM     14  C   UNL d   1       3.751   3.372   0.774  0.00  0.00     0.038 A 
ATOM     15  C   UNL d   1       3.975   4.753   0.794  0.00  0.00     0.009 A 
ATOM     16  C   UNL d   1       3.104   5.623   0.125  0.00  0.00    -0.062 A 
ATOM     17  C   UNL d   1       2.005   5.092  -0.560  0.00  0.00     0.009 A 
ATOM     18  C   UNL d   1       3.375   7.099   0.117  0.00  0.00     0.048 C 
ATOM     19  C   UNL d   1       1.787   3.712  -0.589  0.00  0.00     0.038 A 
ENDBRANCH  12  13
ENDBRANCH   8  12
ENDBRANCH   1   7
TORSDOF 3
