REMARK  1 active torsions:
REMARK  status: ('A' for Active; 'I' for Inactive)
REMARK    1  A    between atoms: C_3  and  C_1 
ROOT
ATOM      1  C   UNL d   1      -2.147   0.375   0.182  0.00  0.00     0.042 A 
ATOM      2  C   UNL d   1      -0.067  -0.858   0.076  0.00  0.00     0.059 A 
ATOM      3  C   UNL d   1       0.164   0.467   0.037  0.00  0.00     0.003 A 
ATOM      4  C   UNL d   1      -1.041   1.246   0.070  0.00  0.00    -0.030 A 
ATOM      5  S   UNL d   1      -1.667  -1.284   0.184  0.00  0.00    -0.079 SA
ATOM      6  S   UNL d   1       1.298  -1.812   0.034  0.00  0.00    -0.074 SA
ATOM      7  C   UNL d   1       2.265  -0.409  -0.023  0.00  0.00     0.059 A 
ATOM      8  C   UNL d   1       1.554   0.792  -0.029  0.00  0.00    -0.025 A 
ATOM      9 BR   UNL d   1       4.144  -0.548  -0.066  0.00  0.00    -0.042 Br
ATOM     10  C   UNL d   1      -1.180   2.735   0.046  0.00  0.00     0.050 C 
ATOM     11  C   UNL d   1       2.236   2.119  -0.073  0.00  0.00     0.051 C 
ENDROOT
BRANCH   1  12
ATOM     12  C   UNL d   1      -3.609   0.794   0.259  0.00  0.00     0.084 A 
ATOM     13  C   UNL d   1      -4.731   0.068   0.743  0.00  0.00     0.057 A 
ATOM     14  C   UNL d   1      -5.818   0.885   0.569  0.00  0.00     0.131 A 
ATOM     15 BR   UNL d   1      -4.817  -1.606   1.578  0.00  0.00    -0.047 Br
ATOM     16  N   UNL d   1      -5.331   2.021   0.002  0.00  0.00    -0.306 N 
ATOM     17  N   UNL d   1      -4.000   2.010  -0.172  0.00  0.00    -0.297 N 
ATOM     18  C   UNL d   1      -6.105   3.179  -0.375  0.00  0.00     0.177 C 
ATOM     19  HN  UNL d   1      -3.415   2.756  -0.546  1.00  0.00     0.187 HD
ENDBRANCH   1  12
TORSDOF 1
