REMARK  4 active torsions:
REMARK  status: ('A' for Active; 'I' for Inactive)
REMARK    1  A    between atoms: C_8  and  C_3 
REMARK    2  A    between atoms: C_9  and  C_4 
REMARK    3  A    between atoms: C_7  and  O_10 
REMARK    4  A    between atoms: O_10  and  C_17 
ROOT
ATOM      1  C   UNL d   1      -0.022  -2.599  -0.061  0.00  0.00    -0.002 A 
ATOM      2  C   UNL d   1       0.513  -3.385   0.972  0.00  0.00     0.017 A 
ATOM      3  C   UNL d   1      -0.758  -3.245  -1.063  0.00  0.00     0.017 A 
ATOM      4  C   UNL d   1      -0.498  -5.387   0.059  0.00  0.00     0.078 A 
ATOM      5  C   UNL d   1       0.292  -4.768   1.024  0.00  0.00     0.038 A 
ATOM      6  C   UNL d   1      -0.993  -4.622  -1.000  0.00  0.00     0.038 A 
ENDROOT
BRANCH   1   7
ATOM      7  C   UNL d   1       0.220  -1.147  -0.066  0.00  0.00     0.085 A 
ATOM      8  N   UNL d   1       1.286  -0.565   0.455  0.00  0.00    -0.347 N 
ATOM      9  C   UNL d   1       1.216   0.819   0.304  0.00  0.00     0.085 A 
ATOM     10  HN  UNL d   1       2.055  -1.061   0.906  1.00  0.00     0.167 HD
ATOM     11  C   UNL d   1       0.062   1.263  -0.309  0.00  0.00     0.085 A 
ATOM     12  S   UNL d   1      -0.944  -0.055  -0.717  0.00  0.00    -0.081 SA
BRANCH   9  13
ATOM     13  C   UNL d   1       2.279   1.716   0.761  0.00  0.00     0.172 C 
ATOM     14  O   UNL d   1       2.193   2.936   0.619  0.00  0.00    -0.291 OA
ATOM     15  C   UNL d   1       3.504   1.123   1.415  0.00  0.00     0.098 C 
ENDBRANCH   9  13
ENDBRANCH   1   7
BRANCH   4  16
ATOM     16  O   UNL d   1      -0.820  -6.706  -0.002  0.00  0.00    -0.255 OA
BRANCH  16  17
ATOM     17  C   UNL d   1      -0.877  -7.484   1.185  0.00  0.00     0.530 C 
ATOM     18  F   UNL d   1      -0.809  -6.768   2.326  0.00  0.00    -0.144 F 
ATOM     19  F   UNL d   1      -2.050  -8.158   1.195  0.00  0.00    -0.144 F 
ATOM     20  F   UNL d   1       0.126  -8.387   1.175  0.00  0.00    -0.144 F 
ENDBRANCH  16  17
ENDBRANCH   4  16
TORSDOF 4
