REMARK  5 active torsions:
REMARK  status: ('A' for Active; 'I' for Inactive)
REMARK    1  A    between atoms: N_6  and  C_1 
REMARK    2  A    between atoms: C_2  and  C_3 
REMARK       I    between atoms: C_7  and  N_13 
REMARK       I    between atoms: N_10  and  C_7 
REMARK    3  A    between atoms: C_9  and  N_10 
REMARK    4  A    between atoms: N_13  and  C_24 
REMARK    5  A    between atoms: C_29  and  C_18 
ROOT
ATOM      1  N   UNL d   1       0.049   2.523  -0.601  0.00  0.00    -0.268 NA
ATOM      2  C   UNL d   1      -0.134   3.213   0.683  0.00  0.00     0.099 C 
ATOM      3  C   UNL d   1       1.281   2.934  -1.285  0.00  0.00     0.099 C 
ATOM      4  C   UNL d   1      -0.333   4.696   0.404  0.00  0.00     0.040 C 
ATOM      5  C   UNL d   1       1.179   4.435  -1.603  0.00  0.00     0.040 C 
ATOM      6  C   UNL d   1       0.852   5.293  -0.360  0.00  0.00     0.088 C 
ENDROOT
BRANCH   6   7
ATOM      7  N   UNL d   1       2.055   5.473   0.453  0.00  0.00    -0.338 N 
ATOM      8  C   UNL d   1       2.338   6.279   1.509  0.00  0.00     0.321 C 
ATOM      9  N   UNL d   1       1.287   6.852   2.171  0.00  0.00    -0.308 N 
ATOM     10  O   UNL d   1       3.532   6.423   1.766  0.00  0.00    -0.247 OA
ATOM     11  H   UNL d   1       0.510   7.063   1.568  0.00  0.00     0.170 HD
ATOM     12  H   UNL d   1       2.932   5.170   0.042  0.00  0.00     0.164 HD
BRANCH   9  13
ATOM     13  C   UNL d   1       1.414   7.667   3.339  0.00  0.00     0.048 C 
ATOM     14  C   UNL d   1       2.416   7.453   4.313  0.00  0.00    -0.035 C 
ATOM     15  C   UNL d   1       2.711   8.467   5.241  0.00  0.00     0.009 C 
ATOM     16  C   UNL d   1       3.162   6.156   4.491  0.00  0.00     0.050 C 
ATOM     17  C   UNL d   1       1.964   9.634   5.277  0.00  0.00     0.001 C 
ATOM     18  C   UNL d   1       0.853   9.756   4.450  0.00  0.00     0.009 C 
ATOM     19  C   UNL d   1       0.517   8.753   3.518  0.00  0.00    -0.031 C 
BRANCH  19  20
ATOM     20  C   UNL d   1      -0.772   8.890   2.727  0.00  0.00     0.036 C 
ATOM     21  C   UNL d   1      -1.937   9.520   3.494  0.00  0.00     0.010 C 
ENDBRANCH  19  20
ENDBRANCH   9  13
ENDBRANCH   6   7
BRANCH   1  22
ATOM     22  C   UNL d   1      -0.120   1.129  -0.483  0.00  0.00     0.104 A 
ATOM     23  N   UNL d   1       0.019   0.576   0.750  0.00  0.00    -0.354 N 
ATOM     24  C   UNL d   1      -0.355  -0.711   0.941  0.00  0.00     0.105 A 
ATOM     25  HN  UNL d   1       0.401   1.123   1.522  1.00  0.00     0.166 HD
ATOM     26  C   UNL d   1      -0.871  -1.520  -0.052  0.00  0.00     0.065 A 
ATOM     27  C   UNL d   1      -0.947  -0.984  -1.338  0.00  0.00     0.044 A 
ATOM     28  C   UNL d   1      -0.573   0.347  -1.563  0.00  0.00     0.073 A 
ATOM     29 CL   UNL d   1      -0.818   0.981  -3.153  0.00  0.00    -0.081 Cl
BRANCH  26  30
ATOM     30  C   UNL d   1      -1.370  -2.887   0.297  0.00  0.00     0.418 C 
ATOM     31  F   UNL d   1      -1.890  -3.563  -0.764  0.00  0.00    -0.166 F 
ATOM     32  F   UNL d   1      -0.398  -3.685   0.814  0.00  0.00    -0.166 F 
ATOM     33  F   UNL d   1      -2.359  -2.848   1.233  0.00  0.00    -0.166 F 
ENDBRANCH  26  30
ENDBRANCH   1  22
TORSDOF 5
