REMARK  5 active torsions:
REMARK  status: ('A' for Active; 'I' for Inactive)
REMARK    1  A    between atoms: C_5  and  N_1 
REMARK    2  A    between atoms: C_10  and  C_4 
REMARK    3  A    between atoms: N_11  and  C_8 
REMARK    4  A    between atoms: O_17  and  C_10 
REMARK    5  A    between atoms: C_22  and  O_17 
ROOT
ATOM      1  C   UNL d   1       5.566   0.728   0.748  0.00  0.00     0.068 A 
ATOM      2  C   UNL d   1       3.361   0.046  -0.112  0.00  0.00     0.047 A 
ATOM      3  C   UNL d   1       6.255  -0.023  -0.234  0.00  0.00     0.046 A 
ATOM      4  C   UNL d   1       4.149   0.739   0.814  0.00  0.00     0.050 A 
ATOM      5  C   UNL d   1       5.435  -0.666  -1.179  0.00  0.00     0.033 A 
ATOM      6  C   UNL d   1       4.033  -0.633  -1.125  0.00  0.00     0.032 A 
ENDROOT
BRANCH   2   7
ATOM      7  N   UNL d   1       1.938   0.049  -0.044  0.00  0.00    -0.244 N 
ATOM      8  C   UNL d   1       1.117  -0.859  -0.691  0.00  0.00     0.266 A 
ATOM      9  C   UNL d   1      -0.260  -0.488  -0.371  0.00  0.00     0.048 A 
ATOM     10  O   UNL d   1       1.368  -1.828  -1.387  0.00  0.00    -0.267 OA
ATOM     11  C   UNL d   1      -1.453  -1.062  -0.764  0.00  0.00     0.018 A 
ATOM     12  C   UNL d   1      -0.216   0.620   0.444  0.00  0.00     0.048 A 
ATOM     13  C   UNL d   1      -2.631  -0.456  -0.316  0.00  0.00     0.001 A 
ATOM     14  C   UNL d   1      -2.587   0.691   0.502  0.00  0.00     0.001 A 
ATOM     15  C   UNL d   1      -1.365   1.242   0.896  0.00  0.00     0.018 A 
ATOM     16  C   UNL d   1       1.185   0.954   0.670  0.00  0.00     0.266 A 
ATOM     17  O   UNL d   1       1.500   1.912   1.359  0.00  0.00    -0.267 OA
ENDBRANCH   2   7
BRANCH   1  18
ATOM     18  C   UNL d   1       6.271   1.655   1.674  0.00  0.00     0.295 C 
ATOM     19  O   UNL d   1       7.221   2.357   1.357  0.00  0.00    -0.259 OA
BRANCH  18  20
ATOM     20  O   UNL d   1       5.733   1.577   2.919  0.00  0.00    -0.318 OA
BRANCH  20  21
ATOM     21  C   UNL d   1       6.406   2.352   3.926  0.00  0.00     0.174 C 
ATOM     22  C   UNL d   1       6.130   3.839   3.773  0.00  0.00     0.034 C 
ENDBRANCH  20  21
ENDBRANCH  18  20
ENDBRANCH   1  18
BRANCH   3  23
ATOM     23  N   UNL d   1       7.630  -0.203  -0.297  0.00  0.00    -0.380 N 
ATOM     24  C   UNL d   1       8.351  -0.414  -1.559  0.00  0.00     0.123 C 
ATOM     25  C   UNL d   1       9.094  -1.750  -1.505  0.00  0.00     0.020 C 
ATOM     26  C   UNL d   1      10.016  -1.818  -0.288  0.00  0.00     0.003 C 
ATOM     27  C   UNL d   1       9.247  -1.518   0.993  0.00  0.00     0.020 C 
ATOM     28  C   UNL d   1       8.484  -0.200   0.898  0.00  0.00     0.123 C 
ENDBRANCH   3  23
TORSDOF 5
