REMARK  5 active torsions:
REMARK  status: ('A' for Active; 'I' for Inactive)
REMARK    1  A    between atoms: N_4  and  S_1 
REMARK    2  A    between atoms: C_5  and  S_1 
REMARK    3  A    between atoms: C_6  and  C_2 
REMARK    4  A    between atoms: C_3  and  N_4 
REMARK    5  A    between atoms: O_19  and  C_6 
ROOT
ATOM      1  S   UNL d   1       0.727   0.080   0.162  0.00  0.00     0.245 S 
ATOM      2  O   UNL d   1      -0.345   0.659   0.943  0.00  0.00    -0.206 OA
ATOM      3  O   UNL d   1       2.102   0.102   0.614  0.00  0.00    -0.206 OA
ENDROOT
BRANCH   1   4
ATOM      4  N   UNL d   1       0.615   0.803  -1.389  0.00  0.00    -0.180 NA
ATOM      5  H   UNL d   1      -0.370   1.064  -1.470  0.00  0.00     0.146 HD
BRANCH   4   6
ATOM      6  C   UNL d   1       1.465   1.916  -1.618  0.00  0.00     0.046 A 
ATOM      7  C   UNL d   1       2.780   1.897  -2.058  0.00  0.00     0.102 A 
ATOM      8  S   UNL d   1       3.440   3.486  -2.123  0.00  0.00    -0.094 SA
ATOM      9  C   UNL d   1       1.968   4.199  -1.643  0.00  0.00     0.052 A 
ATOM     10  C   UNL d   1       0.998   3.254  -1.405  0.00  0.00     0.033 A 
BRANCH   7  11
ATOM     11  C   UNL d   1       3.631   0.800  -2.478  0.00  0.00     0.301 C 
ATOM     12  O   UNL d   1       4.853   0.824  -2.568  0.00  0.00    -0.259 OA
BRANCH  11  13
ATOM     13  O   UNL d   1       2.868  -0.268  -2.856  0.00  0.00    -0.322 OA
ATOM     14  C   UNL d   1       3.599  -1.360  -3.412  0.00  0.00     0.213 C 
ENDBRANCH  11  13
ENDBRANCH   7  11
ENDBRANCH   4   6
ENDBRANCH   1   4
BRANCH   1  15
ATOM     15  C   UNL d   1       0.298  -1.610  -0.189  0.00  0.00     0.075 A 
ATOM     16  C   UNL d   1       1.313  -2.533  -0.474  0.00  0.00     0.034 A 
ATOM     17  C   UNL d   1       0.948  -3.856  -0.660  0.00  0.00    -0.021 A 
ATOM     18  C   UNL d   1       1.795  -5.048  -0.889  0.00  0.00     0.068 C 
ATOM     19  C   UNL d   1      -0.376  -4.253  -0.546  0.00  0.00     0.075 A 
ATOM     20  C   UNL d   1       0.705  -6.066  -1.228  0.00  0.00     0.180 C 
ATOM     21  O   UNL d   1      -0.565  -5.599  -0.715  0.00  0.00    -0.350 OA
ATOM     22  C   UNL d   1      -1.387  -3.362  -0.246  0.00  0.00     0.039 A 
ATOM     23  C   UNL d   1      -1.046  -2.020  -0.064  0.00  0.00     0.027 A 
ENDBRANCH   1  15
TORSDOF 5
