REMARK  6 active torsions:
REMARK  status: ('A' for Active; 'I' for Inactive)
REMARK    1  A    between atoms: S_3  and  C_1 
REMARK    2  A    between atoms: C_4  and  C_1 
REMARK    3  A    between atoms: C_2  and  O_7 
REMARK    4  A    between atoms: C_16  and  S_3 
REMARK    5  A    between atoms: C_5  and  C_6 
REMARK    6  A    between atoms: O_7  and  C_17 
ROOT
ATOM      1  C   UNL d   1       0.946   0.142  -0.142  0.00  0.00     0.224 C 
ATOM      2  O   UNL d   1       2.139   0.408  -0.180  0.00  0.00    -0.279 OA
ENDROOT
BRANCH   1   3
ATOM      3  S   UNL d   1       0.079  -0.348  -1.596  0.00  0.00    -0.048 SA
BRANCH   3   4
ATOM      4  C   UNL d   1      -0.348   1.265  -2.221  0.00  0.00     0.008 A 
ATOM      5  C   UNL d   1       0.646   2.152  -2.645  0.00  0.00     0.021 A 
ATOM      6  C   UNL d   1       0.311   3.426  -3.119  0.00  0.00     0.038 A 
ATOM      7  C   UNL d   1      -1.020   3.833  -3.146  0.00  0.00     0.078 A 
ATOM      8  C   UNL d   1      -2.017   2.929  -2.765  0.00  0.00     0.038 A 
ATOM      9  C   UNL d   1      -1.685   1.653  -2.302  0.00  0.00     0.021 A 
BRANCH   7  10
ATOM     10  O   UNL d   1      -1.480   5.040  -3.575  0.00  0.00    -0.255 OA
BRANCH  10  11
ATOM     11  C   UNL d   1      -0.688   6.205  -3.382  0.00  0.00     0.530 C 
ATOM     12  F   UNL d   1       0.409   6.011  -2.622  0.00  0.00    -0.144 F 
ATOM     13  F   UNL d   1      -0.307   6.689  -4.585  0.00  0.00    -0.144 F 
ATOM     14  F   UNL d   1      -1.450   7.140  -2.773  0.00  0.00    -0.144 F 
ENDBRANCH  10  11
ENDBRANCH   7  10
ENDBRANCH   3   4
ENDBRANCH   1   3
BRANCH   1  15
ATOM     15  C   UNL d   1       0.163   0.287   1.114  0.00  0.00     0.021 A 
ATOM     16  C   UNL d   1       0.597   1.220   2.061  0.00  0.00     0.016 A 
ATOM     17  C   UNL d   1      -0.114   1.401   3.253  0.00  0.00     0.009 A 
ATOM     18  C   UNL d   1      -1.266   0.645   3.543  0.00  0.00    -0.051 A 
ATOM     19  C   UNL d   1      -1.675  -0.297   2.584  0.00  0.00     0.009 A 
ATOM     20  C   UNL d   1      -0.973  -0.478   1.387  0.00  0.00     0.016 A 
BRANCH  18  21
ATOM     21  C   UNL d   1      -2.020   0.849   4.870  0.00  0.00    -0.024 C 
ATOM     22  C   UNL d   1      -3.247  -0.077   5.030  0.00  0.00     0.019 C 
ATOM     23  C   UNL d   1      -1.073   0.562   6.054  0.00  0.00     0.019 C 
ATOM     24  C   UNL d   1      -2.530   2.302   4.972  0.00  0.00     0.019 C 
ENDBRANCH  18  21
ENDBRANCH   1  15
TORSDOF 6
