REMARK  4 active torsions:
REMARK  status: ('A' for Active; 'I' for Inactive)
REMARK    1  A    between atoms: C_9  and  C_1 
REMARK    2  A    between atoms: N_4  and  C_8 
REMARK    3  A    between atoms: C_17  and  C_9 
REMARK    4  A    between atoms: C_18  and  C_17 
ROOT
ATOM      1  C   UNL d   1      -1.750  -1.291  -0.123  0.00  0.00     0.086 C 
ATOM      2  C   UNL d   1      -2.049   0.164  -0.033  0.00  0.00     0.302 C 
ATOM      3  C   UNL d   1      -0.479  -1.726  -0.143  0.00  0.00     0.035 C 
ATOM      4  O   UNL d   1      -0.956   1.032  -0.106  0.00  0.00    -0.274 OA
ATOM      5  C   UNL d   1       0.633  -0.797  -0.060  0.00  0.00     0.001 A 
ATOM      6  C   UNL d   1       0.369   0.567  -0.077  0.00  0.00     0.089 A 
ATOM      7  C   UNL d   1       2.994  -0.295   0.070  0.00  0.00     0.103 A 
ATOM      8  C   UNL d   1       1.956  -1.238   0.021  0.00  0.00     0.050 A 
ATOM      9  O   UNL d   1      -3.178   0.611   0.126  0.00  0.00    -0.259 OA
ATOM     10  C   UNL d   1       1.392   1.513  -0.041  0.00  0.00     0.041 A 
ATOM     11  C   UNL d   1       2.717   1.081   0.032  0.00  0.00     0.039 A 
ENDROOT
BRANCH   1  12
ATOM     12  C   UNL d   1      -2.861  -2.290  -0.225  0.00  0.00     0.165 C 
ATOM     13  O   UNL d   1      -3.931  -1.980  -0.746  0.00  0.00    -0.292 OA
BRANCH  12  14
ATOM     14  C   UNL d   1      -2.647  -3.727   0.243  0.00  0.00     0.084 C 
BRANCH  14  15
ATOM     15  C   UNL d   1      -2.236  -3.866   1.707  0.00  0.00     0.003 C 
ATOM     16  C   UNL d   1      -3.305  -3.364   2.664  0.00  0.00     0.005 C 
ENDBRANCH  14  15
ENDBRANCH  12  14
ENDBRANCH   1  12
BRANCH   7  17
ATOM     17  N   UNL d   1       4.383  -0.759   0.164  0.00  0.00    -0.116 N 
ATOM     18  O   UNL d   1       4.578  -1.981   0.223  0.00  0.00    -0.532 OA
ATOM     19  O   UNL d   1       5.278   0.098   0.180  0.00  0.00    -0.532 OA
ENDBRANCH   7  17
TORSDOF 4
