REMARK  5 active torsions:
REMARK  status: ('A' for Active; 'I' for Inactive)
REMARK    1  A    between atoms: N_5  and  C_1 
REMARK    2  A    between atoms: C_4  and  C_7 
REMARK       I    between atoms: C_6  and  N_12 
REMARK       I    between atoms: N_8  and  C_6 
REMARK    3  A    between atoms: C_11  and  N_8 
REMARK    4  A    between atoms: N_12  and  C_22 
REMARK    5  A    between atoms: O_25  and  C_16 
ROOT
ATOM      1  N   UNL d   1       0.105   2.453   0.720  0.00  0.00    -0.254 NA
ATOM      2  C   UNL d   1      -0.010   2.983  -0.640  0.00  0.00     0.100 C 
ATOM      3  C   UNL d   1      -0.660   3.210   1.709  0.00  0.00     0.100 C 
ATOM      4  C   UNL d   1       0.548   4.407  -0.687  0.00  0.00     0.040 C 
ATOM      5  C   UNL d   1      -0.113   4.638   1.784  0.00  0.00     0.040 C 
ATOM      6  C   UNL d   1       0.068   5.342   0.432  0.00  0.00     0.088 C 
ENDROOT
BRANCH   6   7
ATOM      7  N   UNL d   1      -1.035   6.242   0.076  0.00  0.00    -0.338 N 
ATOM      8  C   UNL d   1      -2.312   5.849  -0.219  0.00  0.00     0.321 C 
ATOM      9  N   UNL d   1      -3.174   6.926  -0.344  0.00  0.00    -0.306 N 
ATOM     10  O   UNL d   1      -2.633   4.669  -0.304  0.00  0.00    -0.247 OA
ATOM     11  H   UNL d   1      -2.975   7.692   0.288  0.00  0.00     0.171 HD
ATOM     12  H   UNL d   1      -0.786   7.151  -0.293  0.00  0.00     0.164 HD
BRANCH   9  13
ATOM     13  C   UNL d   1      -4.562   6.722  -0.573  0.00  0.00     0.069 A 
ATOM     14  C   UNL d   1      -5.503   7.436   0.193  0.00  0.00     0.095 A 
ATOM     15  C   UNL d   1      -6.852   7.067   0.117  0.00  0.00     0.039 A 
ATOM     16  C   UNL d   1      -7.263   6.054  -0.755  0.00  0.00     0.003 A 
ATOM     17  C   UNL d   1      -6.341   5.430  -1.589  0.00  0.00     0.002 A 
ATOM     18  C   UNL d   1      -4.993   5.766  -1.499  0.00  0.00     0.032 A 
BRANCH  14  19
ATOM     19  O   UNL d   1      -5.006   8.429   1.004  0.00  0.00    -0.354 OA
ATOM     20  C   UNL d   1      -5.936   9.060   1.882  0.00  0.00     0.210 C 
ENDBRANCH  14  19
ENDBRANCH   9  13
ENDBRANCH   6   7
BRANCH   1  21
ATOM     21  C   UNL d   1      -0.002   1.063   0.807  0.00  0.00     0.159 A 
ATOM     22  N   UNL d   1      -0.530   0.506   1.912  0.00  0.00    -0.329 N 
ATOM     23  C   UNL d   1      -0.557  -0.850   2.019  0.00  0.00     0.120 A 
ATOM     24  HN  UNL d   1      -0.904   1.091   2.659  1.00  0.00     0.168 HD
ATOM     25  C   UNL d   1      -0.039  -1.669   1.038  0.00  0.00     0.051 A 
ATOM     26  C   UNL d   1       0.489  -1.025  -0.049  0.00  0.00     0.093 A 
ATOM     27  N   UNL d   1       0.510   0.312  -0.182  0.00  0.00    -0.343 N 
ATOM     28  HN  UNL d   1       0.906   0.746  -1.015  1.00  0.00     0.167 HD
BRANCH  23  29
ATOM     29  C   UNL d   1      -1.160  -1.488   3.259  0.00  0.00     0.432 C 
ATOM     30  F   UNL d   1      -1.688  -0.608   4.153  0.00  0.00    -0.165 F 
ATOM     31  F   UNL d   1      -2.169  -2.359   2.955  0.00  0.00    -0.165 F 
ATOM     32  F   UNL d   1      -0.247  -2.227   3.958  0.00  0.00    -0.165 F 
ENDBRANCH  23  29
ENDBRANCH   1  21
TORSDOF 5
