REMARK  4 active torsions:
REMARK  status: ('A' for Active; 'I' for Inactive)
REMARK    1  A    between atoms: C_2  and  S_1 
REMARK    2  A    between atoms: C_6  and  S_1 
REMARK    3  A    between atoms: S_9  and  C_3 
REMARK    4  A    between atoms: C_12  and  S_9 
ROOT
ATOM      1  C   UNL d   1       0.478  -0.662   1.581  0.00  0.00     0.150 C 
ATOM      2  C   UNL d   1      -0.354   0.116   2.296  0.00  0.00     0.085 C 
ATOM      3  C   UNL d   1       1.036  -0.310   0.332  0.00  0.00     0.112 C 
ATOM      4  N   UNL d   1       1.509  -0.030  -0.689  0.00  0.00    -0.191 NA
ENDROOT
BRANCH   1   5
ATOM      5  S   UNL d   1       0.863  -2.252   2.156  0.00  0.00     0.217 S 
ATOM      6  O   UNL d   1       0.476  -3.233   1.159  0.00  0.00    -0.216 OA
ATOM      7  O   UNL d   1       0.410  -2.412   3.528  0.00  0.00    -0.216 OA
BRANCH   5   8
ATOM      8  C   UNL d   1       2.654  -2.261   2.219  0.00  0.00     0.065 A 
ATOM      9  C   UNL d   1       3.305  -1.982   3.426  0.00  0.00     0.025 A 
ATOM     10  C   UNL d   1       4.701  -2.026   3.483  0.00  0.00     0.025 A 
ATOM     11  C   UNL d   1       5.435  -2.354   2.342  0.00  0.00     0.034 A 
ATOM     12  C   UNL d   1       4.785  -2.649   1.143  0.00  0.00     0.025 A 
ATOM     13 CL   UNL d   1       7.153  -2.405   2.419  0.00  0.00    -0.084 Cl
ATOM     14  C   UNL d   1       3.389  -2.615   1.080  0.00  0.00     0.025 A 
ENDBRANCH   5   8
ENDBRANCH   1   5
BRANCH   2  15
ATOM     15  S   UNL d   1      -0.769   1.735   1.829  0.00  0.00    -0.100 SA
BRANCH  15  16
ATOM     16  C   UNL d   1      -2.555   1.708   1.779  0.00  0.00     0.004 A 
ATOM     17  C   UNL d   1      -3.220   2.921   2.007  0.00  0.00     0.019 A 
ATOM     18  C   UNL d   1      -4.613   3.006   1.919  0.00  0.00     0.008 A 
ATOM     19  C   UNL d   1      -5.373   1.878   1.599  0.00  0.00    -0.062 A 
ATOM     20  C   UNL d   1      -4.714   0.668   1.360  0.00  0.00     0.008 A 
ATOM     21  C   UNL d   1      -6.866   1.987   1.497  0.00  0.00     0.048 C 
ATOM     22  C   UNL d   1      -3.316   0.584   1.443  0.00  0.00     0.019 A 
ENDBRANCH  15  16
ENDBRANCH   2  15
TORSDOF 4
