REMARK  5 active torsions:
REMARK  status: ('A' for Active; 'I' for Inactive)
REMARK    1  A    between atoms: C_8  and  C_20 
REMARK       I    between atoms: N_9  and  C_8 
REMARK    2  A    between atoms: C_15  and  N_9 
REMARK    3  A    between atoms: O_10  and  C_14 
REMARK    4  A    between atoms: C_11  and  O_10 
REMARK    5  A    between atoms: C_20  and  N_12 
ROOT
ATOM      1  C   UNL d   1       7.356  -5.182   0.500  0.00  0.00     0.250 C 
ATOM      2  N   UNL d   1       8.395  -4.859  -0.380  0.00  0.00    -0.323 N 
ATOM      3  O   UNL d   1       7.074  -6.337   0.819  0.00  0.00    -0.271 OA
ATOM      4  H   UNL d   1       8.919  -4.030  -0.134  0.00  0.00     0.169 HD
ENDROOT
BRANCH   1   5
ATOM      5  C   UNL d   1       6.701  -3.965   1.190  0.00  0.00     0.375 C 
BRANCH   5   6
ATOM      6  N   UNL d   1       5.223  -3.935   1.078  0.00  0.00     0.100 N 
ATOM      7  C   UNL d   1       4.537  -5.088   1.720  0.00  0.00     0.293 C 
ATOM      8  C   UNL d   1       4.582  -5.117   3.268  0.00  0.00     0.155 C 
ATOM      9  N   UNL d   1       4.068  -3.856   3.826  0.00  0.00    -0.358 N 
ATOM     10  C   UNL d   1       2.815  -3.764   4.362  0.00  0.00     0.148 A 
ATOM     11  C   UNL d   1       4.676  -2.653   3.239  0.00  0.00     0.155 C 
ATOM     12  N   UNL d   1       2.060  -2.688   4.288  0.00  0.00    -0.335 N 
ATOM     13  S   UNL d   1       2.104  -5.035   5.311  0.00  0.00    -0.052 SA
ATOM     14  C   UNL d   1       0.884  -2.836   5.006  0.00  0.00     0.053 A 
ATOM     15  HN  UNL d   1       2.311  -1.848   3.766  1.00  0.00     0.168 HD
ATOM     16  C   UNL d   1      -0.136  -1.869   5.135  0.00  0.00     0.054 A 
ATOM     17  C   UNL d   1       0.738  -4.057   5.660  0.00  0.00     0.035 A 
ATOM     18  C   UNL d   1      -1.252  -2.151   5.925  0.00  0.00     0.036 A 
ATOM     19 CL   UNL d   1      -2.493  -0.967   6.092  0.00  0.00    -0.084 Cl
ATOM     20  C   UNL d   1      -1.376  -3.369   6.583  0.00  0.00     0.025 A 
ATOM     21  C   UNL d   1      -0.384  -4.347   6.459  0.00  0.00     0.023 A 
ATOM     22  C   UNL d   1       4.664  -2.699   1.690  0.00  0.00     0.293 C 
ENDBRANCH   5   6
ENDBRANCH   1   5
BRANCH   2  23
ATOM     23  C   UNL d   1       9.118  -5.898  -1.029  0.00  0.00     0.069 C 
ATOM     24  C   UNL d   1       8.475  -6.925  -1.751  0.00  0.00     0.102 C 
ATOM     25  C   UNL d   1       9.210  -8.046  -2.150  0.00  0.00     0.039 C 
ATOM     26  C   UNL d   1      10.587  -8.099  -1.928  0.00  0.00     0.003 C 
ATOM     27  C   UNL d   1      11.240  -7.024  -1.326  0.00  0.00     0.002 C 
ATOM     28  C   UNL d   1      10.511  -5.918  -0.885  0.00  0.00     0.032 C 
BRANCH  24  29
ATOM     29  O   UNL d   1       7.130  -6.753  -2.006  0.00  0.00    -0.307 OA
BRANCH  29  30
ATOM     30  C   UNL d   1       6.505  -7.422  -3.030  0.00  0.00     0.098 A 
ATOM     31  C   UNL d   1       5.243  -7.977  -2.770  0.00  0.00     0.069 A 
ATOM     32  C   UNL d   1       4.528  -8.618  -3.780  0.00  0.00     0.050 A 
ATOM     33 CL   UNL d   1       4.521  -7.880  -1.204  0.00  0.00    -0.081 Cl
ATOM     34  C   UNL d   1       5.068  -8.695  -5.062  0.00  0.00     0.035 A 
ATOM     35  C   UNL d   1       6.307  -8.120  -5.344  0.00  0.00     0.026 A 
ATOM     36 CL   UNL d   1       4.189  -9.492  -6.308  0.00  0.00    -0.084 Cl
ATOM     37  C   UNL d   1       7.019  -7.467  -4.335  0.00  0.00     0.041 A 
ENDBRANCH  29  30
ENDBRANCH  24  29
ENDBRANCH   2  23
TORSDOF 5
