REMARK  4 active torsions:
REMARK  status: ('A' for Active; 'I' for Inactive)
REMARK    1  A    between atoms: C_15  and  C_1 
REMARK    2  A    between atoms: C_2  and  C_5 
REMARK    3  A    between atoms: N_6  and  O_13 
REMARK    4  A    between atoms: O_13  and  C_15 
ROOT
ATOM      1  C   UNL d   1      -2.336   5.033   0.159  0.00  0.00     0.038 C 
ATOM      2  N   UNL d   1      -1.233   4.340   0.183  0.00  0.00    -0.270 N 
ATOM      3  HN  UNL d   1      -1.183   3.321   0.157  1.00  0.00     0.194 HD
ATOM      4  C   UNL d   1      -2.340   6.552   0.150  0.00  0.00     0.071 C 
ENDROOT
BRANCH   2   5
ATOM      5  O   UNL d   1      -0.121   5.197   0.251  0.00  0.00    -0.276 OA
BRANCH   5   6
ATOM      6  C   UNL d   1       1.085   4.437   0.181  0.00  0.00     0.244 C 
BRANCH   6   7
ATOM      7  C   UNL d   1       2.247   5.394   0.191  0.00  0.00     0.028 A 
ATOM      8  C   UNL d   1       2.479   6.318  -0.839  0.00  0.00     0.045 A 
ATOM      9 CL   UNL d   1       1.467   6.402  -2.238  0.00  0.00    -0.084 Cl
ATOM     10  C   UNL d   1       3.557   7.211  -0.772  0.00  0.00     0.024 A 
ATOM     11  C   UNL d   1       4.426   7.188   0.318  0.00  0.00     0.005 A 
ATOM     12  C   UNL d   1       4.216   6.269   1.341  0.00  0.00     0.043 A 
ATOM     13  C   UNL d   1       3.136   5.389   1.270  0.00  0.00     0.126 A 
ATOM     14  F   UNL d   1       2.967   4.517   2.275  0.00  0.00    -0.205 F 
ENDBRANCH   6   7
ENDBRANCH   5   6
ENDBRANCH   2   5
BRANCH   1  15
ATOM     15  C   UNL d   1      -3.646   4.318   0.125  0.00  0.00    -0.009 A 
ATOM     16  C   UNL d   1      -4.789   4.873   0.712  0.00  0.00     0.059 A 
ATOM     17  C   UNL d   1      -5.998   4.187   0.647  0.00  0.00     0.155 A 
ATOM     18  F   UNL d   1      -7.089   4.733   1.203  0.00  0.00    -0.203 F 
ATOM     19  C   UNL d   1      -6.081   2.951   0.016  0.00  0.00     0.154 A 
ATOM     20  C   UNL d   1      -4.949   2.379  -0.554  0.00  0.00     0.046 A 
ATOM     21  F   UNL d   1      -7.251   2.302  -0.044  0.00  0.00    -0.203 F 
ATOM     22  C   UNL d   1      -3.728   3.060  -0.497  0.00  0.00     0.017 A 
ENDBRANCH   1  15
TORSDOF 4
