REMARK  7 active torsions:
REMARK  status: ('A' for Active; 'I' for Inactive)
REMARK    1  A    between atoms: C_6  and  C_1 
REMARK    2  A    between atoms: C_14  and  C_4 
REMARK    3  A    between atoms: O_11  and  N_7 
REMARK    4  A    between atoms: C_10  and  O_11 
REMARK    5  A    between atoms: C_13  and  C_10 
REMARK    6  A    between atoms: O_15  and  C_14 
REMARK    7  A    between atoms: C_16  and  O_15 
ROOT
ATOM      1  C   UNL d   1       3.798   1.116  -0.041  0.00  0.00     0.063 A 
ATOM      2  N   UNL d   1       3.978  -0.267   0.006  0.00  0.00    -0.350 N 
ATOM      3  HN  UNL d   1       3.220  -0.946   0.072  1.00  0.00     0.166 HD
ATOM      4  C   UNL d   1       5.257  -0.580  -0.047  0.00  0.00     0.075 A 
ATOM      5  C   UNL d   1       4.985   1.825  -0.101  0.00  0.00     0.083 A 
ATOM      6  S   UNL d   1       6.329   0.763  -0.136  0.00  0.00    -0.084 SA
ENDROOT
BRANCH   1   7
ATOM      7  C   UNL d   1       2.459   1.719  -0.013  0.00  0.00     0.056 C 
ATOM      8  N   UNL d   1       1.524   1.051   0.593  0.00  0.00    -0.260 N 
ATOM      9  HN  UNL d   1       1.667   0.140   1.029  1.00  0.00     0.194 HD
ATOM     10  C   UNL d   1       2.222   3.065  -0.662  0.00  0.00     0.072 C 
BRANCH   8  11
ATOM     11  O   UNL d   1       0.285   1.729   0.580  0.00  0.00    -0.195 OA
BRANCH  11  12
ATOM     12  C   UNL d   1      -0.668   0.969   1.199  0.00  0.00     0.315 C 
ATOM     13  O   UNL d   1      -0.534  -0.136   1.709  0.00  0.00    -0.257 OA
BRANCH  12  14
ATOM     14  C   UNL d   1      -1.988   1.642   1.122  0.00  0.00     0.041 A 
ATOM     15  C   UNL d   1      -2.121   3.035   1.081  0.00  0.00     0.017 A 
ATOM     16  C   UNL d   1      -3.394   3.612   1.025  0.00  0.00     0.001 A 
ATOM     17  C   UNL d   1      -4.532   2.803   1.010  0.00  0.00     0.000 A 
ATOM     18  C   UNL d   1      -4.404   1.416   1.063  0.00  0.00     0.001 A 
ATOM     19  C   UNL d   1      -3.136   0.837   1.127  0.00  0.00     0.017 A 
ENDBRANCH  12  14
ENDBRANCH  11  12
ENDBRANCH   8  11
ENDBRANCH   1   7
BRANCH   4  20
ATOM     20  C   UNL d   1       5.806  -1.976   0.030  0.00  0.00     0.240 C 
BRANCH  20  21
ATOM     21  O   UNL d   1       5.985  -2.454  -1.307  0.00  0.00    -0.345 OA
BRANCH  21  22
ATOM     22  C   UNL d   1       6.446  -3.737  -1.440  0.00  0.00     0.069 A 
ATOM     23  C   UNL d   1       6.849  -4.576  -0.398  0.00  0.00     0.038 A 
ATOM     24  C   UNL d   1       7.310  -5.869  -0.670  0.00  0.00     0.026 A 
ATOM     25  C   UNL d   1       7.366  -6.326  -1.985  0.00  0.00     0.034 A 
ATOM     26  C   UNL d   1       6.967  -5.500  -3.031  0.00  0.00     0.026 A 
ATOM     27 CL   UNL d   1       7.932  -7.918  -2.313  0.00  0.00    -0.084 Cl
ATOM     28  C   UNL d   1       6.510  -4.207  -2.756  0.00  0.00     0.038 A 
ENDBRANCH  21  22
ENDBRANCH  20  21
ENDBRANCH   4  20
TORSDOF 7
