REMARK  3 active torsions:
REMARK  status: ('A' for Active; 'I' for Inactive)
REMARK    1  A    between atoms: N_4  and  C_2 
REMARK    2  A    between atoms: N_13  and  C_5 
REMARK    3  A    between atoms: C_16  and  N_13 
ROOT
ATOM      1  C   UNL d   1      -0.046  -0.782  -0.594  0.00  0.00     0.120 A 
ATOM      2  C   UNL d   1      -1.049  -1.531   0.052  0.00  0.00     0.134 A 
ATOM      3  C   UNL d   1      -0.087   0.683  -0.579  0.00  0.00     0.114 A 
ATOM      4  C   UNL d   1      -1.119   1.423   0.058  0.00  0.00     0.064 A 
ATOM      5  N   UNL d   1       1.044  -1.140  -1.287  0.00  0.00    -0.237 N 
ATOM      6  HN  UNL d   1       1.358  -2.091  -1.481  1.00  0.00     0.197 HD
ATOM      7  C   UNL d   1      -2.068  -0.801   0.697  0.00  0.00     0.041 A 
ATOM      8  N   UNL d   1       0.974   1.145  -1.254  0.00  0.00    -0.237 N 
ATOM      9  HN  UNL d   1       1.223   2.120  -1.415  1.00  0.00     0.197 HD
ATOM     10  O   UNL d   1       1.660   0.027  -1.688  0.00  0.00    -0.156 OA
ATOM     11  C   UNL d   1      -2.089   0.615   0.698  0.00  0.00     0.034 A 
ENDROOT
BRANCH   4  12
ATOM     12  N   UNL d   1      -1.162   2.829   0.104  0.00  0.00    -0.354 N 
ATOM     13  H   UNL d   1      -0.365   3.252  -0.373  0.00  0.00     0.166 HD
BRANCH  12  14
ATOM     14  C   UNL d   1      -2.300   3.661   0.022  0.00  0.00     0.032 A 
ATOM     15  C   UNL d   1      -2.239   4.946   0.570  0.00  0.00     0.030 A 
ATOM     16  C   UNL d   1      -3.336   5.811   0.495  0.00  0.00     0.009 A 
ATOM     17  C   UNL d   1      -4.511   5.411  -0.149  0.00  0.00    -0.062 A 
ATOM     18  C   UNL d   1      -4.574   4.131  -0.707  0.00  0.00     0.009 A 
ATOM     19  C   UNL d   1      -5.674   6.353  -0.250  0.00  0.00     0.048 C 
ATOM     20  C   UNL d   1      -3.478   3.268  -0.624  0.00  0.00     0.030 A 
ENDBRANCH  12  14
ENDBRANCH   4  12
BRANCH   2  21
ATOM     21  N   UNL d   1      -1.032  -2.980   0.069  0.00  0.00    -0.113 N 
ATOM     22  O   UNL d   1      -0.125  -3.579  -0.519  0.00  0.00    -0.532 OA
ATOM     23  O   UNL d   1      -1.950  -3.542   0.683  0.00  0.00    -0.532 OA
ENDBRANCH   2  21
TORSDOF 3
