REMARK  9 active torsions:
REMARK  status: ('A' for Active; 'I' for Inactive)
REMARK    1  A    between atoms: C_6  and  C_1 
REMARK    2  A    between atoms: N_7  and  C_2 
REMARK    3  A    between atoms: C_9  and  C_4 
REMARK    4  A    between atoms: O_22  and  C_6 
REMARK       I    between atoms: C_8  and  N_7 
REMARK    5  A    between atoms: C_10  and  C_8 
REMARK    6  A    between atoms: C_12  and  C_10 
REMARK    7  A    between atoms: C_11  and  C_12 
REMARK    8  A    between atoms: O_23  and  C_11 
REMARK    9  A    between atoms: C_13  and  C_14 
ROOT
ATOM      1  C   UNL d   1       0.100   1.271  -0.644  0.00  0.00     0.107 A 
ATOM      2  C   UNL d   1       1.353   0.885  -0.185  0.00  0.00     0.059 A 
ATOM      3  S   UNL d   1      -0.946  -0.096  -0.787  0.00  0.00    -0.081 SA
ATOM      4  C   UNL d   1       0.268  -1.218  -0.370  0.00  0.00     0.018 A 
ATOM      5  C   UNL d   1       1.454  -0.550  -0.123  0.00  0.00     0.051 A 
ENDROOT
BRANCH   2   6
ATOM      6  N   UNL d   1       2.460   1.666   0.162  0.00  0.00    -0.322 N 
ATOM      7  C   UNL d   1       2.430   2.964   0.632  0.00  0.00     0.245 C 
ATOM      8  O   UNL d   1       1.437   3.625   0.899  0.00  0.00    -0.268 OA
ATOM      9  H   UNL d   1       3.331   1.159   0.258  0.00  0.00     0.169 HD
BRANCH   7  10
ATOM     10  C   UNL d   1       3.800   3.491   0.897  0.00  0.00     0.081 C 
BRANCH  10  11
ATOM     11  C   UNL d   1       3.974   4.772   1.254  0.00  0.00     0.086 C 
BRANCH  11  12
ATOM     12  C   UNL d   1       5.346   5.260   1.485  0.00  0.00     0.165 C 
ATOM     13  O   UNL d   1       6.325   4.535   1.572  0.00  0.00    -0.647 OA
BRANCH  12  14
ATOM     14  O   UNL d   1       5.405   6.599   1.570  0.00  0.00    -0.773 OA
ATOM     15  H   UNL d   1       4.571   7.072   1.398  0.00  0.00     0.167 HD
ENDBRANCH  12  14
ENDBRANCH  11  12
ENDBRANCH  10  11
ENDBRANCH   7  10
ENDBRANCH   2   6
BRANCH   1  16
ATOM     16  C   UNL d   1      -0.398   2.556  -1.122  0.00  0.00     0.302 C 
ATOM     17  O   UNL d   1       0.269   3.430  -1.662  0.00  0.00    -0.259 OA
BRANCH  16  18
ATOM     18  O   UNL d   1      -1.762   2.611  -0.997  0.00  0.00    -0.322 OA
ATOM     19  C   UNL d   1      -2.397   3.721  -1.627  0.00  0.00     0.213 C 
ENDBRANCH  16  18
ENDBRANCH   1  16
BRANCH   4  20
ATOM     20  C   UNL d   1      -0.038  -2.659  -0.249  0.00  0.00    -0.019 A 
ATOM     21  C   UNL d   1      -1.061  -3.292  -0.969  0.00  0.00     0.013 A 
ATOM     22  C   UNL d   1      -1.374  -4.648  -0.756  0.00  0.00     0.009 A 
ATOM     23  C   UNL d   1      -0.677  -5.423   0.187  0.00  0.00    -0.051 A 
ATOM     24  C   UNL d   1       0.376  -4.794   0.868  0.00  0.00     0.009 A 
ATOM     25  C   UNL d   1       0.686  -3.444   0.655  0.00  0.00     0.013 A 
BRANCH  23  26
ATOM     26  C   UNL d   1      -1.095  -6.876   0.485  0.00  0.00    -0.024 C 
ATOM     27  C   UNL d   1      -0.234  -7.545   1.582  0.00  0.00     0.019 C 
ATOM     28  C   UNL d   1      -2.558  -6.900   0.981  0.00  0.00     0.019 C 
ATOM     29  C   UNL d   1      -0.984  -7.752  -0.779  0.00  0.00     0.019 C 
ENDBRANCH  23  26
ENDBRANCH   4  20
TORSDOF 9
