REMARK  3 active torsions:
REMARK  status: ('A' for Active; 'I' for Inactive)
REMARK    1  A    between atoms: N_3  and  C_1 
REMARK       I    between atoms: C_4  and  N_3 
REMARK       I    between atoms: N_10  and  C_4 
REMARK    2  A    between atoms: C_9  and  C_15 
REMARK    3  A    between atoms: C_15  and  N_10 
ROOT
ATOM      1  N   UNL d   1       3.297  -1.115   0.106  0.00  0.00    -0.303 N 
ATOM      2  C   UNL d   1       4.479  -0.482   0.002  0.00  0.00     0.321 C 
ATOM      3  N   UNL d   1       4.610   0.868   0.064  0.00  0.00    -0.338 N 
ATOM      4  O   UNL d   1       5.465  -1.224  -0.102  0.00  0.00    -0.247 OA
ATOM      5  H   UNL d   1       3.463  -2.114   0.130  0.00  0.00     0.171 HD
ATOM      6  H   UNL d   1       3.819   1.440  -0.208  0.00  0.00     0.164 HD
ENDROOT
BRANCH   1   7
ATOM      7  C   UNL d   1       1.975  -0.753   0.127  0.00  0.00     0.079 A 
ATOM      8  S   UNL d   1       1.430   0.819  -0.131  0.00  0.00    -0.072 SA
ATOM      9  C   UNL d   1      -0.232   0.323  -0.096  0.00  0.00     0.017 A 
ATOM     10  C   UNL d   1      -1.370   1.122  -0.312  0.00  0.00     0.020 A 
ATOM     11  C   UNL d   1      -0.351  -1.040   0.186  0.00  0.00    -0.016 A 
ATOM     12  C   UNL d   1      -2.638   0.536  -0.232  0.00  0.00     0.001 A 
ATOM     13  C   UNL d   1      -2.780  -0.811   0.073  0.00  0.00     0.001 A 
ATOM     14  C   UNL d   1      -1.648  -1.604   0.283  0.00  0.00     0.013 A 
ATOM     15  C   UNL d   1       0.940  -1.645   0.304  0.00  0.00     0.050 A 
ENDBRANCH   1   7
BRANCH   3  16
ATOM     16  C   UNL d   1       5.959   1.339  -0.187  0.00  0.00     0.170 C 
BRANCH  16  17
ATOM     17  C   UNL d   1       6.303   2.784  -0.038  0.00  0.00     0.000 A 
ATOM     18  S   UNL d   1       5.186   4.067   0.109  0.00  0.00    -0.105 SA
ATOM     19  C   UNL d   1       6.441   5.244   0.140  0.00  0.00     0.050 A 
ATOM     20  C   UNL d   1       7.691   4.675   0.043  0.00  0.00     0.008 A 
ATOM     21  C   UNL d   1       7.605   3.262  -0.052  0.00  0.00     0.017 A 
ENDBRANCH  16  17
ENDBRANCH   3  16
TORSDOF 3
