REMARK  3 active torsions:
REMARK  status: ('A' for Active; 'I' for Inactive)
REMARK    1  A    between atoms: S_2  and  C_1 
REMARK    2  A    between atoms: C_14  and  S_2 
REMARK    3  A    between atoms: C_17  and  C_14 
ROOT
ATOM      1  C   UNL d   1       2.592   1.465  -0.062  0.00  0.00     0.135 A 
ATOM      2  C   UNL d   1       3.058   0.074  -0.157  0.00  0.00     0.310 A 
ATOM      3  C   UNL d   1       1.287   1.778  -0.007  0.00  0.00     0.044 A 
ATOM      4  O   UNL d   1       2.077  -0.913  -0.044  0.00  0.00    -0.274 OA
ATOM      5  C   UNL d   1       0.284   0.726  -0.003  0.00  0.00     0.001 A 
ATOM      6  C   UNL d   1       0.706  -0.601  -0.003  0.00  0.00     0.089 A 
ATOM      7  O   UNL d   1       4.222  -0.230  -0.372  0.00  0.00    -0.258 OA
ATOM      8  C   UNL d   1      -1.085   1.001   0.011  0.00  0.00     0.038 A 
ATOM      9  C   UNL d   1      -0.201  -1.658   0.013  0.00  0.00     0.040 A 
ATOM     10  C   UNL d   1      -2.002  -0.051   0.019  0.00  0.00     0.035 A 
ATOM     11  C   UNL d   1      -1.568  -1.379   0.022  0.00  0.00     0.026 A 
ATOM     12 CL   UNL d   1      -3.689   0.291   0.023  0.00  0.00    -0.084 Cl
ENDROOT
BRANCH   1  13
ATOM     13  S   UNL d   1       3.756   2.751  -0.048  0.00  0.00     0.181 S 
ATOM     14  O   UNL d   1       3.097   3.974   0.395  0.00  0.00    -0.222 OA
ATOM     15  O   UNL d   1       4.973   2.335   0.619  0.00  0.00    -0.222 OA
BRANCH  13  16
ATOM     16  C   UNL d   1       4.111   2.973  -1.789  0.00  0.00     0.145 C 
BRANCH  16  17
ATOM     17  C   UNL d   1       5.162   4.059  -2.001  0.00  0.00     0.011 C 
ATOM     18  C   UNL d   1       5.412   4.334  -3.475  0.00  0.00     0.006 C 
ENDBRANCH  16  17
ENDBRANCH  13  16
ENDBRANCH   1  13
TORSDOF 3
