REMARK  8 active torsions:
REMARK  status: ('A' for Active; 'I' for Inactive)
REMARK    1  A    between atoms: N_13  and  C_5 
REMARK    2  A    between atoms: C_6  and  C_14 
REMARK    3  A    between atoms: N_7  and  C_6 
REMARK    4  A    between atoms: C_11  and  C_6 
REMARK       I    between atoms: C_8  and  N_7 
REMARK    5  A    between atoms: C_16  and  C_8 
REMARK    6  A    between atoms: O_20  and  C_9 
REMARK    7  A    between atoms: O_19  and  C_10 
REMARK       I    between atoms: N_18  and  C_11 
REMARK    8  A    between atoms: C_14  and  N_13 
ROOT
ATOM      1  C   UNL d   1      -0.688   4.920   0.035  0.00  0.00     0.190 C 
ENDROOT
BRANCH   1   2
ATOM      2  C   UNL d   1      -1.082   3.431  -0.012  0.00  0.00     0.130 C 
BRANCH   2   3
ATOM      3  N   UNL d   1      -1.937   3.021   1.099  0.00  0.00    -0.262 NA
ATOM      4  H   UNL d   1      -2.722   3.641   1.290  0.00  0.00     0.130 HD
BRANCH   3   5
ATOM      5  C   UNL d   1      -1.325   2.688   2.291  0.00  0.00     0.161 A 
ATOM      6  N   UNL d   1      -1.977   3.017   3.406  0.00  0.00    -0.313 N 
ATOM      7  C   UNL d   1      -1.425   2.616   4.568  0.00  0.00     0.148 A 
ATOM      8  HN  UNL d   1      -2.849   3.545   3.381  1.00  0.00     0.170 HD
ATOM      9  C   UNL d   1      -0.258   1.904   4.655  0.00  0.00     0.112 A 
ATOM     10  C   UNL d   1       0.334   1.638   3.452  0.00  0.00     0.148 A 
ATOM     11  N   UNL d   1      -0.171   2.023   2.270  0.00  0.00    -0.313 N 
ATOM     12  HN  UNL d   1       0.308   1.815   1.394  1.00  0.00     0.170 HD
BRANCH   7  13
ATOM     13  O   UNL d   1      -2.047   2.919   5.765  0.00  0.00    -0.341 OA
ATOM     14  C   UNL d   1      -3.241   3.679   5.593  0.00  0.00     0.211 C 
ENDBRANCH   7  13
BRANCH  10  15
ATOM     15  O   UNL d   1       1.514   0.918   3.481  0.00  0.00    -0.341 OA
ATOM     16  C   UNL d   1       2.049   0.701   2.176  0.00  0.00     0.211 C 
ENDBRANCH  10  15
ENDBRANCH   3   5
ENDBRANCH   2   3
ENDBRANCH   1   2
BRANCH   1  17
ATOM     17  N   UNL d   1       0.156   5.316  -1.106  0.00  0.00    -0.343 N 
ATOM     18  C   UNL d   1       1.528   5.212  -1.064  0.00  0.00     0.252 C 
ATOM     19  O   UNL d   1       2.126   4.781  -0.085  0.00  0.00    -0.268 OA
ATOM     20  H   UNL d   1      -0.307   5.486  -1.989  0.00  0.00     0.163 HD
BRANCH  18  21
ATOM     21  C   UNL d   1       2.283   5.651  -2.274  0.00  0.00     0.032 A 
ATOM     22  C   UNL d   1       1.766   6.582  -3.185  0.00  0.00     0.017 A 
ATOM     23  C   UNL d   1       2.539   7.003  -4.273  0.00  0.00     0.001 A 
ATOM     24  C   UNL d   1       3.828   6.503  -4.454  0.00  0.00     0.000 A 
ATOM     25  C   UNL d   1       4.350   5.579  -3.551  0.00  0.00     0.001 A 
ATOM     26  C   UNL d   1       3.582   5.155  -2.463  0.00  0.00     0.017 A 
ENDBRANCH  18  21
ENDBRANCH   1  17
BRANCH   1  27
ATOM     27  C   UNL d   1      -1.927   5.833   0.016  0.00  0.00     0.239 C 
ATOM     28  O   UNL d   1      -3.088   5.443   0.091  0.00  0.00    -0.271 OA
ATOM     29  N   UNL d   1      -1.665   7.177  -0.005  0.00  0.00    -0.368 N 
ATOM     30  H   UNL d   1      -0.749   7.520   0.255  0.00  0.00     0.159 HD
ATOM     31  H   UNL d   1      -2.459   7.790   0.135  0.00  0.00     0.159 HD
ENDBRANCH   1  27
TORSDOF 8
