REMARK  2 active torsions:
REMARK  status: ('A' for Active; 'I' for Inactive)
REMARK    1  A    between atoms: C_9  and  C_4 
REMARK    2  A    between atoms: S_15  and  C_6 
REMARK       I    between atoms: N_13  and  C_9 
ROOT
ATOM      1  S   UNL d   1      -1.074  -2.246   0.256  0.00  0.00     0.267 S 
ATOM      2  C   UNL d   1      -1.796  -0.686   0.337  0.00  0.00     0.116 C 
ATOM      3  C   UNL d   1      -0.897   0.450   0.313  0.00  0.00     0.024 C 
ATOM      4  C   UNL d   1      -1.619   1.630   0.097  0.00  0.00     0.086 C 
ATOM      5  N   UNL d   1       0.332  -1.993  -0.670  0.00  0.00    -0.275 N 
ATOM      6  C   UNL d   1      -3.129  -0.357   0.354  0.00  0.00     0.066 C 
ATOM      7  S   UNL d   1      -3.296   1.348   0.417  0.00  0.00    -0.075 SA
ATOM      8  C   UNL d   1       0.579   0.283   0.322  0.00  0.00     0.005 C 
ATOM      9  C   UNL d   1       1.170  -0.913  -0.176  0.00  0.00     0.056 C 
ATOM     10  O   UNL d   1      -1.983  -3.067  -0.521  0.00  0.00    -0.200 OA
ATOM     11  O   UNL d   1      -0.727  -2.566   1.625  0.00  0.00    -0.200 OA
ATOM     12  C   UNL d   1       0.921  -3.208  -1.254  0.00  0.00     0.170 C 
ATOM     13  C   UNL d   1       1.424   1.226   0.921  0.00  0.00     0.014 C 
ATOM     14  C   UNL d   1       2.571  -1.025  -0.229  0.00  0.00     0.031 C 
ATOM     15  C   UNL d   1       2.815   1.090   0.885  0.00  0.00     0.001 C 
ATOM     16  C   UNL d   1       3.389  -0.023   0.289  0.00  0.00     0.002 C 
ENDROOT
BRANCH   4  17
ATOM     17  C   UNL d   1      -1.195   3.012  -0.168  0.00  0.00     0.261 C 
ATOM     18  N   UNL d   1      -1.900   3.824  -1.078  0.00  0.00    -0.356 N 
ATOM     19  C   UNL d   1      -1.494   5.218  -1.187  0.00  0.00     0.152 C 
ATOM     20  C   UNL d   1      -2.820   3.371  -2.113  0.00  0.00     0.152 C 
ATOM     21  O   UNL d   1      -0.227   3.508   0.414  0.00  0.00    -0.267 OA
ENDBRANCH   4  17
BRANCH   6  22
ATOM     22  S   UNL d   1      -4.595  -1.326   0.258  0.00  0.00    -0.126 SA
ATOM     23  C   UNL d   1      -4.384  -2.570   1.545  0.00  0.00     0.096 C 
ENDBRANCH   6  22
TORSDOF 2
