REMARK  5 active torsions:
REMARK  status: ('A' for Active; 'I' for Inactive)
REMARK    1  A    between atoms: N_3  and  S_1 
REMARK    2  A    between atoms: C_11  and  S_1 
REMARK    3  A    between atoms: C_2  and  N_3 
REMARK    4  A    between atoms: C_12  and  C_7 
REMARK    5  A    between atoms: C_13  and  C_14 
ROOT
ATOM      1  C   UNL d   1       0.281   0.647  -3.002  0.00  0.00     0.131 A 
ATOM      2  C   UNL d   1       0.924   1.422  -3.929  0.00  0.00     0.082 A 
ATOM      3  N   UNL d   1       1.720  -0.702  -4.096  0.00  0.00    -0.298 N 
ATOM      4  HN  UNL d   1       2.229  -1.534  -4.394  1.00  0.00     0.187 HD
ATOM      5  C   UNL d   1       1.854   0.551  -4.564  0.00  0.00     0.062 A 
ATOM      6  N   UNL d   1       0.771  -0.618  -3.149  0.00  0.00    -0.284 N 
ATOM      7  H   UNL d   1       0.490  -1.470  -2.671  0.00  0.00     0.188 HD
ENDROOT
BRANCH   1   8
ATOM      8  N   UNL d   1      -0.635   1.119  -2.092  0.00  0.00    -0.265 N 
ATOM      9  H   UNL d   1      -1.397   1.695  -2.405  0.00  0.00     0.180 HD
BRANCH   8  10
ATOM     10  S   UNL d   1      -0.253   1.323  -0.515  0.00  0.00     0.264 S 
ATOM     11  O   UNL d   1       0.367   0.127   0.013  0.00  0.00    -0.200 OA
ATOM     12  O   UNL d   1      -1.391   1.920   0.156  0.00  0.00    -0.200 OA
BRANCH  10  13
ATOM     13  C   UNL d   1       1.008   2.603  -0.580  0.00  0.00     0.079 A 
ATOM     14  C   UNL d   1       0.634   3.953  -0.622  0.00  0.00     0.025 A 
ATOM     15  C   UNL d   1       1.619   4.942  -0.642  0.00  0.00     0.002 A 
ATOM     16  C   UNL d   1       2.970   4.587  -0.618  0.00  0.00     0.000 A 
ATOM     17  C   UNL d   1       3.340   3.244  -0.569  0.00  0.00     0.002 A 
ATOM     18  C   UNL d   1       2.363   2.243  -0.546  0.00  0.00     0.025 A 
ENDBRANCH  10  13
ENDBRANCH   8  10
ENDBRANCH   1   8
BRANCH   5  19
ATOM     19  C   UNL d   1       2.882   0.926  -5.537  0.00  0.00    -0.008 A 
ATOM     20  C   UNL d   1       4.032   0.149  -5.704  0.00  0.00     0.014 A 
ATOM     21  C   UNL d   1       5.063   0.572  -6.555  0.00  0.00     0.009 A 
ATOM     22  C   UNL d   1       4.978   1.783  -7.266  0.00  0.00    -0.051 A 
ATOM     23  C   UNL d   1       3.797   2.526  -7.123  0.00  0.00     0.009 A 
ATOM     24  C   UNL d   1       2.767   2.107  -6.274  0.00  0.00     0.014 A 
BRANCH  22  25
ATOM     25  C   UNL d   1       6.155   2.269  -8.131  0.00  0.00    -0.024 C 
ATOM     26  C   UNL d   1       5.888   3.633  -8.810  0.00  0.00     0.019 C 
ATOM     27  C   UNL d   1       7.410   2.437  -7.247  0.00  0.00     0.019 C 
ATOM     28  C   UNL d   1       6.464   1.253  -9.249  0.00  0.00     0.019 C 
ENDBRANCH  22  25
ENDBRANCH   5  19
TORSDOF 5
