REMARK  8 active torsions:
REMARK  status: ('A' for Active; 'I' for Inactive)
REMARK    1  A    between atoms: C_19  and  N_1 
REMARK    2  A    between atoms: C_12  and  C_2 
REMARK    3  A    between atoms: C_7  and  C_14 
REMARK    4  A    between atoms: O_23  and  C_12 
REMARK    5  A    between atoms: C_30  and  C_19 
REMARK    6  A    between atoms: C_25  and  O_31 
REMARK    7  A    between atoms: C_34  and  C_30 
REMARK    8  A    between atoms: O_31  and  C_34 
ROOT
ATOM      1  C   UNL d   1       9.991   3.536  -0.771  0.00  0.00    -0.045 A 
ATOM      2  C   UNL d   1       9.322   2.551  -1.508  0.00  0.00     0.011 A 
ATOM      3  C   UNL d   1       9.265   4.282   0.171  0.00  0.00     0.011 A 
ATOM      4  C   UNL d   1       7.244   3.074  -0.360  0.00  0.00     0.068 A 
ATOM      5  C   UNL d   1       7.906   4.056   0.373  0.00  0.00     0.037 A 
ATOM      6  C   UNL d   1       7.957   2.325  -1.300  0.00  0.00     0.037 A 
ENDROOT
BRANCH   1   7
ATOM      7  C   UNL d   1      11.486   3.820  -0.937  0.00  0.00     0.098 A 
ATOM      8  C   UNL d   1      11.833   4.256  -2.369  0.00  0.00     0.052 A 
ATOM      9  C   UNL d   1      12.830   3.646  -3.058  0.00  0.00     0.018 A 
ATOM     10  C   UNL d   1      13.290   3.993  -4.453  0.00  0.00     0.069 C 
ATOM     11  N   UNL d   1      13.541   2.609  -2.466  0.00  0.00    -0.362 N 
ATOM     12  C   UNL d   1      13.301   2.109  -1.203  0.00  0.00     0.020 A 
ATOM     13  H   UNL d   1      14.286   2.183  -3.012  0.00  0.00     0.165 HD
ATOM     14  C   UNL d   1      12.329   2.653  -0.443  0.00  0.00     0.023 A 
ATOM     15  C   UNL d   1      14.185   0.971  -0.744  0.00  0.00     0.058 C 
ATOM     16  C   UNL d   1      12.096   2.111   0.926  0.00  0.00     0.158 C 
ATOM     17  O   UNL d   1      11.480   2.750   1.774  0.00  0.00    -0.293 OA
ATOM     18  C   UNL d   1      12.644   0.735   1.220  0.00  0.00     0.084 C 
ATOM     19  C   UNL d   1      14.087   0.681   0.752  0.00  0.00     0.014 C 
BRANCH   8  20
ATOM     20  C   UNL d   1      11.000   5.336  -2.966  0.00  0.00     0.291 C 
ATOM     21  O   UNL d   1      10.687   5.401  -4.145  0.00  0.00    -0.260 OA
BRANCH  20  22
ATOM     22  O   UNL d   1      10.614   6.212  -2.003  0.00  0.00    -0.323 OA
ATOM     23  C   UNL d   1       9.628   7.165  -2.409  0.00  0.00     0.213 C 
ENDBRANCH  20  22
ENDBRANCH   8  20
ENDBRANCH   1   7
BRANCH   4  24
ATOM     24  O   UNL d   1       5.917   2.759  -0.237  0.00  0.00    -0.351 OA
BRANCH  24  25
ATOM     25  C   UNL d   1       5.175   3.525   0.714  0.00  0.00     0.177 C 
BRANCH  25  26
ATOM     26  C   UNL d   1       3.738   3.025   0.752  0.00  0.00     0.047 C 
BRANCH  26  27
ATOM     27  C   UNL d   1       3.671   1.573   1.218  0.00  0.00     0.138 C 
BRANCH  27  28
ATOM     28  N   UNL d   1       2.300   1.120   1.331  0.00  0.00    -0.280 N 
ATOM     29  C   UNL d   1       1.587   0.581   0.296  0.00  0.00     0.261 A 
ATOM     30  C   UNL d   1       0.255   0.288   0.820  0.00  0.00     0.048 A 
ATOM     31  O   UNL d   1       1.927   0.374  -0.854  0.00  0.00    -0.267 OA
ATOM     32  C   UNL d   1      -0.839  -0.287   0.206  0.00  0.00     0.018 A 
ATOM     33  C   UNL d   1       0.226   0.699   2.141  0.00  0.00     0.048 A 
ATOM     34  C   UNL d   1      -1.992  -0.448   0.980  0.00  0.00     0.001 A 
ATOM     35  C   UNL d   1      -2.024  -0.031   2.328  0.00  0.00     0.001 A 
ATOM     36  C   UNL d   1      -0.903   0.555   2.924  0.00  0.00     0.018 A 
ATOM     37  C   UNL d   1       1.537   1.256   2.462  0.00  0.00     0.261 A 
ATOM     38  O   UNL d   1       1.829   1.748   3.536  0.00  0.00    -0.267 OA
ENDBRANCH  27  28
ENDBRANCH  26  27
ENDBRANCH  25  26
ENDBRANCH  24  25
ENDBRANCH   4  24
TORSDOF 8
