REMARK  6 active torsions:
REMARK  status: ('A' for Active; 'I' for Inactive)
REMARK    1  A    between atoms: N_3  and  S_1 
REMARK    2  A    between atoms: C_4  and  S_1 
REMARK    3  A    between atoms: C_2  and  C_9 
REMARK    4  A    between atoms: C_11  and  N_3 
REMARK    5  A    between atoms: O_12  and  C_10 
REMARK    6  A    between atoms: C_21  and  O_12 
ROOT
ATOM      1  N   UNL d   1       0.192   3.050  -3.856  0.00  0.00    -0.344 N 
ATOM      2  HN  UNL d   1      -0.541   3.545  -4.364  1.00  0.00     0.167 HD
ATOM      3  C   UNL d   1       1.478   3.476  -3.872  0.00  0.00     0.148 A 
ATOM      4  C   UNL d   1       0.882   1.251  -2.402  0.00  0.00     0.058 A 
ATOM      5  C   UNL d   1      -0.073   1.940  -3.137  0.00  0.00     0.120 A 
ATOM      6  C   UNL d   1       2.492   2.882  -3.136  0.00  0.00     0.059 A 
ATOM      7  C   UNL d   1       2.182   1.750  -2.380  0.00  0.00     0.036 A 
ENDROOT
BRANCH   4   8
ATOM      8  N   UNL d   1       0.536   0.115  -1.622  0.00  0.00    -0.279 N 
ATOM      9  H   UNL d   1      -0.085  -0.576  -2.044  0.00  0.00     0.179 HD
BRANCH   8  10
ATOM     10  S   UNL d   1       0.177   0.360   0.011  0.00  0.00     0.263 S 
ATOM     11  O   UNL d   1       1.274   1.063   0.638  0.00  0.00    -0.200 OA
ATOM     12  O   UNL d   1      -0.290  -0.917   0.515  0.00  0.00    -0.200 OA
BRANCH  10  13
ATOM     13  C   UNL d   1      -1.228   1.453  -0.036  0.00  0.00     0.079 A 
ATOM     14  C   UNL d   1      -2.517   0.915  -0.121  0.00  0.00     0.026 A 
ATOM     15  C   UNL d   1      -3.622   1.770  -0.109  0.00  0.00     0.018 A 
ATOM     16  C   UNL d   1      -3.450   3.162  -0.005  0.00  0.00     0.048 A 
ATOM     17  C   UNL d   1      -2.148   3.684   0.071  0.00  0.00     0.018 A 
ATOM     18  C   UNL d   1      -1.039   2.834   0.065  0.00  0.00     0.026 A 
BRANCH  16  19
ATOM     19  C   UNL d   1      -4.659   4.067   0.053  0.00  0.00     0.417 C 
ATOM     20  F   UNL d   1      -4.349   5.387   0.176  0.00  0.00    -0.166 F 
ATOM     21  F   UNL d   1      -5.438   3.966  -1.060  0.00  0.00    -0.166 F 
ATOM     22  F   UNL d   1      -5.472   3.775   1.106  0.00  0.00    -0.166 F 
ENDBRANCH  16  19
ENDBRANCH  10  13
ENDBRANCH   8  10
ENDBRANCH   4   8
BRANCH   3  23
ATOM     23  O   UNL d   1       1.825   4.563  -4.666  0.00  0.00    -0.294 OA
BRANCH  23  24
ATOM     24  C   UNL d   1       1.063   4.779  -5.793  0.00  0.00     0.078 A 
ATOM     25  C   UNL d   1       0.743   6.103  -6.103  0.00  0.00     0.040 A 
ATOM     26  C   UNL d   1      -0.041   6.381  -7.225  0.00  0.00     0.045 A 
ATOM     27  C   UNL d   1      -0.487   5.337  -8.030  0.00  0.00     0.116 A 
ATOM     28  C   UNL d   1      -0.145   4.019  -7.751  0.00  0.00     0.045 A 
ATOM     29  F   UNL d   1      -1.260   5.604  -9.090  0.00  0.00    -0.206 F 
ATOM     30  C   UNL d   1       0.652   3.741  -6.643  0.00  0.00     0.040 A 
ENDBRANCH  23  24
ENDBRANCH   3  23
TORSDOF 6
