REMARK  3 active torsions:
REMARK  status: ('A' for Active; 'I' for Inactive)
REMARK    1  A    between atoms: C_2  and  C_1 
REMARK       I    between atoms: N_5  and  C_2 
REMARK    2  A    between atoms: N_12  and  C_3 
REMARK    3  A    between atoms: C_9  and  N_5 
ROOT
ATOM      1  C   UNL d   1       1.002  -0.008  -0.016  0.00  0.00     0.127 C 
ATOM      2  C   UNL d   1       0.396  -0.309   1.151  0.00  0.00     0.113 C 
ATOM      3  C   UNL d   1       0.269   0.492  -1.126  0.00  0.00     0.106 C 
ATOM      4  N   UNL d   1      -0.316   0.909  -2.036  0.00  0.00    -0.191 NA
ENDROOT
BRANCH   1   5
ATOM      5  C   UNL d   1       2.498  -0.186  -0.080  0.00  0.00     0.268 C 
ATOM      6  N   UNL d   1       3.134   0.385  -1.172  0.00  0.00    -0.322 N 
ATOM      7  H   UNL d   1       2.593   0.983  -1.789  0.00  0.00     0.169 HD
ATOM      8  O   UNL d   1       3.080  -0.793   0.818  0.00  0.00    -0.266 OA
BRANCH   6   9
ATOM      9  C   UNL d   1       4.503   0.239  -1.524  0.00  0.00     0.036 A 
ATOM     10  C   UNL d   1       5.379  -0.655  -0.895  0.00  0.00     0.056 A 
ATOM     11  C   UNL d   1       6.698  -0.791  -1.342  0.00  0.00     0.074 A 
ATOM     12 CL   UNL d   1       7.743  -1.926  -0.573  0.00  0.00    -0.081 Cl
ATOM     13  C   UNL d   1       7.154  -0.028  -2.411  0.00  0.00     0.138 A 
ATOM     14  C   UNL d   1       6.305   0.879  -3.034  0.00  0.00     0.046 A 
ATOM     15  F   UNL d   1       8.409  -0.157  -2.866  0.00  0.00    -0.204 F 
ATOM     16  C   UNL d   1       4.983   1.010  -2.594  0.00  0.00     0.032 A 
ENDBRANCH   6   9
ENDBRANCH   1   5
BRANCH   2  17
ATOM     17  N   UNL d   1      -0.946  -0.279   1.532  0.00  0.00    -0.397 N 
ATOM     18  C   UNL d   1      -2.047  -0.745   0.683  0.00  0.00     0.148 C 
ATOM     19  C   UNL d   1      -1.330  -0.095   2.935  0.00  0.00     0.148 C 
ENDBRANCH   2  17
TORSDOF 3
