REMARK  1 active torsions:
REMARK  status: ('A' for Active; 'I' for Inactive)
REMARK    1  A    between atoms: N_12  and  N_6 
ROOT
ATOM      1  C   UNL d   1      -1.198  -1.580  -0.045  0.00  0.00     0.124 A 
ATOM      2  C   UNL d   1      -0.186  -0.421  -0.026  0.00  0.00     0.274 A 
ATOM      3  C   UNL d   1      -2.514  -0.954  -0.001  0.00  0.00     0.025 A 
ATOM      4  N   UNL d   1      -0.950   0.731  -0.025  0.00  0.00    -0.321 N 
ATOM      5  C   UNL d   1      -2.307   0.424  -0.006  0.00  0.00     0.048 A 
ATOM      6  N   UNL d   1      -0.998  -2.861  -0.102  0.00  0.00    -0.318 N 
ATOM      7  HN  UNL d   1      -1.772  -3.523  -0.047  1.00  0.00     0.180 HD
ATOM      8  C   UNL d   1      -3.772  -1.521   0.013  0.00  0.00     0.035 A 
ATOM      9  O   UNL d   1       1.020  -0.520   0.030  0.00  0.00    -0.266 OA
ATOM     10  C   UNL d   1      -3.367   1.305   0.006  0.00  0.00     0.032 A 
ATOM     11  C   UNL d   1      -4.851  -0.640   0.021  0.00  0.00     0.011 A 
ATOM     12  C   UNL d   1      -4.658   0.758   0.017  0.00  0.00     0.021 A 
ATOM     13 BR   UNL d   1      -6.612  -1.331   0.025  0.00  0.00    -0.051 Br
ATOM     14  H   UNL d   1      -0.547   1.656  -0.008  0.00  0.00     0.169 HD
ENDROOT
BRANCH   6  15
ATOM     15  N   UNL d   1       0.276  -3.277  -0.235  0.00  0.00    -0.249 NA
ATOM     16  H   UNL d   1       0.404  -4.218   0.138  0.00  0.00     0.143 HD
ATOM     17  H   UNL d   1       0.983  -2.659   0.179  0.00  0.00     0.143 HD
ENDBRANCH   6  15
TORSDOF 1
