REMARK  5 active torsions:
REMARK  status: ('A' for Active; 'I' for Inactive)
REMARK    1  A    between atoms: C_4  and  C_1 
REMARK    2  A    between atoms: C_2  and  C_9 
REMARK    3  A    between atoms: C_3  and  S_5 
REMARK    4  A    between atoms: C_10  and  C_3 
REMARK    5  A    between atoms: S_5  and  C_8 
ROOT
ATOM      1  C   UNL d   1       0.226  -6.906   0.434  0.00  0.00     0.225 C 
ATOM      2  O   UNL d   1      -0.083  -8.076   0.629  0.00  0.00    -0.279 OA
ENDROOT
BRANCH   1   3
ATOM      3  S   UNL d   1      -0.957  -5.618   0.317  0.00  0.00    -0.030 SA
BRANCH   3   4
ATOM      4  C   UNL d   1      -2.415  -6.211   1.135  0.00  0.00     0.077 A 
ATOM      5  C   UNL d   1      -2.920  -7.499   1.006  0.00  0.00     0.038 A 
ATOM      6  C   UNL d   1      -4.145  -7.818   1.595  0.00  0.00     0.020 A 
ATOM      7  C   UNL d   1      -4.867  -6.838   2.279  0.00  0.00     0.063 A 
ATOM      8  C   UNL d   1      -4.295  -5.580   2.360  0.00  0.00     0.105 A 
ATOM      9  N   UNL d   1      -3.099  -5.254   1.813  0.00  0.00    -0.359 N 
ATOM     10  HN  UNL d   1      -2.721  -4.311   1.909  1.00  0.00     0.166 HD
BRANCH   7  11
ATOM     11  C   UNL d   1      -6.215  -7.120   2.869  0.00  0.00     0.418 C 
ATOM     12  F   UNL d   1      -6.771  -6.046   3.496  0.00  0.00    -0.166 F 
ATOM     13  F   UNL d   1      -6.182  -8.116   3.794  0.00  0.00    -0.166 F 
ATOM     14  F   UNL d   1      -7.120  -7.511   1.927  0.00  0.00    -0.166 F 
ENDBRANCH   7  11
ENDBRANCH   3   4
ENDBRANCH   1   3
BRANCH   1  15
ATOM     15  C   UNL d   1       1.665  -6.559   0.198  0.00  0.00     0.021 A 
ATOM     16  C   UNL d   1       2.558  -7.614  -0.039  0.00  0.00     0.017 A 
ATOM     17  C   UNL d   1       3.917  -7.370  -0.278  0.00  0.00     0.017 A 
ATOM     18  C   UNL d   1       4.412  -6.061  -0.281  0.00  0.00     0.048 A 
ATOM     19  C   UNL d   1       3.523  -5.003  -0.031  0.00  0.00     0.017 A 
ATOM     20  C   UNL d   1       2.163  -5.248   0.208  0.00  0.00     0.017 A 
BRANCH  18  21
ATOM     21  C   UNL d   1       5.872  -5.775  -0.549  0.00  0.00     0.417 C 
ATOM     22  F   UNL d   1       6.615  -6.895  -0.768  0.00  0.00    -0.166 F 
ATOM     23  F   UNL d   1       6.052  -4.987  -1.645  0.00  0.00    -0.166 F 
ATOM     24  F   UNL d   1       6.472  -5.123   0.484  0.00  0.00    -0.166 F 
ENDBRANCH  18  21
ENDBRANCH   1  15
TORSDOF 5
