REMARK  2 active torsions:
REMARK  status: ('A' for Active; 'I' for Inactive)
REMARK    1  A    between atoms: N_2  and  S_1 
REMARK    2  A    between atoms: C_5  and  N_2 
ROOT
ATOM      1  C   UNL d   1      -0.299  -2.344  -0.587  0.00  0.00     0.044 A 
ATOM      2  C   UNL d   1      -1.664  -2.180  -0.846  0.00  0.00     0.030 A 
ATOM      3  C   UNL d   1       0.149  -3.499   0.053  0.00  0.00     0.030 A 
ATOM      4  C   UNL d   1      -0.760  -4.497   0.412  0.00  0.00     0.002 A 
ATOM      5  C   UNL d   1      -2.574  -3.171  -0.475  0.00  0.00     0.002 A 
ATOM      6  C   UNL d   1      -2.121  -4.332   0.149  0.00  0.00     0.000 A 
ENDROOT
BRANCH   1   7
ATOM      7  N   UNL d   1       0.654  -1.346  -0.974  0.00  0.00    -0.281 N 
ATOM      8  C   UNL d   1       0.811  -1.090  -2.414  0.00  0.00     0.169 C 
BRANCH   7   9
ATOM      9  S   UNL d   1       1.008  -0.106   0.124  0.00  0.00     0.228 S 
ATOM     10  O   UNL d   1       2.080   0.696  -0.429  0.00  0.00    -0.206 OA
ATOM     11  O   UNL d   1       1.119  -0.661   1.458  0.00  0.00    -0.206 OA
ATOM     12  C   UNL d   1      -0.472   0.886   0.072  0.00  0.00     0.186 C 
ENDBRANCH   7   9
ENDBRANCH   1   7
TORSDOF 2
