REMARK  6 active torsions:
REMARK  status: ('A' for Active; 'I' for Inactive)
REMARK    1  A    between atoms: C_5  and  S_1 
REMARK    2  A    between atoms: N_7  and  S_1 
REMARK    3  A    between atoms: N_3  and  C_2 
REMARK    4  A    between atoms: S_8  and  C_6 
REMARK    5  A    between atoms: N_18  and  N_7 
REMARK    6  A    between atoms: C_12  and  S_8 
ROOT
ATOM      1  C   UNL d   1      -0.872  -2.302  -2.787  0.00  0.00     0.121 A 
ATOM      2  C   UNL d   1      -0.490  -1.231  -1.956  0.00  0.00     0.062 A 
ATOM      3  C   UNL d   1       0.511  -1.432  -1.006  0.00  0.00     0.078 A 
ATOM      4  C   UNL d   1      -0.263  -3.567  -2.691  0.00  0.00     0.040 A 
ATOM      5  C   UNL d   1       0.727  -3.732  -1.701  0.00  0.00     0.023 A 
ATOM      6  C   UNL d   1       1.113  -2.680  -0.866  0.00  0.00     0.026 A 
ENDROOT
BRANCH   3   7
ATOM      7  S   UNL d   1       1.092  -0.062  -0.043  0.00  0.00     0.254 S 
ATOM      8  O   UNL d   1       0.997   1.139  -0.841  0.00  0.00    -0.205 OA
ATOM      9  O   UNL d   1       2.333  -0.450   0.602  0.00  0.00    -0.205 OA
BRANCH   7  10
ATOM     10  N   UNL d   1      -0.103   0.018   1.200  0.00  0.00    -0.150 NA
ATOM     11  H   UNL d   1      -0.307  -0.906   1.600  0.00  0.00     0.159 HD
BRANCH  10  12
ATOM     12  N   UNL d   1       0.300   0.954   2.194  0.00  0.00    -0.257 NA
ATOM     13  H   UNL d   1       0.408   1.867   1.730  0.00  0.00     0.138 HD
ATOM     14  H   UNL d   1       1.253   0.710   2.501  0.00  0.00     0.138 HD
ENDBRANCH  10  12
ENDBRANCH   7  10
ENDBRANCH   3   7
BRANCH   1  15
ATOM     15  N   UNL d   1      -1.907  -2.017  -3.770  0.00  0.00    -0.114 N 
ATOM     16  O   UNL d   1      -2.948  -1.490  -3.350  0.00  0.00    -0.532 OA
ATOM     17  O   UNL d   1      -1.641  -2.224  -4.962  0.00  0.00    -0.532 OA
ENDBRANCH   1  15
BRANCH   4  18
ATOM     18  S   UNL d   1      -0.486  -4.978  -3.766  0.00  0.00    -0.070 SA
BRANCH  18  19
ATOM     19  C   UNL d   1      -2.211  -5.390  -3.645  0.00  0.00     0.074 A 
ATOM     20  N   UNL d   1      -3.006  -4.644  -2.848  0.00  0.00    -0.360 N 
ATOM     21  C   UNL d   1      -4.328  -4.926  -2.861  0.00  0.00     0.089 A 
ATOM     22  HN  UNL d   1      -2.625  -3.901  -2.262  1.00  0.00     0.166 HD
ATOM     23  C   UNL d   1      -4.894  -5.946  -3.608  0.00  0.00     0.017 A 
ATOM     24  C   UNL d   1      -4.055  -6.730  -4.388  0.00  0.00     0.004 A 
ATOM     25  C   UNL d   1      -2.692  -6.448  -4.411  0.00  0.00     0.037 A 
ENDBRANCH  18  19
ENDBRANCH   4  18
TORSDOF 6
