REMARK  4 active torsions:
REMARK  status: ('A' for Active; 'I' for Inactive)
REMARK    1  A    between atoms: S_7  and  C_1 
REMARK    2  A    between atoms: C_8  and  C_5 
REMARK    3  A    between atoms: C_10  and  S_7 
REMARK    4  A    between atoms: C_9  and  C_10 
ROOT
ATOM      1  C   UNL d   1      -0.346   1.094  -0.054  0.00  0.00     0.144 A 
ATOM      2  N   UNL d   1       0.925   0.605  -0.020  0.00  0.00    -0.335 N 
ATOM      3  N   UNL d   1      -1.240   0.139  -0.057  0.00  0.00    -0.344 N 
ATOM      4  HN  UNL d   1      -2.255   0.234  -0.077  1.00  0.00     0.167 HD
ATOM      5  C   UNL d   1       0.860  -0.770   0.013  0.00  0.00     0.060 A 
ATOM      6  C   UNL d   1      -0.502  -1.024  -0.026  0.00  0.00     0.120 A 
ATOM      7  H   UNL d   1       1.757   1.174  -0.035  0.00  0.00     0.168 HD
ENDROOT
BRANCH   1   8
ATOM      8  S   UNL d   1      -0.592   2.796  -0.082  0.00  0.00    -0.089 SA
BRANCH   8   9
ATOM      9  C   UNL d   1      -2.408   2.889  -0.129  0.00  0.00     0.122 C 
BRANCH   9  10
ATOM     10  C   UNL d   1      -2.869   4.330  -0.118  0.00  0.00    -0.027 A 
ATOM     11  C   UNL d   1      -3.062   5.078  -1.291  0.00  0.00     0.041 A 
ATOM     12 CL   UNL d   1      -2.829   4.398  -2.863  0.00  0.00    -0.084 Cl
ATOM     13  C   UNL d   1      -3.448   6.422  -1.224  0.00  0.00     0.024 A 
ATOM     14  C   UNL d   1      -3.639   7.039   0.011  0.00  0.00     0.002 A 
ATOM     15  C   UNL d   1      -3.448   6.313   1.183  0.00  0.00     0.001 A 
ATOM     16  C   UNL d   1      -3.065   4.972   1.120  0.00  0.00     0.009 A 
ENDBRANCH   9  10
ENDBRANCH   8   9
ENDBRANCH   1   8
BRANCH   5  17
ATOM     17  C   UNL d   1       2.026  -1.650   0.058  0.00  0.00    -0.008 A 
ATOM     18  C   UNL d   1       3.225  -1.234   0.658  0.00  0.00     0.015 A 
ATOM     19  C   UNL d   1       4.335  -2.085   0.705  0.00  0.00     0.024 A 
ATOM     20  C   UNL d   1       4.256  -3.359   0.150  0.00  0.00     0.034 A 
ATOM     21  C   UNL d   1       3.076  -3.789  -0.450  0.00  0.00     0.024 A 
ATOM     22 CL   UNL d   1       5.619  -4.406   0.212  0.00  0.00    -0.084 Cl
ATOM     23  C   UNL d   1       1.966  -2.938  -0.493  0.00  0.00     0.015 A 
ENDBRANCH   5  17
TORSDOF 4
