REMARK  3 active torsions:
REMARK  status: ('A' for Active; 'I' for Inactive)
REMARK       I    between atoms: C_3  and  N_7 
REMARK    1  A    between atoms: C_9  and  C_3 
REMARK    2  A    between atoms: N_8  and  C_4 
REMARK    3  A    between atoms: N_7  and  N_8 
ROOT
ATOM      1  C   UNL d   1      -5.360   0.799   0.292  0.00  0.00     0.266 C 
ATOM      2  N   UNL d   1      -3.993   1.008   0.408  0.00  0.00    -0.281 N 
ATOM      3  O   UNL d   1      -5.858  -0.167  -0.278  0.00  0.00    -0.266 OA
ATOM      4  H   UNL d   1      -3.659   1.962   0.497  0.00  0.00     0.184 HD
ENDROOT
BRANCH   2   5
ATOM      5  N   UNL d   1      -3.169   0.154  -0.356  0.00  0.00    -0.186 NA
ATOM      6  H   UNL d   1      -3.656  -0.706  -0.641  0.00  0.00     0.154 HD
BRANCH   5   7
ATOM      7  C   UNL d   1      -1.962  -0.224   0.271  0.00  0.00     0.113 A 
ATOM      8  N   UNL d   1      -1.546  -1.500   0.149  0.00  0.00    -0.289 N 
ATOM      9  N   UNL d   1      -0.321  -1.899   0.648  0.00  0.00    -0.304 N 
ATOM     10  HN  UNL d   1      -2.144  -2.181  -0.318  1.00  0.00     0.188 HD
ATOM     11  C   UNL d   1       0.482  -1.008   1.259  0.00  0.00     0.022 A 
ATOM     12  HN  UNL d   1      -0.025  -2.871   0.552  1.00  0.00     0.186 HD
ATOM     13  C   UNL d   1       0.088   0.309   1.417  0.00  0.00     0.029 A 
ATOM     14  C   UNL d   1       1.822  -1.474   1.733  0.00  0.00     0.069 C 
ATOM     15  C   UNL d   1      -1.148   0.705   0.909  0.00  0.00     0.047 A 
ENDBRANCH   5   7
ENDBRANCH   2   5
BRANCH   1  16
ATOM     16  C   UNL d   1      -6.218   1.865   0.875  0.00  0.00     0.033 A 
ATOM     17  C   UNL d   1      -7.455   2.142   0.277  0.00  0.00     0.018 A 
ATOM     18  C   UNL d   1      -8.288   3.127   0.815  0.00  0.00     0.025 A 
ATOM     19  C   UNL d   1      -7.889   3.826   1.954  0.00  0.00     0.034 A 
ATOM     20  C   UNL d   1      -6.662   3.551   2.559  0.00  0.00     0.025 A 
ATOM     21 CL   UNL d   1      -8.920   5.027   2.628  0.00  0.00    -0.084 Cl
ATOM     22  C   UNL d   1      -5.824   2.570   2.021  0.00  0.00     0.018 A 
ENDBRANCH   1  16
TORSDOF 3
