REMARK  4 active torsions:
REMARK  status: ('A' for Active; 'I' for Inactive)
REMARK    1  A    between atoms: C_6  and  C_1 
REMARK    2  A    between atoms: C_10  and  C_5 
REMARK    3  A    between atoms: O_9  and  C_6 
REMARK    4  A    between atoms: O_13  and  C_10 
ROOT
ATOM      1  C   UNL d   1       1.141   0.683  -0.116  0.00  0.00     0.119 C 
ATOM      2  C   UNL d   1      -0.255   1.121  -0.021  0.00  0.00     0.300 C 
ATOM      3  C   UNL d   1       1.129  -0.657  -0.050  0.00  0.00    -0.025 C 
ATOM      4  O   UNL d   1      -1.066   0.025   0.005  0.00  0.00    -0.299 OA
ATOM      5  C   UNL d   1      -0.266  -1.157   0.154  0.00  0.00     0.113 C 
ATOM      6  O   UNL d   1      -0.666   2.269  -0.052  0.00  0.00    -0.259 OA
ATOM      7  C   UNL d   1       2.275  -1.610  -0.134  0.00  0.00     0.048 C 
ATOM      8  C   UNL d   1      -0.693  -2.161  -0.918  0.00  0.00     0.054 C 
ENDROOT
BRANCH   1   9
ATOM      9  C   UNL d   1       2.311   1.547  -0.299  0.00  0.00     0.299 C 
ATOM     10  O   UNL d   1       3.359   1.170  -0.809  0.00  0.00    -0.259 OA
BRANCH   9  11
ATOM     11  O   UNL d   1       2.096   2.789   0.194  0.00  0.00    -0.322 OA
ATOM     12  C   UNL d   1       3.216   3.667   0.058  0.00  0.00     0.213 C 
ENDBRANCH   9  11
ENDBRANCH   1   9
BRANCH   5  13
ATOM     13  C   UNL d   1      -0.525  -1.740   1.564  0.00  0.00     0.210 C 
BRANCH  13  14
ATOM     14  O   UNL d   1      -0.236  -0.762   2.572  0.00  0.00    -0.393 OA
ATOM     15  C   UNL d   1      -0.553  -1.239   3.873  0.00  0.00     0.201 C 
ENDBRANCH  13  14
ENDBRANCH   5  13
TORSDOF 4
