REMARK  6 active torsions:
REMARK  status: ('A' for Active; 'I' for Inactive)
REMARK    1  A    between atoms: N_5  and  S_1 
REMARK    2  A    between atoms: C_7  and  S_1 
REMARK    3  A    between atoms: C_2  and  C_4 
REMARK    4  A    between atoms: C_6  and  CA_3 
REMARK       I    between atoms: C_4  and  N_8 
REMARK    5  A    between atoms: OXT_23  and  C_6 
REMARK    6  A    between atoms: N_8  and  C_20 
ROOT
ATOM      1  C   UNL d   1      -1.612   0.298  -6.347  0.00  0.00     0.275 C 
ATOM      2  N   UNL d   1      -1.142  -0.705  -5.511  0.00  0.00    -0.322 N 
ATOM      3  O   UNL d   1      -1.385   1.503  -6.247  0.00  0.00    -0.266 OA
ATOM      4  H   UNL d   1      -1.378  -1.656  -5.774  0.00  0.00     0.169 HD
ENDROOT
BRANCH   2   5
ATOM      5  C   UNL d   1      -0.405  -0.517  -4.314  0.00  0.00     0.035 A 
ATOM      6  C   UNL d   1      -0.011   0.743  -3.851  0.00  0.00     0.031 A 
ATOM      7  C   UNL d   1       0.600   0.900  -2.604  0.00  0.00     0.027 A 
ATOM      8  C   UNL d   1       0.838  -0.214  -1.801  0.00  0.00     0.074 A 
ATOM      9  C   UNL d   1       0.513  -1.489  -2.271  0.00  0.00     0.027 A 
ATOM     10  C   UNL d   1      -0.098  -1.638  -3.529  0.00  0.00     0.031 A 
BRANCH   8  11
ATOM     11  S   UNL d   1       1.232   0.038  -0.083  0.00  0.00     0.243 S 
ATOM     12  O   UNL d   1       0.894   1.407   0.243  0.00  0.00    -0.206 OA
ATOM     13  O   UNL d   1       0.630  -1.052   0.659  0.00  0.00    -0.206 OA
BRANCH  11  14
ATOM     14  N   UNL d   1       2.924  -0.139   0.051  0.00  0.00    -0.202 NA
ATOM     15  C   UNL d   1       3.796   0.792  -0.730  0.00  0.00     0.134 C 
ATOM     16  C   UNL d   1       3.869   2.184  -0.092  0.00  0.00     0.183 C 
ATOM     17  O   UNL d   1       4.317   2.116   1.269  0.00  0.00    -0.389 OA
ATOM     18  C   UNL d   1       3.471   1.270   2.062  0.00  0.00     0.183 C 
ATOM     19  C   UNL d   1       3.402  -0.151   1.482  0.00  0.00     0.134 C 
ENDBRANCH  11  14
ENDBRANCH   8  11
ENDBRANCH   2   5
BRANCH   1  20
ATOM     20  C   UNL d   1      -2.380  -0.134  -7.539  0.00  0.00     0.134 A 
ATOM     21  CA  UNL d   1      -3.316   0.707  -8.131  0.00  0.00     0.139 A 
ATOM     22  N   UNL d   1      -3.745   0.543  -9.427  0.00  0.00    -0.357 N 
ATOM     23  C   UNL d   1      -3.230  -0.533 -10.065  0.00  0.00     0.105 A 
ATOM     24  HN  UNL d   1      -4.402   1.184  -9.872  1.00  0.00     0.165 HD
ATOM     25  C   UNL d   1      -2.346  -1.412  -9.452  0.00  0.00     0.105 A 
ATOM     26  N   UNL d   1      -1.899  -1.242  -8.182  0.00  0.00    -0.358 N 
ATOM     27  HN  UNL d   1      -1.251  -1.893  -7.739  1.00  0.00     0.165 HD
BRANCH  21  28
ATOM     28  C   UNL d   1      -4.002   1.795  -7.388  0.00  0.00     0.196 C 
ATOM     29  O   UNL d   1      -4.218   1.794  -6.191  0.00  0.00    -0.645 OA
BRANCH  28  30
ATOM     30  OXT UNL d   1      -4.466   2.741  -8.244  0.00  0.00    -0.772 OA
ATOM     31  HXT UNL d   1      -4.296   2.474  -9.175  0.00  0.00     0.167 HD
ENDBRANCH  28  30
ENDBRANCH  21  28
ENDBRANCH   1  20
TORSDOF 6
