REMARK  10 active torsions:
REMARK  status: ('A' for Active; 'I' for Inactive)
REMARK    1  A    between atoms: N_3  and  C_1 
REMARK    2  A    between atoms: N_4  and  C_1 
REMARK    3  A    between atoms: C_2  and  N_3 
REMARK    4  A    between atoms: C_14  and  C_2 
REMARK    5  A    between atoms: C_15  and  C_2 
REMARK    6  A    between atoms: C_16  and  C_2 
REMARK    7  A    between atoms: C_8  and  N_4 
REMARK    8  A    between atoms: O_18  and  C_14 
REMARK    9  A    between atoms: O_19  and  C_15 
REMARK   10  A    between atoms: O_17  and  C_16 
ROOT
ATOM      1  C   UNL d   1       1.019   0.061   0.247  0.00  0.00     0.173 C 
ATOM      2  S   UNL d   1       2.419   0.838   0.739  0.00  0.00    -0.041 SA
ENDROOT
BRANCH   1   3
ATOM      3  N   UNL d   1       0.575  -0.029  -1.055  0.00  0.00    -0.351 N 
ATOM      4  H   UNL d   1      -0.429  -0.162  -1.126  0.00  0.00     0.163 HD
BRANCH   3   5
ATOM      5  C   UNL d   1       1.194   0.386  -2.357  0.00  0.00     0.095 C 
BRANCH   5   6
ATOM      6  C   UNL d   1       2.590  -0.269  -2.548  0.00  0.00     0.199 C 
BRANCH   6   7
ATOM      7  O   UNL d   1       2.530  -1.672  -2.264  0.00  0.00    -0.398 OA
ATOM      8  H   UNL d   1       2.523  -1.738  -1.290  0.00  0.00     0.209 HD
ENDBRANCH   6   7
ENDBRANCH   5   6
BRANCH   5   9
ATOM      9  C   UNL d   1       0.262  -0.166  -3.484  0.00  0.00     0.199 C 
BRANCH   9  10
ATOM     10  O   UNL d   1      -0.062  -1.543  -3.281  0.00  0.00    -0.398 OA
ATOM     11  H   UNL d   1       0.760  -1.978  -2.964  0.00  0.00     0.209 HD
ENDBRANCH   9  10
ENDBRANCH   5   9
BRANCH   5  12
ATOM     12  C   UNL d   1       1.307   1.919  -2.515  0.00  0.00     0.199 C 
BRANCH  12  13
ATOM     13  O   UNL d   1       0.035   2.558  -2.403  0.00  0.00    -0.398 OA
ATOM     14  H   UNL d   1      -0.340   2.654  -3.295  0.00  0.00     0.209 HD
ENDBRANCH  12  13
ENDBRANCH   5  12
ENDBRANCH   3   5
ENDBRANCH   1   3
BRANCH   1  15
ATOM     15  N   UNL d   1       0.197  -0.722   1.053  0.00  0.00    -0.333 N 
ATOM     16  H   UNL d   1      -0.154  -1.546   0.569  0.00  0.00     0.168 HD
BRANCH  15  17
ATOM     17  C   UNL d   1       0.157  -0.779   2.458  0.00  0.00     0.036 A 
ATOM     18  C   UNL d   1      -0.045  -2.020   3.073  0.00  0.00     0.056 A 
ATOM     19  C   UNL d   1      -0.085  -2.115   4.465  0.00  0.00     0.074 A 
ATOM     20 CL   UNL d   1      -0.262  -3.658   5.204  0.00  0.00    -0.081 Cl
ATOM     21  C   UNL d   1       0.034  -0.965   5.242  0.00  0.00     0.138 A 
ATOM     22  C   UNL d   1       0.192   0.279   4.645  0.00  0.00     0.046 A 
ATOM     23  F   UNL d   1      -0.010  -1.035   6.581  0.00  0.00    -0.204 F 
ATOM     24  C   UNL d   1       0.251   0.372   3.253  0.00  0.00     0.032 A 
ENDBRANCH  15  17
ENDBRANCH   1  15
TORSDOF 10
