REMARK  5 active torsions:
REMARK  status: ('A' for Active; 'I' for Inactive)
REMARK    1  A    between atoms: O_12  and  C_1 
REMARK    2  A    between atoms: C_2  and  C_8 
REMARK       I    between atoms: N_7  and  C_2 
REMARK    3  A    between atoms: O_13  and  C_3 
REMARK    4  A    between atoms: C_8  and  C_5 
REMARK    5  A    between atoms: N_10  and  N_7 
ROOT
ATOM      1  C   UNL d   1       1.404  -0.195   0.057  0.00  0.00     0.102 A 
ATOM      2  C   UNL d   1       0.626  -1.357  -0.035  0.00  0.00     0.101 A 
ATOM      3  C   UNL d   1       0.759   1.054   0.158  0.00  0.00     0.047 A 
ATOM      4  C   UNL d   1      -0.640   1.173   0.118  0.00  0.00    -0.047 A 
ATOM      5  C   UNL d   1      -0.772  -1.231  -0.087  0.00  0.00     0.040 A 
ATOM      6  C   UNL d   1      -1.402   0.015  -0.022  0.00  0.00     0.010 A 
ENDROOT
BRANCH   4   7
ATOM      7  C   UNL d   1      -1.297   2.519   0.311  0.00  0.00     0.142 C 
BRANCH   7   8
ATOM      8  C   UNL d   1      -2.138   3.057  -0.825  0.00  0.00     0.236 C 
ATOM      9  O   UNL d   1      -3.087   3.828  -0.613  0.00  0.00    -0.272 OA
ATOM     10  N   UNL d   1      -1.725   2.746  -2.111  0.00  0.00    -0.292 N 
ATOM     11  H   UNL d   1      -1.106   1.952  -2.264  0.00  0.00     0.183 HD
BRANCH  10  12
ATOM     12  N   UNL d   1      -2.514   3.199  -3.200  0.00  0.00    -0.242 NA
ATOM     13  C   UNL d   1      -1.731   4.072  -4.072  0.00  0.00     0.133 C 
ATOM     14  H   UNL d   1      -3.283   3.755  -2.797  0.00  0.00     0.146 HD
ENDBRANCH  10  12
ENDBRANCH   7   8
ENDBRANCH   4   7
BRANCH   1  15
ATOM     15  O   UNL d   1       2.773  -0.294   0.089  0.00  0.00    -0.353 OA
ATOM     16  C   UNL d   1       3.487   0.824  -0.441  0.00  0.00     0.210 C 
ENDBRANCH   1  15
BRANCH   2  17
ATOM     17  O   UNL d   1       1.014  -2.666  -0.113  0.00  0.00    -0.353 OA
ATOM     18  C   UNL d   1       2.381  -3.022   0.006  0.00  0.00     0.210 C 
ENDBRANCH   2  17
TORSDOF 5
