REMARK  7 active torsions:
REMARK  status: ('A' for Active; 'I' for Inactive)
REMARK    1  A    between atoms: C_4  and  C_1 
REMARK    2  A    between atoms: C_6  and  C_3 
REMARK    3  A    between atoms: C_9  and  C_4 
REMARK    4  A    between atoms: C_8  and  C_6 
REMARK    5  A    between atoms: O_13  and  C_8 
REMARK    6  A    between atoms: S_10  and  C_9 
REMARK    7  A    between atoms: C_14  and  S_10 
ROOT
ATOM      1  C   UNL d   1       0.090   1.160   0.081  0.00  0.00     0.052 A 
ATOM      2  S   UNL d   1       1.517   0.664   0.897  0.00  0.00    -0.091 SA
ATOM      3  C   UNL d   1       1.221  -0.997   0.598  0.00  0.00    -0.007 A 
ATOM      4  C   UNL d   1      -0.543   0.078  -0.498  0.00  0.00     0.024 A 
ATOM      5  C   UNL d   1       0.098  -1.163  -0.190  0.00  0.00     0.016 A 
ENDROOT
BRANCH   1   6
ATOM      6  C   UNL d   1      -0.263   2.579   0.101  0.00  0.00     0.175 C 
ATOM      7  O   UNL d   1       0.591   3.466   0.221  0.00  0.00    -0.291 OA
BRANCH   6   8
ATOM      8  C   UNL d   1      -1.710   3.005  -0.118  0.00  0.00     0.164 C 
BRANCH   8   9
ATOM      9  S   UNL d   1      -2.889   2.142   0.977  0.00  0.00    -0.122 SA
BRANCH   9  10
ATOM     10  C   UNL d   1      -4.454   2.836   0.452  0.00  0.00     0.001 A 
ATOM     11  C   UNL d   1      -5.573   1.994   0.402  0.00  0.00     0.018 A 
ATOM     12  C   UNL d   1      -6.827   2.491   0.029  0.00  0.00     0.001 A 
ATOM     13  C   UNL d   1      -6.975   3.838  -0.290  0.00  0.00     0.000 A 
ATOM     14  C   UNL d   1      -5.874   4.689  -0.226  0.00  0.00     0.001 A 
ATOM     15  C   UNL d   1      -4.622   4.191   0.150  0.00  0.00     0.018 A 
ENDBRANCH   9  10
ENDBRANCH   8   9
ENDBRANCH   6   8
ENDBRANCH   1   6
BRANCH   3  16
ATOM     16  C   UNL d   1       2.123  -2.016   1.234  0.00  0.00     0.156 C 
BRANCH  16  17
ATOM     17  C   UNL d   1       2.183  -3.310   0.453  0.00  0.00     0.144 C 
ATOM     18  O   UNL d   1       1.834  -4.390   0.897  0.00  0.00    -0.650 OA
BRANCH  17  19
ATOM     19  O   UNL d   1       2.698  -3.176  -0.793  0.00  0.00    -0.776 OA
ATOM     20  H   UNL d   1       2.932  -2.257  -1.025  0.00  0.00     0.167 HD
ENDBRANCH  17  19
ENDBRANCH  16  17
ENDBRANCH   3  16
TORSDOF 7
