REMARK  1 active torsions:
REMARK  status: ('A' for Active; 'I' for Inactive)
REMARK    1  A    between atoms: N_9  and  C_4 
ROOT
ATOM      1  C   UNL d   1      -2.484   0.553  -0.197  0.00  0.00     0.067 C 
ATOM      2  C   UNL d   1      -1.247   1.392  -0.166  0.00  0.00     0.200 C 
ATOM      3  S   UNL d   1      -2.499  -0.821   0.845  0.00  0.00    -0.120 SA
ATOM      4  C   UNL d   1      -3.364   0.808  -1.180  0.00  0.00     0.107 C 
ATOM      5  C   UNL d   1       0.061   0.678  -0.025  0.00  0.00     0.022 A 
ATOM      6  C   UNL d   1       0.145  -0.727   0.067  0.00  0.00    -0.034 A 
ATOM      7  C   UNL d   1      -1.068  -1.620   0.088  0.00  0.00     0.119 C 
ATOM      8  O   UNL d   1      -1.283   2.612  -0.320  0.00  0.00    -0.286 OA
ATOM      9  C   UNL d   1       1.234   1.446  -0.049  0.00  0.00     0.016 A 
ATOM     10  C   UNL d   1       1.415  -1.331   0.075  0.00  0.00     0.009 A 
ATOM     11  C   UNL d   1       2.486   0.830  -0.016  0.00  0.00     0.001 A 
ATOM     12  C   UNL d   1       2.574  -0.559   0.034  0.00  0.00     0.001 A 
ENDROOT
BRANCH   4  13
ATOM     13  N   UNL d   1      -4.524   0.177  -1.626  0.00  0.00    -0.397 N 
ATOM     14  C   UNL d   1      -5.361  -0.704  -0.815  0.00  0.00     0.148 C 
ATOM     15  C   UNL d   1      -4.908   0.235  -3.037  0.00  0.00     0.148 C 
ENDBRANCH   4  13
TORSDOF 1
