REMARK  4 active torsions:
REMARK  status: ('A' for Active; 'I' for Inactive)
REMARK    1  A    between atoms: C_2  and  C_1 
REMARK       I    between atoms: N_6  and  C_2 
REMARK    2  A    between atoms: N_8  and  N_6 
REMARK    3  A    between atoms: C_14  and  N_8 
REMARK    4  A    between atoms: C_15  and  C_10 
ROOT
ATOM      1  N   UNL d   1       0.537   3.549  -0.344  0.00  0.00    -0.203 NA
ATOM      2  H   UNL d   1       1.114   2.808  -0.764  0.00  0.00     0.153 HD
ENDROOT
BRANCH   1   3
ATOM      3  N   UNL d   1      -0.148   3.050   0.782  0.00  0.00    -0.281 N 
ATOM      4  C   UNL d   1      -0.220   1.669   0.920  0.00  0.00     0.291 C 
ATOM      5  O   UNL d   1       0.424   0.912   0.189  0.00  0.00    -0.264 OA
ATOM      6  H   UNL d   1      -0.884   3.633   1.169  0.00  0.00     0.184 HD
BRANCH   4   7
ATOM      7  C   UNL d   1      -1.097   1.204   1.963  0.00  0.00     0.168 A 
ATOM      8  O   UNL d   1      -1.703   2.108   2.786  0.00  0.00    -0.233 OA
ATOM      9  N   UNL d   1      -2.460   1.438   3.734  0.00  0.00    -0.272 N 
ATOM     10  C   UNL d   1      -2.301   0.141   3.462  0.00  0.00     0.117 A 
ATOM     11  HN  UNL d   1      -3.020   1.849   4.481  1.00  0.00     0.194 HD
ATOM     12  C   UNL d   1      -1.466  -0.066   2.352  0.00  0.00     0.064 A 
ENDBRANCH   4   7
ENDBRANCH   1   3
BRANCH   1  13
ATOM     13  C   UNL d   1       1.308   4.715  -0.099  0.00  0.00     0.027 A 
ATOM     14  C   UNL d   1       2.458   4.937  -0.869  0.00  0.00     0.026 A 
ATOM     15  C   UNL d   1       3.184   6.130  -0.766  0.00  0.00     0.009 A 
ATOM     16  C   UNL d   1       2.765   7.153   0.093  0.00  0.00    -0.055 A 
ATOM     17  C   UNL d   1       1.608   6.942   0.854  0.00  0.00     0.009 A 
ATOM     18  C   UNL d   1       0.885   5.744   0.750  0.00  0.00     0.026 A 
BRANCH  16  19
ATOM     19  C   UNL d   1       3.510   8.474   0.186  0.00  0.00     0.010 C 
ATOM     20  C   UNL d   1       4.944   8.285   0.685  0.00  0.00     0.015 C 
ATOM     21  C   UNL d   1       3.496   9.223  -1.151  0.00  0.00     0.015 C 
ENDBRANCH  16  19
ENDBRANCH   1  13
TORSDOF 4
