REMARK  6 active torsions:
REMARK  status: ('A' for Active; 'I' for Inactive)
REMARK    1  A    between atoms: C_11  and  C_3 
REMARK    2  A    between atoms: C_12  and  C_4 
REMARK    3  A    between atoms: C_14  and  C_10 
REMARK    4  A    between atoms: O_16  and  C_12 
REMARK    5  A    between atoms: C_15  and  C_17 
REMARK    6  A    between atoms: C_20  and  O_16 
ROOT
ATOM      1  C   UNL d   1       0.086  -0.752  -0.161  0.00  0.00     0.145 A 
ATOM      2  N   UNL d   1       0.224   0.646  -0.223  0.00  0.00    -0.234 N 
ATOM      3  C   UNL d   1      -0.889   1.466  -0.068  0.00  0.00     0.144 A 
ATOM      4  C   UNL d   1       1.358  -1.280  -0.263  0.00  0.00     0.102 A 
ATOM      5  N   UNL d   1      -1.131  -1.359  -0.021  0.00  0.00    -0.336 N 
ATOM      6  HN  UNL d   1      -1.212  -2.375   0.001  1.00  0.00     0.167 HD
ATOM      7  C   UNL d   1      -2.107   0.906   0.095  0.00  0.00     0.071 A 
ATOM      8  N   UNL d   1       1.514   0.990  -0.439  0.00  0.00    -0.302 N 
ATOM      9  HN  UNL d   1       1.893   1.929  -0.558  1.00  0.00     0.186 HD
ATOM     10  C   UNL d   1      -2.186  -0.594   0.083  0.00  0.00     0.120 A 
ATOM     11  C   UNL d   1       2.183  -0.161  -0.463  0.00  0.00     0.129 A 
ENDROOT
BRANCH   4  12
ATOM     12  C   UNL d   1       1.777  -2.661  -0.173  0.00  0.00     0.303 C 
ATOM     13  O   UNL d   1       2.929  -3.002  -0.419  0.00  0.00    -0.259 OA
BRANCH  12  14
ATOM     14  O   UNL d   1       0.764  -3.509   0.274  0.00  0.00    -0.275 OA
BRANCH  14  15
ATOM     15  C   UNL d   1       1.137  -4.802   0.667  0.00  0.00     0.080 A 
ATOM     16  C   UNL d   1       2.192  -5.011   1.556  0.00  0.00     0.053 A 
ATOM     17  C   UNL d   1       2.548  -6.313   1.927  0.00  0.00     0.050 A 
ATOM     18  C   UNL d   1       1.781  -7.388   1.448  0.00  0.00     0.016 A 
ATOM     19  C   UNL d   1       0.693  -7.165   0.598  0.00  0.00     0.004 A 
ATOM     20  C   UNL d   1       0.368  -5.868   0.201  0.00  0.00     0.037 A 
BRANCH  17  21
ATOM     21  C   UNL d   1       3.753  -6.558   2.799  0.00  0.00     0.417 C 
ATOM     22  F   UNL d   1       4.407  -5.419   3.160  0.00  0.00    -0.166 F 
ATOM     23  F   UNL d   1       3.439  -7.192   3.962  0.00  0.00    -0.166 F 
ATOM     24  F   UNL d   1       4.684  -7.341   2.185  0.00  0.00    -0.166 F 
ENDBRANCH  17  21
ENDBRANCH  14  15
ENDBRANCH  12  14
ENDBRANCH   4  12
BRANCH   3  25
ATOM     25  C   UNL d   1      -0.712   2.941  -0.059  0.00  0.00     0.434 C 
ATOM     26  F   UNL d   1       0.554   3.405  -0.130  0.00  0.00    -0.165 F 
ATOM     27  F   UNL d   1      -1.396   3.507  -1.089  0.00  0.00    -0.165 F 
ATOM     28  F   UNL d   1      -1.249   3.469   1.076  0.00  0.00    -0.165 F 
ENDBRANCH   3  25
BRANCH  10  29
ATOM     29  C   UNL d   1      -3.576  -1.228   0.199  0.00  0.00     0.432 C 
ATOM     30  F   UNL d   1      -4.572  -0.300   0.212  0.00  0.00    -0.165 F 
ATOM     31  F   UNL d   1      -3.848  -2.064  -0.838  0.00  0.00    -0.165 F 
ATOM     32  F   UNL d   1      -3.715  -1.955   1.339  0.00  0.00    -0.165 F 
ENDBRANCH  10  29
TORSDOF 6
