REMARK  2 active torsions:
REMARK  status: ('A' for Active; 'I' for Inactive)
REMARK    1  A    between atoms: C_9  and  C_6 
REMARK    2  A    between atoms: O_15  and  C_13 
ROOT
ATOM      1  C   UNL d   1      -2.510  -0.643  -0.046  0.00  0.00     0.057 A 
ATOM      2  S   UNL d   1      -2.557   1.097  -0.073  0.00  0.00    -0.085 SA
ATOM      3  C   UNL d   1      -0.127  -0.029  -0.024  0.00  0.00     0.038 A 
ATOM      4  C   UNL d   1      -0.791   1.202  -0.035  0.00  0.00     0.022 A 
ATOM      5  C   UNL d   1      -1.098  -1.156  -0.036  0.00  0.00     0.201 A 
ATOM      6  C   UNL d   1      -3.653  -1.345  -0.038  0.00  0.00     0.037 C 
ATOM      7  C   UNL d   1       1.273  -0.075  -0.005  0.00  0.00    -0.045 A 
ATOM      8  C   UNL d   1      -0.099   2.409  -0.019  0.00  0.00     0.043 A 
ATOM      9  C   UNL d   1       1.970   1.153   0.007  0.00  0.00     0.031 A 
ATOM     10  C   UNL d   1       1.289   2.375   0.003  0.00  0.00     0.035 A 
ATOM     11  O   UNL d   1      -0.786  -2.332  -0.049  0.00  0.00    -0.286 OA
ATOM     12 CL   UNL d   1       2.175   3.849   0.022  0.00  0.00    -0.084 Cl
ATOM     13  C   UNL d   1       2.100  -1.328  -0.003  0.00  0.00     0.049 C 
ENDROOT
BRANCH   6  14
ATOM     14  C   UNL d   1      -3.825  -2.800   0.015  0.00  0.00    -0.002 A 
ATOM     15  C   UNL d   1      -4.042  -3.574  -1.133  0.00  0.00     0.075 A 
ATOM     16  C   UNL d   1      -4.335  -4.933  -1.033  0.00  0.00     0.037 A 
ATOM     17  C   UNL d   1      -4.416  -5.537   0.220  0.00  0.00     0.003 A 
ATOM     18  C   UNL d   1      -4.197  -4.782   1.371  0.00  0.00     0.001 A 
ATOM     19  C   UNL d   1      -3.901  -3.420   1.270  0.00  0.00     0.014 A 
BRANCH  15  20
ATOM     20  O   UNL d   1      -4.016  -3.052  -2.398  0.00  0.00    -0.360 OA
ATOM     21  H   UNL d   1      -3.657  -2.152  -2.349  0.00  0.00     0.217 HD
ENDBRANCH  15  20
ENDBRANCH   6  14
TORSDOF 2
