REMARK  6 active torsions:
REMARK  status: ('A' for Active; 'I' for Inactive)
REMARK    1  A    between atoms: N_8  and  C_2 
REMARK    2  A    between atoms: S_11  and  C_3 
REMARK    3  A    between atoms: N_16  and  C_10 
REMARK    4  A    between atoms: C_14  and  S_11 
REMARK    5  A    between atoms: C_12  and  C_14 
REMARK    6  A    between atoms: C_13  and  C_12 
ROOT
ATOM      1  S   UNL d   1      -1.333  -0.209   0.287  0.00  0.00    -0.026 SA
ATOM      2  C   UNL d   1      -0.517   1.108  -0.489  0.00  0.00     0.166 A 
ATOM      3  C   UNL d   1       0.085  -1.139   0.070  0.00  0.00     0.130 A 
ATOM      4  N   UNL d   1       0.727   0.806  -0.821  0.00  0.00    -0.278 N 
ATOM      5  HN  UNL d   1       1.365   1.464  -1.269  1.00  0.00     0.189 HD
ATOM      6  N   UNL d   1       1.076  -0.492  -0.500  0.00  0.00    -0.286 N 
ATOM      7  HN  UNL d   1       1.993  -0.899  -0.684  1.00  0.00     0.188 HD
ENDROOT
BRANCH   3   8
ATOM      8  S   UNL d   1       0.206  -2.817   0.553  0.00  0.00    -0.096 SA
BRANCH   8   9
ATOM      9  C   UNL d   1       1.900  -3.196   0.019  0.00  0.00     0.165 C 
BRANCH   9  10
ATOM     10  C   UNL d   1       2.265  -4.659   0.222  0.00  0.00     0.169 C 
ATOM     11  O   UNL d   1       1.481  -5.514   0.631  0.00  0.00    -0.291 OA
BRANCH  10  12
ATOM     12  C   UNL d   1       3.671  -5.080  -0.093  0.00  0.00     0.011 A 
ATOM     13  C   UNL d   1       4.613  -4.199  -0.644  0.00  0.00     0.017 A 
ATOM     14  C   UNL d   1       5.925  -4.627  -0.880  0.00  0.00     0.025 A 
ATOM     15  C   UNL d   1       6.300  -5.934  -0.573  0.00  0.00     0.034 A 
ATOM     16  C   UNL d   1       5.370  -6.826  -0.048  0.00  0.00     0.025 A 
ATOM     17 CL   UNL d   1       7.923  -6.440  -0.836  0.00  0.00    -0.084 Cl
ATOM     18  C   UNL d   1       4.058  -6.401   0.189  0.00  0.00     0.017 A 
ENDBRANCH  10  12
ENDBRANCH   9  10
ENDBRANCH   8   9
ENDBRANCH   3   8
BRANCH   2  19
ATOM     19  N   UNL d   1      -1.208   2.265  -0.679  0.00  0.00    -0.332 N 
ATOM     20  C   UNL d   1      -0.585   3.192  -1.327  0.00  0.00     0.179 C 
ATOM     21  HN  UNL d   1      -2.158   2.393  -0.331  1.00  0.00     0.168 HD
BRANCH  20  22
ATOM     22  N   UNL d   1      -1.083   4.436  -1.652  0.00  0.00    -0.386 N 
ATOM     23  C   UNL d   1      -2.441   4.836  -1.318  0.00  0.00     0.149 C 
ATOM     24  C   UNL d   1      -0.301   5.411  -2.395  0.00  0.00     0.149 C 
ENDBRANCH  20  22
ENDBRANCH   2  19
TORSDOF 6
