REMARK  12 active torsions:
REMARK  status: ('A' for Active; 'I' for Inactive)
REMARK    1  A    between atoms: C_5  and  O_7 
REMARK    2  A    between atoms: C_10  and  C_5 
REMARK    3  A    between atoms: O_7  and  C_13 
REMARK    4  A    between atoms: C_24  and  C_19 
REMARK    5  A    between atoms: O_23  and  C_20 
REMARK    6  A    between atoms: C_25  and  O_23 
REMARK    7  A    between atoms: C_26  and  C_24 
REMARK    8  A    between atoms: C_27  and  C_25 
REMARK    9  A    between atoms: C_31  and  C_26 
REMARK   10  A    between atoms: C_30  and  C_27 
REMARK   11  A    between atoms: C_28  and  C_31 
REMARK   12  A    between atoms: C_29  and  C_30 
ROOT
ATOM      1  C   UNL d   1       1.198   0.785   0.037  0.00  0.00    -0.040 A 
ATOM      2  C   UNL d   1      -1.158   0.882  -0.031  0.00  0.00    -0.042 A 
ATOM      3  C   UNL d   1       0.682  -0.526   0.134  0.00  0.00    -0.019 A 
ATOM      4  C   UNL d   1      -0.759  -0.467   0.059  0.00  0.00    -0.019 A 
ATOM      5  C   UNL d   1       0.062   1.784  -0.081  0.00  0.00     0.078 A 
ATOM      6  C   UNL d   1       1.524  -1.610   0.325  0.00  0.00     0.015 A 
ATOM      7  C   UNL d   1      -1.698  -1.481   0.079  0.00  0.00     0.013 A 
ATOM      8  C   UNL d   1       2.561   1.020   0.094  0.00  0.00     0.045 A 
ATOM      9  C   UNL d   1      -2.498   1.236  -0.052  0.00  0.00     0.015 A 
ATOM     10  C   UNL d   1       3.403  -0.083   0.277  0.00  0.00     0.080 A 
ATOM     11  C   UNL d   1       2.899  -1.383   0.410  0.00  0.00     0.038 A 
ATOM     12  C   UNL d   1      -3.051  -1.135   0.038  0.00  0.00     0.008 A 
ATOM     13  C   UNL d   1      -3.462   0.214  -0.014  0.00  0.00    -0.058 A 
ENDROOT
BRANCH  10  14
ATOM     14  O   UNL d   1       4.775   0.224   0.436  0.00  0.00    -0.275 OA
BRANCH  14  15
ATOM     15  C   UNL d   1       5.831  -0.678   0.350  0.00  0.00     0.298 C 
ATOM     16  O   UNL d   1       5.800  -1.825  -0.054  0.00  0.00    -0.259 OA
BRANCH  15  17
ATOM     17  C   UNL d   1       7.047  -0.019   0.902  0.00  0.00     0.040 A 
ATOM     18  C   UNL d   1       8.204  -0.776   1.127  0.00  0.00     0.020 A 
ATOM     19  C   UNL d   1       9.327  -0.188   1.727  0.00  0.00     0.038 A 
ATOM     20  C   UNL d   1       9.305   1.156   2.107  0.00  0.00     0.068 A 
ATOM     21  C   UNL d   1       8.162   1.916   1.839  0.00  0.00     0.038 A 
ATOM     22  C   UNL d   1       7.045   1.337   1.245  0.00  0.00     0.020 A 
BRANCH  20  23
ATOM     23  O   UNL d   1      10.430   1.631   2.741  0.00  0.00    -0.351 OA
BRANCH  23  24
ATOM     24  C   UNL d   1      10.302   2.966   3.236  0.00  0.00     0.175 C 
BRANCH  24  25
ATOM     25  C   UNL d   1      11.535   3.403   4.019  0.00  0.00     0.027 C 
BRANCH  25  26
ATOM     26  C   UNL d   1      11.334   4.849   4.479  0.00  0.00     0.002 C 
BRANCH  26  27
ATOM     27  C   UNL d   1      12.519   5.394   5.268  0.00  0.00    -0.004 C 
ATOM     28  C   UNL d   1      12.272   6.837   5.682  0.00  0.00     0.005 C 
ENDBRANCH  26  27
ENDBRANCH  25  26
ENDBRANCH  24  25
ENDBRANCH  23  24
ENDBRANCH  20  23
ENDBRANCH  15  17
ENDBRANCH  14  15
ENDBRANCH  10  14
BRANCH  13  29
ATOM     29  C   UNL d   1      -4.938   0.543   0.009  0.00  0.00     0.038 C 
BRANCH  29  30
ATOM     30  C   UNL d   1      -5.398   1.296  -1.240  0.00  0.00     0.005 C 
BRANCH  30  31
ATOM     31  C   UNL d   1      -6.904   1.563  -1.206  0.00  0.00    -0.000 C 
BRANCH  31  32
ATOM     32  C   UNL d   1      -7.343   2.354  -2.437  0.00  0.00    -0.005 C 
ATOM     33  C   UNL d   1      -8.836   2.638  -2.420  0.00  0.00     0.005 C 
ENDBRANCH  31  32
ENDBRANCH  30  31
ENDBRANCH  29  30
ENDBRANCH  13  29
TORSDOF 12
