REMARK  3 active torsions:
REMARK  status: ('A' for Active; 'I' for Inactive)
REMARK    1  A    between atoms: N_5  and  C_1 
REMARK    2  A    between atoms: S_8  and  C_2 
REMARK    3  A    between atoms: C_11  and  S_8 
ROOT
ATOM      1  C   UNL d   1      -1.335  -0.831   0.123  0.00  0.00     0.209 A 
ATOM      2  C   UNL d   1      -0.014  -1.250   0.088  0.00  0.00     0.128 A 
ATOM      3  N   UNL d   1      -1.415   0.553   0.129  0.00  0.00    -0.331 N 
ATOM      4  HN  UNL d   1      -2.257   1.126   0.183  1.00  0.00     0.168 HD
ATOM      5  N   UNL d   1       0.712  -0.081  -0.003  0.00  0.00    -0.339 N 
ATOM      6  C   UNL d   1      -0.173   0.967   0.050  0.00  0.00     0.185 A 
ATOM      7  C   UNL d   1       2.131   0.108  -0.183  0.00  0.00     0.158 C 
ENDROOT
BRANCH   2   8
ATOM      8  S   UNL d   1       0.741  -2.813  -0.010  0.00  0.00    -0.069 SA
BRANCH   8   9
ATOM      9  C   UNL d   1       0.841  -3.251   1.719  0.00  0.00     0.007 A 
ATOM     10  C   UNL d   1      -0.227  -3.886   2.368  0.00  0.00     0.022 A 
ATOM     11  C   UNL d   1      -0.094  -4.332   3.687  0.00  0.00     0.043 A 
ATOM     12  C   UNL d   1       1.113  -4.155   4.352  0.00  0.00     0.116 A 
ATOM     13  C   UNL d   1       2.187  -3.534   3.725  0.00  0.00     0.043 A 
ATOM     14  F   UNL d   1       1.253  -4.609   5.604  0.00  0.00    -0.206 F 
ATOM     15  C   UNL d   1       2.051  -3.083   2.408  0.00  0.00     0.022 A 
ENDBRANCH   8   9
ENDBRANCH   2   8
BRANCH   1  16
ATOM     16  N   UNL d   1      -2.556  -1.609   0.100  0.00  0.00    -0.095 N 
ATOM     17  O   UNL d   1      -2.454  -2.841   0.026  0.00  0.00    -0.530 OA
ATOM     18  O   UNL d   1      -3.628  -0.990   0.146  0.00  0.00    -0.530 OA
ENDBRANCH   1  16
TORSDOF 3
