REMARK  5 active torsions:
REMARK  status: ('A' for Active; 'I' for Inactive)
REMARK    1  A    between atoms: C_2  and  C_1 
REMARK    2  A    between atoms: C_3  and  C_1 
REMARK    3  A    between atoms: C_5  and  C_2 
REMARK    4  A    between atoms: O_11  and  C_3 
REMARK    5  A    between atoms: N_10  and  C_4 
ROOT
ATOM      1  C   UNL d   1       0.796  -0.065   0.016  0.00  0.00     0.112 C 
ATOM      2  C   UNL d   1       2.157   0.030   0.013  0.00  0.00     0.021 C 
ATOM      3  C   UNL d   1       3.015  -0.448   1.175  0.00  0.00     0.069 C 
ENDROOT
BRANCH   1   4
ATOM      4  C   UNL d   1       0.034  -0.737   1.120  0.00  0.00     0.200 C 
ATOM      5  O   UNL d   1       0.471  -1.736   1.689  0.00  0.00    -0.286 OA
BRANCH   4   6
ATOM      6  C   UNL d   1      -1.327  -0.247   1.508  0.00  0.00     0.015 A 
ATOM      7  C   UNL d   1      -2.175  -1.161   2.158  0.00  0.00     0.017 A 
ATOM      8  C   UNL d   1      -3.473  -0.797   2.528  0.00  0.00     0.025 A 
ATOM      9  C   UNL d   1      -3.933   0.485   2.253  0.00  0.00     0.034 A 
ATOM     10  C   UNL d   1      -3.099   1.412   1.626  0.00  0.00     0.025 A 
ATOM     11 CL   UNL d   1      -5.536   0.930   2.688  0.00  0.00    -0.084 Cl
ATOM     12  C   UNL d   1      -1.792   1.054   1.267  0.00  0.00     0.017 A 
ENDBRANCH   4   6
ENDBRANCH   1   4
BRANCH   1  13
ATOM     13  C   UNL d   1       0.061   0.414  -1.186  0.00  0.00     0.298 C 
ATOM     14  O   UNL d   1       0.354   1.419  -1.826  0.00  0.00    -0.259 OA
BRANCH  13  15
ATOM     15  O   UNL d   1      -0.987  -0.407  -1.445  0.00  0.00    -0.322 OA
ATOM     16  C   UNL d   1      -1.822  -0.014  -2.537  0.00  0.00     0.213 C 
ENDBRANCH  13  15
ENDBRANCH   1  13
BRANCH   2  17
ATOM     17  N   UNL d   1       2.884   0.558  -1.064  0.00  0.00    -0.397 N 
ATOM     18  C   UNL d   1       4.302   0.842  -1.123  0.00  0.00     0.146 C 
ATOM     19  H   UNL d   1       2.324   1.105  -1.727  0.00  0.00     0.158 HD
ENDBRANCH   2  17
TORSDOF 5
