REMARK  4 active torsions:
REMARK  status: ('A' for Active; 'I' for Inactive)
REMARK    1  A    between atoms: C_2  and  N_1 
REMARK    2  A    between atoms: C_15  and  C_3 
REMARK    3  A    between atoms: C_4  and  O_7 
REMARK    4  A    between atoms: O_7  and  C_8 
ROOT
ATOM      1  C   UNL d   1      -1.522   6.902  -0.786  0.00  0.00    -0.018 A 
ATOM      2  C   UNL d   1      -1.731   5.695  -1.490  0.00  0.00     0.084 A 
ATOM      3  C   UNL d   1      -1.244   8.059  -1.553  0.00  0.00     0.034 A 
ATOM      4  C   UNL d   1      -1.721   5.681  -2.897  0.00  0.00     0.039 A 
ATOM      5  C   UNL d   1      -1.192   8.021  -2.947  0.00  0.00     0.034 A 
ATOM      6  C   UNL d   1      -1.432   6.835  -3.623  0.00  0.00     0.026 A 
ATOM      7 CL   UNL d   1      -0.859   9.458  -3.832  0.00  0.00    -0.084 Cl
ENDROOT
BRANCH   2   8
ATOM      8  O   UNL d   1      -2.087   4.570  -0.791  0.00  0.00    -0.293 OA
BRANCH   8   9
ATOM      9  C   UNL d   1      -1.677   3.309  -1.162  0.00  0.00     0.148 A 
ATOM     10  C   UNL d   1      -0.459   3.029  -1.775  0.00  0.00     0.059 A 
ATOM     11  C   UNL d   1      -0.100   1.694  -1.990  0.00  0.00     0.041 A 
ATOM     12  C   UNL d   1      -0.954   0.684  -1.544  0.00  0.00     0.118 A 
ATOM     13  C   UNL d   1      -2.135   1.041  -0.918  0.00  0.00     0.126 A 
ATOM     14  N   UNL d   1      -2.509   2.331  -0.725  0.00  0.00    -0.344 N 
ATOM     15  HN  UNL d   1      -3.390   2.559  -0.264  1.00  0.00     0.167 HD
BRANCH  12  16
ATOM     16  N   UNL d   1      -0.617  -0.721  -1.708  0.00  0.00    -0.114 N 
ATOM     17  O   UNL d   1      -1.396  -1.564  -1.236  0.00  0.00    -0.532 OA
ATOM     18  O   UNL d   1       0.433  -0.993  -2.304  0.00  0.00    -0.532 OA
ENDBRANCH  12  16
ENDBRANCH   8   9
ENDBRANCH   2   8
BRANCH   1  19
ATOM     19  C   UNL d   1      -1.610   7.108   0.732  0.00  0.00     0.021 C 
ATOM     20  C   UNL d   1      -0.611   6.332   1.601  0.00  0.00     0.009 C 
ATOM     21  C   UNL d   1      -1.039   4.924   1.989  0.00  0.00     0.001 C 
ATOM     22  C   UNL d   1      -2.497   4.805   2.429  0.00  0.00     0.000 C 
ATOM     23  C   UNL d   1      -3.508   5.630   1.635  0.00  0.00     0.001 C 
ATOM     24  C   UNL d   1      -3.027   7.038   1.319  0.00  0.00     0.009 C 
ENDBRANCH   1  19
TORSDOF 4
