REMARK  8 active torsions:
REMARK  status: ('A' for Active; 'I' for Inactive)
REMARK    1  A    between atoms: C_15  and  N_3 
REMARK    2  A    between atoms: C_16  and  N_4 
REMARK    3  A    between atoms: C_11  and  N_14 
REMARK    4  A    between atoms: C_28  and  C_11 
REMARK    5  A    between atoms: N_13  and  C_12 
REMARK    6  A    between atoms: C_27  and  C_12 
REMARK    7  A    between atoms: O_39  and  C_33 
REMARK    8  A    between atoms: O_40  and  C_34 
ROOT
ATOM      1  N   UNL d   1      -2.945  -1.636  -0.818  0.00  0.00    -0.376 N 
ATOM      2  N   UNL d   1      -5.698  -0.787  -0.426  0.00  0.00    -0.376 N 
ATOM      3  C   UNL d   1      -3.542  -0.590  -1.673  0.00  0.00     0.143 C 
ATOM      4  C   UNL d   1      -5.101  -1.825   0.453  0.00  0.00     0.143 C 
ATOM      5  C   UNL d   1      -4.676   0.163  -0.928  0.00  0.00     0.143 C 
ATOM      6  C   UNL d   1      -3.947  -2.576  -0.264  0.00  0.00     0.143 C 
ENDROOT
BRANCH   1   7
ATOM      7  C   UNL d   1      -1.569  -1.825  -0.691  0.00  0.00     0.060 C 
ATOM      8  C   UNL d   1      -0.831  -1.270   0.288  0.00  0.00     0.116 C 
ATOM      9  C   UNL d   1       0.644  -1.268   0.516  0.00  0.00     0.272 C 
ATOM     10  C   UNL d   1      -1.425  -0.458   1.353  0.00  0.00     0.258 C 
ATOM     11  N   UNL d   1       0.890  -0.360   1.543  0.00  0.00    -0.241 N 
ATOM     12  O   UNL d   1       1.437  -1.973  -0.083  0.00  0.00    -0.266 OA
ATOM     13  C   UNL d   1      -0.260   0.251   1.989  0.00  0.00     0.306 C 
ATOM     14  O   UNL d   1      -0.432   1.242   2.675  0.00  0.00    -0.263 OA
ATOM     15  O   UNL d   1      -2.562  -0.383   1.761  0.00  0.00    -0.281 OA
BRANCH  11  16
ATOM     16  C   UNL d   1       2.179  -0.016   2.051  0.00  0.00     0.046 A 
ATOM     17  C   UNL d   1       3.358  -0.276   1.341  0.00  0.00     0.033 A 
ATOM     18  C   UNL d   1       4.612   0.101   1.851  0.00  0.00     0.039 A 
ATOM     19  C   UNL d   1       4.709   0.727   3.091  0.00  0.00     0.068 A 
ATOM     20  C   UNL d   1       3.550   0.986   3.810  0.00  0.00     0.039 A 
ATOM     21  C   UNL d   1       2.304   0.613   3.301  0.00  0.00     0.033 A 
BRANCH  19  22
ATOM     22  O   UNL d   1       5.862   1.164   3.678  0.00  0.00    -0.356 OA
ATOM     23  C   UNL d   1       7.042   0.456   3.322  0.00  0.00     0.210 C 
ENDBRANCH  19  22
ENDBRANCH  11  16
BRANCH   7  24
ATOM     24  C   UNL d   1      -0.932  -2.651  -1.745  0.00  0.00    -0.008 A 
ATOM     25  C   UNL d   1      -0.782  -4.032  -1.561  0.00  0.00     0.014 A 
ATOM     26  C   UNL d   1      -0.155  -4.817  -2.534  0.00  0.00     0.001 A 
ATOM     27  C   UNL d   1       0.325  -4.230  -3.703  0.00  0.00     0.000 A 
ATOM     28  C   UNL d   1       0.180  -2.856  -3.899  0.00  0.00     0.001 A 
ATOM     29  C   UNL d   1      -0.446  -2.070  -2.924  0.00  0.00     0.014 A 
ENDBRANCH   7  24
ENDBRANCH   1   7
BRANCH   2  30
ATOM     30  C   UNL d   1      -7.052  -0.456  -0.355  0.00  0.00     0.060 C 
ATOM     31  C   UNL d   1      -7.989  -1.057  -1.117  0.00  0.00     0.116 C 
ATOM     32  C   UNL d   1      -9.400  -0.668  -1.395  0.00  0.00     0.272 C 
ATOM     33  C   UNL d   1      -7.686  -2.215  -1.956  0.00  0.00     0.258 C 
ATOM     34  N   UNL d   1      -9.790  -1.395  -2.522  0.00  0.00    -0.241 N 
ATOM     35  O   UNL d   1     -10.052   0.125  -0.742  0.00  0.00    -0.266 OA
ATOM     36  C   UNL d   1      -8.785  -2.213  -2.990  0.00  0.00     0.306 C 
ATOM     37  O   UNL d   1      -8.641  -2.784  -4.056  0.00  0.00    -0.263 OA
ATOM     38  O   UNL d   1      -6.873  -3.102  -1.816  0.00  0.00    -0.281 OA
BRANCH  34  39
ATOM     39  C   UNL d   1     -11.039  -1.254  -3.199  0.00  0.00     0.046 A 
ATOM     40  C   UNL d   1     -11.871  -0.139  -3.023  0.00  0.00     0.033 A 
ATOM     41  C   UNL d   1     -13.087  -0.018  -3.719  0.00  0.00     0.039 A 
ATOM     42  C   UNL d   1     -13.505  -1.023  -4.588  0.00  0.00     0.068 A 
ATOM     43  C   UNL d   1     -12.694  -2.139  -4.761  0.00  0.00     0.039 A 
ATOM     44  C   UNL d   1     -11.480  -2.251  -4.081  0.00  0.00     0.033 A 
BRANCH  42  45
ATOM     45  O   UNL d   1     -14.661  -1.047  -5.312  0.00  0.00    -0.356 OA
ATOM     46  C   UNL d   1     -15.513   0.085  -5.209  0.00  0.00     0.210 C 
ENDBRANCH  42  45
ENDBRANCH  34  39
BRANCH  30  47
ATOM     47  C   UNL d   1      -7.443   0.652   0.546  0.00  0.00    -0.008 A 
ATOM     48  C   UNL d   1      -7.870   0.354   1.849  0.00  0.00     0.014 A 
ATOM     49  C   UNL d   1      -8.346   1.363   2.690  0.00  0.00     0.001 A 
ATOM     50  C   UNL d   1      -8.393   2.679   2.238  0.00  0.00     0.000 A 
ATOM     51  C   UNL d   1      -7.959   2.989   0.949  0.00  0.00     0.001 A 
ATOM     52  C   UNL d   1      -7.487   1.979   0.105  0.00  0.00     0.014 A 
ENDBRANCH  30  47
ENDBRANCH   2  30
TORSDOF 8
