REMARK  1 active torsions:
REMARK  status: ('A' for Active; 'I' for Inactive)
REMARK    1  A    between atoms: O_12  and  C_3 
ROOT
ATOM      1  C   UNL d   1       0.020   0.654   0.015  0.00  0.00     0.032 A 
ATOM      2  C   UNL d   1       2.439   0.760   0.073  0.00  0.00     0.120 A 
ATOM      3  C   UNL d   1       1.271   1.407   0.046  0.00  0.00     0.084 A 
ATOM      4  C   UNL d   1       0.083  -0.735   0.046  0.00  0.00     0.093 A 
ATOM      5  C   UNL d   1       2.515  -0.709   0.064  0.00  0.00     0.290 A 
ATOM      6  O   UNL d   1       1.319  -1.408   0.072  0.00  0.00    -0.275 OA
ATOM      7  C   UNL d   1      -1.241   1.257  -0.037  0.00  0.00     0.024 A 
ATOM      8  C   UNL d   1      -1.067  -1.522   0.052  0.00  0.00     0.045 A 
ATOM      9  C   UNL d   1      -2.422   0.487  -0.043  0.00  0.00    -0.055 A 
ATOM     10  C   UNL d   1      -2.334  -0.918   0.018  0.00  0.00    -0.053 A 
ATOM     11  O   UNL d   1       3.604  -1.272   0.060  0.00  0.00    -0.260 OA
ATOM     12  C   UNL d   1      -3.746   1.200  -0.116  0.00  0.00     0.049 C 
ATOM     13  C   UNL d   1      -3.538  -1.820   0.052  0.00  0.00     0.049 C 
ENDROOT
BRANCH   3  14
ATOM     14  O   UNL d   1       1.167   2.780   0.059  0.00  0.00    -0.360 OA
ATOM     15  H   UNL d   1       2.058   3.168   0.100  0.00  0.00     0.217 HD
ENDBRANCH   3  14
TORSDOF 1
