REMARK  1 active torsions:
REMARK  status: ('A' for Active; 'I' for Inactive)
REMARK    1  A    between atoms: C_2  and  C_5 
REMARK       I    between atoms: C_5  and  N_15 
ROOT
ATOM      1  C   UNL d   1      -3.130   0.335   0.167  0.00  0.00     0.147 A 
ATOM      2  N   UNL d   1      -2.440   0.887  -0.808  0.00  0.00    -0.336 N 
ATOM      3  HN  UNL d   1      -2.859   1.380  -1.596  1.00  0.00     0.168 HD
ATOM      4  C   UNL d   1      -8.416   1.462   0.243  0.00  0.00     0.264 C 
ATOM      5  S   UNL d   1      -2.137  -0.389   1.385  0.00  0.00    -0.052 SA
ATOM      6  N   UNL d   1      -4.495   0.364   0.196  0.00  0.00    -0.360 N 
ATOM      7  C   UNL d   1      -0.715   0.037   0.520  0.00  0.00     0.036 A 
ATOM      8  N   UNL d   1      -7.072   1.807   0.485  0.00  0.00    -0.346 N 
ATOM      9  C   UNL d   1      -1.085   0.719  -0.636  0.00  0.00     0.051 A 
ATOM     10  C   UNL d   1       0.631  -0.208   0.837  0.00  0.00     0.045 A 
ATOM     11  O   UNL d   1      -9.137   1.162   1.197  0.00  0.00    -0.267 OA
ATOM     12  C   UNL d   1      -5.202   0.946  -0.951  0.00  0.00     0.145 C 
ATOM     13  C   UNL d   1      -6.058   2.151  -0.526  0.00  0.00     0.146 C 
ATOM     14  C   UNL d   1      -0.082   1.173  -1.517  0.00  0.00     0.032 A 
ATOM     15  C   UNL d   1       1.606   0.258  -0.052  0.00  0.00     0.035 A 
ATOM     16  C   UNL d   1      -5.828   0.495   2.273  0.00  0.00     0.040 C 
ATOM     17  C   UNL d   1      -5.312  -0.388   1.143  0.00  0.00     0.126 C 
ATOM     18  C   UNL d   1      -6.569   1.773   1.862  0.00  0.00     0.127 C 
ATOM     19  C   UNL d   1       1.262   0.938  -1.215  0.00  0.00     0.026 A 
ATOM     20 CL   UNL d   1       3.268  -0.012   0.308  0.00  0.00    -0.084 Cl
ENDROOT
BRANCH   4  21
ATOM     21  C   UNL d   1      -8.981   1.515  -1.094  0.00  0.00     0.114 C 
ATOM     22  C   UNL d   1     -10.233   1.968  -1.506  0.00  0.00     0.046 C 
ATOM     23  N   UNL d   1     -10.478   1.850  -2.873  0.00  0.00    -0.298 N 
ATOM     24  C   UNL d   1     -11.329   2.538  -0.686  0.00  0.00     0.071 C 
ATOM     25  N   UNL d   1      -9.494   1.236  -3.498  0.00  0.00    -0.269 N 
ATOM     26  HN  UNL d   1     -11.319   2.197  -3.334  1.00  0.00     0.187 HD
ATOM     27  S   UNL d   1      -8.296   0.740  -2.460  0.00  0.00     0.009 SA
ATOM     28  HN  UNL d   1      -9.471   1.082  -4.506  1.00  0.00     0.195 HD
ENDBRANCH   4  21
TORSDOF 1
