REMARK  5 active torsions:
REMARK  status: ('A' for Active; 'I' for Inactive)
REMARK    1  A    between atoms: S_7  and  C_1 
REMARK    2  A    between atoms: C_14  and  N_4 
REMARK    3  A    between atoms: C_12  and  S_7 
REMARK    4  A    between atoms: C_10  and  C_12 
REMARK    5  A    between atoms: O_16  and  C_10 
ROOT
ATOM      1  C   UNL d   1       2.355   0.125  -0.085  0.00  0.00     0.148 A 
ATOM      2  N   UNL d   1       1.685  -1.004  -0.172  0.00  0.00    -0.335 N 
ATOM      3  HN  UNL d   1       2.064  -1.945  -0.282  1.00  0.00     0.168 HD
ATOM      4  N   UNL d   1       1.526   1.215  -0.010  0.00  0.00    -0.326 N 
ATOM      5  C   UNL d   1       0.360  -0.640  -0.082  0.00  0.00     0.062 A 
ATOM      6  C   UNL d   1       0.229   0.748  -0.022  0.00  0.00     0.063 A 
ATOM      7  C   UNL d   1      -0.783  -1.450  -0.067  0.00  0.00     0.055 A 
ATOM      8  C   UNL d   1      -1.020   1.383   0.012  0.00  0.00     0.034 A 
ATOM      9  C   UNL d   1      -2.033  -0.829  -0.015  0.00  0.00     0.036 A 
ATOM     10  C   UNL d   1      -2.152   0.562   0.013  0.00  0.00     0.026 A 
ATOM     11 CL   UNL d   1      -3.457  -1.799   0.009  0.00  0.00    -0.084 Cl
ENDROOT
BRANCH   1  12
ATOM     12  S   UNL d   1       4.080   0.238  -0.162  0.00  0.00    -0.083 SA
BRANCH  12  13
ATOM     13  C   UNL d   1       4.526  -1.391  -0.820  0.00  0.00     0.192 C 
BRANCH  13  14
ATOM     14  C   UNL d   1       4.140  -1.529  -2.274  0.00  0.00     0.149 C 
ATOM     15  O   UNL d   1       4.947  -1.486  -3.195  0.00  0.00    -0.649 OA
BRANCH  14  16
ATOM     16  O   UNL d   1       2.820  -1.728  -2.493  0.00  0.00    -0.776 OA
ATOM     17  H   UNL d   1       2.286  -1.688  -1.662  0.00  0.00     0.167 HD
ENDBRANCH  14  16
ENDBRANCH  13  14
ENDBRANCH  12  13
ENDBRANCH   1  12
BRANCH   4  18
ATOM     18  C   UNL d   1       1.916   2.611   0.080  0.00  0.00     0.127 C 
ATOM     19  C   UNL d   1       2.110   3.253  -1.283  0.00  0.00     0.027 C 
ENDBRANCH   4  18
TORSDOF 5
