REMARK  3 active torsions:
REMARK  status: ('A' for Active; 'I' for Inactive)
REMARK    1  A    between atoms: C_12  and  C_7 
REMARK    2  A    between atoms: O_17  and  C_9 
REMARK    3  A    between atoms: O_18  and  C_13 
ROOT
ATOM      1  C   UNL d   1       1.574  -0.101   0.097  0.00  0.00     0.101 A 
ATOM      2  N   UNL d   1      -0.470   1.178  -0.064  0.00  0.00    -0.299 N 
ATOM      3  N   UNL d   1      -0.603  -1.138   0.030  0.00  0.00    -0.299 N 
ATOM      4  C   UNL d   1       0.897   1.220  -0.003  0.00  0.00     0.263 A 
ATOM      5  C   UNL d   1       0.752  -1.341   0.067  0.00  0.00     0.263 A 
ATOM      6  C   UNL d   1      -1.243   0.059  -0.040  0.00  0.00     0.181 A 
ATOM      7  C   UNL d   1       2.916  -0.084   0.219  0.00  0.00     0.034 C 
ATOM      8  S   UNL d   1      -2.901   0.152  -0.099  0.00  0.00    -0.040 SA
ATOM      9  O   UNL d   1       1.200  -2.480   0.063  0.00  0.00    -0.267 OA
ATOM     10  O   UNL d   1       1.495   2.292  -0.029  0.00  0.00    -0.267 OA
ATOM     11  H   UNL d   1      -0.936   2.075  -0.126  0.00  0.00     0.171 HD
ATOM     12  H   UNL d   1      -1.166  -1.979   0.023  0.00  0.00     0.171 HD
ENDROOT
BRANCH   7  13
ATOM     13  C   UNL d   1       3.788  -1.254   0.345  0.00  0.00    -0.032 A 
ATOM     14  C   UNL d   1       4.320  -1.856  -0.801  0.00  0.00     0.051 A 
ATOM     15  C   UNL d   1       5.121  -2.990  -0.675  0.00  0.00     0.099 A 
ATOM     16  C   UNL d   1       5.402  -3.519   0.585  0.00  0.00     0.098 A 
ATOM     17  C   UNL d   1       4.884  -2.917   1.730  0.00  0.00     0.040 A 
ATOM     18  C   UNL d   1       4.077  -1.783   1.609  0.00  0.00     0.014 A 
BRANCH  15  19
ATOM     19  O   UNL d   1       5.633  -3.600  -1.787  0.00  0.00    -0.358 OA
ATOM     20  H   UNL d   1       5.210  -3.222  -2.573  0.00  0.00     0.217 HD
ENDBRANCH  15  19
BRANCH  16  21
ATOM     21  O   UNL d   1       6.181  -4.638   0.685  0.00  0.00    -0.358 OA
ATOM     22  H   UNL d   1       6.213  -4.918   1.612  0.00  0.00     0.217 HD
ENDBRANCH  16  21
ENDBRANCH   7  13
TORSDOF 3
