REMARK  4 active torsions:
REMARK  status: ('A' for Active; 'I' for Inactive)
REMARK    1  A    between atoms: C_2  and  C_1 
REMARK    2  A    between atoms: C_14  and  N_3 
REMARK    3  A    between atoms: C_18  and  N_6 
REMARK    4  A    between atoms: S_15  and  C_7 
ROOT
ATOM      1  C   UNL d   1      -0.110  -1.301   0.160  0.00  0.00     0.158 A 
ATOM      2  N   UNL d   1       1.145  -0.683   0.110  0.00  0.00    -0.274 N 
ATOM      3  N   UNL d   1      -1.050  -0.384   0.233  0.00  0.00    -0.281 N 
ATOM      4  HN  UNL d   1      -2.054  -0.562   0.260  1.00  0.00     0.188 HD
ATOM      5  C   UNL d   1       0.841   0.672   0.186  0.00  0.00     0.165 A 
ATOM      6  N   UNL d   1      -0.456   0.851   0.267  0.00  0.00    -0.278 N 
ATOM      7  HN  UNL d   1      -0.936   1.747   0.342  1.00  0.00     0.189 HD
ENDROOT
BRANCH   1   8
ATOM      8  C   UNL d   1      -0.405  -2.701   0.214  0.00  0.00     0.098 C 
ATOM      9  N   UNL d   1      -1.487  -3.305  -0.389  0.00  0.00    -0.289 N 
ATOM     10  N   UNL d   1      -1.427  -4.652  -0.344  0.00  0.00    -0.303 N 
ATOM     11  C   UNL d   1      -0.349  -4.913   0.402  0.00  0.00     0.024 C 
ATOM     12  HN  UNL d   1      -2.061  -5.321  -0.782  1.00  0.00     0.186 HD
ATOM     13  C   UNL d   1       0.269  -3.728   0.847  0.00  0.00     0.061 C 
ATOM     14  C   UNL d   1       0.093  -6.311   0.629  0.00  0.00     0.070 C 
BRANCH   9  15
ATOM     15  C   UNL d   1      -2.575  -2.692  -1.134  0.00  0.00     0.145 C 
ATOM     16  C   UNL d   1      -3.774  -2.362  -0.260  0.00  0.00     0.028 C 
ENDBRANCH   9  15
ENDBRANCH   1   8
BRANCH   2  17
ATOM     17  C   UNL d   1       2.423  -1.313  -0.004  0.00  0.00     0.043 A 
ATOM     18  C   UNL d   1       2.580  -2.458  -0.801  0.00  0.00     0.032 A 
ATOM     19  C   UNL d   1       3.807  -3.130  -0.851  0.00  0.00     0.026 A 
ATOM     20  C   UNL d   1       4.895  -2.637  -0.137  0.00  0.00     0.034 A 
ATOM     21  C   UNL d   1       4.764  -1.483   0.631  0.00  0.00     0.026 A 
ATOM     22 CL   UNL d   1       6.400  -3.465  -0.192  0.00  0.00    -0.084 Cl
ATOM     23  C   UNL d   1       3.528  -0.827   0.710  0.00  0.00     0.032 A 
ENDBRANCH   2  17
BRANCH   5  24
ATOM     24  S   UNL d   1       1.943   2.000  -0.004  0.00  0.00    -0.105 SA
ATOM     25  H   UNL d   1       2.970   1.368  -0.586  0.00  0.00     0.110 HD
ENDBRANCH   5  24
TORSDOF 4
