REMARK  6 active torsions:
REMARK  status: ('A' for Active; 'I' for Inactive)
REMARK    1  A    between atoms: N_4  and  C_1 
REMARK    2  A    between atoms: C_2  and  C_3 
REMARK       I    between atoms: N_6  and  C_2 
REMARK    3  A    between atoms: O_22  and  C_5 
REMARK       I    between atoms: C_8  and  N_6 
REMARK    4  A    between atoms: C_7  and  O_11 
REMARK    5  A    between atoms: O_11  and  C_8 
REMARK    6  A    between atoms: O_26  and  C_15 
ROOT
ATOM      1  C   UNL d   1      -1.448  -2.174   0.759  0.00  0.00     0.265 C 
ATOM      2  N   UNL d   1      -1.010  -3.138   1.659  0.00  0.00    -0.268 N 
ATOM      3  C   UNL d   1      -1.609  -4.338   1.990  0.00  0.00     0.372 C 
ATOM      4  O   UNL d   1      -2.574  -2.186   0.278  0.00  0.00    -0.267 OA
ATOM      5  O   UNL d   1      -1.018  -5.188   2.636  0.00  0.00    -0.238 OA
ATOM      6  H   UNL d   1      -0.042  -3.105   1.945  0.00  0.00     0.174 HD
ENDROOT
BRANCH   1   7
ATOM      7  C   UNL d   1      -0.471  -1.077   0.384  0.00  0.00     0.101 A 
ATOM      8  C   UNL d   1       0.929  -1.252   0.520  0.00  0.00     0.119 A 
ATOM      9  C   UNL d   1       1.784  -0.164   0.261  0.00  0.00     0.137 A 
ATOM     10  C   UNL d   1       1.310   1.046  -0.261  0.00  0.00     0.042 A 
ATOM     11  C   UNL d   1      -0.059   1.199  -0.454  0.00  0.00     0.040 A 
ATOM     12  C   UNL d   1      -0.948   0.165  -0.110  0.00  0.00     0.086 A 
BRANCH   8  13
ATOM     13  O   UNL d   1       1.381  -2.459   0.993  0.00  0.00    -0.352 OA
ATOM     14  C   UNL d   1       2.419  -3.082   0.225  0.00  0.00     0.210 C 
ENDBRANCH   8  13
BRANCH   9  15
ATOM     15  N   UNL d   1       3.187  -0.200   0.643  0.00  0.00    -0.113 N 
ATOM     16  O   UNL d   1       3.444  -0.464   1.825  0.00  0.00    -0.532 OA
ATOM     17  O   UNL d   1       4.015   0.043  -0.241  0.00  0.00    -0.532 OA
ENDBRANCH   9  15
BRANCH  12  18
ATOM     18  O   UNL d   1      -2.267   0.544  -0.036  0.00  0.00    -0.355 OA
ATOM     19  C   UNL d   1      -3.044   0.218  -1.190  0.00  0.00     0.210 C 
ENDBRANCH  12  18
ENDBRANCH   1   7
BRANCH   3  20
ATOM     20  O   UNL d   1      -2.891  -4.496   1.467  0.00  0.00    -0.258 OA
BRANCH  20  21
ATOM     21  C   UNL d   1      -3.442  -5.793   1.369  0.00  0.00     0.124 A 
ATOM     22  C   UNL d   1      -2.870  -6.766   0.535  0.00  0.00     0.072 A 
ATOM     23  C   UNL d   1      -3.567  -7.945   0.264  0.00  0.00     0.069 A 
ATOM     24 CL   UNL d   1      -1.356  -6.540  -0.267  0.00  0.00    -0.081 Cl
ATOM     25  C   UNL d   1      -4.833  -8.134   0.803  0.00  0.00     0.119 A 
ATOM     26  C   UNL d   1      -5.406  -7.190   1.645  0.00  0.00     0.069 A 
ATOM     27  F   UNL d   1      -5.524  -9.235   0.480  0.00  0.00    -0.206 F 
ATOM     28  C   UNL d   1      -4.705  -6.018   1.936  0.00  0.00     0.072 A 
ATOM     29 CL   UNL d   1      -5.450  -4.858   2.974  0.00  0.00    -0.081 Cl
ENDBRANCH  20  21
ENDBRANCH   3  20
TORSDOF 6
