REMARK  3 active torsions:
REMARK  status: ('A' for Active; 'I' for Inactive)
REMARK    1  A    between atoms: C_7  and  C_1 
REMARK    2  A    between atoms: C_8  and  C_5 
REMARK    3  A    between atoms: O_10  and  C_7 
ROOT
ATOM      1  C   UNL d   1      -0.126  -1.103   0.030  0.00  0.00     0.102 A 
ATOM      2  S   UNL d   1       1.401  -0.323   0.035  0.00  0.00    -0.063 SA
ATOM      3  N   UNL d   1      -0.682   1.163   0.059  0.00  0.00    -0.352 N 
ATOM      4  HN  UNL d   1      -1.291   1.981   0.102  1.00  0.00     0.166 HD
ATOM      5  C   UNL d   1       0.633   1.215   0.011  0.00  0.00     0.085 A 
ATOM      6  C   UNL d   1      -1.130  -0.148   0.041  0.00  0.00     0.030 A 
ATOM      7  C   UNL d   1      -2.600  -0.378   0.024  0.00  0.00     0.070 C 
ENDROOT
BRANCH   5   8
ATOM      8  C   UNL d   1       1.404   2.466  -0.040  0.00  0.00    -0.002 A 
ATOM      9  C   UNL d   1       2.660   2.558  -0.661  0.00  0.00     0.014 A 
ATOM     10  C   UNL d   1       3.333   3.781  -0.736  0.00  0.00     0.001 A 
ATOM     11  C   UNL d   1       2.760   4.928  -0.192  0.00  0.00     0.000 A 
ATOM     12  C   UNL d   1       1.517   4.856   0.430  0.00  0.00     0.001 A 
ATOM     13  C   UNL d   1       0.844   3.635   0.503  0.00  0.00     0.014 A 
ENDBRANCH   5   8
BRANCH   1  14
ATOM     14  C   UNL d   1      -0.258  -2.544   0.011  0.00  0.00     0.185 C 
ATOM     15  O   UNL d   1      -1.315  -3.160   0.010  0.00  0.00    -0.646 OA
BRANCH  14  16
ATOM     16  O   UNL d   1       0.936  -3.192  -0.012  0.00  0.00    -0.772 OA
ATOM     17  H   UNL d   1       1.692  -2.573  -0.009  0.00  0.00     0.167 HD
ENDBRANCH  14  16
ENDBRANCH   1  14
TORSDOF 3
