REMARK  5 active torsions:
REMARK  status: ('A' for Active; 'I' for Inactive)
REMARK    1  A    between atoms: O_8  and  S_1 
REMARK    2  A    between atoms: C_14  and  S_1 
REMARK    3  A    between atoms: C_10  and  C_2 
REMARK    4  A    between atoms: C_15  and  O_8 
REMARK    5  A    between atoms: O_23  and  C_20 
ROOT
ATOM      1  C   UNL d   1       0.694   0.778  -7.573  0.00  0.00     0.048 A 
ATOM      2  C   UNL d   1       1.806   0.881  -6.597  0.00  0.00     0.197 A 
ATOM      3  C   UNL d   1       1.506   0.460  -5.219  0.00  0.00     0.049 A 
ATOM      4  C   UNL d   1      -0.495   0.356  -7.118  0.00  0.00     0.159 A 
ATOM      5  C   UNL d   1       0.220   0.033  -4.898  0.00  0.00     0.091 A 
ATOM      6  O   UNL d   1      -0.796  -0.004  -5.822  0.00  0.00    -0.321 OA
ATOM      7  C   UNL d   1      -0.071  -0.388  -3.595  0.00  0.00     0.076 A 
ATOM      8  C   UNL d   1       2.505   0.470  -4.245  0.00  0.00     0.021 A 
ATOM      9  C   UNL d   1       0.928  -0.376  -2.612  0.00  0.00     0.092 A 
ATOM     10  O   UNL d   1       2.921   1.285  -6.905  0.00  0.00    -0.286 OA
ATOM     11  C   UNL d   1       2.217   0.047  -2.946  0.00  0.00     0.039 A 
ENDROOT
BRANCH   9  12
ATOM     12  O   UNL d   1       0.568  -0.848  -1.371  0.00  0.00    -0.229 OA
BRANCH  12  13
ATOM     13  S   UNL d   1       1.319  -0.330  -0.011  0.00  0.00     0.303 S 
ATOM     14  O   UNL d   1       1.023   1.075   0.183  0.00  0.00    -0.193 OA
ATOM     15  O   UNL d   1       2.688  -0.813  -0.018  0.00  0.00    -0.193 OA
BRANCH  13  16
ATOM     16  C   UNL d   1       0.483  -1.204   1.298  0.00  0.00     0.086 A 
ATOM     17  C   UNL d   1       1.217  -2.011   2.175  0.00  0.00     0.026 A 
ATOM     18  C   UNL d   1       0.558  -2.683   3.204  0.00  0.00     0.002 A 
ATOM     19  C   UNL d   1      -0.822  -2.546   3.353  0.00  0.00     0.000 A 
ATOM     20  C   UNL d   1      -1.548  -1.733   2.480  0.00  0.00     0.002 A 
ATOM     21  C   UNL d   1      -0.898  -1.056   1.446  0.00  0.00     0.026 A 
ENDBRANCH  13  16
ENDBRANCH  12  13
ENDBRANCH   9  12
BRANCH   1  22
ATOM     22  C   UNL d   1       0.888   1.117  -8.988  0.00  0.00    -0.020 A 
ATOM     23  C   UNL d   1       0.678   2.425  -9.439  0.00  0.00     0.015 A 
ATOM     24  C   UNL d   1       0.870   2.752 -10.788  0.00  0.00     0.037 A 
ATOM     25  C   UNL d   1       1.269   1.773 -11.698  0.00  0.00     0.068 A 
ATOM     26  C   UNL d   1       1.486   0.469 -11.246  0.00  0.00     0.037 A 
ATOM     27  C   UNL d   1       1.297   0.139  -9.900  0.00  0.00     0.015 A 
BRANCH  25  28
ATOM     28  O   UNL d   1       1.480   1.956 -13.037  0.00  0.00    -0.356 OA
ATOM     29  C   UNL d   1       1.267   3.266 -13.549  0.00  0.00     0.210 C 
ENDBRANCH  25  28
ENDBRANCH   1  22
TORSDOF 5
