REMARK  5 active torsions:
REMARK  status: ('A' for Active; 'I' for Inactive)
REMARK    1  A    between atoms: S_2  and  C_1 
REMARK    2  A    between atoms: C_6  and  S_2 
REMARK    3  A    between atoms: S_3  and  C_7 
REMARK    4  A    between atoms: C_11  and  S_3 
REMARK    5  A    between atoms: C_7  and  C_6 
ROOT
ATOM      1  S   UNL d   1      -0.089   3.111  -0.057  0.00  0.00     0.182 S 
ATOM      2  O   UNL d   1       1.249   3.666  -0.056  0.00  0.00    -0.222 OA
ATOM      3  O   UNL d   1      -0.280   1.674  -0.039  0.00  0.00    -0.222 OA
ENDROOT
BRANCH   1   4
ATOM      4  C   UNL d   1      -0.979   3.764   1.303  0.00  0.00     0.142 A 
ATOM      5  C   UNL d   1      -2.321   3.433   1.446  0.00  0.00     0.179 A 
ATOM      6  C   UNL d   1      -3.051   3.920   2.527  0.00  0.00     0.159 A 
ATOM      7  F   UNL d   1      -2.937   2.661   0.541  0.00  0.00    -0.201 F 
ATOM      8  F   UNL d   1      -4.347   3.609   2.654  0.00  0.00    -0.203 F 
ATOM      9  C   UNL d   1      -2.454   4.737   3.478  0.00  0.00     0.091 A 
ATOM     10  C   UNL d   1      -1.110   5.056   3.331  0.00  0.00     0.159 A 
ATOM     11  C   UNL d   1      -0.367   4.573   2.253  0.00  0.00     0.179 A 
ATOM     12  F   UNL d   1      -0.526   5.845   4.242  0.00  0.00    -0.203 F 
ATOM     13  F   UNL d   1       0.923   4.915   2.166  0.00  0.00    -0.201 F 
ENDBRANCH   1   4
BRANCH   1  14
ATOM     14  C   UNL d   1      -0.891   3.760  -1.498  0.00  0.00     0.161 C 
BRANCH  14  15
ATOM     15  C   UNL d   1      -0.180   3.271  -2.745  0.00  0.00     0.161 C 
BRANCH  15  16
ATOM     16  S   UNL d   1      -0.976   3.918  -4.187  0.00  0.00     0.176 S 
ATOM     17  O   UNL d   1      -2.307   3.347  -4.255  0.00  0.00    -0.223 OA
ATOM     18  O   UNL d   1      -0.786   5.356  -4.191  0.00  0.00    -0.223 OA
BRANCH  16  19
ATOM     19  C   UNL d   1      -0.030   3.244  -5.532  0.00  0.00     0.059 A 
ATOM     20  C   UNL d   1      -0.421   2.034  -6.114  0.00  0.00     0.025 A 
ATOM     21  C   UNL d   1       0.313   1.517  -7.184  0.00  0.00     0.025 A 
ATOM     22  C   UNL d   1       1.421   2.215  -7.669  0.00  0.00     0.034 A 
ATOM     23  C   UNL d   1       1.800   3.430  -7.096  0.00  0.00     0.025 A 
ATOM     24 CL   UNL d   1       2.322   1.575  -8.987  0.00  0.00    -0.084 Cl
ATOM     25  C   UNL d   1       1.069   3.953  -6.027  0.00  0.00     0.025 A 
ENDBRANCH  16  19
ENDBRANCH  15  16
ENDBRANCH  14  15
ENDBRANCH   1  14
TORSDOF 5
