REMARK  13 active torsions:
REMARK  status: ('A' for Active; 'I' for Inactive)
REMARK    1  A    between atoms: C_2  and  C_1 
REMARK    2  A    between atoms: O_9  and  C_6 
REMARK    3  A    between atoms: C_11  and  O_9 
REMARK    4  A    between atoms: C_12  and  C_11 
REMARK    5  A    between atoms: C_20  and  C_12 
REMARK    6  A    between atoms: C_13  and  C_14 
REMARK    7  A    between atoms: C_14  and  C_19 
REMARK    8  A    between atoms: C_15  and  C_21 
REMARK    9  A    between atoms: C_16  and  C_15 
REMARK   10  A    between atoms: C_17  and  C_16 
REMARK   11  A    between atoms: C_18  and  C_17 
REMARK   12  A    between atoms: C_19  and  C_18 
REMARK   13  A    between atoms: C_21  and  C_20 
ROOT
ATOM      1  C   UNL d   1      -3.389  -5.120  -4.811  0.00  0.00     0.175 C 
ENDROOT
BRANCH   1   2
ATOM      2  O   UNL d   1      -3.863  -3.818  -4.474  0.00  0.00    -0.351 OA
BRANCH   2   3
ATOM      3  C   UNL d   1      -5.184  -3.753  -4.113  0.00  0.00     0.068 A 
ATOM      4  C   UNL d   1      -5.654  -2.467  -3.837  0.00  0.00     0.037 A 
ATOM      5  C   UNL d   1      -6.979  -2.264  -3.441  0.00  0.00     0.018 A 
ATOM      6  C   UNL d   1      -7.845  -3.354  -3.322  0.00  0.00     0.009 A 
ATOM      7  C   UNL d   1      -7.376  -4.643  -3.593  0.00  0.00     0.018 A 
ATOM      8  C   UNL d   1      -6.054  -4.840  -3.993  0.00  0.00     0.037 A 
BRANCH   6   9
ATOM      9  C   UNL d   1      -9.263  -3.199  -2.902  0.00  0.00     0.155 C 
ATOM     10  O   UNL d   1      -9.838  -4.136  -2.348  0.00  0.00    -0.293 OA
ATOM     11  C   UNL d   1      -9.968  -1.898  -3.170  0.00  0.00     0.096 C 
ENDBRANCH   6   9
ENDBRANCH   2   3
ENDBRANCH   1   2
BRANCH   1  12
ATOM     12  C   UNL d   1      -1.925  -5.042  -5.233  0.00  0.00     0.027 C 
BRANCH  12  13
ATOM     13  C   UNL d   1      -1.343  -6.421  -5.554  0.00  0.00     0.002 C 
BRANCH  13  14
ATOM     14  C   UNL d   1      -2.072  -7.109  -6.709  0.00  0.00     0.000 C 
BRANCH  14  15
ATOM     15  C   UNL d   1      -1.504  -8.492  -7.006  0.00  0.00     0.000 C 
BRANCH  15  16
ATOM     16  C   UNL d   1      -2.292  -9.148  -8.140  0.00  0.00     0.000 C 
BRANCH  16  17
ATOM     17  C   UNL d   1      -1.765 -10.544  -8.444  0.00  0.00     0.000 C 
BRANCH  17  18
ATOM     18  C   UNL d   1      -2.550 -11.185  -9.587  0.00  0.00     0.000 C 
BRANCH  18  19
ATOM     19  C   UNL d   1      -2.015 -12.580  -9.900  0.00  0.00     0.000 C 
BRANCH  19  20
ATOM     20  C   UNL d   1      -2.792 -13.221 -11.048  0.00  0.00    -0.000 C 
BRANCH  20  21
ATOM     21  C   UNL d   1      -2.255 -14.616 -11.363  0.00  0.00    -0.005 C 
ATOM     22  C   UNL d   1      -3.024 -15.257 -12.505  0.00  0.00     0.005 C 
ENDBRANCH  20  21
ENDBRANCH  19  20
ENDBRANCH  18  19
ENDBRANCH  17  18
ENDBRANCH  16  17
ENDBRANCH  15  16
ENDBRANCH  14  15
ENDBRANCH  13  14
ENDBRANCH  12  13
ENDBRANCH   1  12
TORSDOF 13
