REMARK  2 active torsions:
REMARK  status: ('A' for Active; 'I' for Inactive)
REMARK       I    between atoms: C_2  and  N_1 
REMARK    1  A    between atoms: C_3  and  C_4 
REMARK    2  A    between atoms: O_11  and  C_3 
ROOT
ATOM      1  N   UNL d   1       1.363  -0.079   0.254  0.00  0.00    -0.352 N 
ATOM      2  C   UNL d   1       2.461  -0.021   1.093  0.00  0.00     0.215 C 
ATOM      3  C   UNL d   1      -1.487   0.027  -0.296  0.00  0.00     0.087 C 
ATOM      4  C   UNL d   1       0.693  -1.283  -0.237  0.00  0.00     0.126 C 
ATOM      5  C   UNL d   1       0.782   1.171  -0.234  0.00  0.00     0.126 C 
ATOM      6  O   UNL d   1       2.950   1.056   1.448  0.00  0.00    -0.274 OA
ATOM      7  C   UNL d   1      -0.693   1.262   0.157  0.00  0.00     0.035 C 
ATOM      8  C   UNL d   1      -0.783  -1.259   0.169  0.00  0.00     0.035 C 
ATOM      9  C   UNL d   1       3.091  -1.290   1.614  0.00  0.00     0.117 C 
ENDROOT
BRANCH   3  10
ATOM     10  C   UNL d   1      -1.713   0.010  -1.803  0.00  0.00     0.143 C 
ATOM     11  O   UNL d   1      -1.308  -0.853  -2.562  0.00  0.00    -0.650 OA
BRANCH  10  12
ATOM     12  O   UNL d   1      -2.458   1.049  -2.244  0.00  0.00    -0.776 OA
ATOM     13  H   UNL d   1      -2.779   1.651  -1.547  0.00  0.00     0.167 HD
ENDBRANCH  10  12
ENDBRANCH   3  10
TORSDOF 2
