REMARK  7 active torsions:
REMARK  status: ('A' for Active; 'I' for Inactive)
REMARK    1  A    between atoms: C_11  and  C_1 
REMARK    2  A    between atoms: C_12  and  C_6 
REMARK    3  A    between atoms: C_13  and  C_9 
REMARK    4  A    between atoms: C_14  and  C_11 
REMARK    5  A    between atoms: O_20  and  C_12 
REMARK    6  A    between atoms: O_24  and  C_13 
REMARK    7  A    between atoms: O_25  and  C_13 
ROOT
ATOM      1  C   UNL d   1      -2.076  -0.148   0.101  0.00  0.00     0.085 A 
ATOM      2  C   UNL d   1       0.361  -0.523   0.158  0.00  0.00     0.088 A 
ATOM      3  C   UNL d   1       0.069   0.826   0.056  0.00  0.00     0.026 A 
ATOM      4  S   UNL d   1      -1.026  -1.502   0.145  0.00  0.00    -0.065 SA
ATOM      5  C   UNL d   1      -1.350   1.034   0.060  0.00  0.00     0.060 A 
ATOM      6  C   UNL d   1       2.475   1.155  -0.077  0.00  0.00     0.068 A 
ATOM      7  N   UNL d   1       1.579  -1.079   0.217  0.00  0.00    -0.348 N 
ATOM      8  HN  UNL d   1       1.709  -2.082   0.353  1.00  0.00     0.166 HD
ATOM      9  C   UNL d   1       2.636  -0.228   0.085  0.00  0.00     0.082 A 
ATOM     10  C   UNL d   1       1.174   1.694  -0.050  0.00  0.00     0.036 A 
ATOM     11  N   UNL d   1      -1.927   2.254   0.015  0.00  0.00    -0.397 N 
ATOM     12  H   UNL d   1      -1.412   3.114  -0.146  0.00  0.00     0.156 HD
ATOM     13  H   UNL d   1      -2.929   2.339  -0.179  0.00  0.00     0.156 HD
ENDROOT
BRANCH   1  14
ATOM     14  C   UNL d   1      -3.524  -0.292   0.012  0.00  0.00     0.201 C 
ATOM     15  O   UNL d   1      -4.238   0.574  -0.502  0.00  0.00    -0.286 OA
BRANCH  14  16
ATOM     16  C   UNL d   1      -4.235  -1.488   0.550  0.00  0.00     0.015 A 
ATOM     17  C   UNL d   1      -5.379  -1.944  -0.125  0.00  0.00     0.017 A 
ATOM     18  C   UNL d   1      -6.097  -3.039   0.363  0.00  0.00     0.025 A 
ATOM     19  C   UNL d   1      -5.676  -3.679   1.527  0.00  0.00     0.034 A 
ATOM     20  C   UNL d   1      -4.553  -3.225   2.215  0.00  0.00     0.025 A 
ATOM     21 CL   UNL d   1      -6.558  -5.028   2.128  0.00  0.00    -0.084 Cl
ATOM     22  C   UNL d   1      -3.841  -2.120   1.738  0.00  0.00     0.017 A 
ENDBRANCH  14  16
ENDBRANCH   1  14
BRANCH   9  23
ATOM     23  C   UNL d   1       4.013  -0.906   0.103  0.00  0.00     0.310 C 
BRANCH  23  24
ATOM     24  O   UNL d   1       4.393  -1.037   1.478  0.00  0.00    -0.360 OA
ATOM     25  C   UNL d   1       5.676  -1.627   1.632  0.00  0.00     0.205 C 
ENDBRANCH  23  24
BRANCH  23  26
ATOM     26  O   UNL d   1       3.987  -2.206  -0.515  0.00  0.00    -0.360 OA
ATOM     27  C   UNL d   1       3.636  -2.177  -1.890  0.00  0.00     0.205 C 
ENDBRANCH  23  26
ENDBRANCH   9  23
BRANCH   6  28
ATOM     28  C   UNL d   1       3.613   2.072  -0.328  0.00  0.00     0.295 C 
ATOM     29  O   UNL d   1       4.743   1.926   0.100  0.00  0.00    -0.259 OA
BRANCH  28  30
ATOM     30  O   UNL d   1       3.199   3.053  -1.169  0.00  0.00    -0.322 OA
ATOM     31  C   UNL d   1       4.195   3.998  -1.572  0.00  0.00     0.213 C 
ENDBRANCH  28  30
ENDBRANCH   6  28
TORSDOF 7
