REMARK  3 active torsions:
REMARK  status: ('A' for Active; 'I' for Inactive)
REMARK       I    between atoms: N_3  and  C_1 
REMARK    1  A    between atoms: C_4  and  C_1 
REMARK    2  A    between atoms: N_5  and  N_3 
REMARK    3  A    between atoms: C_6  and  C_4 
ROOT
ATOM      1  C   UNL d   1       2.991  -0.701  -1.293  0.00  0.00     0.235 C 
ATOM      2  O   UNL d   1       2.667  -1.875  -1.487  0.00  0.00    -0.272 OA
ATOM      3  N   UNL d   1       3.881  -0.041  -2.128  0.00  0.00    -0.294 N 
ATOM      4  H   UNL d   1       4.050   0.959  -2.031  0.00  0.00     0.183 HD
ENDROOT
BRANCH   1   5
ATOM      5  C   UNL d   1       2.428   0.085  -0.119  0.00  0.00     0.142 C 
BRANCH   5   6
ATOM      6  C   UNL d   1       2.957   1.487   0.073  0.00  0.00    -0.049 A 
ATOM      7  C   UNL d   1       2.309   2.578  -0.524  0.00  0.00     0.007 A 
ATOM      8  C   UNL d   1       2.813   3.870  -0.364  0.00  0.00     0.001 A 
ATOM      9  C   UNL d   1       3.967   4.082   0.387  0.00  0.00     0.000 A 
ATOM     10  C   UNL d   1       4.625   3.002   0.973  0.00  0.00     0.001 A 
ATOM     11  C   UNL d   1       4.125   1.709   0.816  0.00  0.00     0.007 A 
ENDBRANCH   5   6
ENDBRANCH   1   5
BRANCH   3  12
ATOM     12  N   UNL d   1       4.398  -0.710  -3.260  0.00  0.00    -0.247 NA
ATOM     13  H   UNL d   1       3.778  -1.513  -3.438  0.00  0.00     0.143 HD
ATOM     14  H   UNL d   1       5.281  -1.147  -2.982  0.00  0.00     0.143 HD
ENDBRANCH   3  12
TORSDOF 3
