REMARK  4 active torsions:
REMARK  status: ('A' for Active; 'I' for Inactive)
REMARK    1  A    between atoms: C_3  and  N_1 
REMARK    2  A    between atoms: C_2  and  C_4 
REMARK    3  A    between atoms: C_9  and  C_6 
REMARK    4  A    between atoms: O_17  and  C_9 
ROOT
ATOM      1  C   UNL d   1       0.328   0.777   1.017  0.00  0.00     0.117 A 
ATOM      2  C   UNL d   1      -0.685   0.209   1.812  0.00  0.00     0.031 A 
ATOM      3  C   UNL d   1       0.738   2.110   1.158  0.00  0.00     0.060 A 
ATOM      4  C   UNL d   1      -1.322   1.054   2.737  0.00  0.00     0.018 A 
ATOM      5  C   UNL d   1       0.112   2.904   2.112  0.00  0.00     0.036 A 
ATOM      6  C   UNL d   1      -0.923   2.388   2.890  0.00  0.00     0.025 A 
ATOM      7 CL   UNL d   1       0.626   4.527   2.343  0.00  0.00    -0.084 Cl
ENDROOT
BRANCH   2   8
ATOM      8  C   UNL d   1      -1.049  -1.203   1.786  0.00  0.00     0.089 A 
ATOM      9  O   UNL d   1      -0.023  -2.077   1.557  0.00  0.00    -0.303 OA
ATOM     10  C   UNL d   1      -0.534  -3.345   1.628  0.00  0.00     0.149 A 
ATOM     11  C   UNL d   1      -1.882  -3.281   1.921  0.00  0.00     0.047 A 
ATOM     12  C   UNL d   1      -2.213  -1.907   2.022  0.00  0.00     0.041 A 
BRANCH  10  13
ATOM     13  C   UNL d   1       0.345  -4.470   1.421  0.00  0.00     0.201 C 
ATOM     14  O   UNL d   1       0.028  -5.648   1.506  0.00  0.00    -0.645 OA
BRANCH  13  15
ATOM     15  O   UNL d   1       1.607  -4.072   1.121  0.00  0.00    -0.771 OA
ATOM     16  H   UNL d   1       1.667  -3.094   1.073  0.00  0.00     0.167 HD
ENDBRANCH  13  15
ENDBRANCH  10  13
ENDBRANCH   2   8
BRANCH   1  17
ATOM     17  N   UNL d   1       0.996  -0.012  -0.004  0.00  0.00    -0.115 N 
ATOM     18  O   UNL d   1       0.303  -0.428  -0.940  0.00  0.00    -0.532 OA
ATOM     19  O   UNL d   1       2.211  -0.195   0.141  0.00  0.00    -0.532 OA
ENDBRANCH   1  17
TORSDOF 4
