REMARK  5 active torsions:
REMARK  status: ('A' for Active; 'I' for Inactive)
REMARK    1  A    between atoms: C_2  and  C_1 
REMARK    2  A    between atoms: C_15  and  C_8 
REMARK       I    between atoms: C_10  and  N_18 
REMARK       I    between atoms: N_14  and  C_10 
REMARK    3  A    between atoms: C_12  and  N_14 
REMARK    4  A    between atoms: C_17  and  C_15 
REMARK       I    between atoms: N_19  and  C_17 
REMARK    5  A    between atoms: N_18  and  N_19 
ROOT
ATOM      1  C   UNL d   1       3.121  -4.465  -3.333  0.00  0.00     0.241 C 
ATOM      2  N   UNL d   1       1.822  -4.016  -3.326  0.00  0.00    -0.266 N 
ATOM      3  O   UNL d   1       3.989  -3.921  -2.636  0.00  0.00    -0.271 OA
ATOM      4  H   UNL d   1       1.124  -4.374  -3.984  0.00  0.00     0.190 HD
ENDROOT
BRANCH   1   5
ATOM      5  C   UNL d   1       3.491  -5.638  -4.218  0.00  0.00     0.162 C 
BRANCH   5   6
ATOM      6  C   UNL d   1       2.416  -6.414  -4.913  0.00  0.00     0.025 A 
ATOM      7  N   UNL d   1       1.075  -6.073  -4.791  0.00  0.00    -0.351 N 
ATOM      8  C   UNL d   1       0.317  -6.972  -5.392  0.00  0.00     0.101 A 
ATOM      9  HN  UNL d   1       0.726  -5.246  -4.307  1.00  0.00     0.166 HD
ATOM     10  S   UNL d   1       1.163  -8.211  -6.220  0.00  0.00    -0.080 SA
ATOM     11  C   UNL d   1       2.644  -7.530  -5.701  0.00  0.00     0.077 A 
BRANCH   8  12
ATOM     12  C   UNL d   1      -1.186  -6.928  -5.315  0.00  0.00     0.073 A 
ATOM     13  N   UNL d   1      -1.987  -7.962  -5.774  0.00  0.00    -0.352 N 
ATOM     14  C   UNL d   1      -3.250  -7.694  -5.513  0.00  0.00     0.047 A 
ATOM     15  HN  UNL d   1      -1.650  -8.803  -6.244  1.00  0.00     0.166 HD
ATOM     16  C   UNL d   1      -4.385  -8.610  -5.809  0.00  0.00     0.076 C 
ATOM     17  S   UNL d   1      -3.548  -6.176  -4.764  0.00  0.00    -0.087 SA
ATOM     18  C   UNL d   1      -1.862  -5.868  -4.747  0.00  0.00     0.083 A 
ENDBRANCH   8  12
ENDBRANCH   5   6
ENDBRANCH   1   5
BRANCH   2  19
ATOM     19  N   UNL d   1       1.532  -2.865  -2.594  0.00  0.00    -0.249 N 
ATOM     20  C   UNL d   1       0.562  -1.971  -3.012  0.00  0.00     0.339 C 
ATOM     21  N   UNL d   1       0.672  -0.788  -2.287  0.00  0.00    -0.307 N 
ATOM     22  O   UNL d   1      -0.221  -2.200  -3.926  0.00  0.00    -0.245 OA
ATOM     23  H   UNL d   1       1.650  -0.598  -2.112  0.00  0.00     0.171 HD
ATOM     24  H   UNL d   1       1.935  -2.805  -1.665  0.00  0.00     0.192 HD
BRANCH  21  25
ATOM     25  C   UNL d   1      -0.088   0.355  -2.627  0.00  0.00     0.048 A 
ATOM     26  C   UNL d   1      -1.439   0.452  -2.235  0.00  0.00    -0.035 A 
ATOM     27  C   UNL d   1      -2.133   1.654  -2.466  0.00  0.00     0.009 A 
ATOM     28  C   UNL d   1      -2.180  -0.637  -1.510  0.00  0.00     0.050 C 
ATOM     29  C   UNL d   1      -1.507   2.738  -3.072  0.00  0.00     0.001 A 
ATOM     30  C   UNL d   1      -0.176   2.635  -3.466  0.00  0.00     0.009 A 
ATOM     31  C   UNL d   1       0.550   1.450  -3.250  0.00  0.00    -0.035 A 
ATOM     32  C   UNL d   1       1.961   1.416  -3.775  0.00  0.00     0.050 C 
ENDBRANCH  21  25
ENDBRANCH   2  19
TORSDOF 5
