REMARK  5 active torsions:
REMARK  status: ('A' for Active; 'I' for Inactive)
REMARK    1  A    between atoms: N_2  and  S_1 
REMARK    2  A    between atoms: C_5  and  S_1 
REMARK    3  A    between atoms: C_14  and  C_6 
REMARK    4  A    between atoms: O_25  and  C_14 
REMARK    5  A    between atoms: C_27  and  O_25 
ROOT
ATOM      1  N   UNL d   1       0.569  -0.329   1.615  0.00  0.00    -0.175 N 
ATOM      2  C   UNL d   1       0.427  -1.603   2.156  0.00  0.00     0.106 A 
ATOM      3  C   UNL d   1       0.667  -2.863   1.523  0.00  0.00     0.130 A 
ATOM      4  C   UNL d   1       1.208  -4.962   1.015  0.00  0.00     0.132 A 
ATOM      5  C   UNL d   1       1.182  -4.018   2.072  0.00  0.00     0.079 A 
ATOM      6  N   UNL d   1       0.684  -4.426  -0.098  0.00  0.00    -0.255 N 
ATOM      7  HN  UNL d   1       0.562  -4.884  -1.002  1.00  0.00     0.195 HD
ATOM      8  O   UNL d   1       0.344  -3.132   0.228  0.00  0.00    -0.235 OA
ATOM      9  N   UNL d   1       0.189   0.642   2.502  0.00  0.00    -0.295 N 
ATOM     10  HN  UNL d   1       0.160   1.650   2.348  1.00  0.00     0.187 HD
ATOM     11  C   UNL d   1       0.015  -1.406   3.462  0.00  0.00     0.054 A 
ATOM     12  C   UNL d   1      -0.132  -0.021   3.608  0.00  0.00     0.111 A 
ENDROOT
BRANCH   1  13
ATOM     13  S   UNL d   1       1.129   0.015  -0.001  0.00  0.00     0.284 S 
ATOM     14  O   UNL d   1       2.119  -1.006  -0.292  0.00  0.00    -0.198 OA
ATOM     15  O   UNL d   1       1.497   1.418  -0.038  0.00  0.00    -0.198 OA
BRANCH  13  16
ATOM     16  C   UNL d   1      -0.282  -0.219  -1.049  0.00  0.00     0.103 A 
ATOM     17  C   UNL d   1      -1.423   0.585  -0.957  0.00  0.00     0.059 A 
ATOM     18  C   UNL d   1      -2.512   0.341  -1.805  0.00  0.00     0.049 A 
ATOM     19 CL   UNL d   1      -1.603   1.906   0.132  0.00  0.00    -0.083 Cl
ATOM     20  C   UNL d   1      -2.458  -0.689  -2.741  0.00  0.00     0.035 A 
ATOM     21  C   UNL d   1      -1.314  -1.472  -2.858  0.00  0.00     0.025 A 
ATOM     22 CL   UNL d   1      -3.810  -0.989  -3.761  0.00  0.00    -0.084 Cl
ATOM     23  C   UNL d   1      -0.221  -1.228  -2.024  0.00  0.00     0.029 A 
ENDBRANCH  13  16
ENDBRANCH   1  13
BRANCH   4  24
ATOM     24  C   UNL d   1       1.758  -6.314   1.063  0.00  0.00     0.311 C 
ATOM     25  O   UNL d   1       2.246  -6.793   2.080  0.00  0.00    -0.258 OA
BRANCH  24  26
ATOM     26  O   UNL d   1       1.744  -6.935  -0.154  0.00  0.00    -0.317 OA
BRANCH  26  27
ATOM     27  C   UNL d   1       2.616  -8.063  -0.287  0.00  0.00     0.175 C 
ATOM     28  C   UNL d   1       3.993  -7.557  -0.682  0.00  0.00     0.034 C 
ENDBRANCH  26  27
ENDBRANCH  24  26
ENDBRANCH   4  24
TORSDOF 5
