REMARK  2 active torsions:
REMARK  status: ('A' for Active; 'I' for Inactive)
REMARK    1  A    between atoms: C_5  and  C_1 
REMARK    2  A    between atoms: O_15  and  C_3 
ROOT
ATOM      1  C   UNL d   1      -0.027  -1.133   0.075  0.00  0.00     0.041 C 
ATOM      2  C   UNL d   1       0.893  -0.292   0.667  0.00  0.00     0.169 C 
ATOM      3  N   UNL d   1       0.573   0.968   0.231  0.00  0.00    -0.275 N 
ATOM      4  N   UNL d   1      -0.573   1.018  -0.473  0.00  0.00    -0.300 N 
ATOM      5  HN  UNL d   1      -1.033   1.839  -0.866  1.00  0.00     0.187 HD
ATOM      6  C   UNL d   1      -0.970  -0.260  -0.539  0.00  0.00     0.036 C 
ATOM      7  C   UNL d   1       1.275   2.193   0.523  0.00  0.00     0.180 C 
ATOM      8  C   UNL d   1      -2.274  -0.592  -1.169  0.00  0.00     0.070 C 
ENDROOT
BRANCH   1   9
ATOM      9  C   UNL d   1      -0.115  -2.547   0.209  0.00  0.00     0.037 C 
ATOM     10  C   UNL d   1       0.857  -3.470   0.153  0.00  0.00     0.058 A 
ATOM     11  C   UNL d   1       0.548  -4.869   0.540  0.00  0.00     0.273 A 
ATOM     12  C   UNL d   1       2.308  -3.487  -0.115  0.00  0.00     0.038 A 
ATOM     13  N   UNL d   1       1.805  -5.467   0.569  0.00  0.00    -0.261 N 
ATOM     14  O   UNL d   1      -0.541  -5.329   0.823  0.00  0.00    -0.266 OA
ATOM     15  C   UNL d   1       2.063  -6.794   1.063  0.00  0.00     0.181 C 
ATOM     16  N   UNL d   1       2.846  -4.642   0.180  0.00  0.00    -0.300 N 
ATOM     17  HN  UNL d   1       3.835  -4.886   0.133  1.00  0.00     0.187 HD
ATOM     18  C   UNL d   1       3.113  -2.362  -0.674  0.00  0.00     0.070 C 
ENDBRANCH   1   9
BRANCH   2  19
ATOM     19  O   UNL d   1       1.890  -0.495   1.522  0.00  0.00    -0.344 OA
ATOM     20  H   UNL d   1       1.789  -1.391   1.889  0.00  0.00     0.219 HD
ENDBRANCH   2  19
TORSDOF 2
