REMARK  4 active torsions:
REMARK  status: ('A' for Active; 'I' for Inactive)
REMARK    1  A    between atoms: C_8  and  C_1 
REMARK    2  A    between atoms: S_21  and  C_2 
REMARK    3  A    between atoms: S_6  and  N_3 
REMARK    4  A    between atoms: C_11  and  C_4 
ROOT
ATOM      1  C   UNL d   1       0.615   1.312   0.005  0.00  0.00     0.023 A 
ATOM      2  C   UNL d   1      -0.771   1.299  -0.030  0.00  0.00     0.054 A 
ATOM      3  C   UNL d   1       0.160  -1.006   0.031  0.00  0.00     0.046 A 
ATOM      4  C   UNL d   1       1.171  -0.041   0.020  0.00  0.00    -0.028 A 
ATOM      5  S   UNL d   1      -1.395  -0.284  -0.011  0.00  0.00    -0.079 SA
ATOM      6  C   UNL d   1       2.640  -0.356   0.031  0.00  0.00     0.050 C 
ENDROOT
BRANCH   1   7
ATOM      7  C   UNL d   1       1.440   2.546   0.031  0.00  0.00     0.063 A 
ATOM      8  N   UNL d   1       1.072   3.643   0.709  0.00  0.00    -0.284 N 
ATOM      9  N   UNL d   1       2.025   4.555   0.403  0.00  0.00    -0.192 N 
ATOM     10  HN  UNL d   1       0.261   3.763   1.315  1.00  0.00     0.188 HD
ATOM     11  C   UNL d   1       3.042   4.038  -0.352  0.00  0.00     0.131 A 
ATOM     12  C   UNL d   1       2.670   2.746  -0.642  0.00  0.00     0.052 A 
BRANCH   9  13
ATOM     13  S   UNL d   1       1.984   6.218   0.843  0.00  0.00     0.245 S 
ATOM     14  O   UNL d   1       3.111   6.386   1.739  0.00  0.00    -0.204 OA
ATOM     15  O   UNL d   1       1.912   6.932  -0.420  0.00  0.00    -0.204 OA
ATOM     16  C   UNL d   1       0.483   6.492   1.743  0.00  0.00     0.188 C 
ENDBRANCH   9  13
ENDBRANCH   1   7
BRANCH   2  17
ATOM     17  S   UNL d   1      -1.892   2.661  -0.154  0.00  0.00    -0.126 SA
ATOM     18  C   UNL d   1      -2.157   3.019   1.598  0.00  0.00     0.096 C 
ENDBRANCH   2  17
BRANCH   3  19
ATOM     19  C   UNL d   1       0.293  -2.451   0.107  0.00  0.00     0.092 A 
ATOM     20  N   UNL d   1       1.293  -3.032   0.742  0.00  0.00    -0.353 N 
ATOM     21  C   UNL d   1       1.189  -4.412   0.675  0.00  0.00     0.012 A 
ATOM     22  HN  UNL d   1       2.043  -2.532   1.219  1.00  0.00     0.166 HD
ATOM     23  C   UNL d   1       2.230  -5.244   1.329  0.00  0.00     0.068 C 
ATOM     24  C   UNL d   1       0.085  -4.872  -0.013  0.00  0.00     0.076 A 
ATOM     25  S   UNL d   1      -0.823  -3.552  -0.616  0.00  0.00    -0.081 SA
ENDBRANCH   3  19
TORSDOF 4
