REMARK  5 active torsions:
REMARK  status: ('A' for Active; 'I' for Inactive)
REMARK    1  A    between atoms: C_4  and  C_1 
REMARK    2  A    between atoms: N_7  and  C_3 
REMARK    3  A    between atoms: O_12  and  C_4 
REMARK    4  A    between atoms: C_9  and  N_7 
REMARK    5  A    between atoms: C_15  and  O_12 
ROOT
ATOM      1  C   UNL d   1       2.943   1.328   2.447  0.00  0.00     0.134 C 
ATOM      2  C   UNL d   1       1.684   0.998   2.112  0.00  0.00     0.113 C 
ATOM      3  C   UNL d   1       3.748   0.488   3.257  0.00  0.00     0.107 C 
ATOM      4  N   UNL d   1       4.418  -0.199   3.918  0.00  0.00    -0.191 NA
ENDROOT
BRANCH   1   5
ATOM      5  C   UNL d   1       3.523   2.543   1.828  0.00  0.00     0.305 C 
ATOM      6  O   UNL d   1       2.899   3.331   1.132  0.00  0.00    -0.258 OA
BRANCH   5   7
ATOM      7  O   UNL d   1       4.857   2.595   2.073  0.00  0.00    -0.317 OA
BRANCH   7   8
ATOM      8  C   UNL d   1       5.624   3.429   1.194  0.00  0.00     0.174 C 
ATOM      9  C   UNL d   1       5.997   2.605  -0.026  0.00  0.00     0.034 C 
ENDBRANCH   7   8
ENDBRANCH   5   7
ENDBRANCH   1   5
BRANCH   2  10
ATOM     10  N   UNL d   1       0.946  -0.104   2.506  0.00  0.00    -0.384 N 
ATOM     11  H   UNL d   1       0.311  -0.451   1.779  0.00  0.00     0.159 HD
BRANCH  10  12
ATOM     12  C   UNL d   1       0.270  -0.197   3.824  0.00  0.00     0.173 C 
ATOM     13  C   UNL d   1      -0.385  -1.593   3.950  0.00  0.00     0.240 C 
ATOM     14  N   UNL d   1      -0.974  -1.924   5.137  0.00  0.00    -0.359 N 
ATOM     15  O   UNL d   1      -0.434  -2.397   3.018  0.00  0.00    -0.271 OA
ATOM     16  C   UNL d   1      -1.036  -1.114   6.331  0.00  0.00     0.122 C 
ATOM     17  H   UNL d   1      -1.375  -2.855   5.149  0.00  0.00     0.162 HD
ATOM     18  C   UNL d   1      -1.890   0.133   6.142  0.00  0.00     0.020 C 
ATOM     19  C   UNL d   1      -1.185   1.246   5.369  0.00  0.00     0.004 C 
ATOM     20  C   UNL d   1      -0.813   0.890   3.931  0.00  0.00     0.035 C 
ENDBRANCH  10  12
ENDBRANCH   2  10
TORSDOF 5
