REMARK  7 active torsions:
REMARK  status: ('A' for Active; 'I' for Inactive)
REMARK    1  A    between atoms: C_14  and  C_3 
REMARK    2  A    between atoms: C_4  and  C_13 
REMARK    3  A    between atoms: O_12  and  N_5 
REMARK    4  A    between atoms: C_10  and  C_15 
REMARK    5  A    between atoms: N_29  and  C_10 
REMARK    6  A    between atoms: C_11  and  O_12 
REMARK    7  A    between atoms: C_16  and  C_11 
ROOT
ATOM      1  N   UNL d   1       5.706  -5.920   0.684  0.00  0.00    -0.246 N 
ATOM      2  HN  UNL d   1       6.381  -6.682   0.621  1.00  0.00     0.196 HD
ATOM      3  C   UNL d   1       4.745  -5.741  -0.178  0.00  0.00     0.109 C 
ENDROOT
BRANCH   3   4
ATOM      4  C   UNL d   1       4.646  -6.705  -1.345  0.00  0.00     0.004 A 
ATOM      5  C   UNL d   1       5.545  -7.777  -1.442  0.00  0.00     0.015 A 
ATOM      6  C   UNL d   1       5.472  -8.685  -2.510  0.00  0.00     0.014 A 
ATOM      7  C   UNL d   1       4.500  -8.545  -3.510  0.00  0.00    -0.009 A 
ATOM      8  C   UNL d   1       3.616  -7.463  -3.425  0.00  0.00     0.014 A 
ATOM      9  C   UNL d   1       3.678  -6.560  -2.349  0.00  0.00     0.015 A 
BRANCH   7  10
ATOM     10  C   UNL d   1       4.383  -9.500  -4.611  0.00  0.00     0.049 A 
ATOM     11  N   UNL d   1       3.896  -9.125  -5.858  0.00  0.00    -0.353 N 
ATOM     12  C   UNL d   1       3.886 -10.163  -6.670  0.00  0.00     0.047 A 
ATOM     13  HN  UNL d   1       3.592  -8.185  -6.108  1.00  0.00     0.166 HD
ATOM     14  S   UNL d   1       4.416 -11.646  -5.983  0.00  0.00    -0.087 SA
ATOM     15  C   UNL d   1       3.451 -10.128  -8.094  0.00  0.00     0.076 C 
ATOM     16  C   UNL d   1       4.697 -10.841  -4.498  0.00  0.00     0.081 A 
ENDBRANCH   7  10
ENDBRANCH   3   4
BRANCH   3  17
ATOM     17  N   UNL d   1       3.841  -4.711  -0.065  0.00  0.00    -0.286 NA
ATOM     18  H   UNL d   1       4.152  -4.000   0.586  0.00  0.00     0.125 HD
ATOM     19  H   UNL d   1       3.482  -4.316  -0.924  0.00  0.00     0.125 HD
ENDBRANCH   3  17
BRANCH   1  20
ATOM     20  O   UNL d   1       5.720  -4.947   1.722  0.00  0.00    -0.193 OA
BRANCH  20  21
ATOM     21  C   UNL d   1       6.735  -5.252   2.594  0.00  0.00     0.315 C 
ATOM     22  O   UNL d   1       7.489  -6.213   2.531  0.00  0.00    -0.257 OA
BRANCH  21  23
ATOM     23  C   UNL d   1       6.876  -4.242   3.693  0.00  0.00     0.041 A 
ATOM     24  C   UNL d   1       7.923  -4.440   4.610  0.00  0.00     0.018 A 
ATOM     25  C   UNL d   1       8.148  -3.544   5.661  0.00  0.00     0.017 A 
ATOM     26  C   UNL d   1       7.330  -2.420   5.820  0.00  0.00     0.048 A 
ATOM     27  C   UNL d   1       6.277  -2.221   4.911  0.00  0.00     0.017 A 
ATOM     28  C   UNL d   1       6.049  -3.125   3.854  0.00  0.00     0.018 A 
BRANCH  26  29
ATOM     29  C   UNL d   1       7.586  -1.436   6.944  0.00  0.00     0.417 C 
ATOM     30  F   UNL d   1       8.638  -1.777   7.739  0.00  0.00    -0.166 F 
ATOM     31  F   UNL d   1       7.859  -0.182   6.486  0.00  0.00    -0.166 F 
ATOM     32  F   UNL d   1       6.518  -1.305   7.778  0.00  0.00    -0.166 F 
ENDBRANCH  26  29
ENDBRANCH  21  23
ENDBRANCH  20  21
ENDBRANCH   1  20
TORSDOF 7
