REMARK  4 active torsions:
REMARK  status: ('A' for Active; 'I' for Inactive)
REMARK       I    between atoms: C_2  and  N_1 
REMARK    1  A    between atoms: C_5  and  C_2 
REMARK       I    between atoms: C_3  and  N_4 
REMARK    2  A    between atoms: C_10  and  C_3 
REMARK    3  A    between atoms: N_4  and  C_11 
REMARK    4  A    between atoms: C_14  and  C_5 
ROOT
ATOM      1  N   UNL d   1       1.336  -0.074   0.131  0.00  0.00    -0.352 N 
ATOM      2  C   UNL d   1       2.305  -0.043   1.129  0.00  0.00     0.224 C 
ATOM      3  C   UNL d   1       0.693   1.089  -0.475  0.00  0.00     0.127 C 
ATOM      4  C   UNL d   1       0.715  -1.349  -0.224  0.00  0.00     0.127 C 
ATOM      5  O   UNL d   1       2.665  -1.073   1.709  0.00  0.00    -0.273 OA
ATOM      6  C   UNL d   1      -1.532  -0.122  -0.325  0.00  0.00     0.087 C 
ATOM      7  C   UNL d   1      -0.761   1.173  -0.022  0.00  0.00     0.045 C 
ATOM      8  C   UNL d   1      -0.765  -1.367   0.148  0.00  0.00     0.045 C 
ENDROOT
BRANCH   6   9
ATOM      9  N   UNL d   1      -1.908  -0.205  -1.739  0.00  0.00    -0.356 N 
ATOM     10  C   UNL d   1      -3.043   0.428  -2.218  0.00  0.00     0.222 C 
ATOM     11  O   UNL d   1      -3.812   1.043  -1.480  0.00  0.00    -0.273 OA
ATOM     12  H   UNL d   1      -1.226  -0.539  -2.408  0.00  0.00     0.162 HD
BRANCH  10  13
ATOM     13  C   UNL d   1      -3.228   0.359  -3.741  0.00  0.00     0.078 C 
ATOM     14  C   UNL d   1      -4.479   1.123  -4.213  0.00  0.00     0.014 C 
ATOM     15  C   UNL d   1      -5.787   0.378  -3.938  0.00  0.00     0.001 C 
ATOM     16  C   UNL d   1      -5.759  -1.048  -4.473  0.00  0.00     0.000 C 
ATOM     17  C   UNL d   1      -4.539  -1.814  -3.971  0.00  0.00     0.001 C 
ATOM     18  C   UNL d   1      -3.240  -1.075  -4.287  0.00  0.00     0.014 C 
ENDBRANCH  10  13
ENDBRANCH   6   9
BRANCH   2  19
ATOM     19  C   UNL d   1       2.947   1.289   1.511  0.00  0.00     0.141 C 
BRANCH  19  20
ATOM     20  C   UNL d   1       2.228   2.074   2.586  0.00  0.00    -0.050 A 
ATOM     21  C   UNL d   1       1.442   1.453   3.568  0.00  0.00     0.007 A 
ATOM     22  C   UNL d   1       0.777   2.212   4.535  0.00  0.00     0.001 A 
ATOM     23  C   UNL d   1       0.914   3.597   4.554  0.00  0.00     0.000 A 
ATOM     24  C   UNL d   1       1.741   4.223   3.626  0.00  0.00     0.001 A 
ATOM     25  C   UNL d   1       2.400   3.466   2.653  0.00  0.00     0.007 A 
ENDBRANCH  19  20
ENDBRANCH   2  19
TORSDOF 4
