REMARK  2 active torsions:
REMARK  status: ('A' for Active; 'I' for Inactive)
REMARK    1  A    between atoms: C_2  and  S_1 
REMARK    2  A    between atoms: N_3  and  S_1 
ROOT
ATOM      1  S   UNL d   1       1.421  -0.025   0.081  0.00  0.00     0.262 S 
ATOM      2  O   UNL d   1       1.379  -0.242  -1.348  0.00  0.00    -0.200 OA
ATOM      3  O   UNL d   1       2.697   0.137   0.752  0.00  0.00    -0.200 OA
ENDROOT
BRANCH   1   4
ATOM      4  C   UNL d   1       0.609  -1.399   0.848  0.00  0.00     0.103 A 
ATOM      5  C   UNL d   1       0.213  -2.478   0.038  0.00  0.00     0.052 A 
ATOM      6  C   UNL d   1      -0.464  -3.564   0.598  0.00  0.00     0.057 A 
ATOM      7 CL   UNL d   1      -0.954  -4.840  -0.456  0.00  0.00    -0.083 Cl
ATOM      8  C   UNL d   1      -0.735  -3.579   1.970  0.00  0.00     0.057 A 
ATOM      9  C   UNL d   1      -0.306  -2.521   2.777  0.00  0.00     0.051 A 
ATOM     10 CL   UNL d   1      -1.612  -4.859   2.727  0.00  0.00    -0.082 Cl
ATOM     11  C   UNL d   1       0.369  -1.428   2.223  0.00  0.00     0.059 A 
ATOM     12 CL   UNL d   1       0.840  -0.180   3.317  0.00  0.00    -0.083 Cl
ENDBRANCH   1   4
BRANCH   1  13
ATOM     13  N   UNL d   1       0.415   1.304   0.448  0.00  0.00    -0.306 N 
ATOM     14  C   UNL d   1      -0.947   1.352  -0.141  0.00  0.00     0.139 C 
ATOM     15  C   UNL d   1      -0.907   1.836  -1.596  0.00  0.00     0.000 C 
ATOM     16  C   UNL d   1      -2.307   1.897  -2.197  0.00  0.00     0.011 C 
ATOM     17  C   UNL d   1      -0.186   3.189  -1.699  0.00  0.00     0.007 C 
ATOM     18  C   UNL d   1       1.182   3.146  -1.015  0.00  0.00     0.021 C 
ATOM     19  C   UNL d   1       1.070   2.637   0.417  0.00  0.00     0.135 C 
ENDBRANCH   1  13
TORSDOF 2
