REMARK  6 active torsions:
REMARK  status: ('A' for Active; 'I' for Inactive)
REMARK    1  A    between atoms: C_8  and  C_1 
REMARK    2  A    between atoms: C_9  and  C_3 
REMARK    3  A    between atoms: C_7  and  C_9 
REMARK    4  A    between atoms: O_14  and  C_8 
REMARK    5  A    between atoms: N_13  and  C_10 
REMARK    6  A    between atoms: C_17  and  O_14 
ROOT
ATOM      1  C   UNL d   1      -0.221  -1.214  -0.051  0.00  0.00     0.132 A 
ATOM      2  C   UNL d   1      -1.355  -0.364  -0.056  0.00  0.00     0.081 A 
ATOM      3  C   UNL d   1      -0.845   0.914  -0.060  0.00  0.00     0.151 A 
ATOM      4  N   UNL d   1       0.909  -0.486  -0.077  0.00  0.00    -0.255 N 
ATOM      5  HN  UNL d   1       1.866  -0.840  -0.092  1.00  0.00     0.195 HD
ATOM      6  O   UNL d   1       0.514   0.836  -0.080  0.00  0.00    -0.233 OA
ENDROOT
BRANCH   3   7
ATOM      7  C   UNL d   1      -1.498   2.202  -0.037  0.00  0.00     0.208 C 
ATOM      8  O   UNL d   1      -2.723   2.312  -0.021  0.00  0.00    -0.285 OA
BRANCH   7   9
ATOM      9  C   UNL d   1      -0.631   3.419  -0.032  0.00  0.00     0.074 C 
ATOM     10  C   UNL d   1      -1.164   4.648  -0.039  0.00  0.00     0.088 C 
BRANCH  10  11
ATOM     11  N   UNL d   1      -0.532   5.884  -0.040  0.00  0.00    -0.398 N 
ATOM     12  C   UNL d   1       0.916   6.081  -0.038  0.00  0.00     0.148 C 
ATOM     13  C   UNL d   1      -1.298   7.134  -0.062  0.00  0.00     0.148 C 
ENDBRANCH  10  11
ENDBRANCH   7   9
ENDBRANCH   3   7
BRANCH   1  14
ATOM     14  C   UNL d   1      -0.222  -2.672   0.042  0.00  0.00     0.311 C 
ATOM     15  O   UNL d   1      -1.255  -3.327   0.139  0.00  0.00    -0.258 OA
BRANCH  14  16
ATOM     16  O   UNL d   1       1.035  -3.202   0.108  0.00  0.00    -0.317 OA
BRANCH  16  17
ATOM     17  C   UNL d   1       1.123  -4.519   0.665  0.00  0.00     0.175 C 
ATOM     18  C   UNL d   1       1.214  -4.385   2.175  0.00  0.00     0.034 C 
ENDBRANCH  16  17
ENDBRANCH  14  16
ENDBRANCH   1  14
TORSDOF 6
