REMARK  4 active torsions:
REMARK  status: ('A' for Active; 'I' for Inactive)
REMARK    1  A    between atoms: C_3  and  C_1 
REMARK    2  A    between atoms: S_16  and  C_8 
REMARK    3  A    between atoms: C_13  and  C_17 
REMARK    4  A    between atoms: C_17  and  S_16 
ROOT
ATOM      1  C   UNL d   1       0.035   1.102   0.036  0.00  0.00     0.151 A 
ATOM      2  N   UNL d   1       0.852  -0.003  -0.008  0.00  0.00    -0.314 N 
ATOM      3  N   UNL d   1      -1.219   0.699   0.145  0.00  0.00    -0.281 N 
ATOM      4  HN  UNL d   1      -2.035   1.303   0.240  1.00  0.00     0.188 HD
ATOM      5  C   UNL d   1       0.007  -1.081   0.009  0.00  0.00     0.163 A 
ATOM      6  N   UNL d   1      -1.236  -0.674   0.108  0.00  0.00    -0.278 N 
ATOM      7  HN  UNL d   1      -2.064  -1.268   0.150  1.00  0.00     0.189 HD
ATOM      8  C   UNL d   1       2.289  -0.053  -0.032  0.00  0.00     0.160 C 
ENDROOT
BRANCH   1   9
ATOM      9  C   UNL d   1       0.422   2.544  -0.048  0.00  0.00     0.086 A 
ATOM     10  N   UNL d   1       1.708   2.957  -0.342  0.00  0.00    -0.346 N 
ATOM     11  C   UNL d   1       1.766   4.275  -0.405  0.00  0.00     0.091 A 
ATOM     12  HN  UNL d   1       2.501   2.332  -0.489  1.00  0.00     0.167 HD
ATOM     13  C   UNL d   1       2.999   4.946  -0.755  0.00  0.00     0.038 A 
ATOM     14  S   UNL d   1       0.281   5.078  -0.065  0.00  0.00    -0.081 SA
ATOM     15  S   UNL d   1       3.177   6.652  -0.837  0.00  0.00    -0.099 SA
ATOM     16  C   UNL d   1       4.191   4.318  -1.082  0.00  0.00     0.022 A 
ATOM     17  C   UNL d   1       4.814   6.539  -1.312  0.00  0.00     0.050 A 
ATOM     18  C   UNL d   1       5.234   5.232  -1.405  0.00  0.00     0.008 A 
ATOM     19  C   UNL d   1      -0.490   3.563   0.131  0.00  0.00     0.085 A 
ENDBRANCH   1   9
BRANCH   5  20
ATOM     20  S   UNL d   1       0.540  -2.725  -0.076  0.00  0.00    -0.088 SA
BRANCH  20  21
ATOM     21  C   UNL d   1      -0.975  -3.524  -0.691  0.00  0.00     0.126 C 
BRANCH  21  22
ATOM     22  C   UNL d   1      -0.840  -5.024  -0.752  0.00  0.00     0.012 A 
ATOM     23  C   UNL d   1      -0.365  -5.622  -1.926  0.00  0.00     0.125 A 
ATOM     24  F   UNL d   1      -0.026  -4.857  -2.974  0.00  0.00    -0.205 F 
ATOM     25  C   UNL d   1      -0.237  -7.005  -2.052  0.00  0.00     0.043 A 
ATOM     26  C   UNL d   1      -0.584  -7.829  -0.987  0.00  0.00     0.005 A 
ATOM     27  C   UNL d   1      -1.044  -7.260   0.200  0.00  0.00     0.024 A 
ATOM     28  C   UNL d   1      -1.166  -5.869   0.320  0.00  0.00     0.044 A 
ATOM     29 CL   UNL d   1      -1.734  -5.252   1.831  0.00  0.00    -0.084 Cl
ENDBRANCH  21  22
ENDBRANCH  20  21
ENDBRANCH   5  20
TORSDOF 4
