REMARK  3 active torsions:
REMARK  status: ('A' for Active; 'I' for Inactive)
REMARK    1  A    between atoms: C_8  and  C_3 
REMARK    2  A    between atoms: C_6  and  C_8 
REMARK       I    between atoms: N_7  and  C_6 
REMARK    3  A    between atoms: C_9  and  N_7 
ROOT
ATOM      1  C   UNL d   1      -3.125  -2.656   0.239  0.00  0.00     0.226 C 
ATOM      2  N   UNL d   1      -3.875  -1.583  -0.188  0.00  0.00    -0.325 N 
ATOM      3  O   UNL d   1      -3.598  -3.708   0.677  0.00  0.00    -0.273 OA
ATOM      4  H   UNL d   1      -3.478  -1.018  -0.934  0.00  0.00     0.169 HD
ENDROOT
BRANCH   1   5
ATOM      5  C   UNL d   1      -1.623  -2.454   0.239  0.00  0.00     0.143 C 
BRANCH   5   6
ATOM      6  C   UNL d   1      -0.982  -2.117  -1.082  0.00  0.00    -0.023 A 
ATOM      7  C   UNL d   1      -0.361  -0.931  -1.425  0.00  0.00     0.059 A 
ATOM      8  S   UNL d   1       0.442  -0.978  -2.920  0.00  0.00    -0.075 SA
ATOM      9 BR   UNL d   1      -0.334   0.618  -0.360  0.00  0.00    -0.042 Br
ATOM     10  C   UNL d   1      -0.056  -2.569  -3.185  0.00  0.00     0.053 A 
ATOM     11 BR   UNL d   1       0.412  -3.552  -4.704  0.00  0.00    -0.043 Br
ATOM     12  C   UNL d   1      -0.827  -3.069  -2.160  0.00  0.00     0.036 A 
ENDBRANCH   5   6
ENDBRANCH   1   5
BRANCH   2  13
ATOM     13  C   UNL d   1      -5.287  -1.520  -0.048  0.00  0.00     0.056 A 
ATOM     14  C   UNL d   1      -6.069  -0.975  -1.079  0.00  0.00     0.060 A 
ATOM     15 CL   UNL d   1      -5.343  -0.433  -2.551  0.00  0.00    -0.082 Cl
ATOM     16  C   UNL d   1      -7.462  -0.913  -0.957  0.00  0.00     0.026 A 
ATOM     17  C   UNL d   1      -8.082  -1.350   0.214  0.00  0.00     0.002 A 
ATOM     18  C   UNL d   1      -7.311  -1.858   1.259  0.00  0.00     0.002 A 
ATOM     19  C   UNL d   1      -5.920  -1.958   1.127  0.00  0.00     0.031 A 
ENDBRANCH   2  13
TORSDOF 3
