REMARK  5 active torsions:
REMARK  status: ('A' for Active; 'I' for Inactive)
REMARK    1  A    between atoms: C_7  and  C_1 
REMARK    2  A    between atoms: C_12  and  C_6 
REMARK       I    between atoms: N_10  and  C_7 
REMARK    3  A    between atoms: C_8  and  C_13 
REMARK       I    between atoms: C_9  and  N_11 
REMARK    4  A    between atoms: C_14  and  C_9 
REMARK    5  A    between atoms: N_11  and  N_10 
ROOT
ATOM      1  C   UNL d   1      -0.249  -2.662   0.094  0.00  0.00     0.288 C 
ATOM      2  N   UNL d   1       0.748  -3.621   0.083  0.00  0.00    -0.262 N 
ATOM      3  O   UNL d   1      -1.427  -3.006   0.199  0.00  0.00    -0.264 OA
ATOM      4  H   UNL d   1       1.728  -3.423  -0.095  0.00  0.00     0.190 HD
ENDROOT
BRANCH   2   5
ATOM      5  N   UNL d   1       0.397  -4.974   0.214  0.00  0.00    -0.263 N 
ATOM      6  C   UNL d   1       1.270  -5.922  -0.276  0.00  0.00     0.270 C 
ATOM      7  O   UNL d   1       2.340  -5.639  -0.804  0.00  0.00    -0.266 OA
ATOM      8  H   UNL d   1      -0.584  -5.169   0.411  0.00  0.00     0.190 HD
BRANCH   6   9
ATOM      9  C   UNL d   1       0.854  -7.341  -0.129  0.00  0.00     0.033 A 
ATOM     10  C   UNL d   1       1.243  -8.264  -1.107  0.00  0.00     0.018 A 
ATOM     11  C   UNL d   1       0.942  -9.622  -0.954  0.00  0.00     0.017 A 
ATOM     12  C   UNL d   1       0.267 -10.079   0.188  0.00  0.00     0.048 A 
ATOM     13  C   UNL d   1      -0.124  -9.145   1.163  0.00  0.00     0.017 A 
ATOM     14  C   UNL d   1       0.165  -7.785   1.008  0.00  0.00     0.018 A 
BRANCH  12  15
ATOM     15  C   UNL d   1      -0.013 -11.549   0.397  0.00  0.00     0.417 C 
ATOM     16  F   UNL d   1       0.386 -12.335  -0.641  0.00  0.00    -0.166 F 
ATOM     17  F   UNL d   1       0.614 -12.042   1.501  0.00  0.00    -0.166 F 
ATOM     18  F   UNL d   1      -1.339 -11.807   0.574  0.00  0.00    -0.166 F 
ENDBRANCH  12  15
ENDBRANCH   6   9
ENDBRANCH   2   5
BRANCH   1  19
ATOM     19  C   UNL d   1       0.200  -1.286   0.008  0.00  0.00     0.121 A 
ATOM     20  N   UNL d   1      -0.612  -0.174  -0.029  0.00  0.00    -0.291 N 
ATOM     21  N   UNL d   1       0.066   0.992  -0.061  0.00  0.00    -0.302 N 
ATOM     22  C   UNL d   1      -2.054  -0.078  -0.045  0.00  0.00     0.178 C 
ATOM     23  C   UNL d   1       1.355   0.647  -0.055  0.00  0.00     0.036 A 
ATOM     24  HN  UNL d   1      -0.323   1.934  -0.084  1.00  0.00     0.186 HD
ATOM     25  C   UNL d   1       1.486  -0.765  -0.032  0.00  0.00     0.064 A 
BRANCH  23  26
ATOM     26  C   UNL d   1       2.458   1.696  -0.074  0.00  0.00    -0.007 C 
ATOM     27  C   UNL d   1       3.278   1.569  -1.373  0.00  0.00     0.021 C 
ATOM     28  C   UNL d   1       1.903   3.136  -0.003  0.00  0.00     0.021 C 
ATOM     29  C   UNL d   1       3.398   1.498   1.133  0.00  0.00     0.021 C 
ENDBRANCH  23  26
ENDBRANCH   1  19
TORSDOF 5
