REMARK  6 active torsions:
REMARK  status: ('A' for Active; 'I' for Inactive)
REMARK    1  A    between atoms: C_2  and  S_1 
REMARK    2  A    between atoms: N_3  and  S_1 
REMARK    3  A    between atoms: C_4  and  N_3 
REMARK    4  A    between atoms: C_22  and  N_3 
REMARK    5  A    between atoms: C_10  and  C_4 
REMARK    6  A    between atoms: C_19  and  C_22 
ROOT
ATOM      1  N   UNL d   1       2.747  -0.664  -4.131  0.00  0.00    -0.197 NA
ATOM      2  C   UNL d   1       2.555   0.288  -3.489  0.00  0.00     0.060 C 
ATOM      3  C   UNL d   1       2.335   1.486  -2.677  0.00  0.00     0.144 C 
ENDROOT
BRANCH   3   4
ATOM      4  C   UNL d   1       0.908   1.569  -2.136  0.00  0.00     0.149 C 
BRANCH   4   5
ATOM      5  N   UNL d   1       0.465   0.396  -1.321  0.00  0.00    -0.300 N 
BRANCH   5   6
ATOM      6  S   UNL d   1       1.223   0.105   0.173  0.00  0.00     0.261 S 
ATOM      7  O   UNL d   1       2.518   0.749   0.185  0.00  0.00    -0.200 OA
ATOM      8  O   UNL d   1       0.296   0.296   1.265  0.00  0.00    -0.200 OA
BRANCH   6   9
ATOM      9  C   UNL d   1       1.536  -1.644   0.082  0.00  0.00     0.083 A 
ATOM     10  C   UNL d   1       2.750  -2.094  -0.445  0.00  0.00     0.049 A 
ATOM     11  C   UNL d   1       3.040  -3.455  -0.407  0.00  0.00     0.037 A 
ATOM     12 CL   UNL d   1       4.543  -4.021  -1.023  0.00  0.00    -0.084 Cl
ATOM     13  C   UNL d   1       2.137  -4.361   0.146  0.00  0.00     0.047 A 
ATOM     14  C   UNL d   1       0.932  -3.896   0.671  0.00  0.00     0.037 A 
ATOM     15  C   UNL d   1       0.624  -2.538   0.650  0.00  0.00     0.049 A 
ATOM     16 CL   UNL d   1      -0.179  -5.005   1.372  0.00  0.00    -0.084 Cl
ENDBRANCH   6   9
ENDBRANCH   5   6
BRANCH   5  17
ATOM     17  C   UNL d   1      -1.009   0.154  -1.385  0.00  0.00     0.200 C 
BRANCH  17  18
ATOM     18  C   UNL d   1      -1.771   1.147  -0.573  0.00  0.00     0.071 A 
ATOM     19  O   UNL d   1      -1.627   2.466  -0.899  0.00  0.00    -0.325 OA
ATOM     20  C   UNL d   1      -2.259   3.185   0.064  0.00  0.00     0.142 A 
ATOM     21  C   UNL d   1      -2.857   2.348   0.975  0.00  0.00     0.027 A 
ATOM     22  C   UNL d   1      -2.576   1.029   0.543  0.00  0.00     0.036 A 
ENDBRANCH  17  18
ENDBRANCH   5  17
ENDBRANCH   4   5
ENDBRANCH   3   4
TORSDOF 6
