REMARK  5 active torsions:
REMARK  status: ('A' for Active; 'I' for Inactive)
REMARK    1  A    between atoms: C_11  and  C_3 
REMARK    2  A    between atoms: C_14  and  C_4 
REMARK    3  A    between atoms: O_13  and  N_7 
REMARK    4  A    between atoms: C_9  and  O_13 
REMARK    5  A    between atoms: C_15  and  C_9 
ROOT
ATOM      1  C   UNL d   1      -0.192  -3.544  -0.099  0.00  0.00    -0.039 A 
ATOM      2  C   UNL d   1       0.643  -4.679  -0.104  0.00  0.00    -0.043 A 
ATOM      3  C   UNL d   1      -1.579  -3.687  -0.051  0.00  0.00    -0.005 A 
ATOM      4  C   UNL d   1      -1.260  -6.165   0.021  0.00  0.00    -0.049 A 
ATOM      5  C   UNL d   1       0.124  -5.968  -0.050  0.00  0.00     0.016 A 
ATOM      6  C   UNL d   1      -2.083  -5.011  -0.004  0.00  0.00     0.022 A 
ATOM      7  C   UNL d   1       2.110  -4.307  -0.134  0.00  0.00    -0.020 C 
ATOM      8  C   UNL d   1       0.650  -2.301  -0.085  0.00  0.00     0.041 C 
ATOM      9  C   UNL d   1       2.016  -2.825  -0.559  0.00  0.00     0.018 C 
ATOM     10  C   UNL d   1       2.916  -5.118  -1.158  0.00  0.00     0.020 C 
ATOM     11  C   UNL d   1       2.735  -4.463   1.259  0.00  0.00     0.020 C 
ENDROOT
BRANCH   3  12
ATOM     12  C   UNL d   1      -2.549  -2.517  -0.037  0.00  0.00     0.039 C 
ATOM     13  N   UNL d   1      -2.109  -1.290  -0.040  0.00  0.00    -0.261 N 
ATOM     14  HN  UNL d   1      -1.120  -1.041  -0.060  1.00  0.00     0.194 HD
ATOM     15  C   UNL d   1      -4.037  -2.848  -0.006  0.00  0.00     0.071 C 
BRANCH  13  16
ATOM     16  O   UNL d   1      -3.160  -0.343  -0.013  0.00  0.00    -0.195 OA
BRANCH  16  17
ATOM     17  C   UNL d   1      -2.679   0.933  -0.040  0.00  0.00     0.315 C 
ATOM     18  O   UNL d   1      -1.506   1.289  -0.097  0.00  0.00    -0.257 OA
BRANCH  17  19
ATOM     19  C   UNL d   1      -3.808   1.913   0.044  0.00  0.00     0.041 A 
ATOM     20  C   UNL d   1      -3.494   3.268   0.222  0.00  0.00     0.018 A 
ATOM     21  C   UNL d   1      -4.505   4.229   0.330  0.00  0.00     0.007 A 
ATOM     22  C   UNL d   1      -5.851   3.855   0.257  0.00  0.00    -0.062 A 
ATOM     23  C   UNL d   1      -6.169   2.505   0.067  0.00  0.00     0.007 A 
ATOM     24  C   UNL d   1      -6.926   4.894   0.396  0.00  0.00     0.048 C 
ATOM     25  C   UNL d   1      -5.156   1.540  -0.041  0.00  0.00     0.018 A 
ENDBRANCH  17  19
ENDBRANCH  16  17
ENDBRANCH  13  16
ENDBRANCH   3  12
BRANCH   4  26
ATOM     26  C   UNL d   1      -1.859  -7.585   0.079  0.00  0.00    -0.024 C 
ATOM     27  C   UNL d   1      -2.074  -8.083  -1.363  0.00  0.00     0.019 C 
ATOM     28  C   UNL d   1      -0.932  -8.585   0.813  0.00  0.00     0.019 C 
ATOM     29  C   UNL d   1      -3.215  -7.634   0.822  0.00  0.00     0.019 C 
ENDBRANCH   4  26
TORSDOF 5
