REMARK  4 active torsions:
REMARK  status: ('A' for Active; 'I' for Inactive)
REMARK    1  A    between atoms: C_2  and  S_1 
REMARK    2  A    between atoms: C_13  and  S_1 
REMARK    3  A    between atoms: N_5  and  C_3 
REMARK       I    between atoms: C_4  and  N_5 
REMARK    4  A    between atoms: C_6  and  C_4 
ROOT
ATOM      1  C   UNL d   1      -0.602  -0.755   0.857  0.00  0.00     0.093 A 
ATOM      2  C   UNL d   1      -0.148  -2.031   1.355  0.00  0.00     0.063 A 
ATOM      3  S   UNL d   1      -1.219  -0.807   3.365  0.00  0.00    -0.110 SA
ATOM      4  C   UNL d   1      -1.229  -0.021   1.852  0.00  0.00     0.075 A 
ATOM      5  C   UNL d   1      -0.356  -2.128   2.720  0.00  0.00     0.080 A 
ENDROOT
BRANCH   2   6
ATOM      6  N   UNL d   1       0.506  -3.079   0.714  0.00  0.00    -0.321 N 
ATOM      7  C   UNL d   1       0.232  -3.505  -0.565  0.00  0.00     0.257 C 
ATOM      8  O   UNL d   1      -0.750  -3.120  -1.196  0.00  0.00    -0.267 OA
ATOM      9  H   UNL d   1       1.054  -3.697   1.301  0.00  0.00     0.169 HD
BRANCH   7  10
ATOM     10  C   UNL d   1       1.140  -4.529  -1.183  0.00  0.00     0.054 A 
ATOM     11  C   UNL d   1       2.203  -5.200  -0.555  0.00  0.00     0.049 A 
ATOM     12 CL   UNL d   1       2.598  -5.055   1.124  0.00  0.00    -0.083 Cl
ATOM     13  C   UNL d   1       3.013  -6.083  -1.288  0.00  0.00     0.025 A 
ATOM     14  C   UNL d   1       2.769  -6.323  -2.639  0.00  0.00     0.002 A 
ATOM     15  C   UNL d   1       1.703  -5.692  -3.266  0.00  0.00     0.001 A 
ATOM     16  C   UNL d   1       0.898  -4.806  -2.546  0.00  0.00     0.019 A 
ENDBRANCH   7  10
ENDBRANCH   2   6
BRANCH   1  17
ATOM     17  S   UNL d   1      -0.208   0.002  -0.664  0.00  0.00     0.181 S 
ATOM     18  O   UNL d   1       0.978  -0.684  -1.142  0.00  0.00    -0.222 OA
ATOM     19  O   UNL d   1      -0.136   1.415  -0.329  0.00  0.00    -0.222 OA
BRANCH  17  20
ATOM     20  C   UNL d   1      -1.562  -0.218  -1.824  0.00  0.00     0.105 C 
ATOM     21  C   UNL d   1      -2.877   0.369  -1.322  0.00  0.00     0.026 C 
ATOM     22  C   UNL d   1      -1.177   0.432  -3.158  0.00  0.00     0.026 C 
ENDBRANCH  17  20
ENDBRANCH   1  17
TORSDOF 4
