REMARK  3 active torsions:
REMARK  status: ('A' for Active; 'I' for Inactive)
REMARK    1  A    between atoms: C_2  and  S_1 
REMARK    2  A    between atoms: C_7  and  S_1 
REMARK    3  A    between atoms: N_6  and  C_3 
ROOT
ATOM      1  C   UNL d   1       0.450  -1.566   0.629  0.00  0.00     0.159 C 
ATOM      2  C   UNL d   1      -0.249  -1.541   1.777  0.00  0.00     0.120 C 
ATOM      3  C   UNL d   1       0.920  -0.414  -0.042  0.00  0.00     0.113 C 
ATOM      4  N   UNL d   1       1.290   0.524  -0.615  0.00  0.00    -0.191 NA
ENDROOT
BRANCH   1   5
ATOM      5  S   UNL d   1       0.858  -3.103  -0.058  0.00  0.00     0.218 S 
ATOM      6  O   UNL d   1      -0.135  -4.103   0.305  0.00  0.00    -0.216 OA
ATOM      7  O   UNL d   1       2.266  -3.369   0.176  0.00  0.00    -0.216 OA
BRANCH   5   8
ATOM      8  C   UNL d   1       0.652  -2.869  -1.820  0.00  0.00     0.065 A 
ATOM      9  C   UNL d   1       1.752  -3.002  -2.674  0.00  0.00     0.025 A 
ATOM     10  C   UNL d   1       1.577  -2.832  -4.050  0.00  0.00     0.025 A 
ATOM     11  C   UNL d   1       0.312  -2.532  -4.559  0.00  0.00     0.034 A 
ATOM     12  C   UNL d   1      -0.785  -2.405  -3.705  0.00  0.00     0.025 A 
ATOM     13 CL   UNL d   1       0.101  -2.329  -6.254  0.00  0.00    -0.084 Cl
ATOM     14  C   UNL d   1      -0.621  -2.581  -2.329  0.00  0.00     0.025 A 
ENDBRANCH   5   8
ENDBRANCH   1   5
BRANCH   2  15
ATOM     15  N   UNL d   1      -0.772  -0.487   2.518  0.00  0.00    -0.388 N 
ATOM     16  C   UNL d   1      -1.424  -0.674   3.821  0.00  0.00     0.122 C 
ATOM     17  C   UNL d   1      -2.642   0.232   3.749  0.00  0.00     0.021 C 
ATOM     18  C   UNL d   1      -2.124   1.428   2.973  0.00  0.00     0.021 C 
ATOM     19  C   UNL d   1      -1.152   0.823   1.962  0.00  0.00     0.122 C 
ENDBRANCH   2  15
TORSDOF 3
