REMARK  6 active torsions:
REMARK  status: ('A' for Active; 'I' for Inactive)
REMARK    1  A    between atoms: C_2  and  C_1 
REMARK    2  A    between atoms: O_7  and  C_1 
REMARK    3  A    between atoms: C_4  and  C_2 
REMARK    4  A    between atoms: N_6  and  C_2 
REMARK    5  A    between atoms: C_5  and  C_4 
REMARK    6  A    between atoms: O_13  and  C_8 
ROOT
ATOM      1  C   UNL d   1      -0.622   1.790  -0.336  0.00  0.00     0.084 C 
ENDROOT
BRANCH   1   2
ATOM      2  C   UNL d   1       0.477   0.913  -0.973  0.00  0.00     0.320 C 
BRANCH   2   3
ATOM      3  C   UNL d   1       1.462   1.826  -1.730  0.00  0.00     0.292 C 
ATOM      4  O   UNL d   1       2.070   2.748  -1.189  0.00  0.00    -0.263 OA
BRANCH   3   5
ATOM      5  O   UNL d   1       1.576   1.508  -3.049  0.00  0.00    -0.325 OA
ATOM      6  C   UNL d   1       2.557   2.261  -3.762  0.00  0.00     0.213 C 
ENDBRANCH   3   5
ENDBRANCH   2   3
BRANCH   2   7
ATOM      7  N   UNL d   1      -0.071  -0.162  -1.841  0.00  0.00     0.092 N 
ATOM      8  H   UNL d   1      -0.680   0.257  -2.542  0.00  0.00     0.313 HD
ATOM      9  H   UNL d   1      -0.658  -0.772  -1.272  0.00  0.00     0.313 HD
ENDBRANCH   2   7
ENDBRANCH   1   2
BRANCH   1  10
ATOM     10  C   UNL d   1      -1.617   1.013   0.500  0.00  0.00    -0.056 A 
ATOM     11  C   UNL d   1      -1.370   0.768   1.858  0.00  0.00     0.010 A 
ATOM     12  C   UNL d   1      -2.263   0.003   2.610  0.00  0.00     0.037 A 
ATOM     13  C   UNL d   1      -3.396  -0.530   2.006  0.00  0.00     0.065 A 
ATOM     14  C   UNL d   1      -3.669  -0.284   0.666  0.00  0.00     0.037 A 
ATOM     15  C   UNL d   1      -2.784   0.494  -0.083  0.00  0.00     0.010 A 
BRANCH  13  16
ATOM     16  O   UNL d   1      -4.220  -1.303   2.768  0.00  0.00    -0.361 OA
ATOM     17  H   UNL d   1      -4.907  -1.681   2.196  0.00  0.00     0.217 HD
ENDBRANCH  13  16
ENDBRANCH   1  10
TORSDOF 6
