REMARK  1 active torsions:
REMARK  status: ('A' for Active; 'I' for Inactive)
REMARK    1  A    between atoms: C_9  and  C_2 
ROOT
ATOM      1  C   UNL d   1       0.239   0.806  -0.001  0.00  0.00     0.056 A 
ATOM      2  C   UNL d   1       1.629   1.158  -0.005  0.00  0.00     0.147 A 
ATOM      3  C   UNL d   1       0.225  -0.575  -0.004  0.00  0.00     0.181 A 
ATOM      4  N   UNL d   1       2.387   0.030  -0.009  0.00  0.00    -0.292 N 
ATOM      5  HN  UNL d   1       3.405  -0.029  -0.013  1.00  0.00     0.187 HD
ATOM      6  N   UNL d   1       1.517  -0.988  -0.007  0.00  0.00    -0.274 N 
ATOM      7  C   UNL d   1      -1.058   1.409   0.006  0.00  0.00    -0.039 A 
ATOM      8  O   UNL d   1      -0.796  -1.419  -0.002  0.00  0.00    -0.256 OA
ATOM      9  C   UNL d   1      -2.038  -0.868   0.003  0.00  0.00     0.290 A 
ATOM     10  C   UNL d   1      -2.144   0.612   0.008  0.00  0.00     0.090 A 
ATOM     11  O   UNL d   1      -3.057  -1.549   0.006  0.00  0.00    -0.260 OA
ATOM     12  C   UNL d   1       2.014  -2.343  -0.004  0.00  0.00     0.180 C 
ATOM     13  C   UNL d   1      -1.269   2.885   0.018  0.00  0.00     0.049 C 
ENDROOT
BRANCH   2  14
ATOM     14  C   UNL d   1       2.367   2.477  -0.002  0.00  0.00     0.434 C 
ATOM     15  F   UNL d   1       1.580   3.579  -0.024  0.00  0.00    -0.165 F 
ATOM     16  F   UNL d   1       3.155   2.610   1.102  0.00  0.00    -0.165 F 
ATOM     17  F   UNL d   1       3.191   2.598  -1.081  0.00  0.00    -0.165 F 
ENDBRANCH   2  14
TORSDOF 1
