REMARK  5 active torsions:
REMARK  status: ('A' for Active; 'I' for Inactive)
REMARK    1  A    between atoms: C_14  and  N_1 
REMARK    2  A    between atoms: C_2  and  C_14 
REMARK    3  A    between atoms: S_15  and  C_8 
REMARK    4  A    between atoms: C_17  and  S_15 
REMARK    5  A    between atoms: C_16  and  C_17 
ROOT
ATOM      1  C   UNL d   1       1.003  -3.301  -0.044  0.00  0.00     0.120 A 
ATOM      2  N   UNL d   1       1.850  -3.207   1.039  0.00  0.00    -0.318 N 
ATOM      3  C   UNL d   1       2.953  -3.949   0.709  0.00  0.00     0.162 A 
ATOM      4  N   UNL d   1       1.539  -4.129  -0.924  0.00  0.00    -0.285 N 
ATOM      5  HN  UNL d   1       1.112  -4.424  -1.802  1.00  0.00     0.188 HD
ATOM      6  N   UNL d   1       2.765  -4.523  -0.456  0.00  0.00    -0.278 N 
ATOM      7  HN  UNL d   1       3.415  -5.151  -0.928  1.00  0.00     0.189 HD
ATOM      8  C   UNL d   1       1.630  -2.481   2.264  0.00  0.00     0.160 C 
ENDROOT
BRANCH   1   9
ATOM      9  C   UNL d   1      -0.297  -2.599  -0.216  0.00  0.00     0.226 C 
BRANCH   9  10
ATOM     10  N   UNL d   1      -0.137  -1.146  -0.260  0.00  0.00    -0.288 N 
ATOM     11  N   UNL d   1      -0.708  -0.411   0.726  0.00  0.00    -0.301 N 
ATOM     12  C   UNL d   1      -0.457   0.860   0.384  0.00  0.00     0.041 A 
ATOM     13  HN  UNL d   1      -1.216  -0.749   1.543  1.00  0.00     0.187 HD
ATOM     14  C   UNL d   1      -0.969   1.976   1.216  0.00  0.00     0.071 C 
ATOM     15  C   UNL d   1       0.306   0.920  -0.796  0.00  0.00     0.058 A 
ATOM     16  C   UNL d   1       0.494  -0.379  -1.212  0.00  0.00     0.044 A 
ATOM     17 BR   UNL d   1       0.916   2.486  -1.623  0.00  0.00    -0.047 Br
ATOM     18  C   UNL d   1       1.204  -0.910  -2.401  0.00  0.00     0.071 C 
ENDBRANCH   9  10
ENDBRANCH   1   9
BRANCH   3  19
ATOM     19  S   UNL d   1       4.378  -4.058   1.684  0.00  0.00    -0.088 SA
BRANCH  19  20
ATOM     20  C   UNL d   1       5.398  -5.158   0.648  0.00  0.00     0.122 C 
BRANCH  20  21
ATOM     21  C   UNL d   1       6.792  -5.339   1.204  0.00  0.00    -0.027 A 
ATOM     22  C   UNL d   1       7.135  -6.373   2.091  0.00  0.00     0.041 A 
ATOM     23 CL   UNL d   1       5.972  -7.523   2.651  0.00  0.00    -0.084 Cl
ATOM     24  C   UNL d   1       8.449  -6.511   2.554  0.00  0.00     0.024 A 
ATOM     25  C   UNL d   1       9.438  -5.615   2.147  0.00  0.00     0.002 A 
ATOM     26  C   UNL d   1       9.112  -4.574   1.283  0.00  0.00     0.001 A 
ATOM     27  C   UNL d   1       7.802  -4.436   0.817  0.00  0.00     0.009 A 
ENDBRANCH  20  21
ENDBRANCH  19  20
ENDBRANCH   3  19
TORSDOF 5
