REMARK  3 active torsions:
REMARK  status: ('A' for Active; 'I' for Inactive)
REMARK       I    between atoms: N_2  and  C_1 
REMARK       I    between atoms: N_3  and  C_1 
REMARK    1  A    between atoms: C_11  and  N_3 
REMARK    2  A    between atoms: C_8  and  N_4 
REMARK    3  A    between atoms: C_12  and  C_8 
ROOT
ATOM      1  C   UNL d   1       0.859   0.058  -0.154  0.00  0.00     0.323 C 
ATOM      2  N   UNL d   1       0.230   1.281  -0.166  0.00  0.00    -0.331 N 
ATOM      3  N   UNL d   1       0.544  -0.788   0.877  0.00  0.00    -0.309 N 
ATOM      4  N   UNL d   1      -0.600   4.108  -0.071  0.00  0.00     0.095 N 
ATOM      5  O   UNL d   1       1.674  -0.217  -1.047  0.00  0.00    -0.247 OA
ATOM      6  C   UNL d   1       0.586   2.210  -1.248  0.00  0.00     0.158 C 
ATOM      7  C   UNL d   1      -0.917   1.691   0.660  0.00  0.00     0.158 C 
ATOM      8  C   UNL d   1       0.644   3.659  -0.740  0.00  0.00     0.292 C 
ATOM      9  C   UNL d   1      -0.840   3.181   1.059  0.00  0.00     0.292 C 
ATOM     10  H   UNL d   1      -0.131  -0.477   1.558  0.00  0.00     0.170 HD
ENDROOT
BRANCH   3  11
ATOM     11  C   UNL d   1       1.030  -2.094   1.083  0.00  0.00     0.036 A 
ATOM     12  C   UNL d   1       2.043  -2.655   0.303  0.00  0.00     0.029 A 
ATOM     13  C   UNL d   1       2.433  -3.979   0.484  0.00  0.00     0.002 A 
ATOM     14  C   UNL d   1       1.820  -4.755   1.460  0.00  0.00     0.000 A 
ATOM     15  C   UNL d   1       0.848  -4.192   2.284  0.00  0.00     0.002 A 
ATOM     16  C   UNL d   1       0.456  -2.862   2.101  0.00  0.00     0.029 A 
ENDBRANCH   3  11
BRANCH   4  17
ATOM     17  C   UNL d   1      -1.780   4.137  -0.962  0.00  0.00     0.311 C 
BRANCH  17  18
ATOM     18  C   UNL d   1      -1.671   5.052  -2.162  0.00  0.00    -0.030 A 
ATOM     19  C   UNL d   1      -1.748   4.530  -3.464  0.00  0.00     0.009 A 
ATOM     20  C   UNL d   1      -1.617   5.365  -4.575  0.00  0.00     0.001 A 
ATOM     21  C   UNL d   1      -1.445   6.736  -4.399  0.00  0.00     0.000 A 
ATOM     22  C   UNL d   1      -1.422   7.272  -3.112  0.00  0.00     0.001 A 
ATOM     23  C   UNL d   1      -1.527   6.435  -1.999  0.00  0.00     0.009 A 
ENDBRANCH  17  18
ENDBRANCH   4  17
TORSDOF 3
