REMARK  2 active torsions:
REMARK  status: ('A' for Active; 'I' for Inactive)
REMARK    1  A    between atoms: N_8  and  C_2 
REMARK    2  A    between atoms: C_7  and  C_5 
ROOT
ATOM      1  C   UNL d   1      -0.642   1.252   0.094  0.00  0.00     0.136 A 
ATOM      2  C   UNL d   1      -1.410   0.140   0.015  0.00  0.00     0.060 A 
ATOM      3  C   UNL d   1      -0.707  -1.134  -0.055  0.00  0.00     0.069 A 
ATOM      4  C   UNL d   1       0.848   1.188   0.087  0.00  0.00     0.312 A 
ATOM      5  C   UNL d   1       0.628  -1.212  -0.013  0.00  0.00     0.092 A 
ATOM      6  O   UNL d   1       1.421  -0.053   0.064  0.00  0.00    -0.273 OA
ATOM      7  O   UNL d   1       1.553   2.192   0.112  0.00  0.00    -0.258 OA
ATOM      8 CL   UNL d   1      -1.292   2.849   0.313  0.00  0.00    -0.075 Cl
ENDROOT
BRANCH   5   9
ATOM      9  C   UNL d   1       1.386  -2.483   0.002  0.00  0.00    -0.001 A 
ATOM     10  C   UNL d   1       0.901  -3.648  -0.612  0.00  0.00     0.038 A 
ATOM     11  C   UNL d   1       1.625  -4.841  -0.545  0.00  0.00     0.035 A 
ATOM     12 CL   UNL d   1       0.992  -6.262  -1.283  0.00  0.00    -0.084 Cl
ATOM     13  C   UNL d   1       2.847  -4.894   0.117  0.00  0.00     0.024 A 
ATOM     14  C   UNL d   1       3.355  -3.743   0.712  0.00  0.00     0.003 A 
ATOM     15  C   UNL d   1       2.631  -2.548   0.652  0.00  0.00     0.014 A 
ENDBRANCH   5   9
BRANCH   2  16
ATOM     16  N   UNL d   1      -2.819   0.070   0.003  0.00  0.00    -0.388 N 
ATOM     17  C   UNL d   1      -3.672   1.049  -0.676  0.00  0.00     0.149 C 
ATOM     18  C   UNL d   1      -3.582  -1.002   0.652  0.00  0.00     0.149 C 
ENDBRANCH   2  16
TORSDOF 2
