REMARK  8 active torsions:
REMARK  status: ('A' for Active; 'I' for Inactive)
REMARK    1  A    between atoms: C_5  and  C_1 
REMARK    2  A    between atoms: O_9  and  C_1 
REMARK    3  A    between atoms: C_2  and  C_6 
REMARK    4  A    between atoms: O_8  and  C_2 
REMARK    5  A    between atoms: C_7  and  C_5 
REMARK    6  A    between atoms: C_6  and  C_7 
REMARK    7  A    between atoms: C_10  and  C_7 
REMARK    8  A    between atoms: C_11  and  C_10 
ROOT
ATOM      1  C   UNL d   1      -1.178  -0.465   0.982  0.00  0.00     0.005 C 
ENDROOT
BRANCH   1   2
ATOM      2  C   UNL d   1      -1.522  -1.360  -0.236  0.00  0.00     0.115 C 
BRANCH   2   3
ATOM      3  C   UNL d   1      -2.973  -1.327  -0.654  0.00  0.00     0.139 C 
ATOM      4  O   UNL d   1      -3.741  -2.266  -0.517  0.00  0.00    -0.650 OA
BRANCH   3   5
ATOM      5  O   UNL d   1      -3.347  -0.160  -1.220  0.00  0.00    -0.776 OA
ATOM      6  H   UNL d   1      -2.632   0.492  -1.321  0.00  0.00     0.167 HD
ENDBRANCH   3   5
ENDBRANCH   2   3
ENDBRANCH   1   2
BRANCH   1   7
ATOM      7  C   UNL d   1       0.350  -0.564   1.196  0.00  0.00     0.115 C 
BRANCH   7   8
ATOM      8  C   UNL d   1       0.980   0.370   2.204  0.00  0.00     0.139 C 
ATOM      9  O   UNL d   1       1.656  -0.011   3.144  0.00  0.00    -0.650 OA
BRANCH   8  10
ATOM     10  O   UNL d   1       0.779   1.679   1.948  0.00  0.00    -0.776 OA
ATOM     11  H   UNL d   1       0.275   1.871   1.138  0.00  0.00     0.167 HD
ENDBRANCH   8  10
ENDBRANCH   7   8
ENDBRANCH   1   7
BRANCH   1  12
ATOM     12  C   UNL d   1      -2.010  -0.908   2.211  0.00  0.00     0.005 C 
BRANCH  12  13
ATOM     13  C   UNL d   1      -1.846  -0.034   3.457  0.00  0.00    -0.004 C 
ATOM     14  C   UNL d   1      -2.731  -0.502   4.602  0.00  0.00     0.005 C 
ENDBRANCH  12  13
ENDBRANCH   1  12
TORSDOF 8
