REMARK  5 active torsions:
REMARK  status: ('A' for Active; 'I' for Inactive)
REMARK    1  A    between atoms: C_2  and  C_1 
REMARK       I    between atoms: N_6  and  C_2 
REMARK    2  A    between atoms: C_4  and  O_11 
REMARK       I    between atoms: C_5  and  N_7 
REMARK    3  A    between atoms: C_10  and  C_5 
REMARK    4  A    between atoms: N_7  and  N_6 
REMARK    5  A    between atoms: O_11  and  C_21 
ROOT
ATOM      1  C   UNL d   1      -1.307  -5.853   0.213  0.00  0.00     0.270 C 
ATOM      2  N   UNL d   1      -1.278  -4.508  -0.106  0.00  0.00    -0.263 N 
ATOM      3  O   UNL d   1      -0.332  -6.432   0.685  0.00  0.00    -0.266 OA
ATOM      4  H   UNL d   1      -1.971  -4.024  -0.670  0.00  0.00     0.190 HD
ENDROOT
BRANCH   2   5
ATOM      5  N   UNL d   1      -0.097  -3.813   0.168  0.00  0.00    -0.263 N 
ATOM      6  C   UNL d   1       0.103  -2.571  -0.391  0.00  0.00     0.271 C 
ATOM      7  O   UNL d   1      -0.744  -2.058  -1.125  0.00  0.00    -0.266 OA
ATOM      8  H   UNL d   1       0.583  -4.296   0.751  0.00  0.00     0.190 HD
BRANCH   6   9
ATOM      9  C   UNL d   1       1.387  -1.849  -0.099  0.00  0.00     0.055 A 
ATOM     10  C   UNL d   1       2.393  -2.261   0.795  0.00  0.00     0.051 A 
ATOM     11  C   UNL d   1       3.552  -1.486   0.966  0.00  0.00     0.048 A 
ATOM     12 CL   UNL d   1       2.323  -3.694   1.761  0.00  0.00    -0.083 Cl
ATOM     13  C   UNL d   1       3.715  -0.299   0.258  0.00  0.00     0.035 A 
ATOM     14  C   UNL d   1       2.732   0.132  -0.619  0.00  0.00     0.025 A 
ATOM     15 CL   UNL d   1       5.143   0.636   0.476  0.00  0.00    -0.084 Cl
ATOM     16  C   UNL d   1       1.578  -0.638  -0.794  0.00  0.00     0.020 A 
ENDBRANCH   6   9
ENDBRANCH   2   5
BRANCH   1  17
ATOM     17  C   UNL d   1      -2.581  -6.592  -0.018  0.00  0.00     0.033 A 
ATOM     18  C   UNL d   1      -3.818  -5.952  -0.170  0.00  0.00     0.020 A 
ATOM     19  C   UNL d   1      -4.995  -6.707  -0.311  0.00  0.00     0.038 A 
ATOM     20  C   UNL d   1      -4.943  -8.100  -0.330  0.00  0.00     0.078 A 
ATOM     21  C   UNL d   1      -3.712  -8.735  -0.149  0.00  0.00     0.038 A 
ATOM     22  C   UNL d   1      -2.539  -7.991   0.000  0.00  0.00     0.020 A 
BRANCH  20  23
ATOM     23  O   UNL d   1      -5.995  -8.951  -0.465  0.00  0.00    -0.255 OA
BRANCH  23  24
ATOM     24  C   UNL d   1      -7.167  -8.527  -1.145  0.00  0.00     0.530 C 
ATOM     25  F   UNL d   1      -6.969  -7.458  -1.945  0.00  0.00    -0.144 F 
ATOM     26  F   UNL d   1      -7.598  -9.546  -1.923  0.00  0.00    -0.144 F 
ATOM     27  F   UNL d   1      -8.135  -8.238  -0.250  0.00  0.00    -0.144 F 
ENDBRANCH  23  24
ENDBRANCH  20  23
ENDBRANCH   1  17
TORSDOF 5
