REMARK  6 active torsions:
REMARK  status: ('A' for Active; 'I' for Inactive)
REMARK    1  A    between atoms: C_4  and  C_1 
REMARK    2  A    between atoms: C_5  and  C_2 
REMARK    3  A    between atoms: O_6  and  C_4 
REMARK    4  A    between atoms: O_7  and  C_5 
REMARK    5  A    between atoms: C_13  and  O_6 
REMARK    6  A    between atoms: C_14  and  O_7 
ROOT
ATOM      1  C   UNL d   1       0.292   1.184  -0.241  0.00  0.00     0.079 A 
ATOM      2  C   UNL d   1       0.285  -1.203   0.212  0.00  0.00     0.079 A 
ATOM      3  C   UNL d   1       0.986  -0.014  -0.028  0.00  0.00     0.148 A 
ATOM      4  F   UNL d   1       2.327  -0.024  -0.055  0.00  0.00    -0.204 F 
ATOM      5  C   UNL d   1      -1.113   1.179  -0.241  0.00  0.00     0.021 A 
ATOM      6  C   UNL d   1      -1.119  -1.176   0.268  0.00  0.00     0.021 A 
ATOM      7  C   UNL d   1      -1.816   0.006   0.027  0.00  0.00     0.002 A 
ENDROOT
BRANCH   1   8
ATOM      8  C   UNL d   1       0.960   2.490  -0.488  0.00  0.00     0.301 C 
ATOM      9  O   UNL d   1       0.345   3.455  -0.910  0.00  0.00    -0.259 OA
BRANCH   8  10
ATOM     10  O   UNL d   1       2.299   2.435  -0.141  0.00  0.00    -0.275 OA
BRANCH  10  11
ATOM     11  C   UNL d   1       3.236   3.479  -0.334  0.00  0.00     0.079 A 
ATOM     12  C   UNL d   1       2.903   4.804  -0.606  0.00  0.00     0.037 A 
ATOM     13  C   UNL d   1       3.919   5.738  -0.821  0.00  0.00     0.003 A 
ATOM     14  C   UNL d   1       5.258   5.351  -0.750  0.00  0.00     0.000 A 
ATOM     15  C   UNL d   1       5.586   4.029  -0.446  0.00  0.00     0.003 A 
ATOM     16  C   UNL d   1       4.575   3.093  -0.234  0.00  0.00     0.037 A 
ENDBRANCH  10  11
ENDBRANCH   8  10
ENDBRANCH   1   8
BRANCH   2  17
ATOM     17  C   UNL d   1       0.943  -2.518   0.431  0.00  0.00     0.301 C 
ATOM     18  O   UNL d   1       0.334  -3.475   0.880  0.00  0.00    -0.259 OA
BRANCH  17  19
ATOM     19  O   UNL d   1       2.267  -2.482   0.025  0.00  0.00    -0.275 OA
BRANCH  19  20
ATOM     20  C   UNL d   1       3.196  -3.543   0.164  0.00  0.00     0.079 A 
ATOM     21  C   UNL d   1       2.857  -4.864   0.443  0.00  0.00     0.037 A 
ATOM     22  C   UNL d   1       3.869  -5.816   0.592  0.00  0.00     0.003 A 
ATOM     23  C   UNL d   1       5.208  -5.450   0.451  0.00  0.00     0.000 A 
ATOM     24  C   UNL d   1       5.541  -4.131   0.145  0.00  0.00     0.003 A 
ATOM     25  C   UNL d   1       4.534  -3.176  -0.002  0.00  0.00     0.037 A 
ENDBRANCH  19  20
ENDBRANCH  17  19
ENDBRANCH   2  17
TORSDOF 6
