REMARK  6 active torsions:
REMARK  status: ('A' for Active; 'I' for Inactive)
REMARK       I    between atoms: N_4  and  C_1 
REMARK       I    between atoms: N_6  and  C_1 
REMARK    1  A    between atoms: C_2  and  O_8 
REMARK    2  A    between atoms: C_3  and  N_4 
REMARK    3  A    between atoms: C_15  and  N_6 
REMARK    4  A    between atoms: O_20  and  C_7 
REMARK    5  A    between atoms: O_8  and  C_16 
REMARK    6  A    between atoms: O_23  and  C_14 
ROOT
ATOM      1  C   UNL d   1       1.120   0.207   0.173  0.00  0.00     0.325 C 
ATOM      2  N   UNL d   1       0.438  -0.998   0.158  0.00  0.00    -0.306 N 
ATOM      3  N   UNL d   1       0.269   1.239  -0.172  0.00  0.00    -0.309 N 
ATOM      4  O   UNL d   1       2.315   0.331   0.420  0.00  0.00    -0.247 OA
ATOM      5  H   UNL d   1      -0.347  -1.040  -0.475  0.00  0.00     0.171 HD
ATOM      6  H   UNL d   1      -0.704   1.081   0.048  0.00  0.00     0.170 HD
ENDROOT
BRANCH   2   7
ATOM      7  C   UNL d   1       1.037  -2.244   0.453  0.00  0.00     0.072 A 
ATOM      8  C   UNL d   1       1.947  -2.370   1.510  0.00  0.00     0.069 A 
ATOM      9  C   UNL d   1       2.465  -3.620   1.853  0.00  0.00     0.070 A 
ATOM     10  C   UNL d   1       2.102  -4.743   1.104  0.00  0.00     0.039 A 
ATOM     11  C   UNL d   1       1.196  -4.628   0.046  0.00  0.00     0.042 A 
ATOM     12  C   UNL d   1       0.663  -3.381  -0.280  0.00  0.00     0.095 A 
BRANCH   9  13
ATOM     13  O   UNL d   1       3.316  -3.870   2.896  0.00  0.00    -0.356 OA
ATOM     14  C   UNL d   1       3.495  -2.813   3.834  0.00  0.00     0.210 C 
ENDBRANCH   9  13
BRANCH  12  15
ATOM     15  O   UNL d   1      -0.260  -3.347  -1.295  0.00  0.00    -0.354 OA
ATOM     16  C   UNL d   1       0.165  -2.579  -2.425  0.00  0.00     0.210 C 
ENDBRANCH  12  15
ENDBRANCH   2   7
BRANCH   3  17
ATOM     17  C   UNL d   1       0.633   2.537  -0.573  0.00  0.00     0.036 A 
ATOM     18  C   UNL d   1       1.925   2.893  -0.969  0.00  0.00     0.032 A 
ATOM     19  C   UNL d   1       2.201   4.189  -1.431  0.00  0.00     0.039 A 
ATOM     20  C   UNL d   1       1.180   5.135  -1.516  0.00  0.00     0.078 A 
ATOM     21  C   UNL d   1      -0.102   4.787  -1.092  0.00  0.00     0.039 A 
ATOM     22  C   UNL d   1      -0.379   3.498  -0.634  0.00  0.00     0.032 A 
BRANCH  20  23
ATOM     23  O   UNL d   1       1.288   6.409  -1.990  0.00  0.00    -0.255 OA
BRANCH  23  24
ATOM     24  C   UNL d   1       2.455   6.753  -2.717  0.00  0.00     0.530 C 
ATOM     25  F   UNL d   1       2.769   5.819  -3.640  0.00  0.00    -0.144 F 
ATOM     26  F   UNL d   1       2.226   7.916  -3.368  0.00  0.00    -0.144 F 
ATOM     27  F   UNL d   1       3.500   6.934  -1.884  0.00  0.00    -0.144 F 
ENDBRANCH  23  24
ENDBRANCH  20  23
ENDBRANCH   3  17
TORSDOF 6
