REMARK  3 active torsions:
REMARK  status: ('A' for Active; 'I' for Inactive)
REMARK    1  A    between atoms: C_6  and  C_1 
REMARK    2  A    between atoms: S_12  and  C_3 
REMARK       I    between atoms: N_7  and  C_6 
REMARK    3  A    between atoms: N_9  and  N_7 
REMARK       I    between atoms: C_10  and  N_9 
ROOT
ATOM      1  C   UNL d   1      -1.743  -0.850  -0.026  0.00  0.00     0.082 A 
ATOM      2  S   UNL d   1      -2.641   0.614  -0.022  0.00  0.00    -0.076 SA
ATOM      3  C   UNL d   1      -1.236   1.590   0.023  0.00  0.00     0.052 A 
ATOM      4  C   UNL d   1      -0.378  -0.596  -0.023  0.00  0.00    -0.023 A 
ATOM      5  C   UNL d   1      -0.097   0.814   0.010  0.00  0.00    -0.005 A 
ATOM      6  C   UNL d   1       1.252   1.284   0.056  0.00  0.00     0.010 C 
ATOM      7  C   UNL d   1       2.294   0.440   0.011  0.00  0.00    -0.025 C 
ATOM      8  C   UNL d   1       0.719  -1.627  -0.003  0.00  0.00     0.045 C 
ATOM      9  C   UNL d   1       2.150  -1.055  -0.083  0.00  0.00     0.032 C 
ENDROOT
BRANCH   1  10
ATOM     10  C   UNL d   1      -2.417  -2.148  -0.031  0.00  0.00     0.277 C 
ATOM     11  N   UNL d   1      -3.798  -2.120   0.074  0.00  0.00    -0.263 N 
ATOM     12  H   UNL d   1      -4.322  -1.260   0.219  0.00  0.00     0.190 HD
ATOM     13  O   UNL d   1      -1.825  -3.226  -0.117  0.00  0.00    -0.265 OA
BRANCH  11  14
ATOM     14  N   UNL d   1      -4.514  -3.321   0.079  0.00  0.00    -0.268 N 
ATOM     15  C   UNL d   1      -5.833  -3.294   0.474  0.00  0.00     0.232 C 
ATOM     16  O   UNL d   1      -6.422  -2.261   0.785  0.00  0.00    -0.272 OA
ATOM     17  C   UNL d   1      -6.501  -4.642   0.487  0.00  0.00     0.119 C 
ATOM     18  H   UNL d   1      -3.970  -4.176  -0.018  0.00  0.00     0.190 HD
ENDBRANCH  11  14
ENDBRANCH   1  10
BRANCH   3  19
ATOM     19  S   UNL d   1      -1.389   3.341   0.140  0.00  0.00    -0.126 SA
ATOM     20  C   UNL d   1      -0.770   3.856  -1.477  0.00  0.00     0.096 C 
ENDBRANCH   3  19
TORSDOF 3
