REMARK  4 active torsions:
REMARK  status: ('A' for Active; 'I' for Inactive)
REMARK    1  A    between atoms: N_3  and  S_1 
REMARK    2  A    between atoms: C_15  and  S_1 
REMARK    3  A    between atoms: C_2  and  C_10 
REMARK    4  A    between atoms: C_8  and  N_3 
ROOT
ATOM      1  C   UNL d   1       0.807   2.248   1.329  0.00  0.00     0.171 A 
ATOM      2  C   UNL d   1       1.254   3.418   3.735  0.00  0.00     0.014 A 
ATOM      3  N   UNL d   1       2.055   2.192   1.792  0.00  0.00    -0.341 N 
ATOM      4  HN  UNL d   1       2.810   1.736   1.281  1.00  0.00     0.167 HD
ATOM      5  N   UNL d   1      -0.242   2.825   1.914  0.00  0.00    -0.341 N 
ATOM      6  HN  UNL d   1      -1.168   2.840   1.487  1.00  0.00     0.167 HD
ATOM      7  C   UNL d   1       0.014   3.391   3.116  0.00  0.00     0.104 A 
ATOM      8  C   UNL d   1       2.245   2.787   2.995  0.00  0.00     0.104 A 
ENDROOT
BRANCH   1   9
ATOM      9  N   UNL d   1       0.540   1.671   0.089  0.00  0.00    -0.151 NA
ATOM     10  H   UNL d   1      -0.296   2.106  -0.298  0.00  0.00     0.149 HD
BRANCH   9  11
ATOM     11  S   UNL d   1       0.245   0.024   0.181  0.00  0.00     0.248 S 
ATOM     12  O   UNL d   1      -1.013  -0.174  -0.515  0.00  0.00    -0.205 OA
ATOM     13  O   UNL d   1       0.457  -0.501   1.512  0.00  0.00    -0.205 OA
BRANCH  11  14
ATOM     14  C   UNL d   1       1.522  -0.649  -0.858  0.00  0.00     0.075 A 
ATOM     15  C   UNL d   1       2.862  -0.451  -0.505  0.00  0.00     0.026 A 
ATOM     16  C   UNL d   1       3.870  -0.995  -1.303  0.00  0.00     0.025 A 
ATOM     17  C   UNL d   1       3.536  -1.737  -2.437  0.00  0.00     0.034 A 
ATOM     18  C   UNL d   1       2.199  -1.940  -2.784  0.00  0.00     0.025 A 
ATOM     19 CL   UNL d   1       4.782  -2.412  -3.412  0.00  0.00    -0.084 Cl
ATOM     20  C   UNL d   1       1.185  -1.394  -1.994  0.00  0.00     0.026 A 
ENDBRANCH  11  14
ENDBRANCH   9  11
ENDBRANCH   1   9
BRANCH   2  21
ATOM     21  C   UNL d   1       1.484   4.067   5.034  0.00  0.00     0.041 A 
ATOM     22  C   UNL d   1       0.655   4.241   6.141  0.00  0.00     0.024 A 
ATOM     23  N   UNL d   1       1.223   4.932   7.202  0.00  0.00    -0.357 N 
ATOM     24  C   UNL d   1      -0.742   3.763   6.336  0.00  0.00     0.069 C 
ATOM     25  C   UNL d   1       2.458   5.274   6.924  0.00  0.00     0.047 A 
ATOM     26  HN  UNL d   1       0.745   5.145   8.078  1.00  0.00     0.166 HD
ATOM     27  S   UNL d   1       3.006   4.815   5.372  0.00  0.00    -0.074 SA
ATOM     28  C   UNL d   1       3.348   6.004   7.870  0.00  0.00     0.076 C 
ENDBRANCH   2  21
TORSDOF 4
