REMARK  8 active torsions:
REMARK  status: ('A' for Active; 'I' for Inactive)
REMARK    1  A    between atoms: N_4  and  C_1 
REMARK    2  A    between atoms: N_7  and  C_1 
REMARK       I    between atoms: C_2  and  N_3 
REMARK    3  A    between atoms: C_6  and  C_2 
REMARK    4  A    between atoms: N_3  and  N_4 
REMARK    5  A    between atoms: C_12  and  N_7 
REMARK    6  A    between atoms: C_11  and  C_12 
REMARK    7  A    between atoms: O_16  and  C_11 
REMARK    8  A    between atoms: O_17  and  C_11 
ROOT
ATOM      1  N   UNL d   1       0.339   1.451   0.284  0.00  0.00    -0.274 N 
ATOM      2  H   UNL d   1      -0.617   1.381   0.627  0.00  0.00     0.189 HD
ENDROOT
BRANCH   1   3
ATOM      3  N   UNL d   1       0.906   2.712   0.568  0.00  0.00    -0.264 N 
ATOM      4  C   UNL d   1       0.182   3.552   1.397  0.00  0.00     0.270 C 
ATOM      5  O   UNL d   1      -0.944   3.245   1.790  0.00  0.00    -0.266 OA
ATOM      6  H   UNL d   1       1.834   2.890   0.203  0.00  0.00     0.190 HD
BRANCH   4   7
ATOM      7  C   UNL d   1       0.796   4.857   1.790  0.00  0.00     0.033 A 
ATOM      8  C   UNL d   1       2.142   5.173   1.583  0.00  0.00     0.017 A 
ATOM      9  C   UNL d   1       2.646   6.420   1.981  0.00  0.00     0.007 A 
ATOM     10  C   UNL d   1       1.813   7.366   2.596  0.00  0.00    -0.062 A 
ATOM     11  C   UNL d   1       0.472   7.044   2.816  0.00  0.00     0.007 A 
ATOM     12  C   UNL d   1       2.368   8.694   3.022  0.00  0.00     0.048 C 
ATOM     13  C   UNL d   1      -0.030   5.801   2.419  0.00  0.00     0.017 A 
ENDBRANCH   4   7
ENDBRANCH   1   3
BRANCH   1  14
ATOM     14  C   UNL d   1       1.124   0.321   0.249  0.00  0.00     0.186 C 
ATOM     15  S   UNL d   1       2.782   0.318   0.035  0.00  0.00    -0.040 SA
BRANCH  14  16
ATOM     16  N   UNL d   1       0.468  -0.876   0.365  0.00  0.00    -0.361 N 
ATOM     17  H   UNL d   1       1.075  -1.681   0.485  0.00  0.00     0.162 HD
BRANCH  16  18
ATOM     18  C   UNL d   1      -0.936  -1.047   0.727  0.00  0.00     0.182 C 
BRANCH  18  19
ATOM     19  C   UNL d   1      -1.443  -2.508   0.791  0.00  0.00     0.275 C 
BRANCH  19  20
ATOM     20  O   UNL d   1      -0.668  -3.189   1.788  0.00  0.00    -0.364 OA
ATOM     21  C   UNL d   1      -1.014  -4.564   1.905  0.00  0.00     0.204 C 
ENDBRANCH  19  20
BRANCH  19  22
ATOM     22  O   UNL d   1      -2.824  -2.538   1.167  0.00  0.00    -0.364 OA
ATOM     23  C   UNL d   1      -3.709  -1.998   0.198  0.00  0.00     0.204 C 
ENDBRANCH  19  22
ENDBRANCH  18  19
ENDBRANCH  16  18
ENDBRANCH  14  16
ENDBRANCH   1  14
TORSDOF 8
