REMARK  6 active torsions:
REMARK  status: ('A' for Active; 'I' for Inactive)
REMARK    1  A    between atoms: S_8  and  C_1 
REMARK    2  A    between atoms: C_18  and  C_6 
REMARK    3  A    between atoms: C_7  and  S_8 
REMARK    4  A    between atoms: C_21  and  C_9 
REMARK    5  A    between atoms: C_20  and  C_10 
REMARK    6  A    between atoms: C_22  and  C_15 
ROOT
ATOM      1  C   UNL d   1      -1.601  -1.238  -0.654  0.00  0.00     0.126 C 
ATOM      2  N   UNL d   1      -0.343  -0.817  -1.064  0.00  0.00    -0.149 N 
ATOM      3  C   UNL d   1      -0.422   0.579  -1.224  0.00  0.00     0.689 A 
ATOM      4  N   UNL d   1      -1.656   0.996  -1.097  0.00  0.00    -0.188 N 
ATOM      5  HN  UNL d   1      -1.993   1.952  -1.212  1.00  0.00     0.184 HD
ATOM      6  C   UNL d   1      -2.408  -0.106  -0.778  0.00  0.00     0.094 C 
ATOM      7  N   UNL d   1       0.694   1.332  -1.489  0.00  0.00    -0.201 N 
ATOM      8  HN  UNL d   1       0.656   2.350  -1.539  1.00  0.00     0.183 HD
ATOM      9  C   UNL d   1       0.860  -1.474  -1.327  0.00  0.00     0.117 A 
ATOM     10  C   UNL d   1       1.958  -0.789  -1.650  0.00  0.00     0.036 A 
ATOM     11  C   UNL d   1       1.796   0.682  -1.671  0.00  0.00     0.107 A 
ENDROOT
BRANCH   1  12
ATOM     12  S   UNL d   1      -2.092  -2.785   0.001  0.00  0.00    -0.068 SA
BRANCH  12  13
ATOM     13  C   UNL d   1      -0.713  -3.904  -0.008  0.00  0.00     0.020 A 
ATOM     14  C   UNL d   1       0.155  -3.966   1.124  0.00  0.00    -0.036 A 
ATOM     15  C   UNL d   1       1.162  -4.949   1.132  0.00  0.00     0.016 A 
ATOM     16  C   UNL d   1       1.363  -5.827   0.065  0.00  0.00    -0.054 A 
ATOM     17  C   UNL d   1       0.500  -5.756  -1.032  0.00  0.00     0.016 A 
ATOM     18  C   UNL d   1      -0.559  -4.827  -1.093  0.00  0.00    -0.036 A 
BRANCH  14  19
ATOM     19  C   UNL d   1       0.028  -3.054   2.355  0.00  0.00     0.012 C 
ATOM     20  C   UNL d   1      -0.860  -3.698   3.426  0.00  0.00     0.015 C 
ATOM     21  C   UNL d   1       1.373  -2.653   2.992  0.00  0.00     0.015 C 
ENDBRANCH  14  19
BRANCH  16  22
ATOM     22  C   UNL d   1       2.511  -6.820   0.074  0.00  0.00     0.010 C 
ATOM     23  C   UNL d   1       3.857  -6.089   0.134  0.00  0.00     0.015 C 
ATOM     24  C   UNL d   1       2.392  -7.835   1.212  0.00  0.00     0.015 C 
ENDBRANCH  16  22
BRANCH  18  25
ATOM     25  C   UNL d   1      -1.454  -4.825  -2.346  0.00  0.00     0.012 C 
ATOM     26  C   UNL d   1      -0.813  -4.014  -3.478  0.00  0.00     0.015 C 
ATOM     27  C   UNL d   1      -1.812  -6.222  -2.883  0.00  0.00     0.015 C 
ENDBRANCH  18  25
ENDBRANCH  12  13
ENDBRANCH   1  12
BRANCH   6  28
ATOM     28  C   UNL d   1      -3.832  -0.006  -0.477  0.00  0.00    -0.006 A 
ATOM     29  C   UNL d   1      -4.732  -1.036  -0.790  0.00  0.00     0.014 A 
ATOM     30  C   UNL d   1      -6.061  -0.983  -0.367  0.00  0.00     0.001 A 
ATOM     31  C   UNL d   1      -6.526   0.133   0.322  0.00  0.00     0.000 A 
ATOM     32  C   UNL d   1      -5.668   1.204   0.565  0.00  0.00     0.001 A 
ATOM     33  C   UNL d   1      -4.328   1.137   0.165  0.00  0.00     0.014 A 
ENDBRANCH   6  28
TORSDOF 6
