REMARK  2 active torsions:
REMARK  status: ('A' for Active; 'I' for Inactive)
REMARK    1  A    between atoms: N_14  and  C_7 
REMARK    2  A    between atoms: C_18  and  N_14 
ROOT
ATOM      1  S   UNL d   1       0.929  -1.683  -0.057  0.00  0.00     0.270 S 
ATOM      2  C   UNL d   1       2.110  -0.505  -0.504  0.00  0.00     0.146 C 
ATOM      3  N   UNL d   1       1.323  -1.989   1.578  0.00  0.00    -0.275 N 
ATOM      4  C   UNL d   1       1.657  -0.875   2.377  0.00  0.00     0.066 A 
ATOM      5  C   UNL d   1       2.067   0.334   1.844  0.00  0.00     0.084 A 
ATOM      6  C   UNL d   1       2.310   0.620   0.439  0.00  0.00     0.215 C 
ATOM      7  C   UNL d   1       2.933  -0.748  -1.532  0.00  0.00     0.118 C 
ATOM      8  S   UNL d   1       2.368   1.505   3.045  0.00  0.00    -0.096 SA
ATOM      9  O   UNL d   1      -0.385  -1.066  -0.065  0.00  0.00    -0.200 OA
ATOM     10  O   UNL d   1       1.153  -2.912  -0.790  0.00  0.00    -0.200 OA
ATOM     11  C   UNL d   1       1.660  -0.843   3.802  0.00  0.00     0.039 A 
ATOM     12  C   UNL d   1       2.022   0.393   4.295  0.00  0.00     0.053 A 
ATOM     13  O   UNL d   1       2.757   1.687   0.015  0.00  0.00    -0.285 OA
ATOM     14  C   UNL d   1       0.999  -3.311   2.125  0.00  0.00     0.170 C 
ENDROOT
BRANCH   7  15
ATOM     15  N   UNL d   1       4.037  -0.029  -1.929  0.00  0.00    -0.364 N 
ATOM     16  H   UNL d   1       4.186   0.855  -1.437  0.00  0.00     0.165 HD
BRANCH  15  17
ATOM     17  C   UNL d   1       5.042  -0.408  -2.835  0.00  0.00     0.034 A 
ATOM     18  C   UNL d   1       4.959  -1.533  -3.658  0.00  0.00     0.046 A 
ATOM     19  C   UNL d   1       6.017  -1.831  -4.504  0.00  0.00     0.090 A 
ATOM     20  N   UNL d   1       7.149  -1.104  -4.580  0.00  0.00    -0.375 N 
ATOM     21  C   UNL d   1       7.222  -0.028  -3.772  0.00  0.00     0.090 A 
ATOM     22  HN  UNL d   1       7.908  -1.355  -5.213  1.00  0.00     0.164 HD
ATOM     23  C   UNL d   1       6.214   0.352  -2.897  0.00  0.00     0.046 A 
ENDBRANCH  15  17
ENDBRANCH   7  15
TORSDOF 2
