REMARK  6 active torsions:
REMARK  status: ('A' for Active; 'I' for Inactive)
REMARK    1  A    between atoms: N_9  and  C_3 
REMARK    2  A    between atoms: C_17  and  C_4 
REMARK    3  A    between atoms: C_8  and  C_11 
REMARK       I    between atoms: N_10  and  C_8 
REMARK    4  A    between atoms: C_21  and  N_12 
REMARK    5  A    between atoms: C_20  and  C_21 
REMARK    6  A    between atoms: O_28  and  C_26 
ROOT
ATOM      1  N   UNL d   1      -1.873  -6.074  -2.777  0.00  0.00    -0.357 N 
ATOM      2  N   UNL d   1      -0.321  -5.460  -0.335  0.00  0.00     0.095 N 
ATOM      3  C   UNL d   1      -2.087  -4.796  -2.074  0.00  0.00     0.155 C 
ATOM      4  C   UNL d   1      -1.310  -7.156  -1.956  0.00  0.00     0.155 C 
ATOM      5  C   UNL d   1      -0.086  -6.664  -1.160  0.00  0.00     0.292 C 
ATOM      6  C   UNL d   1      -0.855  -4.400  -1.221  0.00  0.00     0.292 C 
ENDROOT
BRANCH   2   7
ATOM      7  C   UNL d   1      -1.221  -5.702   0.806  0.00  0.00     0.311 C 
BRANCH   7   8
ATOM      8  C   UNL d   1      -0.707  -6.772   1.748  0.00  0.00    -0.029 A 
ATOM      9  C   UNL d   1       0.563  -6.650   2.331  0.00  0.00     0.026 A 
ATOM     10  C   UNL d   1       1.069  -7.668   3.145  0.00  0.00     0.032 A 
ATOM     11  C   UNL d   1       0.278  -8.779   3.453  0.00  0.00     0.017 A 
ATOM     12  C   UNL d   1      -0.987  -8.908   2.878  0.00  0.00     0.002 A 
ATOM     13  C   UNL d   1      -1.474  -7.914   2.026  0.00  0.00     0.009 A 
BRANCH  10  14
ATOM     14  C   UNL d   1       2.438  -7.508   3.686  0.00  0.00     0.253 C 
ATOM     15  N   UNL d   1       3.401  -8.498   3.465  0.00  0.00    -0.348 N 
ATOM     16  C   UNL d   1       4.701  -8.340   4.113  0.00  0.00     0.128 C 
ATOM     17  C   UNL d   1       3.175  -9.774   2.780  0.00  0.00     0.128 C 
ATOM     18  C   UNL d   1       5.852  -8.654   3.163  0.00  0.00     0.051 C 
ATOM     19  C   UNL d   1       5.681 -10.010   2.483  0.00  0.00     0.121 C 
ATOM     20  C   UNL d   1       4.310 -10.131   1.828  0.00  0.00     0.051 C 
ATOM     21  O   UNL d   1       2.677  -6.461   4.288  0.00  0.00    -0.267 OA
BRANCH  19  22
ATOM     22  O   UNL d   1       5.890 -11.077   3.406  0.00  0.00    -0.395 OA
ATOM     23  H   UNL d   1       5.285 -10.975   4.159  0.00  0.00     0.210 HD
ENDBRANCH  19  22
ENDBRANCH  10  14
ENDBRANCH   7   8
ENDBRANCH   2   7
BRANCH   1  24
ATOM     24  C   UNL d   1      -2.748  -6.377  -3.786  0.00  0.00     0.165 A 
ATOM     25  N   UNL d   1      -3.631  -5.539  -4.293  0.00  0.00    -0.321 N 
ATOM     26  C   UNL d   1      -4.324  -6.145  -5.347  0.00  0.00     0.123 A 
ATOM     27  HN  UNL d   1      -3.786  -4.587  -3.964  1.00  0.00     0.169 HD
ATOM     28  N   UNL d   1      -4.034  -7.414  -5.646  0.00  0.00    -0.309 N 
ATOM     29  S   UNL d   1      -2.825  -7.896  -4.623  0.00  0.00     0.024 SA
ATOM     30  HN  UNL d   1      -4.475  -7.981  -6.370  1.00  0.00     0.176 HD
BRANCH  26  31
ATOM     31  C   UNL d   1      -5.327  -5.390  -6.104  0.00  0.00     0.009 A 
ATOM     32  C   UNL d   1      -5.730  -4.114  -5.686  0.00  0.00     0.015 A 
ATOM     33  C   UNL d   1      -6.674  -3.388  -6.420  0.00  0.00     0.001 A 
ATOM     34  C   UNL d   1      -7.222  -3.929  -7.582  0.00  0.00     0.000 A 
ATOM     35  C   UNL d   1      -6.834  -5.197  -8.009  0.00  0.00     0.001 A 
ATOM     36  C   UNL d   1      -5.894  -5.923  -7.274  0.00  0.00     0.015 A 
ENDBRANCH  26  31
ENDBRANCH   1  24
TORSDOF 6
