REMARK  6 active torsions:
REMARK  status: ('A' for Active; 'I' for Inactive)
REMARK    1  A    between atoms: C_2  and  S_1 
REMARK    2  A    between atoms: C_7  and  S_1 
REMARK    3  A    between atoms: C_8  and  C_2 
REMARK    4  A    between atoms: S_3  and  N_5 
REMARK    5  A    between atoms: C_12  and  S_3 
REMARK    6  A    between atoms: N_5  and  C_4 
ROOT
ATOM      1  C   UNL d   1       0.381  -0.444   1.496  0.00  0.00     0.125 C 
ATOM      2  C   UNL d   1      -0.421   0.305   2.266  0.00  0.00     0.124 C 
ENDROOT
BRANCH   1   3
ATOM      3  S   UNL d   1       0.745  -2.033   2.097  0.00  0.00     0.211 S 
ATOM      4  O   UNL d   1       0.386  -3.019   1.093  0.00  0.00    -0.217 OA
ATOM      5  O   UNL d   1       0.234  -2.189   3.450  0.00  0.00    -0.217 OA
BRANCH   3   6
ATOM      6  C   UNL d   1       2.524  -2.053   2.282  0.00  0.00     0.064 A 
ATOM      7  C   UNL d   1       3.128  -1.177   3.193  0.00  0.00     0.025 A 
ATOM      8  C   UNL d   1       4.519  -1.180   3.328  0.00  0.00     0.025 A 
ATOM      9  C   UNL d   1       5.290  -2.059   2.565  0.00  0.00     0.034 A 
ATOM     10  C   UNL d   1       4.685  -2.941   1.670  0.00  0.00     0.025 A 
ATOM     11 CL   UNL d   1       7.003  -2.056   2.735  0.00  0.00    -0.084 Cl
ATOM     12  C   UNL d   1       3.295  -2.944   1.528  0.00  0.00     0.025 A 
ENDBRANCH   3   6
ENDBRANCH   1   3
BRANCH   1  13
ATOM     13  C   UNL d   1       1.003  -0.052   0.208  0.00  0.00     0.168 C 
ATOM     14  O   UNL d   1       2.068  -0.569  -0.138  0.00  0.00    -0.292 OA
ATOM     15  C   UNL d   1       0.346   0.928  -0.733  0.00  0.00     0.097 C 
ENDBRANCH   1  13
BRANCH   2  16
ATOM     16  N   UNL d   1      -0.650   1.693   1.980  0.00  0.00    -0.322 N 
ATOM     17  HN  UNL d   1      -0.123   2.148   1.234  1.00  0.00     0.175 HD
BRANCH  16  18
ATOM     18  S   UNL d   1      -1.691   2.506   2.792  0.00  0.00     0.052 S 
ATOM     19  O   UNL d   1      -2.990   1.995   3.174  0.00  0.00    -0.245 OA
ATOM     20  C   UNL d   1      -1.968   4.023   1.910  0.00  0.00     0.142 C 
BRANCH  18  21
ATOM     21  C   UNL d   1      -0.871   3.022   4.289  0.00  0.00     0.038 A 
ATOM     22  C   UNL d   1       0.323   3.746   4.213  0.00  0.00     0.022 A 
ATOM     23  C   UNL d   1       0.949   4.165   5.388  0.00  0.00     0.001 A 
ATOM     24  C   UNL d   1       0.388   3.854   6.628  0.00  0.00     0.000 A 
ATOM     25  C   UNL d   1      -0.796   3.120   6.698  0.00  0.00     0.001 A 
ATOM     26  C   UNL d   1      -1.432   2.702   5.529  0.00  0.00     0.022 A 
ENDBRANCH  18  21
ENDBRANCH  16  18
ENDBRANCH   2  16
TORSDOF 6
