REMARK  3 active torsions:
REMARK  status: ('A' for Active; 'I' for Inactive)
REMARK    1  A    between atoms: C_18  and  C_3 
REMARK    2  A    between atoms: S_7  and  C_4 
REMARK    3  A    between atoms: C_8  and  S_7 
ROOT
ATOM      1  C   UNL d   1       0.098  -0.583  -0.054  0.00  0.00     0.066 A 
ATOM      2  S   UNL d   1       1.799  -0.809  -0.048  0.00  0.00    -0.084 SA
ATOM      3  C   UNL d   1       2.131   0.875  -0.013  0.00  0.00     0.018 A 
ATOM      4  C   UNL d   1      -0.952  -1.499  -0.098  0.00  0.00     0.095 A 
ATOM      5  C   UNL d   1       0.951   1.597   0.024  0.00  0.00     0.050 A 
ATOM      6  C   UNL d   1      -0.213   0.771   0.002  0.00  0.00     0.054 A 
ATOM      7  N   UNL d   1      -2.225  -1.047  -0.065  0.00  0.00    -0.345 N 
ATOM      8  HN  UNL d   1      -3.013  -1.694  -0.088  1.00  0.00     0.167 HD
ATOM      9  N   UNL d   1      -1.487   1.232   0.031  0.00  0.00    -0.351 N 
ATOM     10  HN  UNL d   1      -1.716   2.225   0.073  1.00  0.00     0.166 HD
ATOM     11  C   UNL d   1      -2.419   0.275  -0.000  0.00  0.00     0.181 A 
ENDROOT
BRANCH   4  12
ATOM     12  S   UNL d   1      -0.683  -3.251  -0.150  0.00  0.00    -0.071 SA
BRANCH  12  13
ATOM     13  C   UNL d   1      -0.609  -3.538  -1.918  0.00  0.00     0.013 A 
ATOM     14  C   UNL d   1      -1.772  -3.296  -2.673  0.00  0.00     0.027 A 
ATOM     15  C   UNL d   1      -1.817  -3.518  -4.059  0.00  0.00    -0.039 A 
ATOM     16  C   UNL d   1      -3.098  -3.278  -4.807  0.00  0.00     0.050 C 
ATOM     17  C   UNL d   1      -0.664  -3.986  -4.695  0.00  0.00     0.040 A 
ATOM     18  C   UNL d   1       0.494  -4.245  -3.956  0.00  0.00     0.032 A 
ATOM     19 CL   UNL d   1      -0.622  -4.282  -6.396  0.00  0.00    -0.084 Cl
ATOM     20  C   UNL d   1       0.534  -4.044  -2.563  0.00  0.00    -0.043 A 
ATOM     21  C   UNL d   1       1.819  -4.398  -1.863  0.00  0.00     0.049 C 
ENDBRANCH  12  13
ENDBRANCH   4  12
BRANCH   3  22
ATOM     22  C   UNL d   1       3.522   1.361   0.016  0.00  0.00    -0.019 A 
ATOM     23  C   UNL d   1       4.556   0.680  -0.651  0.00  0.00     0.016 A 
ATOM     24  C   UNL d   1       5.877   1.133  -0.586  0.00  0.00     0.043 A 
ATOM     25  C   UNL d   1       6.171   2.279   0.137  0.00  0.00     0.116 A 
ATOM     26  C   UNL d   1       5.168   2.987   0.788  0.00  0.00     0.043 A 
ATOM     27  F   UNL d   1       7.438   2.708   0.210  0.00  0.00    -0.206 F 
ATOM     28  C   UNL d   1       3.848   2.531   0.726  0.00  0.00     0.016 A 
ENDBRANCH   3  22
TORSDOF 3
