REMARK  5 active torsions:
REMARK  status: ('A' for Active; 'I' for Inactive)
REMARK    1  A    between atoms: C_2  and  S_1 
REMARK    2  A    between atoms: N_6  and  S_1 
REMARK    3  A    between atoms: C_4  and  N_6 
REMARK    4  A    between atoms: N_5  and  C_11 
REMARK    5  A    between atoms: C_10  and  C_15 
ROOT
ATOM      1  C   UNL d   1       1.006   1.906   0.174  0.00  0.00     0.070 A 
ATOM      2  C   UNL d   1       2.257   1.812   0.862  0.00  0.00     0.058 A 
ATOM      3  C   UNL d   1       0.943   4.330   0.426  0.00  0.00     0.050 A 
ATOM      4  C   UNL d   1       0.401   3.147  -0.081  0.00  0.00     0.048 A 
ATOM      5  C   UNL d   1       2.791   3.026   1.331  0.00  0.00     0.032 A 
ATOM      6  C   UNL d   1       2.147   4.256   1.131  0.00  0.00     0.018 A 
ENDROOT
BRANCH   1   7
ATOM      7  N   UNL d   1       0.431   0.731  -0.418  0.00  0.00    -0.278 N 
ATOM      8  H   UNL d   1       0.668   0.622  -1.405  0.00  0.00     0.179 HD
BRANCH   7   9
ATOM      9  S   UNL d   1      -1.172   0.293  -0.123  0.00  0.00     0.265 S 
ATOM     10  O   UNL d   1      -2.046   1.260  -0.752  0.00  0.00    -0.200 OA
ATOM     11  O   UNL d   1      -1.268  -1.103  -0.499  0.00  0.00    -0.200 OA
BRANCH   9  12
ATOM     12  C   UNL d   1      -1.376   0.369   1.619  0.00  0.00     0.110 A 
ATOM     13  C   UNL d   1      -1.793   1.522   2.302  0.00  0.00     0.108 A 
ATOM     14  C   UNL d   1      -1.959   1.529   3.753  0.00  0.00     0.086 A 
ATOM     15  N   UNL d   1      -2.099   2.750   1.861  0.00  0.00    -0.238 N 
ATOM     16  N   UNL d   1      -2.355   2.749   4.131  0.00  0.00    -0.239 N 
ATOM     17  C   UNL d   1      -1.721   0.396   4.554  0.00  0.00     0.034 A 
ATOM     18  O   UNL d   1      -2.450   3.491   2.969  0.00  0.00    -0.156 OA
ATOM     19  HN  UNL d   1      -2.547   3.067   5.081  1.00  0.00     0.197 HD
ATOM     20  C   UNL d   1      -1.333  -0.755   3.846  0.00  0.00     0.004 A 
ATOM     21  C   UNL d   1      -1.185  -0.776   2.434  0.00  0.00     0.028 A 
ATOM     22  HN  UNL d   1      -2.076   3.073   0.893  1.00  0.00     0.197 HD
ENDBRANCH   9  12
ENDBRANCH   7   9
ENDBRANCH   1   7
BRANCH   2  23
ATOM     23  N   UNL d   1       2.917   0.585   1.087  0.00  0.00    -0.374 N 
ATOM     24  C   UNL d   1       4.386   0.501   1.297  0.00  0.00     0.162 C 
ATOM     25  C   UNL d   1       4.796  -0.449   2.415  0.00  0.00    -0.034 A 
ATOM     26  C   UNL d   1       5.957  -0.247   3.170  0.00  0.00     0.009 A 
ATOM     27  C   UNL d   1       4.025  -1.595   2.670  0.00  0.00    -0.049 A 
ATOM     28  C   UNL d   1       6.301  -1.142   4.189  0.00  0.00     0.001 A 
ATOM     29  C   UNL d   1       5.499  -2.252   4.457  0.00  0.00     0.001 A 
ATOM     30  C   UNL d   1       4.367  -2.489   3.688  0.00  0.00     0.008 A 
ATOM     31  C   UNL d   1       2.814  -1.803   1.822  0.00  0.00     0.059 C 
ATOM     32  C   UNL d   1       2.096  -0.466   1.714  0.00  0.00     0.128 C 
ENDBRANCH   2  23
BRANCH   3  33
ATOM     33  C   UNL d   1       0.246   5.654   0.240  0.00  0.00     0.417 C 
ATOM     34  F   UNL d   1      -0.925   5.570  -0.448  0.00  0.00    -0.166 F 
ATOM     35  F   UNL d   1      -0.057   6.251   1.426  0.00  0.00    -0.166 F 
ATOM     36  F   UNL d   1       1.014   6.550  -0.442  0.00  0.00    -0.166 F 
ENDBRANCH   3  33
TORSDOF 5
