REMARK  4 active torsions:
REMARK  status: ('A' for Active; 'I' for Inactive)
REMARK    1  A    between atoms: C_6  and  C_1 
REMARK    2  A    between atoms: C_9  and  C_4 
REMARK       I    between atoms: N_8  and  C_6 
REMARK    3  A    between atoms: C_15  and  N_8 
REMARK    4  A    between atoms: C_14  and  C_15 
ROOT
ATOM      1  C   UNL d   1      -0.045  -1.249   0.069  0.00  0.00     0.092 A 
ATOM      2  N   UNL d   1      -1.166   0.740   0.146  0.00  0.00    -0.259 N 
ATOM      3  HN  UNL d   1      -1.905   1.441   0.190  1.00  0.00     0.195 HD
ATOM      4  C   UNL d   1      -1.330  -0.596   0.170  0.00  0.00     0.083 A 
ATOM      5  O   UNL d   1       0.173   0.980   0.052  0.00  0.00    -0.241 OA
ATOM      6  C   UNL d   1       0.851  -0.190   0.011  0.00  0.00     0.090 A 
ATOM      7  C   UNL d   1       2.314  -0.038  -0.114  0.00  0.00     0.080 C 
ENDROOT
BRANCH   1   8
ATOM      8  C   UNL d   1       0.271  -2.665  -0.025  0.00  0.00     0.256 C 
ATOM      9  N   UNL d   1       1.558  -3.034   0.331  0.00  0.00    -0.352 N 
ATOM     10  H   UNL d   1       2.097  -2.402   0.901  0.00  0.00     0.163 HD
ATOM     11  O   UNL d   1      -0.554  -3.495  -0.395  0.00  0.00    -0.267 OA
BRANCH   9  12
ATOM     12  C   UNL d   1       1.944  -4.430   0.355  0.00  0.00     0.161 C 
BRANCH  12  13
ATOM     13  C   UNL d   1       3.417  -4.662   0.101  0.00  0.00    -0.037 A 
ATOM     14  C   UNL d   1       4.065  -5.739   0.727  0.00  0.00     0.032 A 
ATOM     15  C   UNL d   1       5.393  -6.055   0.416  0.00  0.00     0.036 A 
ATOM     16 CL   UNL d   1       6.148  -7.400   1.180  0.00  0.00    -0.084 Cl
ATOM     17  C   UNL d   1       6.101  -5.307  -0.518  0.00  0.00     0.047 A 
ATOM     18  C   UNL d   1       5.465  -4.240  -1.146  0.00  0.00     0.036 A 
ATOM     19  C   UNL d   1       4.136  -3.918  -0.848  0.00  0.00     0.032 A 
ATOM     20 CL   UNL d   1       6.320  -3.317  -2.321  0.00  0.00    -0.084 Cl
ENDBRANCH  12  13
ENDBRANCH   9  12
ENDBRANCH   1   8
BRANCH   4  21
ATOM     21  C   UNL d   1      -2.697  -1.114   0.343  0.00  0.00    -0.006 A 
ATOM     22  C   UNL d   1      -3.791  -0.356  -0.122  0.00  0.00     0.014 A 
ATOM     23  C   UNL d   1      -5.109  -0.735   0.150  0.00  0.00     0.001 A 
ATOM     24  C   UNL d   1      -5.358  -1.889   0.884  0.00  0.00     0.000 A 
ATOM     25  C   UNL d   1      -4.291  -2.666   1.332  0.00  0.00     0.001 A 
ATOM     26  C   UNL d   1      -2.970  -2.281   1.067  0.00  0.00     0.014 A 
ENDBRANCH   4  21
TORSDOF 4
