REMARK  3 active torsions:
REMARK  status: ('A' for Active; 'I' for Inactive)
REMARK    1  A    between atoms: C_13  and  C_1 
REMARK    2  A    between atoms: C_11  and  C_6 
REMARK    3  A    between atoms: C_17  and  C_13 
ROOT
ATOM      1  C   UNL d   1      -2.420  -0.737   0.032  0.00  0.00     0.065 A 
ATOM      2  C   UNL d   1      -0.270   0.477  -0.037  0.00  0.00     0.089 A 
ATOM      3  C   UNL d   1      -1.329  -1.609   0.028  0.00  0.00    -0.026 A 
ATOM      4  C   UNL d   1      -0.063  -0.891   0.008  0.00  0.00     0.027 A 
ATOM      5  S   UNL d   1      -1.913   0.896  -0.072  0.00  0.00    -0.067 SA
ATOM      6  C   UNL d   1       1.915   0.967  -0.026  0.00  0.00     0.118 A 
ATOM      7  N   UNL d   1       0.669   1.437  -0.071  0.00  0.00    -0.335 N 
ATOM      8  HN  UNL d   1       0.449   2.431  -0.127  1.00  0.00     0.168 HD
ATOM      9  N   UNL d   1       2.253  -0.338  -0.005  0.00  0.00    -0.345 N 
ATOM     10  HN  UNL d   1       3.236  -0.609   0.001  1.00  0.00     0.167 HD
ATOM     11  C   UNL d   1       1.287  -1.293   0.007  0.00  0.00     0.020 A 
ATOM     12  C   UNL d   1      -1.423  -3.107   0.044  0.00  0.00     0.050 C 
ATOM     13  C   UNL d   1       1.772  -2.711   0.008  0.00  0.00     0.069 C 
ENDROOT
BRANCH   1  14
ATOM     14  C   UNL d   1      -3.841  -1.083  -0.010  0.00  0.00     0.199 C 
ATOM     15  O   UNL d   1      -4.245  -2.113  -0.555  0.00  0.00    -0.286 OA
BRANCH  14  16
ATOM     16  C   UNL d   1      -4.897  -0.222   0.605  0.00  0.00     0.015 A 
ATOM     17  C   UNL d   1      -4.684   0.544   1.760  0.00  0.00     0.017 A 
ATOM     18  C   UNL d   1      -5.723   1.317   2.291  0.00  0.00     0.025 A 
ATOM     19  C   UNL d   1      -6.981   1.308   1.688  0.00  0.00     0.034 A 
ATOM     20  C   UNL d   1      -7.215   0.523   0.563  0.00  0.00     0.025 A 
ATOM     21 CL   UNL d   1      -8.253   2.263   2.343  0.00  0.00    -0.084 Cl
ATOM     22  C   UNL d   1      -6.177  -0.242   0.025  0.00  0.00     0.017 A 
ENDBRANCH  14  16
ENDBRANCH   1  14
BRANCH   6  23
ATOM     23  C   UNL d   1       3.038   1.923  -0.095  0.00  0.00     0.030 A 
ATOM     24  C   UNL d   1       3.052   3.182   0.538  0.00  0.00     0.049 A 
ATOM     25  C   UNL d   1       4.156   4.043   0.418  0.00  0.00     0.048 A 
ATOM     26 CL   UNL d   1       1.768   3.742   1.559  0.00  0.00    -0.083 Cl
ATOM     27  C   UNL d   1       5.268   3.657  -0.323  0.00  0.00     0.035 A 
ATOM     28  C   UNL d   1       5.296   2.417  -0.945  0.00  0.00     0.025 A 
ATOM     29 CL   UNL d   1       6.619   4.712  -0.458  0.00  0.00    -0.084 Cl
ATOM     30  C   UNL d   1       4.194   1.564  -0.830  0.00  0.00     0.018 A 
ENDBRANCH   6  23
TORSDOF 3
