REMARK  4 active torsions:
REMARK  status: ('A' for Active; 'I' for Inactive)
REMARK    1  A    between atoms: C_7  and  C_1 
REMARK    2  A    between atoms: N_2  and  C_8 
REMARK    3  A    between atoms: O_15  and  C_7 
REMARK    4  A    between atoms: C_16  and  O_15 
ROOT
ATOM      1  C   UNL d   1      -2.437  -0.155  -0.110  0.00  0.00     0.109 A 
ATOM      2  N   UNL d   1      -1.627   0.957  -0.111  0.00  0.00    -0.351 N 
ATOM      3  C   UNL d   1      -1.601  -1.256  -0.099  0.00  0.00     0.049 A 
ATOM      4  C   UNL d   1      -0.260  -0.800  -0.072  0.00  0.00    -0.005 A 
ATOM      5  C   UNL d   1      -0.299   0.593  -0.079  0.00  0.00     0.043 A 
ATOM      6  C   UNL d   1       2.150  -0.678  -0.019  0.00  0.00     0.103 A 
ATOM      7  C   UNL d   1       0.983  -1.457  -0.035  0.00  0.00     0.050 A 
ATOM      8  C   UNL d   1       0.857   1.383  -0.052  0.00  0.00     0.033 A 
ATOM      9  C   UNL d   1       2.091   0.722  -0.025  0.00  0.00     0.038 A 
ATOM     10  H   UNL d   1      -1.973   1.910  -0.105  0.00  0.00     0.166 HD
ENDROOT
BRANCH   1  11
ATOM     11  C   UNL d   1      -3.874  -0.080  -0.061  0.00  0.00     0.310 C 
ATOM     12  O   UNL d   1      -4.515   0.959  -0.002  0.00  0.00    -0.258 OA
BRANCH  11  13
ATOM     13  O   UNL d   1      -4.383  -1.339   0.007  0.00  0.00    -0.317 OA
BRANCH  13  14
ATOM     14  C   UNL d   1      -5.719  -1.447   0.507  0.00  0.00     0.175 C 
ATOM     15  C   UNL d   1      -5.648  -1.514   2.022  0.00  0.00     0.034 C 
ENDBRANCH  13  14
ENDBRANCH  11  13
ENDBRANCH   1  11
BRANCH   6  16
ATOM     16  N   UNL d   1       3.454  -1.352   0.007  0.00  0.00    -0.116 N 
ATOM     17  O   UNL d   1       3.465  -2.591   0.027  0.00  0.00    -0.532 OA
ATOM     18  O   UNL d   1       4.471  -0.642   0.003  0.00  0.00    -0.532 OA
ENDBRANCH   6  16
TORSDOF 4
