REMARK  2 active torsions:
REMARK  status: ('A' for Active; 'I' for Inactive)
REMARK    1  A    between atoms: C_7  and  N_1 
REMARK    2  A    between atoms: C_13  and  C_8 
ROOT
ATOM      1  N   UNL d   1       6.138  -5.620   0.215  0.00  0.00    -0.191 NA
ATOM      2  C   UNL d   1       5.154  -5.002   0.175  0.00  0.00     0.099 C 
ATOM      3  C   UNL d   1       1.493  -2.861   0.046  0.00  0.00    -0.035 A 
ATOM      4  C   UNL d   1       3.926  -4.262   0.129  0.00  0.00     0.044 A 
ATOM      5  C   UNL d   1       2.130  -3.100   1.270  0.00  0.00     0.013 A 
ATOM      6  C   UNL d   1       2.091  -3.308  -1.138  0.00  0.00     0.013 A 
ATOM      7  C   UNL d   1       3.341  -3.799   1.312  0.00  0.00     0.023 A 
ATOM      8  C   UNL d   1       3.302  -4.008  -1.096  0.00  0.00     0.023 A 
ENDROOT
BRANCH   3   9
ATOM      9  C   UNL d   1       0.228  -2.121   0.010  0.00  0.00     0.030 C 
ATOM     10  C   UNL d   1       0.154  -0.785  -0.043  0.00  0.00     0.058 A 
ATOM     11  C   UNL d   1       1.269   0.190  -0.103  0.00  0.00     0.279 A 
ATOM     12  C   UNL d   1      -1.061   0.045  -0.015  0.00  0.00     0.038 A 
ATOM     13  N   UNL d   1       0.603   1.425  -0.043  0.00  0.00    -0.220 N 
ATOM     14  O   UNL d   1       2.451  -0.081  -0.196  0.00  0.00    -0.265 OA
ATOM     15  N   UNL d   1      -0.789   1.323  -0.010  0.00  0.00    -0.294 N 
ATOM     16  HN  UNL d   1      -1.459   2.092   0.012  1.00  0.00     0.187 HD
ATOM     17  C   UNL d   1      -2.449  -0.506   0.017  0.00  0.00     0.071 C 
BRANCH  13  18
ATOM     18  C   UNL d   1       1.200   2.709   0.005  0.00  0.00     0.061 A 
ATOM     19  C   UNL d   1       2.589   2.864   0.111  0.00  0.00     0.055 A 
ATOM     20  C   UNL d   1       3.163   4.135   0.165  0.00  0.00     0.036 A 
ATOM     21 CL   UNL d   1       4.872   4.291   0.309  0.00  0.00    -0.084 Cl
ATOM     22  C   UNL d   1       2.369   5.274   0.112  0.00  0.00     0.024 A 
ATOM     23  C   UNL d   1       0.986   5.141   0.009  0.00  0.00     0.004 A 
ATOM     24  C   UNL d   1       0.407   3.867  -0.039  0.00  0.00     0.032 A 
ENDBRANCH  13  18
ENDBRANCH   3   9
TORSDOF 2
