REMARK  4 active torsions:
REMARK  status: ('A' for Active; 'I' for Inactive)
REMARK    1  A    between atoms: C_2  and  C_1 
REMARK       I    between atoms: C_6  and  N_9 
REMARK    2  A    between atoms: C_13  and  C_6 
REMARK    3  A    between atoms: C_14  and  C_7 
REMARK    4  A    between atoms: N_9  and  C_14 
ROOT
ATOM      1  C   UNL d   1       0.624   0.722   0.970  0.00  0.00     0.089 A 
ATOM      2  O   UNL d   1       0.029  -0.486   1.226  0.00  0.00    -0.312 OA
ATOM      3  C   UNL d   1       0.757   0.887  -0.395  0.00  0.00     0.041 A 
ATOM      4  C   UNL d   1      -0.192  -1.093   0.021  0.00  0.00     0.071 A 
ATOM      5  C   UNL d   1       0.242  -0.280  -1.004  0.00  0.00     0.037 A 
ENDROOT
BRANCH   4   6
ATOM      6  C   UNL d   1      -0.836  -2.429   0.033  0.00  0.00     0.187 C 
BRANCH   6   7
ATOM      7  N   UNL d   1       0.174  -3.462   0.096  0.00  0.00    -0.351 N 
ATOM      8  C   UNL d   1       0.703  -4.029  -1.044  0.00  0.00     0.251 C 
ATOM      9  O   UNL d   1       0.384  -3.696  -2.179  0.00  0.00    -0.268 OA
ATOM     10  H   UNL d   1       0.648  -3.591   0.979  0.00  0.00     0.163 HD
BRANCH   8  11
ATOM     11  C   UNL d   1       1.723  -5.096  -0.835  0.00  0.00     0.032 A 
ATOM     12  C   UNL d   1       1.680  -5.943   0.281  0.00  0.00     0.017 A 
ATOM     13  C   UNL d   1       2.627  -6.961   0.425  0.00  0.00     0.001 A 
ATOM     14  C   UNL d   1       3.615  -7.140  -0.544  0.00  0.00     0.000 A 
ATOM     15  C   UNL d   1       3.655  -6.308  -1.662  0.00  0.00     0.001 A 
ATOM     16  C   UNL d   1       2.707  -5.291  -1.812  0.00  0.00     0.017 A 
ENDBRANCH   8  11
ENDBRANCH   6   7
ENDBRANCH   4   6
BRANCH   1  17
ATOM     17  C   UNL d   1       1.005   1.526   2.127  0.00  0.00     0.036 A 
ATOM     18  C   UNL d   1       2.027   2.485   2.028  0.00  0.00     0.132 A 
ATOM     19  C   UNL d   1       2.425   3.251   3.120  0.00  0.00     0.085 A 
ATOM     20  F   UNL d   1       2.668   2.683   0.865  0.00  0.00    -0.205 F 
ATOM     21  C   UNL d   1       1.788   3.067   4.337  0.00  0.00     0.119 A 
ATOM     22  C   UNL d   1       0.762   2.139   4.473  0.00  0.00     0.043 A 
ATOM     23  F   UNL d   1       2.168   3.793   5.396  0.00  0.00    -0.206 F 
ATOM     24  C   UNL d   1       0.372   1.369   3.371  0.00  0.00     0.020 A 
ENDBRANCH   1  17
TORSDOF 4
