REMARK  3 active torsions:
REMARK  status: ('A' for Active; 'I' for Inactive)
REMARK    1  A    between atoms: C_2  and  C_1 
REMARK    2  A    between atoms: C_3  and  C_2 
REMARK    3  A    between atoms: N_6  and  C_4 
ROOT
ATOM      1  C   UNL d   1      -1.217  -0.937   0.804  0.00  0.00     0.054 A 
ATOM      2  C   UNL d   1      -1.830  -0.556  -0.388  0.00  0.00     0.152 A 
ATOM      3  C   UNL d   1      -3.201  -0.309  -0.426  0.00  0.00     0.073 A 
ATOM      4  F   UNL d   1      -1.105  -0.415  -1.510  0.00  0.00    -0.203 F 
ATOM      5 CL   UNL d   1      -3.946   0.246  -1.877  0.00  0.00    -0.081 Cl
ATOM      6  C   UNL d   1      -2.002  -1.161   1.944  0.00  0.00     0.018 A 
ATOM      7  C   UNL d   1      -3.379  -0.926   1.902  0.00  0.00     0.003 A 
ATOM      8  C   UNL d   1      -3.975  -0.479   0.721  0.00  0.00     0.027 A 
ENDROOT
BRANCH   1   9
ATOM      9  C   UNL d   1       0.261  -1.056   0.916  0.00  0.00     0.187 C 
ATOM     10  O   UNL d   1       0.744  -1.887   1.678  0.00  0.00    -0.287 OA
BRANCH   9  11
ATOM     11  C   UNL d   1       1.059  -0.034   0.178  0.00  0.00     0.080 C 
ATOM     12  C   UNL d   1       2.383  -0.015  -0.081  0.00  0.00     0.006 C 
ATOM     13  C   UNL d   1       3.294  -1.150   0.339  0.00  0.00     0.068 C 
BRANCH  12  14
ATOM     14  N   UNL d   1       2.987   1.041  -0.796  0.00  0.00    -0.393 N 
ATOM     15  C   UNL d   1       2.284   1.861  -1.788  0.00  0.00     0.148 C 
ATOM     16  C   UNL d   1       4.374   1.463  -0.581  0.00  0.00     0.148 C 
ENDBRANCH  12  14
ENDBRANCH   9  11
ENDBRANCH   1   9
TORSDOF 3
