REMARK  6 active torsions:
REMARK  status: ('A' for Active; 'I' for Inactive)
REMARK    1  A    between atoms: C_3  and  C_1 
REMARK    2  A    between atoms: C_2  and  O_9 
REMARK    3  A    between atoms: C_7  and  C_3 
REMARK    4  A    between atoms: N_8  and  C_4 
REMARK    5  A    between atoms: C_17  and  N_8 
REMARK    6  A    between atoms: O_9  and  C_16 
ROOT
ATOM      1  C   UNL d   1       1.017  -0.115   0.058  0.00  0.00     0.110 C 
ATOM      2  C   UNL d   1       0.302   0.997  -0.203  0.00  0.00     0.115 C 
ATOM      3  C   UNL d   1       0.366  -1.334   0.383  0.00  0.00     0.105 C 
ATOM      4  N   UNL d   1      -0.185  -2.312   0.683  0.00  0.00    -0.191 NA
ENDROOT
BRANCH   1   5
ATOM      5  C   UNL d   1       2.512  -0.042  -0.015  0.00  0.00     0.204 C 
ATOM      6  O   UNL d   1       3.082   0.795  -0.711  0.00  0.00    -0.286 OA
BRANCH   5   7
ATOM      7  C   UNL d   1       3.332  -1.017   0.768  0.00  0.00     0.016 A 
ATOM      8  C   UNL d   1       4.571  -1.426   0.258  0.00  0.00     0.018 A 
ATOM      9  C   UNL d   1       5.353  -2.365   0.949  0.00  0.00     0.038 A 
ATOM     10  C   UNL d   1       4.890  -2.923   2.140  0.00  0.00     0.078 A 
ATOM     11  C   UNL d   1       3.692  -2.457   2.684  0.00  0.00     0.038 A 
ATOM     12  C   UNL d   1       2.924  -1.501   2.015  0.00  0.00     0.018 A 
BRANCH  10  13
ATOM     13  O   UNL d   1       5.542  -3.842   2.901  0.00  0.00    -0.255 OA
BRANCH  13  14
ATOM     14  C   UNL d   1       6.316  -4.858   2.276  0.00  0.00     0.530 C 
ATOM     15  F   UNL d   1       6.332  -4.801   0.929  0.00  0.00    -0.144 F 
ATOM     16  F   UNL d   1       7.587  -4.779   2.727  0.00  0.00    -0.144 F 
ATOM     17  F   UNL d   1       5.818  -6.063   2.634  0.00  0.00    -0.144 F 
ENDBRANCH  13  14
ENDBRANCH  10  13
ENDBRANCH   5   7
ENDBRANCH   1   5
BRANCH   2  18
ATOM     18  N   UNL d   1      -1.062   1.175  -0.089  0.00  0.00    -0.364 N 
ATOM     19  H   UNL d   1      -1.603   0.425   0.334  0.00  0.00     0.165 HD
BRANCH  18  20
ATOM     20  C   UNL d   1      -1.815   2.313  -0.427  0.00  0.00     0.031 A 
ATOM     21  C   UNL d   1      -1.430   3.206  -1.432  0.00  0.00     0.029 A 
ATOM     22  C   UNL d   1      -2.190   4.347  -1.708  0.00  0.00     0.002 A 
ATOM     23  C   UNL d   1      -3.331   4.627  -0.959  0.00  0.00     0.000 A 
ATOM     24  C   UNL d   1      -3.714   3.764   0.063  0.00  0.00     0.002 A 
ATOM     25  C   UNL d   1      -2.962   2.614   0.324  0.00  0.00     0.029 A 
ENDBRANCH  18  20
ENDBRANCH   2  18
TORSDOF 6
