REMARK  6 active torsions:
REMARK  status: ('A' for Active; 'I' for Inactive)
REMARK    1  A    between atoms: C_2  and  S_1 
REMARK    2  A    between atoms: N_3  and  S_1 
REMARK    3  A    between atoms: C_4  and  C_6 
REMARK    4  A    between atoms: C_5  and  C_7 
REMARK       I    between atoms: C_8  and  N_11 
REMARK    5  A    between atoms: C_18  and  C_8 
REMARK    6  A    between atoms: N_11  and  C_25 
ROOT
ATOM      1  S   UNL d   1       1.135  -0.091   0.056  0.00  0.00     0.243 S 
ATOM      2  O   UNL d   1       0.650  -0.985   1.087  0.00  0.00    -0.206 OA
ATOM      3  O   UNL d   1       2.545   0.206  -0.064  0.00  0.00    -0.206 OA
ENDROOT
BRANCH   1   4
ATOM      4  C   UNL d   1       0.262   1.450   0.254  0.00  0.00     0.076 A 
ATOM      5  C   UNL d   1      -1.002   1.446   0.855  0.00  0.00     0.041 A 
ATOM      6  C   UNL d   1      -1.618   2.655   1.211  0.00  0.00     0.050 A 
ATOM      7  C   UNL d   1      -0.951   3.864   0.939  0.00  0.00     0.032 A 
ATOM      8  C   UNL d   1       0.325   3.878   0.344  0.00  0.00     0.050 A 
ATOM      9  C   UNL d   1       0.927   2.658   0.002  0.00  0.00     0.041 A 
BRANCH   6  10
ATOM     10  C   UNL d   1      -2.948   2.674   1.932  0.00  0.00     0.417 C 
ATOM     11  F   UNL d   1      -3.447   1.435   2.190  0.00  0.00    -0.166 F 
ATOM     12  F   UNL d   1      -2.869   3.305   3.136  0.00  0.00    -0.166 F 
ATOM     13  F   UNL d   1      -3.909   3.329   1.228  0.00  0.00    -0.166 F 
ENDBRANCH   6  10
BRANCH   8  14
ATOM     14  C   UNL d   1       1.050   5.190   0.144  0.00  0.00     0.417 C 
ATOM     15  F   UNL d   1       2.294   5.045  -0.390  0.00  0.00    -0.166 F 
ATOM     16  F   UNL d   1       0.380   6.032  -0.688  0.00  0.00    -0.166 F 
ATOM     17  F   UNL d   1       1.220   5.869   1.312  0.00  0.00    -0.166 F 
ENDBRANCH   8  14
ENDBRANCH   1   4
BRANCH   1  18
ATOM     18  N   UNL d   1       0.608  -0.703  -1.473  0.00  0.00    -0.206 NA
ATOM     19  C   UNL d   1       1.062   0.129  -2.627  0.00  0.00     0.109 C 
ATOM     20  C   UNL d   1       0.616  -0.469  -3.955  0.00  0.00     0.041 C 
ATOM     21  C   UNL d   1       1.085  -1.913  -4.114  0.00  0.00     0.086 C 
ATOM     22  C   UNL d   1       0.578  -2.740  -2.936  0.00  0.00     0.041 C 
ATOM     23  C   UNL d   1       1.006  -2.146  -1.604  0.00  0.00     0.109 C 
BRANCH  21  24
ATOM     24  N   UNL d   1       2.539  -1.994  -4.265  0.00  0.00    -0.356 N 
ATOM     25  C   UNL d   1       3.135  -3.017  -4.971  0.00  0.00     0.222 C 
ATOM     26  O   UNL d   1       2.471  -3.864  -5.563  0.00  0.00    -0.273 OA
ATOM     27  H   UNL d   1       3.129  -1.409  -3.691  0.00  0.00     0.162 HD
BRANCH  25  28
ATOM     28  C   UNL d   1       4.670  -2.962  -5.028  0.00  0.00     0.078 C 
ATOM     29  C   UNL d   1       5.234  -4.137  -5.843  0.00  0.00     0.014 C 
ATOM     30  C   UNL d   1       5.123  -5.470  -5.101  0.00  0.00     0.001 C 
ATOM     31  C   UNL d   1       5.763  -5.406  -3.718  0.00  0.00     0.000 C 
ATOM     32  C   UNL d   1       5.239  -4.233  -2.895  0.00  0.00     0.001 C 
ATOM     33  C   UNL d   1       5.352  -2.912  -3.652  0.00  0.00     0.014 C 
ENDBRANCH  25  28
ENDBRANCH  21  24
ENDBRANCH   1  18
TORSDOF 6
