REMARK  5 active torsions:
REMARK  status: ('A' for Active; 'I' for Inactive)
REMARK       I    between atoms: N_2  and  C_1 
REMARK    1  A    between atoms: C_5  and  C_1 
REMARK    2  A    between atoms: C_8  and  N_2 
REMARK    3  A    between atoms: C_3  and  C_4 
REMARK    4  A    between atoms: O_16  and  C_3 
REMARK    5  A    between atoms: C_6  and  C_7 
ROOT
ATOM      1  C   UNL d   1       0.960  -0.130   0.090  0.00  0.00     0.256 C 
ATOM      2  N   UNL d   1       2.334   0.030   0.167  0.00  0.00    -0.323 N 
ATOM      3  O   UNL d   1       0.354  -0.917  -0.631  0.00  0.00    -0.267 OA
ATOM      4  H   UNL d   1       2.703   0.538   0.960  0.00  0.00     0.169 HD
ENDROOT
BRANCH   1   5
ATOM      5  C   UNL d   1       0.157   0.682   1.031  0.00  0.00     0.032 A 
ATOM      6  C   UNL d   1       0.536   1.963   1.431  0.00  0.00     0.017 A 
ATOM      7  C   UNL d   1      -0.282   2.678   2.311  0.00  0.00     0.009 A 
ATOM      8  C   UNL d   1      -1.489   2.136   2.803  0.00  0.00    -0.051 A 
ATOM      9  C   UNL d   1      -1.856   0.856   2.361  0.00  0.00     0.009 A 
ATOM     10  C   UNL d   1      -1.046   0.138   1.485  0.00  0.00     0.017 A 
BRANCH   8  11
ATOM     11  C   UNL d   1      -2.350   2.931   3.797  0.00  0.00    -0.024 C 
ATOM     12  C   UNL d   1      -3.627   2.181   4.238  0.00  0.00     0.019 C 
ATOM     13  C   UNL d   1      -1.521   3.216   5.067  0.00  0.00     0.019 C 
ATOM     14  C   UNL d   1      -2.796   4.265   3.164  0.00  0.00     0.019 C 
ENDBRANCH   8  11
ENDBRANCH   1   5
BRANCH   2  15
ATOM     15  C   UNL d   1       3.269  -0.650  -0.641  0.00  0.00     0.035 A 
ATOM     16  C   UNL d   1       2.898  -1.309  -1.814  0.00  0.00     0.047 A 
ATOM     17  C   UNL d   1       3.825  -2.051  -2.551  0.00  0.00     0.041 A 
ATOM     18  C   UNL d   1       5.156  -2.099  -2.127  0.00  0.00     0.018 A 
ATOM     19  C   UNL d   1       5.549  -1.400  -0.983  0.00  0.00     0.003 A 
ATOM     20  C   UNL d   1       4.608  -0.673  -0.244  0.00  0.00     0.029 A 
BRANCH  17  21
ATOM     21  C   UNL d   1       3.411  -2.809  -3.764  0.00  0.00     0.293 C 
ATOM     22  O   UNL d   1       4.178  -3.462  -4.450  0.00  0.00    -0.259 OA
BRANCH  21  23
ATOM     23  O   UNL d   1       2.076  -2.677  -3.965  0.00  0.00    -0.323 OA
ATOM     24  C   UNL d   1       1.546  -3.412  -5.064  0.00  0.00     0.213 C 
ENDBRANCH  21  23
ENDBRANCH  17  21
ENDBRANCH   2  15
TORSDOF 5
