REMARK  2 active torsions:
REMARK  status: ('A' for Active; 'I' for Inactive)
REMARK       I    between atoms: N_3  and  C_1 
REMARK    1  A    between atoms: C_4  and  C_1 
REMARK    2  A    between atoms: C_2  and  N_3 
ROOT
ATOM      1  C   UNL d   1       1.016   0.054  -0.011  0.00  0.00     0.258 C 
ATOM      2  N   UNL d   1       0.404   0.720  -1.052  0.00  0.00    -0.321 N 
ATOM      3  O   UNL d   1       2.230  -0.017   0.165  0.00  0.00    -0.267 OA
ATOM      4  H   UNL d   1      -0.489   1.151  -0.839  0.00  0.00     0.169 HD
ENDROOT
BRANCH   2   5
ATOM      5  C   UNL d   1       1.102   1.253  -2.161  0.00  0.00     0.070 A 
ATOM      6  C   UNL d   1       1.999   0.505  -2.942  0.00  0.00     0.039 A 
ATOM      7  C   UNL d   1       2.613   1.079  -4.063  0.00  0.00     0.028 A 
ATOM      8 BR   UNL d   1       2.302  -1.365  -2.706  0.00  0.00    -0.049 Br
ATOM      9  C   UNL d   1       2.336   2.399  -4.437  0.00  0.00    -0.059 A 
ATOM     10  C   UNL d   1       1.438   3.146  -3.670  0.00  0.00     0.028 A 
ATOM     11  C   UNL d   1       2.983   2.978  -5.659  0.00  0.00     0.048 C 
ATOM     12  C   UNL d   1       0.820   2.574  -2.552  0.00  0.00     0.039 A 
ATOM     13 BR   UNL d   1      -0.358   3.676  -1.540  0.00  0.00    -0.049 Br
ENDBRANCH   2   5
BRANCH   1  14
ATOM     14  C   UNL d   1       0.107  -0.480   1.037  0.00  0.00     0.054 A 
ATOM     15  C   UNL d   1      -1.106  -1.126   0.768  0.00  0.00     0.049 A 
ATOM     16 CL   UNL d   1      -1.683  -1.455  -0.828  0.00  0.00    -0.083 Cl
ATOM     17  C   UNL d   1      -1.898  -1.583   1.830  0.00  0.00     0.025 A 
ATOM     18  C   UNL d   1      -1.485  -1.409   3.150  0.00  0.00     0.002 A 
ATOM     19  C   UNL d   1      -0.262  -0.798   3.419  0.00  0.00     0.001 A 
ATOM     20  C   UNL d   1       0.532  -0.336   2.369  0.00  0.00     0.019 A 
ENDBRANCH   1  14
TORSDOF 2
