REMARK  2 active torsions:
REMARK  status: ('A' for Active; 'I' for Inactive)
REMARK    1  A    between atoms: C_2  and  S_1 
REMARK    2  A    between atoms: C_6  and  C_5 
ROOT
ATOM      1  C   UNL d   1       0.550  -1.131  -1.129  0.00  0.00     0.058 A 
ATOM      2  C   UNL d   1      -0.191  -3.098  -2.968  0.00  0.00     0.009 A 
ATOM      3  C   UNL d   1       1.031  -2.436  -0.981  0.00  0.00     0.024 A 
ATOM      4  C   UNL d   1      -0.315  -0.803  -2.174  0.00  0.00     0.024 A 
ATOM      5  C   UNL d   1       0.664  -3.419  -1.907  0.00  0.00     0.016 A 
ATOM      6  C   UNL d   1      -0.675  -1.786  -3.097  0.00  0.00     0.016 A 
ENDROOT
BRANCH   1   7
ATOM      7  S   UNL d   1       1.008   0.115   0.056  0.00  0.00     0.171 S 
ATOM      8  O   UNL d   1       1.365  -0.569   1.285  0.00  0.00    -0.223 OA
ATOM      9  O   UNL d   1      -0.028   1.131   0.043  0.00  0.00    -0.223 OA
ATOM     10  C   UNL d   1       2.483   0.818  -0.634  0.00  0.00     0.167 C 
ENDBRANCH   1   7
BRANCH   2  11
ATOM     11  C   UNL d   1      -0.598  -4.093  -3.999  0.00  0.00     0.155 C 
ATOM     12  O   UNL d   1      -0.902  -3.698  -5.123  0.00  0.00    -0.293 OA
ATOM     13  C   UNL d   1      -0.647  -5.559  -3.655  0.00  0.00     0.096 C 
ENDBRANCH   2  11
TORSDOF 2
