REMARK  7 active torsions:
REMARK  status: ('A' for Active; 'I' for Inactive)
REMARK    1  A    between atoms: C_6  and  C_1 
REMARK    2  A    between atoms: O_7  and  C_2 
REMARK    3  A    between atoms: C_4  and  O_7 
REMARK    4  A    between atoms: N_11  and  C_5 
REMARK    5  A    between atoms: O_19  and  C_6 
REMARK    6  A    between atoms: C_14  and  N_11 
REMARK    7  A    between atoms: C_26  and  O_19 
ROOT
ATOM      1  C   UNL d   1       2.981  -0.896   0.404  0.00  0.00     0.135 C 
ATOM      2  C   UNL d   1       2.450  -1.731   1.328  0.00  0.00     0.117 C 
ATOM      3  C   UNL d   1       2.164  -0.249  -0.588  0.00  0.00     0.107 C 
ATOM      4  N   UNL d   1       1.431   0.234  -1.358  0.00  0.00    -0.191 NA
ENDROOT
BRANCH   1   5
ATOM      5  C   UNL d   1       4.453  -0.664   0.352  0.00  0.00     0.305 C 
ATOM      6  O   UNL d   1       4.995  -0.031  -0.542  0.00  0.00    -0.258 OA
BRANCH   5   7
ATOM      7  O   UNL d   1       5.115  -1.291   1.367  0.00  0.00    -0.317 OA
BRANCH   7   8
ATOM      8  C   UNL d   1       6.534  -1.463   1.188  0.00  0.00     0.174 C 
ATOM      9  C   UNL d   1       6.751  -2.757   0.421  0.00  0.00     0.034 C 
ENDBRANCH   7   8
ENDBRANCH   5   7
ENDBRANCH   1   5
BRANCH   2  10
ATOM     10  N   UNL d   1       1.131  -2.112   1.445  0.00  0.00    -0.361 N 
ATOM     11  H   UNL d   1       0.511  -1.781   0.720  0.00  0.00     0.165 HD
BRANCH  10  12
ATOM     12  C   UNL d   1       0.486  -2.868   2.446  0.00  0.00     0.084 A 
ATOM     13  C   UNL d   1       0.925  -3.117   3.756  0.00  0.00     0.175 A 
ATOM     14  N   UNL d   1       0.223  -3.872   4.648  0.00  0.00    -0.345 N 
ATOM     15  C   UNL d   1      -0.899  -4.479   4.221  0.00  0.00     0.090 A 
ATOM     16  HN  UNL d   1       0.540  -3.974   5.612  1.00  0.00     0.167 HD
ATOM     17  C   UNL d   1      -1.394  -4.342   2.942  0.00  0.00     0.019 A 
ATOM     18  C   UNL d   1      -0.700  -3.521   2.059  0.00  0.00     0.035 A 
BRANCH  13  19
ATOM     19  O   UNL d   1       2.101  -2.509   4.198  0.00  0.00    -0.291 OA
BRANCH  19  20
ATOM     20  C   UNL d   1       2.767  -3.082   5.258  0.00  0.00     0.084 A 
ATOM     21  C   UNL d   1       3.380  -2.253   6.191  0.00  0.00    -0.017 A 
ATOM     22  C   UNL d   1       3.976  -2.787   7.340  0.00  0.00    -0.043 A 
ATOM     23  C   UNL d   1       3.482  -0.762   6.161  0.00  0.00     0.042 C 
ATOM     24  C   UNL d   1       4.467  -1.708   8.252  0.00  0.00     0.040 C 
ATOM     25  C   UNL d   1       4.010  -4.162   7.566  0.00  0.00    -0.055 A 
ATOM     26  C   UNL d   1       4.272  -0.425   7.434  0.00  0.00     0.009 C 
ATOM     27  C   UNL d   1       3.496  -4.999   6.569  0.00  0.00     0.010 A 
ATOM     28  C   UNL d   1       4.607  -4.755   8.806  0.00  0.00     0.049 C 
ATOM     29  C   UNL d   1       2.893  -4.465   5.424  0.00  0.00     0.038 A 
ENDBRANCH  19  20
ENDBRANCH  13  19
ENDBRANCH  10  12
ENDBRANCH   2  10
TORSDOF 7
