REMARK  7 active torsions:
REMARK  status: ('A' for Active; 'I' for Inactive)
REMARK    1  A    between atoms: C_2  and  N_1 
REMARK       I    between atoms: C_6  and  N_1 
REMARK    2  A    between atoms: C_7  and  C_3 
REMARK    3  A    between atoms: C_15  and  C_6 
REMARK    4  A    between atoms: C_8  and  C_16 
REMARK    5  A    between atoms: O_14  and  C_8 
REMARK    6  A    between atoms: O_13  and  C_15 
REMARK    7  A    between atoms: C_16  and  O_13 
ROOT
ATOM      1  C   UNL d   1       0.323  -1.057  -0.434  0.00  0.00     0.040 A 
ATOM      2  C   UNL d   1      -0.957  -3.374  -1.464  0.00  0.00    -0.050 A 
ATOM      3  C   UNL d   1      -1.408  -2.077  -1.782  0.00  0.00     0.017 A 
ATOM      4  C   UNL d   1      -0.791  -0.916  -1.272  0.00  0.00    -0.035 A 
ATOM      5  C   UNL d   1       0.734  -2.333  -0.045  0.00  0.00     0.030 A 
ATOM      6  C   UNL d   1       0.091  -3.472  -0.538  0.00  0.00     0.010 A 
ATOM      7  C   UNL d   1      -1.285   0.432  -1.720  0.00  0.00     0.050 C 
ENDROOT
BRANCH   1   8
ATOM      8  N   UNL d   1       1.027   0.083   0.017  0.00  0.00    -0.325 N 
ATOM      9  C   UNL d   1       2.417   0.150  -0.016  0.00  0.00     0.245 C 
ATOM     10  O   UNL d   1       3.158  -0.712  -0.484  0.00  0.00    -0.271 OA
ATOM     11  H   UNL d   1       0.532   0.965  -0.031  0.00  0.00     0.169 HD
BRANCH   9  12
ATOM     12  C   UNL d   1       2.976   1.474   0.534  0.00  0.00     0.271 C 
BRANCH  12  13
ATOM     13  O   UNL d   1       4.070   2.079  -0.154  0.00  0.00    -0.372 OA
BRANCH  13  14
ATOM     14  C   UNL d   1       3.753   2.430  -1.498  0.00  0.00     0.277 C 
BRANCH  14  15
ATOM     15  C   UNL d   1       2.744   3.573  -1.551  0.00  0.00     0.164 C 
ATOM     16  O   UNL d   1       1.677   3.524  -2.138  0.00  0.00    -0.648 OA
BRANCH  15  17
ATOM     17  O   UNL d   1       3.133   4.640  -0.810  0.00  0.00    -0.775 OA
ATOM     18  H   UNL d   1       3.983   4.462  -0.354  0.00  0.00     0.167 HD
ENDBRANCH  15  17
ENDBRANCH  14  15
ENDBRANCH  13  14
ENDBRANCH  12  13
ENDBRANCH   9  12
ENDBRANCH   1   8
BRANCH   2  19
ATOM     19  C   UNL d   1      -1.598  -4.628  -2.088  0.00  0.00    -0.024 C 
ATOM     20  C   UNL d   1      -2.811  -5.037  -1.235  0.00  0.00     0.019 C 
ATOM     21  C   UNL d   1      -2.070  -4.380  -3.541  0.00  0.00     0.019 C 
ATOM     22  C   UNL d   1      -0.619  -5.825  -2.158  0.00  0.00     0.019 C 
ENDBRANCH   2  19
TORSDOF 7
