REMARK  5 active torsions:
REMARK  status: ('A' for Active; 'I' for Inactive)
REMARK       I    between atoms: N_2  and  C_1 
REMARK    1  A    between atoms: O_5  and  C_1 
REMARK    2  A    between atoms: C_4  and  N_2 
REMARK    3  A    between atoms: C_3  and  C_4 
REMARK       I    between atoms: N_9  and  C_3 
REMARK    4  A    between atoms: C_8  and  O_5 
REMARK    5  A    between atoms: C_14  and  N_9 
ROOT
ATOM      1  C   UNL d   1       1.094   0.079   0.065  0.00  0.00     0.362 C 
ATOM      2  N   UNL d   1       0.458  -0.083  -1.129  0.00  0.00    -0.324 N 
ATOM      3  O   UNL d   1       2.282   0.336   0.166  0.00  0.00    -0.238 OA
ATOM      4  H   UNL d   1      -0.533  -0.297  -1.123  0.00  0.00     0.165 HD
ENDROOT
BRANCH   2   5
ATOM      5  C   UNL d   1       1.167  -0.017  -2.396  0.00  0.00     0.174 C 
ATOM      6  C   UNL d   1       1.246   1.417  -2.910  0.00  0.00     0.042 C 
BRANCH   5   7
ATOM      7  C   UNL d   1       0.473  -0.905  -3.446  0.00  0.00     0.240 C 
ATOM      8  O   UNL d   1      -0.731  -1.157  -3.403  0.00  0.00    -0.271 OA
ATOM      9  N   UNL d   1       1.303  -1.332  -4.466  0.00  0.00    -0.360 N 
ATOM     10  H   UNL d   1       2.304  -1.219  -4.363  0.00  0.00     0.162 HD
BRANCH   9  11
ATOM     11  C   UNL d   1       0.824  -2.148  -5.565  0.00  0.00     0.118 C 
ATOM     12  C   UNL d   1       0.843  -3.630  -5.231  0.00  0.00     0.026 C 
ENDBRANCH   9  11
ENDBRANCH   5   7
ENDBRANCH   2   5
BRANCH   1  13
ATOM     13  O   UNL d   1       0.231  -0.111   1.093  0.00  0.00    -0.294 OA
BRANCH  13  14
ATOM     14  C   UNL d   1       0.716  -0.073   2.463  0.00  0.00     0.061 C 
ATOM     15  C   UNL d   1       1.238   1.319   2.841  0.00  0.00     0.046 C 
ATOM     16  C   UNL d   1      -0.504  -0.388   3.345  0.00  0.00     0.046 C 
ATOM     17  C   UNL d   1       1.771  -1.160   2.715  0.00  0.00     0.046 C 
ENDBRANCH  13  14
ENDBRANCH   1  13
TORSDOF 5
