REMARK  0 active torsions:
REMARK  status: ('A' for Active; 'I' for Inactive)
ROOT
ATOM      1  C   UNL d   1       0.808  -0.468   0.473  0.00  0.00    -0.007 C 
ATOM      2  C   UNL d   1      -0.744  -0.516   0.474  0.00  0.00    -0.007 C 
ATOM      3  C   UNL d   1       1.717  -1.572   0.271  0.00  0.00    -0.014 C 
ATOM      4  C   UNL d   1      -1.588  -1.663   0.253  0.00  0.00    -0.014 C 
ATOM      5  C   UNL d   1       1.371   0.822   0.244  0.00  0.00    -0.046 C 
ATOM      6  C   UNL d   1      -1.377   0.742   0.264  0.00  0.00    -0.046 C 
ATOM      7  C   UNL d   1       2.882  -1.382  -0.526  0.00  0.00    -0.025 C 
ATOM      8  C   UNL d   1      -2.753  -1.528  -0.558  0.00  0.00    -0.025 C 
ATOM      9  C   UNL d   1       0.706   2.079   0.738  0.00  0.00     0.044 C 
ATOM     10  C   UNL d   1      -0.796   1.986   0.872  0.00  0.00     0.044 C 
ATOM     11  C   UNL d   1       2.573   0.989  -0.459  0.00  0.00     0.009 C 
ATOM     12  C   UNL d   1      -2.562   0.860  -0.471  0.00  0.00     0.009 C 
ATOM     13  C   UNL d   1       3.263  -0.110  -0.931  0.00  0.00     0.013 C 
ATOM     14  C   UNL d   1      -3.184  -0.270  -0.967  0.00  0.00     0.013 C 
ATOM     15  C   UNL d   1       1.649  -2.841   0.886  0.00  0.00     0.013 C 
ATOM     16  C   UNL d   1      -1.466  -2.929   0.869  0.00  0.00     0.013 C 
ATOM     17  C   UNL d   1       3.721  -2.456  -0.878  0.00  0.00     0.012 C 
ATOM     18  C   UNL d   1      -3.541  -2.638  -0.910  0.00  0.00     0.012 C 
ATOM     19  C   UNL d   1       2.514  -3.902   0.581  0.00  0.00     0.001 C 
ATOM     20  C   UNL d   1      -2.280  -4.027   0.562  0.00  0.00     0.001 C 
ATOM     21  C   UNL d   1       3.523  -3.721  -0.343  0.00  0.00     0.001 C 
ATOM     22  C   UNL d   1      -3.293  -3.892  -0.368  0.00  0.00     0.001 C 
ENDROOT
TORSDOF 0
