REMARK  2 active torsions:
REMARK  status: ('A' for Active; 'I' for Inactive)
REMARK       I    between atoms: N_2  and  C_1 
REMARK    1  A    between atoms: O_3  and  C_1 
REMARK    2  A    between atoms: C_10  and  O_3 
ROOT
ATOM      1  C   UNL d   1       1.010  -0.083   0.064  0.00  0.00     0.363 C 
ATOM      2  N   UNL d   1       0.352  -1.301   0.029  0.00  0.00    -0.327 N 
ATOM      3  O   UNL d   1       2.179   0.030   0.414  0.00  0.00    -0.238 OA
ATOM      4  C   UNL d   1      -1.027  -1.444  -0.431  0.00  0.00     0.135 C 
ATOM      5  C   UNL d   1       1.060  -2.502   0.457  0.00  0.00     0.135 C 
ATOM      6  C   UNL d   1      -1.113  -3.691   0.611  0.00  0.00     0.130 C 
ATOM      7  C   UNL d   1       0.181  -3.384   1.325  0.00  0.00     0.098 C 
ATOM      8  C   UNL d   1      -1.438  -2.896  -0.629  0.00  0.00     0.098 C 
ATOM      9  O   UNL d   1      -1.863  -4.583   1.013  0.00  0.00    -0.298 OA
ENDROOT
BRANCH   1  10
ATOM     10  O   UNL d   1       0.224   0.956  -0.329  0.00  0.00    -0.294 OA
BRANCH  10  11
ATOM     11  C   UNL d   1       0.787   2.296  -0.394  0.00  0.00     0.061 C 
ATOM     12  C   UNL d   1       1.972   2.354  -1.367  0.00  0.00     0.046 C 
ATOM     13  C   UNL d   1      -0.339   3.185  -0.947  0.00  0.00     0.046 C 
ATOM     14  C   UNL d   1       1.164   2.811   1.001  0.00  0.00     0.046 C 
ENDBRANCH  10  11
ENDBRANCH   1  10
TORSDOF 2
