REMARK  6 active torsions:
REMARK  status: ('A' for Active; 'I' for Inactive)
REMARK       I    between atoms: N_4  and  C_1 
REMARK       I    between atoms: N_8  and  C_1 
REMARK    1  A    between atoms: C_2  and  C_6 
REMARK    2  A    between atoms: C_3  and  C_7 
REMARK    3  A    between atoms: C_6  and  N_4 
REMARK    4  A    between atoms: C_7  and  N_4 
REMARK    5  A    between atoms: C_5  and  C_9 
REMARK    6  A    between atoms: C_15  and  N_8 
ROOT
ATOM      1  C   UNL d   1       1.370   0.145  -0.417  0.00  0.00     0.323 C 
ATOM      2  N   UNL d   1       0.329   0.080  -1.340  0.00  0.00    -0.325 N 
ATOM      3  N   UNL d   1       1.000   0.094   0.911  0.00  0.00    -0.309 N 
ATOM      4  O   UNL d   1       2.543   0.098  -0.796  0.00  0.00    -0.247 OA
ATOM      5  H   UNL d   1       0.052  -0.203   1.077  0.00  0.00     0.170 HD
ENDROOT
BRANCH   2   6
ATOM      6  C   UNL d   1      -1.078   0.484  -1.156  0.00  0.00     0.169 C 
BRANCH   6   7
ATOM      7  C   UNL d   1      -1.454   1.808  -1.802  0.00  0.00     0.003 A 
ATOM      8  C   UNL d   1      -2.011   1.881  -3.099  0.00  0.00     0.043 A 
ATOM      9 CL   UNL d   1      -2.433   0.478  -4.026  0.00  0.00    -0.084 Cl
ATOM     10  C   UNL d   1      -2.326   3.112  -3.692  0.00  0.00     0.024 A 
ATOM     11  C   UNL d   1      -2.151   4.297  -2.990  0.00  0.00     0.003 A 
ATOM     12  C   UNL d   1      -1.655   4.250  -1.692  0.00  0.00     0.024 A 
ATOM     13  C   UNL d   1      -1.300   3.025  -1.109  0.00  0.00     0.043 A 
ATOM     14 CL   UNL d   1      -0.729   3.093   0.524  0.00  0.00    -0.084 Cl
ENDBRANCH   6   7
ENDBRANCH   2   6
BRANCH   2  15
ATOM     15  C   UNL d   1       0.698  -0.524  -2.618  0.00  0.00     0.169 C 
BRANCH  15  16
ATOM     16  C   UNL d   1       0.786  -2.046  -2.697  0.00  0.00     0.003 A 
ATOM     17  C   UNL d   1       0.280  -2.981  -1.766  0.00  0.00     0.043 A 
ATOM     18 CL   UNL d   1      -0.588  -2.594  -0.320  0.00  0.00    -0.084 Cl
ATOM     19  C   UNL d   1       0.432  -4.366  -1.966  0.00  0.00     0.024 A 
ATOM     20  C   UNL d   1       1.073  -4.864  -3.091  0.00  0.00     0.003 A 
ATOM     21  C   UNL d   1       1.560  -3.975  -4.035  0.00  0.00     0.024 A 
ATOM     22  C   UNL d   1       1.414  -2.593  -3.847  0.00  0.00     0.043 A 
ATOM     23 CL   UNL d   1       2.026  -1.594  -5.129  0.00  0.00    -0.084 Cl
ENDBRANCH  15  16
ENDBRANCH   2  15
BRANCH   3  24
ATOM     24  C   UNL d   1       1.906  -0.189   1.967  0.00  0.00     0.037 A 
ATOM     25  C   UNL d   1       3.274   0.098   1.906  0.00  0.00     0.045 A 
ATOM     26  C   UNL d   1       4.156  -0.343   2.906  0.00  0.00     0.050 A 
ATOM     27  C   UNL d   1       3.642  -1.059   3.996  0.00  0.00     0.016 A 
ATOM     28  C   UNL d   1       2.272  -1.299   4.095  0.00  0.00     0.003 A 
ATOM     29  C   UNL d   1       1.407  -0.854   3.092  0.00  0.00     0.029 A 
BRANCH  26  30
ATOM     30  C   UNL d   1       5.641  -0.109   2.781  0.00  0.00     0.417 C 
ATOM     31  F   UNL d   1       5.973   0.876   1.902  0.00  0.00    -0.166 F 
ATOM     32  F   UNL d   1       6.216   0.246   3.965  0.00  0.00    -0.166 F 
ATOM     33  F   UNL d   1       6.308  -1.223   2.367  0.00  0.00    -0.166 F 
ENDBRANCH  26  30
ENDBRANCH   3  24
TORSDOF 6
