REMARK  3 active torsions:
REMARK  status: ('A' for Active; 'I' for Inactive)
REMARK    1  A    between atoms: S_4  and  C_2 
REMARK    2  A    between atoms: N_16  and  C_3 
REMARK    3  A    between atoms: C_13  and  S_4 
ROOT
ATOM      1  N   UNL d   1      -0.236  -0.675   0.012  0.00  0.00    -0.227 N 
ATOM      2  C   UNL d   1       2.123  -0.832   0.044  0.00  0.00     0.115 A 
ATOM      3  C   UNL d   1       0.939  -1.474  -0.025  0.00  0.00     0.125 A 
ATOM      4  C   UNL d   1      -0.173   0.717   0.112  0.00  0.00     0.130 A 
ATOM      5  N   UNL d   1      -1.526  -1.113  -0.070  0.00  0.00    -0.296 N 
ATOM      6  HN  UNL d   1      -1.851  -2.074  -0.166  1.00  0.00     0.187 HD
ATOM      7  N   UNL d   1       1.012   1.390   0.183  0.00  0.00    -0.349 N 
ATOM      8  HN  UNL d   1       1.056   2.406   0.266  1.00  0.00     0.167 HD
ATOM      9  C   UNL d   1      -1.475   1.158   0.106  0.00  0.00     0.076 A 
ATOM     10  C   UNL d   1       2.080   0.651   0.138  0.00  0.00     0.116 A 
ATOM     11  C   UNL d   1      -2.268  -0.003   0.006  0.00  0.00     0.026 A 
ATOM     12  C   UNL d   1      -3.749  -0.083  -0.025  0.00  0.00     0.070 C 
ENDROOT
BRANCH   2  13
ATOM     13  S   UNL d   1       3.639  -1.643  -0.057  0.00  0.00     0.187 S 
ATOM     14  O   UNL d   1       3.475  -2.869  -0.822  0.00  0.00    -0.222 OA
ATOM     15  O   UNL d   1       4.633  -0.681  -0.504  0.00  0.00    -0.222 OA
BRANCH  13  16
ATOM     16  C   UNL d   1       4.077  -2.106   1.656  0.00  0.00     0.058 C 
ATOM     17  C   UNL d   1       3.023  -3.028   2.279  0.00  0.00     0.031 C 
ATOM     18  C   UNL d   1       5.420  -2.861   1.606  0.00  0.00     0.031 C 
ATOM     19  C   UNL d   1       4.249  -0.854   2.530  0.00  0.00     0.031 C 
ENDBRANCH  13  16
ENDBRANCH   2  13
BRANCH   3  20
ATOM     20  N   UNL d   1       0.746  -2.851  -0.142  0.00  0.00    -0.286 NA
ATOM     21  H   UNL d   1       1.467  -3.320  -0.701  0.00  0.00     0.125 HD
ATOM     22  H   UNL d   1      -0.201  -3.064  -0.476  0.00  0.00     0.125 HD
ENDBRANCH   3  20
TORSDOF 3
