REMARK  3 active torsions:
REMARK  status: ('A' for Active; 'I' for Inactive)
REMARK    1  A    between atoms: N_5  and  C_1 
REMARK       I    between atoms: C_4  and  N_5 
REMARK    2  A    between atoms: C_6  and  C_4 
REMARK    3  A    between atoms: C_13  and  C_7 
ROOT
ATOM      1  C   UNL d   1       1.065  -3.414  -0.544  0.00  0.00     0.259 C 
ATOM      2  N   UNL d   1       0.101  -2.503  -0.181  0.00  0.00    -0.303 N 
ATOM      3  O   UNL d   1       2.192  -3.156  -0.953  0.00  0.00    -0.267 OA
ATOM      4  H   UNL d   1      -0.838  -2.797   0.050  0.00  0.00     0.171 HD
ENDROOT
BRANCH   2   5
ATOM      5  C   UNL d   1       0.326  -1.155  -0.167  0.00  0.00     0.151 A 
ATOM      6  N   UNL d   1       1.447  -0.495  -0.272  0.00  0.00    -0.339 N 
ATOM      7  C   UNL d   1       1.218   0.870  -0.144  0.00  0.00     0.025 A 
ATOM      8  HN  UNL d   1       2.361  -0.921  -0.426  1.00  0.00     0.168 HD
ATOM      9  C   UNL d   1      -0.121   1.202  -0.003  0.00  0.00     0.079 A 
ATOM     10  S   UNL d   1      -1.081  -0.218   0.066  0.00  0.00    -0.064 SA
BRANCH   7  11
ATOM     11  C   UNL d   1       2.407   1.824  -0.140  0.00  0.00    -0.008 C 
ATOM     12  C   UNL d   1       3.735   1.056  -0.313  0.00  0.00     0.021 C 
ATOM     13  C   UNL d   1       2.288   2.850  -1.282  0.00  0.00     0.021 C 
ATOM     14  C   UNL d   1       2.469   2.582   1.202  0.00  0.00     0.021 C 
ENDBRANCH   7  11
ENDBRANCH   2   5
BRANCH   1  15
ATOM     15  C   UNL d   1       0.712  -4.862  -0.366  0.00  0.00     0.054 A 
ATOM     16  C   UNL d   1      -0.586  -5.398  -0.387  0.00  0.00     0.051 A 
ATOM     17  C   UNL d   1      -0.792  -6.762  -0.123  0.00  0.00     0.048 A 
ATOM     18 CL   UNL d   1      -2.002  -4.477  -0.759  0.00  0.00    -0.083 Cl
ATOM     19  C   UNL d   1       0.294  -7.595   0.139  0.00  0.00     0.035 A 
ATOM     20  C   UNL d   1       1.588  -7.094   0.114  0.00  0.00     0.025 A 
ATOM     21 CL   UNL d   1       0.025  -9.254   0.507  0.00  0.00    -0.084 Cl
ATOM     22  C   UNL d   1       1.794  -5.734  -0.143  0.00  0.00     0.020 A 
ENDBRANCH   1  15
TORSDOF 3
