REMARK  3 active torsions:
REMARK  status: ('A' for Active; 'I' for Inactive)
REMARK    1  A    between atoms: C_2  and  C_1 
REMARK    2  A    between atoms: N_12  and  C_3 
REMARK    3  A    between atoms: C_11  and  C_6 
ROOT
ATOM      1  C   UNL d   1       3.066  -3.677  -0.179  0.00  0.00     0.155 A 
ATOM      2  N   UNL d   1       2.357  -2.547  -0.119  0.00  0.00    -0.333 N 
ATOM      3  HN  UNL d   1       1.340  -2.550  -0.191  1.00  0.00     0.168 HD
ATOM      4  N   UNL d   1       4.395  -3.756  -0.055  0.00  0.00    -0.343 N 
ATOM      5  HN  UNL d   1       4.884  -4.651  -0.076  1.00  0.00     0.167 HD
ATOM      6  C   UNL d   1       3.050  -1.402   0.040  0.00  0.00     0.035 A 
ATOM      7  C   UNL d   1       5.050  -2.594   0.100  0.00  0.00     0.093 A 
ATOM      8  C   UNL d   1       4.424  -1.375   0.153  0.00  0.00     0.046 A 
ENDROOT
BRANCH   6   9
ATOM      9  C   UNL d   1       2.294  -0.141   0.096  0.00  0.00     0.030 C 
ATOM     10  C   UNL d   1       0.962  -0.040  -0.062  0.00  0.00     0.018 C 
BRANCH  10  11
ATOM     11  C   UNL d   1       0.214   1.236  -0.011  0.00  0.00     0.024 A 
ATOM     12  C   UNL d   1      -1.095   1.309   0.503  0.00  0.00     0.047 A 
ATOM     13 CL   UNL d   1      -1.913  -0.071   1.158  0.00  0.00    -0.083 Cl
ATOM     14  C   UNL d   1      -1.798   2.525   0.524  0.00  0.00     0.025 A 
ATOM     15  C   UNL d   1      -1.214   3.688   0.028  0.00  0.00     0.005 A 
ATOM     16  C   UNL d   1       0.069   3.635  -0.501  0.00  0.00     0.043 A 
ATOM     17  C   UNL d   1       0.762   2.424  -0.525  0.00  0.00     0.128 A 
ATOM     18  F   UNL d   1       1.988   2.433  -1.073  0.00  0.00    -0.205 F 
ENDBRANCH  10  11
ENDBRANCH   6   9
BRANCH   1  19
ATOM     19  N   UNL d   1       2.373  -4.860  -0.328  0.00  0.00    -0.274 NA
ATOM     20  H   UNL d   1       1.429  -4.743   0.012  0.00  0.00     0.127 HD
ATOM     21  H   UNL d   1       2.917  -5.619   0.058  0.00  0.00     0.127 HD
ENDBRANCH   1  19
TORSDOF 3
