REMARK  9 active torsions:
REMARK  status: ('A' for Active; 'I' for Inactive)
REMARK    1  A    between atoms: C_7  and  S_1 
REMARK    2  A    between atoms: C_12  and  S_1 
REMARK    3  A    between atoms: C_2  and  C_3 
REMARK    4  A    between atoms: O_5  and  C_2 
REMARK    5  A    between atoms: C_4  and  C_8 
REMARK    6  A    between atoms: C_9  and  O_5 
REMARK    7  A    between atoms: C_6  and  S_23 
REMARK    8  A    between atoms: C_26  and  C_12 
REMARK    9  A    between atoms: S_23  and  C_26 
ROOT
ATOM      1  C   UNL d   1       1.218   6.750   0.822  0.00  0.00     0.073 A 
ATOM      2  C   UNL d   1       1.239   5.372   1.087  0.00  0.00     0.086 A 
ATOM      3  N   UNL d   1       1.229   4.886   2.364  0.00  0.00    -0.360 N 
ATOM      4  HN  UNL d   1       1.233   3.881   2.535  1.00  0.00     0.166 HD
ATOM      5  C   UNL d   1       1.203   7.617   1.939  0.00  0.00     0.022 A 
ATOM      6  C   UNL d   1       1.214   5.756   3.397  0.00  0.00     0.089 A 
ATOM      7  C   UNL d   1       1.201   7.121   3.237  0.00  0.00     0.018 A 
ENDROOT
BRANCH   2   8
ATOM      8  S   UNL d   1       1.246   4.079  -0.154  0.00  0.00    -0.110 SA
BRANCH   8   9
ATOM      9  C   UNL d   1       1.491   2.540   0.840  0.00  0.00     0.096 C 
BRANCH   9  10
ATOM     10  C   UNL d   1       0.187   2.030   1.434  0.00  0.00     0.156 C 
BRANCH  10  11
ATOM     11  S   UNL d   1       0.373   0.456   2.253  0.00  0.00     0.176 S 
ATOM     12  O   UNL d   1      -0.857   0.164   2.965  0.00  0.00    -0.223 OA
ATOM     13  O   UNL d   1       0.913  -0.486   1.291  0.00  0.00    -0.223 OA
BRANCH  11  14
ATOM     14  C   UNL d   1       1.617   0.723   3.495  0.00  0.00     0.060 A 
ATOM     15  C   UNL d   1       2.824   0.019   3.435  0.00  0.00     0.039 A 
ATOM     16  C   UNL d   1       3.863   0.341   4.320  0.00  0.00     0.049 A 
ATOM     17  C   UNL d   1       3.651   1.348   5.278  0.00  0.00     0.016 A 
ATOM     18  C   UNL d   1       2.420   2.003   5.368  0.00  0.00     0.002 A 
ATOM     19  C   UNL d   1       1.395   1.688   4.479  0.00  0.00     0.023 A 
BRANCH  16  20
ATOM     20  C   UNL d   1       5.208  -0.340   4.224  0.00  0.00     0.417 C 
ATOM     21  F   UNL d   1       5.265  -1.302   3.263  0.00  0.00    -0.166 F 
ATOM     22  F   UNL d   1       6.205   0.540   3.928  0.00  0.00    -0.166 F 
ATOM     23  F   UNL d   1       5.575  -0.945   5.386  0.00  0.00    -0.166 F 
ENDBRANCH  16  20
ENDBRANCH  11  14
ENDBRANCH  10  11
ENDBRANCH   9  10
ENDBRANCH   8   9
ENDBRANCH   2   8
BRANCH   1  24
ATOM     24  C   UNL d   1       1.230   7.455  -0.498  0.00  0.00     0.301 C 
ATOM     25  O   UNL d   1       1.088   8.671  -0.564  0.00  0.00    -0.259 OA
BRANCH  24  26
ATOM     26  O   UNL d   1       1.478   6.636  -1.580  0.00  0.00    -0.273 OA
BRANCH  26  27
ATOM     27  C   UNL d   1       1.939   7.361  -2.693  0.00  0.00     0.101 A 
ATOM     28  C   UNL d   1       3.249   7.862  -2.716  0.00  0.00     0.069 A 
ATOM     29  C   UNL d   1       3.691   8.605  -3.811  0.00  0.00     0.050 A 
ATOM     30 CL   UNL d   1       4.355   7.565  -1.423  0.00  0.00    -0.081 Cl
ATOM     31  C   UNL d   1       2.836   8.814  -4.888  0.00  0.00     0.035 A 
ATOM     32  C   UNL d   1       1.550   8.267  -4.896  0.00  0.00     0.026 A 
ATOM     33 CL   UNL d   1       3.371   9.759  -6.225  0.00  0.00    -0.084 Cl
ATOM     34  C   UNL d   1       1.096   7.535  -3.792  0.00  0.00     0.041 A 
ENDBRANCH  26  27
ENDBRANCH  24  26
ENDBRANCH   1  24
TORSDOF 9
