REMARK  1 active torsions:
REMARK  status: ('A' for Active; 'I' for Inactive)
REMARK    1  A    between atoms: O_12  and  C_6 
ROOT
ATOM      1  C   UNL d   1       0.202  -0.725   0.006  0.00  0.00     0.083 A 
ATOM      2  S   UNL d   1      -1.346  -1.468   0.040  0.00  0.00    -0.095 SA
ATOM      3  C   UNL d   1       0.088   0.662  -0.025  0.00  0.00     0.061 A 
ATOM      4  C   UNL d   1      -1.276   1.109  -0.026  0.00  0.00    -0.027 A 
ATOM      5  C   UNL d   1      -2.149   0.039   0.010  0.00  0.00     0.059 A 
ATOM      6  C   UNL d   1       1.475  -1.286   0.005  0.00  0.00     0.162 A 
ATOM      7  N   UNL d   1       2.556  -0.478  -0.021  0.00  0.00    -0.332 N 
ATOM      8  HN  UNL d   1       3.501  -0.861  -0.022  1.00  0.00     0.168 HD
ATOM      9  N   UNL d   1       1.172   1.480  -0.052  0.00  0.00    -0.351 N 
ATOM     10  HN  UNL d   1       1.096   2.497  -0.075  1.00  0.00     0.166 HD
ATOM     11  C   UNL d   1       2.345   0.843  -0.047  0.00  0.00     0.183 A 
ATOM     12  C   UNL d   1      -1.697   2.540  -0.064  0.00  0.00     0.051 C 
ENDROOT
BRANCH   6  13
ATOM     13  O   UNL d   1       1.644  -2.659   0.033  0.00  0.00    -0.340 OA
ATOM     14  C   UNL d   1       3.014  -3.048   0.007  0.00  0.00     0.211 C 
ENDBRANCH   6  13
TORSDOF 1
