REMARK  4 active torsions:
REMARK  status: ('A' for Active; 'I' for Inactive)
REMARK    1  A    between atoms: C_4  and  C_1 
REMARK       I    between atoms: N_9  and  C_4 
REMARK    2  A    between atoms: C_11  and  C_5 
REMARK    3  A    between atoms: C_6  and  C_11 
REMARK    4  A    between atoms: N_10  and  N_9 
ROOT
ATOM      1  C   UNL d   1       1.238   0.799   0.370  0.00  0.00     0.109 A 
ATOM      2  N   UNL d   1       1.347  -0.508  -0.123  0.00  0.00    -0.349 N 
ATOM      3  HN  UNL d   1       2.149  -0.876  -0.634  1.00  0.00     0.166 HD
ATOM      4  C   UNL d   1       0.254  -1.194   0.174  0.00  0.00     0.055 A 
ATOM      5  C   UNL d   1       0.023   1.088   0.962  0.00  0.00     0.086 A 
ATOM      6  S   UNL d   1      -0.995  -0.280   0.933  0.00  0.00    -0.086 SA
ENDROOT
BRANCH   1   7
ATOM      7  C   UNL d   1       2.332   1.772   0.284  0.00  0.00     0.283 C 
ATOM      8  N   UNL d   1       3.334   1.390  -0.598  0.00  0.00    -0.284 N 
ATOM      9  H   UNL d   1       3.217   0.509  -1.095  0.00  0.00     0.184 HD
ATOM     10  O   UNL d   1       2.325   2.816   0.936  0.00  0.00    -0.265 OA
BRANCH   8  11
ATOM     11  N   UNL d   1       4.429   2.248  -0.830  0.00  0.00    -0.225 NA
ATOM     12  C   UNL d   1       5.665   1.769  -0.188  0.00  0.00     0.140 C 
ATOM     13  C   UNL d   1       6.359   0.647  -0.971  0.00  0.00     0.183 C 
ATOM     14  O   UNL d   1       6.606   1.032  -2.330  0.00  0.00    -0.389 OA
ATOM     15  C   UNL d   1       5.380   1.378  -2.985  0.00  0.00     0.183 C 
ATOM     16  C   UNL d   1       4.662   2.522  -2.257  0.00  0.00     0.140 C 
ENDBRANCH   8  11
ENDBRANCH   1   7
BRANCH   4  17
ATOM     17  C   UNL d   1       0.090  -2.679   0.004  0.00  0.00     0.107 C 
BRANCH  17  18
ATOM     18  C   UNL d   1      -0.279  -3.125  -1.397  0.00  0.00    -0.009 A 
ATOM     19  C   UNL d   1       0.713  -3.421  -2.353  0.00  0.00     0.042 A 
ATOM     20 CL   UNL d   1       2.402  -3.248  -2.016  0.00  0.00    -0.084 Cl
ATOM     21  C   UNL d   1       0.374  -3.893  -3.628  0.00  0.00     0.024 A 
ATOM     22  C   UNL d   1      -0.959  -4.065  -3.985  0.00  0.00     0.003 A 
ATOM     23  C   UNL d   1      -1.957  -3.756  -3.067  0.00  0.00     0.024 A 
ATOM     24  C   UNL d   1      -1.623  -3.291  -1.788  0.00  0.00     0.042 A 
ATOM     25 CL   UNL d   1      -2.946  -2.965  -0.722  0.00  0.00    -0.084 Cl
ENDBRANCH  17  18
ENDBRANCH   4  17
TORSDOF 4
