REMARK  3 active torsions:
REMARK  status: ('A' for Active; 'I' for Inactive)
REMARK    1  A    between atoms: C_2  and  C_1 
REMARK    2  A    between atoms: C_14  and  N_3 
REMARK    3  A    between atoms: C_9  and  C_4 
ROOT
ATOM      1  C   UNL d   1      -0.431  -2.722  -0.004  0.00  0.00     0.056 A 
ATOM      2  C   UNL d   1       0.109  -3.550   0.965  0.00  0.00     0.076 A 
ATOM      3  N   UNL d   1      -1.145  -4.841  -0.446  0.00  0.00    -0.310 N 
ATOM      4  HN  UNL d   1      -1.623  -5.646  -0.851  1.00  0.00     0.186 HD
ATOM      5  N   UNL d   1      -0.310  -4.811   0.607  0.00  0.00    -0.299 N 
ATOM      6  C   UNL d   1      -1.200  -3.568  -0.834  0.00  0.00     0.124 A 
ATOM      7  H   UNL d   1      -0.084  -5.688   1.067  0.00  0.00     0.187 HD
ENDROOT
BRANCH   1   8
ATOM      8  C   UNL d   1      -0.226  -1.262  -0.172  0.00  0.00     0.152 C 
ATOM      9  N   UNL d   1      -1.095  -0.351  -0.748  0.00  0.00    -0.224 N 
ATOM     10  N   UNL d   1      -0.390   0.762  -1.058  0.00  0.00     0.001 NA
ATOM     11  N   UNL d   1       0.788   0.611  -0.469  0.00  0.00    -0.007 NA
ATOM     12  N   UNL d   1       0.896  -0.628   0.110  0.00  0.00    -0.269 N 
ATOM     13  HN  UNL d   1       1.684  -0.986   0.650  1.00  0.00     0.185 HD
BRANCH   9  14
ATOM     14  C   UNL d   1      -2.502  -0.400  -0.877  0.00  0.00     0.056 A 
ATOM     15  C   UNL d   1      -3.269  -1.174   0.007  0.00  0.00     0.031 A 
ATOM     16  C   UNL d   1      -4.656  -1.213  -0.122  0.00  0.00     0.002 A 
ATOM     17  C   UNL d   1      -5.281  -0.483  -1.131  0.00  0.00     0.000 A 
ATOM     18  C   UNL d   1      -4.523   0.308  -1.995  0.00  0.00     0.002 A 
ATOM     19  C   UNL d   1      -3.135   0.368  -1.861  0.00  0.00     0.031 A 
ENDBRANCH   9  14
ENDBRANCH   1   8
BRANCH   2  20
ATOM     20  C   UNL d   1       0.879  -3.308   2.189  0.00  0.00     0.032 A 
ATOM     21  C   UNL d   1       1.781  -4.259   2.685  0.00  0.00     0.129 A 
ATOM     22  F   UNL d   1       1.970  -5.417   2.030  0.00  0.00    -0.205 F 
ATOM     23  C   UNL d   1       2.485  -4.051   3.870  0.00  0.00     0.043 A 
ATOM     24  C   UNL d   1       2.290  -2.878   4.593  0.00  0.00     0.003 A 
ATOM     25  C   UNL d   1       1.387  -1.923   4.129  0.00  0.00     0.001 A 
ATOM     26  C   UNL d   1       0.685  -2.139   2.939  0.00  0.00     0.017 A 
ENDBRANCH   2  20
TORSDOF 3
