REMARK  4 active torsions:
REMARK  status: ('A' for Active; 'I' for Inactive)
REMARK    1  A    between atoms: C_4  and  C_1 
REMARK       I    between atoms: N_9  and  C_4 
REMARK    2  A    between atoms: C_10  and  C_5 
REMARK    3  A    between atoms: C_8  and  N_9 
REMARK    4  A    between atoms: O_19  and  C_10 
ROOT
ATOM      1  C   UNL d   1      -0.480  -2.622   0.436  0.00  0.00     0.270 C 
ATOM      2  N   UNL d   1      -1.598  -3.139  -0.184  0.00  0.00    -0.321 N 
ATOM      3  O   UNL d   1       0.284  -3.201   1.198  0.00  0.00    -0.266 OA
ATOM      4  H   UNL d   1      -2.053  -2.567  -0.892  0.00  0.00     0.169 HD
ENDROOT
BRANCH   2   5
ATOM      5  C   UNL d   1      -2.093  -4.431  -0.011  0.00  0.00     0.058 A 
ATOM      6  C   UNL d   1      -3.071  -4.984  -0.833  0.00  0.00     0.106 A 
ATOM      7  S   UNL d   1      -3.463  -6.590  -0.349  0.00  0.00    -0.094 SA
ATOM      8  C   UNL d   1      -2.348  -6.557   0.935  0.00  0.00     0.053 A 
ATOM      9  C   UNL d   1      -1.687  -5.354   1.006  0.00  0.00     0.038 A 
BRANCH   6  10
ATOM     10  C   UNL d   1      -3.753  -4.456  -2.005  0.00  0.00     0.302 C 
ATOM     11  O   UNL d   1      -4.572  -5.047  -2.699  0.00  0.00    -0.259 OA
BRANCH  10  12
ATOM     12  O   UNL d   1      -3.338  -3.175  -2.260  0.00  0.00    -0.322 OA
ATOM     13  C   UNL d   1      -3.904  -2.614  -3.447  0.00  0.00     0.213 C 
ENDBRANCH  10  12
ENDBRANCH   6  10
ENDBRANCH   2   5
BRANCH   1  14
ATOM     14  C   UNL d   1      -0.228  -1.209   0.046  0.00  0.00     0.116 A 
ATOM     15  C   UNL d   1       0.965  -0.752  -0.346  0.00  0.00     0.044 A 
ATOM     16  C   UNL d   1       0.748   0.691  -0.575  0.00  0.00     0.308 A 
ATOM     17  C   UNL d   1       2.268  -1.410  -0.565  0.00  0.00     0.057 C 
ATOM     18  O   UNL d   1       1.599   1.491  -0.918  0.00  0.00    -0.258 OA
ATOM     19  O   UNL d   1      -0.578   0.975  -0.320  0.00  0.00    -0.216 OA
ATOM     20  N   UNL d   1      -1.210  -0.237   0.023  0.00  0.00    -0.151 NA
ATOM     21  C   UNL d   1      -2.171  -0.050   1.101  0.00  0.00     0.151 C 
ENDBRANCH   1  14
TORSDOF 4
