REMARK  3 active torsions:
REMARK  status: ('A' for Active; 'I' for Inactive)
REMARK    1  A    between atoms: C_6  and  C_1 
REMARK    2  A    between atoms: N_7  and  C_6 
REMARK    3  A    between atoms: C_8  and  N_7 
ROOT
ATOM      1  C   UNL d   1       0.071  -0.490  -0.322  0.00  0.00     0.140 C 
ATOM      2  C   UNL d   1       1.246   0.269  -0.076  0.00  0.00     0.112 C 
ATOM      3  C   UNL d   1      -1.147   0.193  -0.589  0.00  0.00     0.112 C 
ATOM      4  N   UNL d   1       2.213   0.880   0.119  0.00  0.00    -0.191 NA
ATOM      5  N   UNL d   1      -2.157   0.722  -0.806  0.00  0.00    -0.191 NA
ENDROOT
BRANCH   1   6
ATOM      6  C   UNL d   1       0.090  -1.836  -0.333  0.00  0.00     0.123 C 
BRANCH   6   7
ATOM      7  N   UNL d   1       1.126  -2.701  -0.069  0.00  0.00    -0.350 N 
ATOM      8  H   UNL d   1       1.918  -2.362   0.473  0.00  0.00     0.166 HD
BRANCH   7   9
ATOM      9  C   UNL d   1       1.111  -4.098  -0.064  0.00  0.00     0.104 A 
ATOM     10  N   UNL d   1       2.036  -4.686   0.721  0.00  0.00    -0.352 N 
ATOM     11  C   UNL d   1       2.054  -6.038   0.775  0.00  0.00     0.089 A 
ATOM     12  HN  UNL d   1       2.701  -4.129   1.258  1.00  0.00     0.166 HD
ATOM     13  C   UNL d   1       1.197  -6.851   0.057  0.00  0.00     0.017 A 
ATOM     14  C   UNL d   1       0.264  -6.239  -0.767  0.00  0.00     0.005 A 
ATOM     15  C   UNL d   1       0.217  -4.848  -0.825  0.00  0.00     0.048 A 
ENDBRANCH   7   9
ENDBRANCH   6   7
ENDBRANCH   1   6
TORSDOF 3
