REMARK  5 active torsions:
REMARK  status: ('A' for Active; 'I' for Inactive)
REMARK    1  A    between atoms: C_8  and  C_1 
REMARK    2  A    between atoms: C_6  and  C_3 
REMARK    3  A    between atoms: S_13  and  C_5 
REMARK    4  A    between atoms: C_7  and  C_11 
REMARK    5  A    between atoms: O_18  and  C_8 
ROOT
ATOM      1  C   UNL d   1       1.350  -1.207  -0.081  0.00  0.00     0.092 A 
ATOM      2  C   UNL d   1      -0.674  -0.055   0.165  0.00  0.00     0.081 A 
ATOM      3  C   UNL d   1      -0.035  -1.351  -0.001  0.00  0.00     0.021 A 
ATOM      4  S   UNL d   1       1.824   0.444  -0.007  0.00  0.00    -0.074 SA
ATOM      5  C   UNL d   1       0.219   0.996   0.105  0.00  0.00     0.063 A 
ATOM      6  C   UNL d   1      -2.080   0.151   0.363  0.00  0.00     0.102 C 
ATOM      7  N   UNL d   1      -3.224   0.313   0.491  0.00  0.00    -0.191 NA
ENDROOT
BRANCH   3   8
ATOM      8  C   UNL d   1      -0.724  -2.657  -0.052  0.00  0.00    -0.022 A 
ATOM      9  C   UNL d   1      -1.917  -2.797  -0.784  0.00  0.00     0.028 A 
ATOM     10  C   UNL d   1      -2.626  -4.013  -0.812  0.00  0.00     0.048 A 
ATOM     11  C   UNL d   1      -2.091  -5.125  -0.150  0.00  0.00     0.016 A 
ATOM     12  C   UNL d   1      -0.903  -5.007   0.567  0.00  0.00     0.002 A 
ATOM     13  C   UNL d   1      -0.243  -3.776   0.641  0.00  0.00     0.012 A 
BRANCH  10  14
ATOM     14  C   UNL d   1      -3.950  -4.128  -1.528  0.00  0.00     0.417 C 
ATOM     15  F   UNL d   1      -4.396  -2.947  -2.040  0.00  0.00    -0.166 F 
ATOM     16  F   UNL d   1      -3.904  -4.995  -2.576  0.00  0.00    -0.166 F 
ATOM     17  F   UNL d   1      -4.943  -4.579  -0.713  0.00  0.00    -0.166 F 
ENDBRANCH  10  14
ENDBRANCH   3   8
BRANCH   5  18
ATOM     18  S   UNL d   1      -0.110   2.725   0.191  0.00  0.00    -0.126 SA
ATOM     19  C   UNL d   1      -0.964   2.993  -1.384  0.00  0.00     0.096 C 
ENDBRANCH   5  18
BRANCH   1  20
ATOM     20  C   UNL d   1       2.396  -2.204  -0.262  0.00  0.00     0.184 C 
ATOM     21  O   UNL d   1       2.294  -3.257  -0.872  0.00  0.00    -0.646 OA
BRANCH  20  22
ATOM     22  O   UNL d   1       3.548  -1.872   0.383  0.00  0.00    -0.772 OA
ATOM     23  H   UNL d   1       3.491  -1.007   0.833  0.00  0.00     0.167 HD
ENDBRANCH  20  22
ENDBRANCH   1  20
TORSDOF 5
