REMARK  4 active torsions:
REMARK  status: ('A' for Active; 'I' for Inactive)
REMARK    1  A    between atoms: C_9  and  N_1 
REMARK    2  A    between atoms: C_3  and  S_12 
REMARK    3  A    between atoms: C_14  and  C_10 
REMARK    4  A    between atoms: S_12  and  C_14 
ROOT
ATOM      1  C   UNL d   1       2.093   2.571  -0.607  0.00  0.00     0.122 C 
ENDROOT
BRANCH   1   2
ATOM      2  S   UNL d   1       2.669   1.108  -1.517  0.00  0.00    -0.099 SA
BRANCH   2   3
ATOM      3  C   UNL d   1       3.999   1.800  -2.417  0.00  0.00     0.128 A 
ATOM      4  S   UNL d   1       4.868   0.925  -3.609  0.00  0.00    -0.050 SA
ATOM      5  C   UNL d   1       5.780   2.355  -3.885  0.00  0.00     0.065 A 
ATOM      6  C   UNL d   1       6.840   2.409  -4.924  0.00  0.00     0.078 C 
ATOM      7  N   UNL d   1       5.439   3.366  -3.114  0.00  0.00    -0.297 N 
ATOM      8  N   UNL d   1       4.403   3.041  -2.260  0.00  0.00    -0.287 N 
ATOM      9  HN  UNL d   1       5.886   4.282  -3.144  1.00  0.00     0.187 HD
ATOM     10  HN  UNL d   1       3.997   3.690  -1.585  1.00  0.00     0.188 HD
ENDBRANCH   2   3
ENDBRANCH   1   2
BRANCH   1  11
ATOM     11  C   UNL d   1       0.768   2.314   0.075  0.00  0.00    -0.015 A 
ATOM     12  C   UNL d   1       0.627   1.644   1.306  0.00  0.00     0.110 A 
ATOM     13  C   UNL d   1      -0.631   1.411   1.885  0.00  0.00     0.037 A 
ATOM     14  C   UNL d   1      -1.779   1.848   1.229  0.00  0.00     0.002 A 
ATOM     15  C   UNL d   1      -1.670   2.500   0.002  0.00  0.00     0.001 A 
ATOM     16  C   UNL d   1      -0.414   2.726  -0.571  0.00  0.00     0.010 A 
BRANCH  12  17
ATOM     17  N   UNL d   1       1.786   1.157   2.039  0.00  0.00    -0.115 N 
ATOM     18  O   UNL d   1       2.642   1.989   2.365  0.00  0.00    -0.532 OA
ATOM     19  O   UNL d   1       1.812  -0.049   2.316  0.00  0.00    -0.532 OA
ENDBRANCH  12  17
ENDBRANCH   1  11
TORSDOF 4
