REMARK  4 active torsions:
REMARK  status: ('A' for Active; 'I' for Inactive)
REMARK    1  A    between atoms: C_2  and  C_1 
REMARK       I    between atoms: N_6  and  C_2 
REMARK    2  A    between atoms: O_15  and  C_3 
REMARK       I    between atoms: C_4  and  N_7 
REMARK    3  A    between atoms: C_10  and  C_4 
REMARK    4  A    between atoms: N_7  and  N_6 
ROOT
ATOM      1  C   UNL d   1       2.495   1.249   0.483  0.00  0.00     0.273 C 
ATOM      2  N   UNL d   1       3.863   1.171   0.341  0.00  0.00    -0.263 N 
ATOM      3  O   UNL d   1       1.755   0.380   0.016  0.00  0.00    -0.266 OA
ATOM      4  H   UNL d   1       4.475   1.961   0.491  0.00  0.00     0.190 HD
ENDROOT
BRANCH   2   5
ATOM      5  N   UNL d   1       4.361   0.146  -0.476  0.00  0.00    -0.263 N 
ATOM      6  C   UNL d   1       5.718  -0.096  -0.507  0.00  0.00     0.270 C 
ATOM      7  O   UNL d   1       6.544   0.590   0.086  0.00  0.00    -0.266 OA
ATOM      8  H   UNL d   1       3.671  -0.538  -0.785  0.00  0.00     0.190 HD
BRANCH   6   9
ATOM      9  C   UNL d   1       6.131  -1.279  -1.314  0.00  0.00     0.033 A 
ATOM     10  C   UNL d   1       5.409  -1.672  -2.451  0.00  0.00     0.019 A 
ATOM     11  C   UNL d   1       5.817  -2.786  -3.191  0.00  0.00     0.025 A 
ATOM     12  C   UNL d   1       6.947  -3.501  -2.798  0.00  0.00     0.034 A 
ATOM     13  C   UNL d   1       7.677  -3.111  -1.677  0.00  0.00     0.025 A 
ATOM     14 CL   UNL d   1       7.446  -4.871  -3.713  0.00  0.00    -0.084 Cl
ATOM     15  C   UNL d   1       7.274  -1.994  -0.937  0.00  0.00     0.019 A 
ENDBRANCH   6   9
ENDBRANCH   2   5
BRANCH   1  16
ATOM     16  C   UNL d   1       1.970   2.459   1.103  0.00  0.00     0.073 A 
ATOM     17  C   UNL d   1       2.462   3.200   2.227  0.00  0.00     0.090 A 
ATOM     18  C   UNL d   1       1.658   4.267   2.559  0.00  0.00     0.087 A 
ATOM     19  S   UNL d   1       0.319   4.413   1.506  0.00  0.00    -0.110 SA
ATOM     20  C   UNL d   1       0.784   3.015   0.647  0.00  0.00     0.069 A 
BRANCH  17  21
ATOM     21  O   UNL d   1       3.489   2.839   3.033  0.00  0.00    -0.354 OA
ATOM     22  C   UNL d   1       4.750   3.330   2.591  0.00  0.00     0.210 C 
ENDBRANCH  17  21
ENDBRANCH   1  16
TORSDOF 4
