REMARK  2 active torsions:
REMARK  status: ('A' for Active; 'I' for Inactive)
REMARK    1  A    between atoms: C_13  and  C_1 
REMARK    2  A    between atoms: C_14  and  C_1 
ROOT
ATOM      1  C   UNL d   1      -0.016   1.734  -2.496  0.00  0.00    -0.116 C 
ATOM      2  C   UNL d   1      -0.065   1.112  -3.524  0.00  0.00     0.012 C 
ATOM      3  C   UNL d   1       0.017   2.474  -1.213  0.00  0.00     0.124 C 
ENDROOT
BRANCH   3   4
ATOM      4  C   UNL d   1      -0.015   1.532   0.017  0.00  0.00     0.155 C 
ATOM      5  C   UNL d   1      -1.284   0.751  -0.061  0.00  0.00     0.282 C 
ATOM      6  O   UNL d   1      -1.219  -0.577  -0.177  0.00  0.00    -0.283 OA
ATOM      7  O   UNL d   1      -2.381   1.309  -0.046  0.00  0.00    -0.264 OA
ATOM      8  C   UNL d   1       0.003  -1.303  -0.092  0.00  0.00     0.175 C 
ATOM      9  O   UNL d   1       1.220  -0.567  -0.071  0.00  0.00    -0.283 OA
ATOM     10  C   UNL d   1      -0.047  -2.159   1.171  0.00  0.00     0.079 C 
ATOM     11  C   UNL d   1       0.062  -2.211  -1.318  0.00  0.00     0.079 C 
ATOM     12  C   UNL d   1       1.264   0.764   0.014  0.00  0.00     0.282 C 
ATOM     13  O   UNL d   1       2.353   1.332   0.077  0.00  0.00    -0.264 OA
BRANCH   4  14
ATOM     14  C   UNL d   1      -0.053   2.356   1.325  0.00  0.00     0.124 C 
ATOM     15  C   UNL d   1      -0.153   1.501   2.529  0.00  0.00    -0.116 C 
ATOM     16  C   UNL d   1      -0.250   0.777   3.484  0.00  0.00     0.012 C 
ENDBRANCH   4  14
ENDBRANCH   3   4
TORSDOF 2
