REMARK  6 active torsions:
REMARK  status: ('A' for Active; 'I' for Inactive)
REMARK    1  A    between atoms: C_5  and  C_1 
REMARK    2  A    between atoms: C_2  and  C_3 
REMARK    3  A    between atoms: O_15  and  C_4 
REMARK    4  A    between atoms: O_22  and  C_5 
REMARK    5  A    between atoms: C_9  and  C_16 
REMARK    6  A    between atoms: C_16  and  O_15 
ROOT
ATOM      1  C   UNL d   1       6.560   4.585   0.076  0.00  0.00     0.064 A 
ATOM      2  N   UNL d   1       4.620   3.735  -1.092  0.00  0.00    -0.365 N 
ATOM      3  HN  UNL d   1       4.145   3.529  -1.971  1.00  0.00     0.165 HD
ATOM      4  C   UNL d   1       4.019   3.477   0.108  0.00  0.00     0.055 A 
ATOM      5  C   UNL d   1       5.947   4.290   1.296  0.00  0.00     0.043 A 
ATOM      6  C   UNL d   1       4.672   3.721   1.320  0.00  0.00     0.059 A 
ATOM      7  C   UNL d   1       5.864   4.271  -1.080  0.00  0.00     0.104 A 
ATOM      8 CL   UNL d   1       3.970   3.380   2.858  0.00  0.00    -0.082 Cl
ENDROOT
BRANCH   4   9
ATOM      9  C   UNL d   1       2.595   2.957   0.058  0.00  0.00     0.234 C 
BRANCH   9  10
ATOM     10  O   UNL d   1       2.594   1.539   0.112  0.00  0.00    -0.344 OA
BRANCH  10  11
ATOM     11  C   UNL d   1       1.402   0.877   0.076  0.00  0.00     0.092 A 
ATOM     12  C   UNL d   1       0.082   1.325  -0.012  0.00  0.00     0.113 A 
ATOM     13  S   UNL d   1      -1.008  -0.037   0.013  0.00  0.00    -0.093 SA
ATOM     14  C   UNL d   1       0.251  -1.170   0.077  0.00  0.00     0.053 A 
ATOM     15  C   UNL d   1       1.475  -0.557   0.105  0.00  0.00     0.045 A 
BRANCH  12  16
ATOM     16  C   UNL d   1      -0.533   2.648  -0.062  0.00  0.00     0.302 C 
ATOM     17  O   UNL d   1      -0.054   3.695   0.355  0.00  0.00    -0.259 OA
BRANCH  16  18
ATOM     18  O   UNL d   1      -1.768   2.595  -0.657  0.00  0.00    -0.322 OA
ATOM     19  C   UNL d   1      -2.473   3.836  -0.684  0.00  0.00     0.213 C 
ENDBRANCH  16  18
ENDBRANCH  12  16
ENDBRANCH  10  11
ENDBRANCH   9  10
ENDBRANCH   4   9
BRANCH   1  20
ATOM     20  C   UNL d   1       7.910   5.225  -0.015  0.00  0.00     0.418 C 
ATOM     21  F   UNL d   1       8.450   5.526   1.199  0.00  0.00    -0.166 F 
ATOM     22  F   UNL d   1       8.823   4.437  -0.645  0.00  0.00    -0.166 F 
ATOM     23  F   UNL d   1       7.885   6.396  -0.709  0.00  0.00    -0.166 F 
ENDBRANCH   1  20
TORSDOF 6
