REMARK  4 active torsions:
REMARK  status: ('A' for Active; 'I' for Inactive)
REMARK    1  A    between atoms: C_2  and  C_1 
REMARK       I    between atoms: N_3  and  C_2 
REMARK       I    between atoms: C_4  and  N_3 
REMARK       I    between atoms: N_8  and  C_4 
REMARK    2  A    between atoms: O_18  and  C_5 
REMARK    3  A    between atoms: O_19  and  C_6 
REMARK    4  A    between atoms: C_7  and  N_8 
ROOT
ATOM      1  C   UNL d   1       1.118  -4.006   0.971  0.00  0.00     0.265 C 
ATOM      2  N   UNL d   1      -0.246  -4.112   1.159  0.00  0.00    -0.275 N 
ATOM      3  C   UNL d   1      -0.806  -4.965   2.071  0.00  0.00     0.327 C 
ATOM      4  N   UNL d   1      -0.285  -6.240   2.094  0.00  0.00    -0.305 N 
ATOM      5  O   UNL d   1       1.838  -5.000   0.906  0.00  0.00    -0.267 OA
ATOM      6  O   UNL d   1      -1.662  -4.522   2.833  0.00  0.00    -0.247 OA
ATOM      7  H   UNL d   1      -0.740  -3.227   1.186  0.00  0.00     0.173 HD
ATOM      8  H   UNL d   1       0.693  -6.278   1.799  0.00  0.00     0.171 HD
ENDROOT
BRANCH   1   9
ATOM      9  C   UNL d   1       1.678  -2.615   0.810  0.00  0.00     0.102 A 
ATOM     10  C   UNL d   1       2.995  -2.371   1.261  0.00  0.00     0.104 A 
ATOM     11  C   UNL d   1       3.583  -1.118   1.060  0.00  0.00     0.047 A 
ATOM     12 BR   UNL d   1       5.368  -0.746   1.594  0.00  0.00    -0.048 Br
ATOM     13  C   UNL d   1       2.854  -0.088   0.481  0.00  0.00     0.048 A 
ATOM     14  C   UNL d   1       1.527  -0.292   0.082  0.00  0.00     0.069 A 
ATOM     15  C   UNL d   1       0.924  -1.559   0.222  0.00  0.00     0.108 A 
ATOM     16 CL   UNL d   1       0.732   1.132  -0.496  0.00  0.00    -0.081 Cl
BRANCH  10  17
ATOM     17  O   UNL d   1       3.743  -3.347   1.868  0.00  0.00    -0.353 OA
ATOM     18  C   UNL d   1       3.484  -3.399   3.274  0.00  0.00     0.210 C 
ENDBRANCH  10  17
BRANCH  15  19
ATOM     19  O   UNL d   1      -0.376  -1.876  -0.085  0.00  0.00    -0.353 OA
ATOM     20  C   UNL d   1      -1.066  -1.192  -1.122  0.00  0.00     0.210 C 
ENDBRANCH  15  19
ENDBRANCH   1   9
BRANCH   4  21
ATOM     21  C   UNL d   1      -0.702  -7.220   3.035  0.00  0.00     0.080 A 
ATOM     22  C   UNL d   1      -2.052  -7.497   3.328  0.00  0.00     0.062 A 
ATOM     23 CL   UNL d   1      -3.365  -6.934   2.346  0.00  0.00    -0.082 Cl
ATOM     24  C   UNL d   1      -2.388  -8.380   4.362  0.00  0.00     0.026 A 
ATOM     25  C   UNL d   1      -1.394  -9.034   5.085  0.00  0.00     0.003 A 
ATOM     26  C   UNL d   1      -0.056  -8.842   4.745  0.00  0.00     0.026 A 
ATOM     27  C   UNL d   1       0.284  -7.953   3.720  0.00  0.00     0.062 A 
ATOM     28 CL   UNL d   1       1.967  -7.747   3.363  0.00  0.00    -0.082 Cl
ENDBRANCH   4  21
TORSDOF 4
