REMARK  3 active torsions:
REMARK  status: ('A' for Active; 'I' for Inactive)
REMARK    1  A    between atoms: S_18  and  C_3 
REMARK    2  A    between atoms: C_7  and  C_4 
REMARK       I    between atoms: N_8  and  C_7 
REMARK       I    between atoms: C_9  and  N_8 
REMARK       I    between atoms: N_15  and  C_9 
REMARK    3  A    between atoms: C_21  and  N_15 
ROOT
ATOM      1  C   UNL d   1      -0.528  -0.607  -0.094  0.00  0.00     0.032 A 
ATOM      2  C   UNL d   1      -1.234   0.654  -0.150  0.00  0.00    -0.021 A 
ATOM      3  C   UNL d   1      -1.342  -1.713   0.008  0.00  0.00     0.055 A 
ATOM      4  C   UNL d   1      -2.605   0.455  -0.084  0.00  0.00     0.076 A 
ATOM      5  S   UNL d   1      -2.979  -1.218   0.090  0.00  0.00    -0.077 SA
ATOM      6  C   UNL d   1       0.959  -0.587  -0.129  0.00  0.00     0.119 A 
ATOM      7  C   UNL d   1       1.634   0.607   0.003  0.00  0.00    -0.004 A 
ATOM      8  N   UNL d   1       3.139  -1.082  -0.236  0.00  0.00    -0.271 N 
ATOM      9  HN  UNL d   1       4.015  -1.596  -0.329  1.00  0.00     0.194 HD
ATOM     10  O   UNL d   1       1.849  -1.603  -0.257  0.00  0.00    -0.237 OA
ATOM     11  C   UNL d   1      -0.474   1.958  -0.316  0.00  0.00     0.046 C 
ATOM     12  C   UNL d   1       0.965   1.913   0.254  0.00  0.00     0.048 C 
ATOM     13  C   UNL d   1       2.987   0.236  -0.070  0.00  0.00     0.124 A 
ENDROOT
BRANCH   4  14
ATOM     14  C   UNL d   1      -3.725   1.388  -0.106  0.00  0.00     0.246 C 
ATOM     15  N   UNL d   1      -3.642   2.555  -0.843  0.00  0.00    -0.175 NA
ATOM     16  C   UNL d   1      -3.286   2.569  -2.179  0.00  0.00     0.305 C 
ATOM     17  H   UNL d   1      -4.472   3.096  -0.655  0.00  0.00     0.141 HD
ATOM     18  N   UNL d   1      -3.651   3.761  -2.791  0.00  0.00    -0.313 N 
ATOM     19  O   UNL d   1      -2.645   1.673  -2.713  0.00  0.00    -0.253 OA
ATOM     20  H   UNL d   1      -4.356   4.322  -2.337  0.00  0.00     0.170 HD
ATOM     21  O   UNL d   1      -4.780   1.215   0.510  0.00  0.00    -0.273 OA
BRANCH  18  22
ATOM     22  C   UNL d   1      -3.255   4.196  -4.077  0.00  0.00     0.035 A 
ATOM     23  C   UNL d   1      -2.219   3.606  -4.808  0.00  0.00     0.031 A 
ATOM     24  C   UNL d   1      -1.863   4.098  -6.068  0.00  0.00     0.026 A 
ATOM     25  C   UNL d   1      -2.543   5.185  -6.605  0.00  0.00     0.034 A 
ATOM     26  C   UNL d   1      -3.573   5.790  -5.889  0.00  0.00     0.026 A 
ATOM     27 CL   UNL d   1      -2.107   5.787  -8.156  0.00  0.00    -0.084 Cl
ATOM     28  C   UNL d   1      -3.922   5.301  -4.625  0.00  0.00     0.031 A 
ENDBRANCH  18  22
ENDBRANCH   4  14
BRANCH   3  29
ATOM     29  S   UNL d   1      -0.805  -3.389   0.144  0.00  0.00    -0.126 SA
ATOM     30  C   UNL d   1      -2.271  -4.366  -0.231  0.00  0.00     0.096 C 
ENDBRANCH   3  29
TORSDOF 3
