REMARK  5 active torsions:
REMARK  status: ('A' for Active; 'I' for Inactive)
REMARK    1  A    between atoms: S_2  and  C_1 
REMARK    2  A    between atoms: C_3  and  C_1 
REMARK    3  A    between atoms: C_4  and  S_2 
REMARK    4  A    between atoms: C_5  and  O_7 
REMARK    5  A    between atoms: O_7  and  C_6 
ROOT
ATOM      1  C   UNL d   1       0.142   1.238   0.129  0.00  0.00     0.055 A 
ATOM      2  C   UNL d   1       0.694   2.068  -0.866  0.00  0.00     0.093 A 
ATOM      3  C   UNL d   1      -1.057   1.645   0.741  0.00  0.00     0.019 A 
ATOM      4  C   UNL d   1       0.045   3.253  -1.245  0.00  0.00     0.038 A 
ATOM      5  C   UNL d   1      -1.709   2.814   0.346  0.00  0.00     0.001 A 
ATOM      6  C   UNL d   1      -1.163   3.617  -0.651  0.00  0.00     0.003 A 
ENDROOT
BRANCH   1   7
ATOM      7  C   UNL d   1       0.852  -0.009   0.560  0.00  0.00     0.226 C 
ATOM      8  O   UNL d   1       2.049  -0.151   0.360  0.00  0.00    -0.279 OA
BRANCH   7   9
ATOM      9  S   UNL d   1      -0.055  -1.272   1.397  0.00  0.00    -0.044 SA
BRANCH   9  10
ATOM     10  C   UNL d   1      -0.852  -2.139   0.029  0.00  0.00     0.052 A 
ATOM     11  C   UNL d   1      -0.136  -2.991  -0.837  0.00  0.00     0.052 A 
ATOM     12 CL   UNL d   1       1.572  -3.247  -0.711  0.00  0.00    -0.083 Cl
ATOM     13  C   UNL d   1      -0.793  -3.725  -1.838  0.00  0.00     0.025 A 
ATOM     14  C   UNL d   1      -2.171  -3.632  -1.995  0.00  0.00     0.003 A 
ATOM     15  C   UNL d   1      -2.900  -2.805  -1.148  0.00  0.00     0.025 A 
ATOM     16  C   UNL d   1      -2.252  -2.072  -0.143  0.00  0.00     0.052 A 
ATOM     17 CL   UNL d   1      -3.286  -1.127   0.880  0.00  0.00    -0.083 Cl
ENDBRANCH   9  10
ENDBRANCH   7   9
ENDBRANCH   1   7
BRANCH   2  18
ATOM     18  O   UNL d   1       1.941   1.877  -1.397  0.00  0.00    -0.254 OA
BRANCH  18  19
ATOM     19  C   UNL d   1       1.987   0.888  -2.420  0.00  0.00     0.530 C 
ATOM     20  F   UNL d   1       1.018  -0.047  -2.298  0.00  0.00    -0.144 F 
ATOM     21  F   UNL d   1       1.842   1.491  -3.623  0.00  0.00    -0.144 F 
ATOM     22  F   UNL d   1       3.191   0.280  -2.403  0.00  0.00    -0.144 F 
ENDBRANCH  18  19
ENDBRANCH   2  18
TORSDOF 5
