REMARK  2 active torsions:
REMARK  status: ('A' for Active; 'I' for Inactive)
REMARK    1  A    between atoms: C_2  and  C_1 
REMARK       I    between atoms: N_8  and  C_2 
REMARK    2  A    between atoms: C_7  and  C_3 
ROOT
ATOM      1  C   UNL d   1       1.118  -0.111  -0.480  0.00  0.00     0.112 C 
ATOM      2  C   UNL d   1       0.308   0.883  -0.059  0.00  0.00     0.039 C 
ATOM      3  C   UNL d   1       0.654  -1.327  -1.044  0.00  0.00     0.105 C 
ATOM      4  N   UNL d   1       0.327  -2.351  -1.484  0.00  0.00    -0.191 NA
ENDROOT
BRANCH   1   5
ATOM      5  C   UNL d   1       2.593   0.107  -0.345  0.00  0.00     0.260 C 
ATOM      6  O   UNL d   1       3.080   1.155   0.067  0.00  0.00    -0.267 OA
ATOM      7  N   UNL d   1       3.412  -0.926  -0.697  0.00  0.00    -0.365 N 
ATOM      8  H   UNL d   1       3.106  -1.830  -1.037  0.00  0.00     0.159 HD
ATOM      9  H   UNL d   1       4.409  -0.780  -0.598  0.00  0.00     0.159 HD
ENDBRANCH   1   5
BRANCH   2  10
ATOM     10  C   UNL d   1      -1.168   0.935  -0.068  0.00  0.00    -0.035 A 
ATOM     11  C   UNL d   1      -1.977  -0.174   0.205  0.00  0.00     0.012 A 
ATOM     12  C   UNL d   1      -3.371  -0.062   0.206  0.00  0.00     0.007 A 
ATOM     13  C   UNL d   1      -3.987   1.170  -0.028  0.00  0.00    -0.062 A 
ATOM     14  C   UNL d   1      -3.186   2.290  -0.265  0.00  0.00     0.007 A 
ATOM     15  C   UNL d   1      -5.483   1.269  -0.013  0.00  0.00     0.048 C 
ATOM     16  C   UNL d   1      -1.791   2.173  -0.283  0.00  0.00     0.012 A 
ENDBRANCH   2  10
TORSDOF 2
