REMARK  5 active torsions:
REMARK  status: ('A' for Active; 'I' for Inactive)
REMARK    1  A    between atoms: C_2  and  C_1 
REMARK    2  A    between atoms: N_13  and  C_1 
REMARK    3  A    between atoms: O_9  and  N_3 
REMARK    4  A    between atoms: C_5  and  O_9 
REMARK       I    between atoms: N_8  and  C_5 
REMARK    5  A    between atoms: C_14  and  N_8 
ROOT
ATOM      1  C   UNL d   1      -0.571   0.999   1.120  0.00  0.00     0.127 C 
ATOM      2  N   UNL d   1      -1.147   1.319  -0.002  0.00  0.00    -0.243 N 
ATOM      3  HN  UNL d   1      -1.658   2.188  -0.161  1.00  0.00     0.196 HD
ENDROOT
BRANCH   2   4
ATOM      4  O   UNL d   1      -0.973   0.308  -0.969  0.00  0.00    -0.179 OA
BRANCH   4   5
ATOM      5  C   UNL d   1      -1.617   0.697  -2.110  0.00  0.00     0.387 C 
ATOM      6  N   UNL d   1      -0.823   0.924  -3.209  0.00  0.00    -0.301 N 
ATOM      7  H   UNL d   1      -1.367   1.333  -3.958  0.00  0.00     0.171 HD
ATOM      8  O   UNL d   1      -2.831   0.883  -2.179  0.00  0.00    -0.236 OA
BRANCH   6   9
ATOM      9  C   UNL d   1       0.566   0.827  -3.398  0.00  0.00     0.037 A 
ATOM     10  C   UNL d   1       1.447   0.175  -2.532  0.00  0.00     0.031 A 
ATOM     11  C   UNL d   1       2.818   0.124  -2.818  0.00  0.00     0.026 A 
ATOM     12  C   UNL d   1       3.315   0.730  -3.968  0.00  0.00     0.034 A 
ATOM     13  C   UNL d   1       2.452   1.384  -4.840  0.00  0.00     0.026 A 
ATOM     14 CL   UNL d   1       4.998   0.665  -4.315  0.00  0.00    -0.084 Cl
ATOM     15  C   UNL d   1       1.082   1.423  -4.558  0.00  0.00     0.031 A 
ENDBRANCH   6   9
ENDBRANCH   4   5
ENDBRANCH   2   4
BRANCH   1  16
ATOM     16  C   UNL d   1      -0.529   2.024   2.213  0.00  0.00     0.087 A 
ATOM     17  N   UNL d   1       0.078   1.632   3.372  0.00  0.00    -0.361 N 
ATOM     18  C   UNL d   1       0.180   2.601   4.311  0.00  0.00     0.105 A 
ATOM     19  HN  UNL d   1       0.428   0.685   3.517  1.00  0.00     0.165 HD
ATOM     20  C   UNL d   1      -0.309   3.885   4.121  0.00  0.00     0.104 A 
ATOM     21  N   UNL d   1      -0.933   4.266   2.983  0.00  0.00    -0.372 N 
ATOM     22  C   UNL d   1      -1.031   3.305   2.028  0.00  0.00     0.120 A 
ATOM     23  HN  UNL d   1      -1.304   5.207   2.851  1.00  0.00     0.164 HD
ENDBRANCH   1  16
BRANCH   1  24
ATOM     24  N   UNL d   1       0.010  -0.228   1.369  0.00  0.00    -0.285 NA
ATOM     25  H   UNL d   1       0.138  -0.419   2.362  0.00  0.00     0.125 HD
ATOM     26  H   UNL d   1      -0.414  -0.991   0.855  0.00  0.00     0.125 HD
ENDBRANCH   1  24
TORSDOF 5
