REMARK  6 active torsions:
REMARK  status: ('A' for Active; 'I' for Inactive)
REMARK    1  A    between atoms: C_5  and  C_1 
REMARK    2  A    between atoms: C_9  and  C_2 
REMARK    3  A    between atoms: C_8  and  S_10 
REMARK    4  A    between atoms: S_11  and  C_8 
REMARK    5  A    between atoms: S_10  and  C_9 
REMARK    6  A    between atoms: C_15  and  S_11 
ROOT
ATOM      1  C   UNL d   1      -1.273  -0.510  -0.221  0.00  0.00     0.078 A 
ATOM      2  C   UNL d   1       0.106  -0.887  -0.025  0.00  0.00     0.012 A 
ATOM      3  N   UNL d   1      -1.375   0.771  -0.592  0.00  0.00    -0.260 N 
ATOM      4  HN  UNL d   1      -2.229   1.272  -0.834  1.00  0.00     0.195 HD
ATOM      5  O   UNL d   1      -0.100   1.274  -0.583  0.00  0.00    -0.242 OA
ATOM      6  C   UNL d   1       0.784   0.304  -0.231  0.00  0.00     0.082 A 
ATOM      7  C   UNL d   1       2.179   0.781  -0.135  0.00  0.00     0.079 C 
ENDROOT
BRANCH   2   8
ATOM      8  C   UNL d   1       0.566  -2.249   0.386  0.00  0.00     0.124 C 
BRANCH   8   9
ATOM      9  S   UNL d   1       2.268  -2.693  -0.001  0.00  0.00    -0.107 SA
BRANCH   9  10
ATOM     10  C   UNL d   1       3.130  -2.524   1.522  0.00  0.00     0.105 C 
ATOM     11  S   UNL d   1       2.514  -2.874   3.041  0.00  0.00    -0.065 SA
BRANCH  10  12
ATOM     12  S   UNL d   1       4.769  -1.898   1.348  0.00  0.00    -0.102 SA
BRANCH  12  13
ATOM     13  C   UNL d   1       5.772  -3.365   0.847  0.00  0.00     0.003 C 
ATOM     14  C   UNL d   1       5.676  -3.582  -0.668  0.00  0.00     0.026 C 
ATOM     15  C   UNL d   1       7.231  -3.018   1.196  0.00  0.00     0.026 C 
ATOM     16  C   UNL d   1       5.388  -4.648   1.593  0.00  0.00     0.026 C 
ENDBRANCH  12  13
ENDBRANCH  10  12
ENDBRANCH   9  10
ENDBRANCH   8   9
ENDBRANCH   2   8
BRANCH   1  17
ATOM     17  C   UNL d   1      -2.482  -1.307  -0.026  0.00  0.00     0.036 A 
ATOM     18  C   UNL d   1      -3.338  -1.049   1.065  0.00  0.00     0.048 A 
ATOM     19 CL   UNL d   1      -3.001   0.172   2.248  0.00  0.00    -0.083 Cl
ATOM     20  C   UNL d   1      -4.508  -1.797   1.254  0.00  0.00     0.025 A 
ATOM     21  C   UNL d   1      -4.836  -2.822   0.370  0.00  0.00     0.003 A 
ATOM     22  C   UNL d   1      -3.998  -3.090  -0.713  0.00  0.00     0.025 A 
ATOM     23  C   UNL d   1      -2.841  -2.329  -0.921  0.00  0.00     0.048 A 
ATOM     24 CL   UNL d   1      -1.908  -2.705  -2.331  0.00  0.00    -0.083 Cl
ENDBRANCH   1  17
TORSDOF 6
