REMARK  5 active torsions:
REMARK  status: ('A' for Active; 'I' for Inactive)
REMARK    1  A    between atoms: C_3  and  C_1 
REMARK    2  A    between atoms: N_11  and  C_2 
REMARK    3  A    between atoms: O_15  and  C_3 
REMARK    4  A    between atoms: N_9  and  N_11 
REMARK    5  A    between atoms: C_16  and  C_13 
ROOT
ATOM      1  N   UNL d   1       4.126  10.360   1.503  0.00  0.00    -0.191 NA
ATOM      2  C   UNL d   1       4.081   9.218   1.290  0.00  0.00     0.099 C 
ATOM      3  C   UNL d   1       4.022   7.807   1.034  0.00  0.00     0.044 A 
ATOM      4  C   UNL d   1       3.904   5.034   0.594  0.00  0.00    -0.019 A 
ATOM      5  C   UNL d   1       2.791   7.183   0.816  0.00  0.00     0.023 A 
ATOM      6  C   UNL d   1       5.196   7.042   1.014  0.00  0.00     0.023 A 
ATOM      7  C   UNL d   1       2.732   5.803   0.596  0.00  0.00     0.014 A 
ATOM      8  C   UNL d   1       5.140   5.658   0.791  0.00  0.00     0.014 A 
ENDROOT
BRANCH   4   9
ATOM      9  C   UNL d   1       3.833   3.561   0.408  0.00  0.00     0.118 C 
ATOM     10  N   UNL d   1       2.685   2.972   0.327  0.00  0.00    -0.311 N 
ATOM     11  HN  UNL d   1       1.818   3.507   0.383  1.00  0.00     0.186 HD
BRANCH  10  12
ATOM     12  N   UNL d   1       2.660   1.616   0.165  0.00  0.00    -0.300 N 
ATOM     13  H   UNL d   1       3.534   1.105   0.020  0.00  0.00     0.187 HD
BRANCH  12  14
ATOM     14  C   UNL d   1       1.469   0.948   0.090  0.00  0.00     0.071 A 
ATOM     15  C   UNL d   1       1.290  -0.400  -0.187  0.00  0.00     0.108 A 
ATOM     16  S   UNL d   1      -0.394  -0.801  -0.218  0.00  0.00    -0.094 SA
ATOM     17  C   UNL d   1      -0.866   0.786   0.167  0.00  0.00     0.053 A 
ATOM     18  C   UNL d   1       0.219   1.617   0.305  0.00  0.00     0.039 A 
BRANCH  15  19
ATOM     19  C   UNL d   1       2.213  -1.488  -0.449  0.00  0.00     0.302 C 
ATOM     20  O   UNL d   1       1.905  -2.646  -0.723  0.00  0.00    -0.259 OA
BRANCH  19  21
ATOM     21  O   UNL d   1       3.515  -1.074  -0.338  0.00  0.00    -0.322 OA
ATOM     22  C   UNL d   1       4.448  -2.140  -0.535  0.00  0.00     0.213 C 
ENDBRANCH  19  21
ENDBRANCH  15  19
ENDBRANCH  12  14
ENDBRANCH  10  12
ENDBRANCH   4   9
TORSDOF 5
