REMARK  4 active torsions:
REMARK  status: ('A' for Active; 'I' for Inactive)
REMARK       I    between atoms: N_2  and  C_1 
REMARK    1  A    between atoms: C_5  and  C_1 
REMARK       I    between atoms: C_3  and  N_4 
REMARK    2  A    between atoms: C_12  and  C_3 
REMARK    3  A    between atoms: N_4  and  C_17 
REMARK    4  A    between atoms: C_6  and  C_7 
ROOT
ATOM      1  C   UNL d   1       0.911   0.037  -0.024  0.00  0.00     0.253 C 
ATOM      2  N   UNL d   1       0.209   0.805   0.908  0.00  0.00    -0.348 N 
ATOM      3  C   UNL d   1      -0.902   0.370   1.756  0.00  0.00     0.128 C 
ATOM      4  C   UNL d   1       0.580   2.204   1.091  0.00  0.00     0.128 C 
ATOM      5  O   UNL d   1       1.913   0.452  -0.605  0.00  0.00    -0.267 OA
ATOM      6  C   UNL d   1      -1.882   2.684   1.557  0.00  0.00     0.087 C 
ATOM      7  C   UNL d   1      -2.147   1.177   1.399  0.00  0.00     0.045 C 
ATOM      8  C   UNL d   1      -0.616   3.111   0.797  0.00  0.00     0.045 C 
ENDROOT
BRANCH   1   9
ATOM      9  C   UNL d   1       0.475  -1.349  -0.330  0.00  0.00     0.032 A 
ATOM     10  C   UNL d   1      -0.859  -1.678  -0.558  0.00  0.00     0.017 A 
ATOM     11  C   UNL d   1      -1.237  -3.013  -0.715  0.00  0.00     0.009 A 
ATOM     12  C   UNL d   1      -0.283  -4.048  -0.735  0.00  0.00    -0.051 A 
ATOM     13  C   UNL d   1       1.069  -3.681  -0.628  0.00  0.00     0.009 A 
ATOM     14  C   UNL d   1       1.446  -2.348  -0.423  0.00  0.00     0.017 A 
BRANCH  12  15
ATOM     15  C   UNL d   1      -0.744  -5.510  -0.847  0.00  0.00    -0.024 C 
ATOM     16  C   UNL d   1       0.421  -6.516  -0.973  0.00  0.00     0.019 C 
ATOM     17  C   UNL d   1      -1.544  -5.885   0.421  0.00  0.00     0.019 C 
ATOM     18  C   UNL d   1      -1.646  -5.696  -2.086  0.00  0.00     0.019 C 
ENDBRANCH  12  15
ENDBRANCH   1   9
BRANCH   6  19
ATOM     19  N   UNL d   1      -1.790   3.050   2.965  0.00  0.00    -0.356 N 
ATOM     20  C   UNL d   1      -2.909   3.213   3.761  0.00  0.00     0.222 C 
ATOM     21  O   UNL d   1      -4.052   3.174   3.316  0.00  0.00    -0.273 OA
ATOM     22  H   UNL d   1      -0.892   2.977   3.423  0.00  0.00     0.162 HD
BRANCH  20  23
ATOM     23  C   UNL d   1      -2.571   3.447   5.235  0.00  0.00     0.078 C 
ATOM     24  C   UNL d   1      -1.885   2.222   5.859  0.00  0.00     0.014 C 
ATOM     25  C   UNL d   1      -2.862   1.075   6.101  0.00  0.00     0.001 C 
ATOM     26  C   UNL d   1      -4.024   1.518   6.980  0.00  0.00     0.000 C 
ATOM     27  C   UNL d   1      -4.745   2.729   6.396  0.00  0.00     0.001 C 
ATOM     28  C   UNL d   1      -3.790   3.876   6.063  0.00  0.00     0.014 C 
ENDBRANCH  20  23
ENDBRANCH   6  19
TORSDOF 4
