REMARK  6 active torsions:
REMARK  status: ('A' for Active; 'I' for Inactive)
REMARK    1  A    between atoms: O_16  and  C_1 
REMARK    2  A    between atoms: C_17  and  N_4 
REMARK    3  A    between atoms: C_5  and  C_14 
REMARK    4  A    between atoms: C_15  and  C_6 
REMARK    5  A    between atoms: C_18  and  N_9 
REMARK    6  A    between atoms: C_14  and  O_16 
ROOT
ATOM      1  O   UNL d   1      -1.008   1.902   0.244  0.00  0.00    -0.254 OA
ENDROOT
BRANCH   1   2
ATOM      2  C   UNL d   1      -2.171   2.605   0.253  0.00  0.00     0.320 C 
ATOM      3  O   UNL d   1      -2.251   3.827   0.300  0.00  0.00    -0.257 OA
BRANCH   2   4
ATOM      4  C   UNL d   1      -3.333   1.723   0.206  0.00  0.00     0.149 A 
ATOM      5  N   UNL d   1      -3.289   0.505  -0.366  0.00  0.00    -0.272 N 
ATOM      6  N   UNL d   1      -4.584   0.103  -0.319  0.00  0.00    -0.196 N 
ATOM      7  HN  UNL d   1      -2.482   0.007  -0.743  1.00  0.00     0.189 HD
ATOM      8  N   UNL d   1      -5.438   0.942   0.323  0.00  0.00    -0.281 N 
ATOM      9  C   UNL d   1      -4.644   1.966   0.662  0.00  0.00     0.058 A 
ATOM     10  HN  UNL d   1      -6.435   0.823   0.501  1.00  0.00     0.189 HD
ATOM     11  C   UNL d   1      -5.167   3.116   1.434  0.00  0.00     0.072 C 
BRANCH   6  12
ATOM     12  C   UNL d   1      -5.010  -1.114  -0.910  0.00  0.00     0.074 A 
ATOM     13  C   UNL d   1      -4.068  -1.989  -1.474  0.00  0.00     0.033 A 
ATOM     14  C   UNL d   1      -4.488  -3.192  -2.043  0.00  0.00     0.002 A 
ATOM     15  C   UNL d   1      -5.844  -3.519  -2.066  0.00  0.00     0.000 A 
ATOM     16  C   UNL d   1      -6.784  -2.645  -1.520  0.00  0.00     0.002 A 
ATOM     17  C   UNL d   1      -6.371  -1.444  -0.938  0.00  0.00     0.033 A 
ENDBRANCH   6  12
ENDBRANCH   2   4
ENDBRANCH   1   2
BRANCH   1  18
ATOM     18  C   UNL d   1      -0.035   2.296  -0.566  0.00  0.00     0.175 C 
ATOM     19  N   UNL d   1       1.283   1.875  -0.397  0.00  0.00    -0.233 N 
ATOM     20  N   UNL d   1       2.018   2.129  -1.519  0.00  0.00    -0.287 N 
ATOM     21  C   UNL d   1       1.195   2.784  -2.354  0.00  0.00     0.136 C 
ATOM     22  HN  UNL d   1       2.991   1.874  -1.688  1.00  0.00     0.187 HD
ATOM     23  C   UNL d   1      -0.061   3.007  -1.748  0.00  0.00     0.094 C 
BRANCH  19  24
ATOM     24  C   UNL d   1       1.910   1.252   0.730  0.00  0.00     0.059 A 
ATOM     25  C   UNL d   1       3.273   0.917   0.654  0.00  0.00     0.031 A 
ATOM     26  C   UNL d   1       3.929   0.347   1.748  0.00  0.00     0.002 A 
ATOM     27  C   UNL d   1       3.235   0.101   2.929  0.00  0.00     0.000 A 
ATOM     28  C   UNL d   1       1.883   0.422   3.015  0.00  0.00     0.002 A 
ATOM     29  C   UNL d   1       1.222   0.998   1.924  0.00  0.00     0.031 A 
ENDBRANCH  19  24
BRANCH  21  30
ATOM     30  C   UNL d   1       1.565   3.147  -3.768  0.00  0.00     0.434 C 
ATOM     31  F   UNL d   1       2.749   2.616  -4.178  0.00  0.00    -0.165 F 
ATOM     32  F   UNL d   1       0.622   2.708  -4.646  0.00  0.00    -0.165 F 
ATOM     33  F   UNL d   1       1.652   4.493  -3.942  0.00  0.00    -0.165 F 
ENDBRANCH  21  30
ENDBRANCH   1  18
TORSDOF 6
