REMARK  8 active torsions:
REMARK  status: ('A' for Active; 'I' for Inactive)
REMARK    1  A    between atoms: C_8  and  C_1 
REMARK    2  A    between atoms: C_7  and  C_2 
REMARK    3  A    between atoms: C_9  and  C_3 
REMARK    4  A    between atoms: O_13  and  C_7 
REMARK    5  A    between atoms: O_14  and  C_8 
REMARK    6  A    between atoms: O_17  and  C_10 
REMARK    7  A    between atoms: C_21  and  O_13 
REMARK    8  A    between atoms: C_20  and  O_14 
ROOT
ATOM      1  C   UNL d   1      -1.247  -1.045   0.286  0.00  0.00     0.052 C 
ATOM      2  C   UNL d   1       1.318  -1.018   0.211  0.00  0.00     0.052 C 
ATOM      3  C   UNL d   1       0.038  -1.846  -0.039  0.00  0.00     0.103 C 
ATOM      4  C   UNL d   1      -1.200   0.307   0.384  0.00  0.00     0.018 C 
ATOM      5  C   UNL d   1       1.254   0.326   0.348  0.00  0.00     0.018 C 
ATOM      6  N   UNL d   1       0.025   0.959   0.324  0.00  0.00    -0.362 N 
ATOM      7  C   UNL d   1      -2.378   1.241   0.524  0.00  0.00     0.069 C 
ATOM      8  C   UNL d   1       2.461   1.226   0.476  0.00  0.00     0.069 C 
ATOM      9  H   UNL d   1       0.021   1.961   0.515  0.00  0.00     0.165 HD
ENDROOT
BRANCH   3  10
ATOM     10  C   UNL d   1      -0.008  -2.373  -1.488  0.00  0.00    -0.011 A 
ATOM     11  C   UNL d   1      -0.153  -3.716  -1.889  0.00  0.00     0.075 A 
ATOM     12  C   UNL d   1      -0.223  -4.019  -3.264  0.00  0.00     0.037 A 
ATOM     13  C   UNL d   1      -0.146  -3.036  -4.248  0.00  0.00     0.003 A 
ATOM     14  C   UNL d   1      -0.011  -1.712  -3.871  0.00  0.00     0.001 A 
ATOM     15  C   UNL d   1       0.055  -1.390  -2.517  0.00  0.00     0.011 A 
BRANCH  11  16
ATOM     16  O   UNL d   1      -0.344  -4.849  -1.151  0.00  0.00    -0.355 OA
ATOM     17  C   UNL d   1       0.257  -5.023   0.115  0.00  0.00     0.210 C 
ENDBRANCH  11  16
ENDBRANCH   3  10
BRANCH   2  18
ATOM     18  C   UNL d   1       2.628  -1.708   0.315  0.00  0.00     0.292 C 
ATOM     19  O   UNL d   1       3.558  -1.330   1.012  0.00  0.00    -0.259 OA
BRANCH  18  20
ATOM     20  O   UNL d   1       2.653  -2.773  -0.511  0.00  0.00    -0.318 OA
BRANCH  20  21
ATOM     21  C   UNL d   1       3.922  -3.394  -0.751  0.00  0.00     0.174 C 
ATOM     22  C   UNL d   1       4.412  -2.917  -2.104  0.00  0.00     0.034 C 
ENDBRANCH  20  21
ENDBRANCH  18  20
ENDBRANCH   2  18
BRANCH   1  23
ATOM     23  C   UNL d   1      -2.463  -1.888   0.470  0.00  0.00     0.292 C 
ATOM     24  O   UNL d   1      -2.579  -3.019   0.027  0.00  0.00    -0.259 OA
BRANCH  23  25
ATOM     25  O   UNL d   1      -3.380  -1.286   1.271  0.00  0.00    -0.318 OA
BRANCH  25  26
ATOM     26  C   UNL d   1      -4.605  -2.007   1.462  0.00  0.00     0.174 C 
ATOM     27  C   UNL d   1      -5.543  -1.773   0.290  0.00  0.00     0.034 C 
ENDBRANCH  25  26
ENDBRANCH  23  25
ENDBRANCH   1  23
TORSDOF 8
