REMARK  5 active torsions:
REMARK  status: ('A' for Active; 'I' for Inactive)
REMARK    1  A    between atoms: C_2  and  C_1 
REMARK       I    between atoms: N_5  and  C_2 
REMARK       I    between atoms: C_3  and  N_6 
REMARK    2  A    between atoms: C_4  and  C_3 
REMARK    3  A    between atoms: N_6  and  N_5 
REMARK    4  A    between atoms: O_16  and  C_9 
REMARK    5  A    between atoms: C_17  and  O_16 
ROOT
ATOM      1  C   UNL d   1      -3.757   3.279   0.071  0.00  0.00     0.271 C 
ATOM      2  N   UNL d   1      -4.067   2.660   1.268  0.00  0.00    -0.263 N 
ATOM      3  O   UNL d   1      -3.539   2.676  -0.974  0.00  0.00    -0.266 OA
ATOM      4  H   UNL d   1      -3.945   3.115   2.173  0.00  0.00     0.190 HD
ENDROOT
BRANCH   1   5
ATOM      5  C   UNL d   1      -3.722   4.758   0.102  0.00  0.00     0.049 A 
ATOM      6  C   UNL d   1      -4.564   5.470   0.946  0.00  0.00     0.107 A 
ATOM      7  N   UNL d   1      -4.638   6.819   0.971  0.00  0.00    -0.346 N 
ATOM      8  C   UNL d   1      -3.871   7.493   0.083  0.00  0.00     0.147 A 
ATOM      9  HN  UNL d   1      -5.246   7.307   1.629  1.00  0.00     0.167 HD
ATOM     10  C   UNL d   1      -2.977   6.874  -0.780  0.00  0.00     0.057 A 
ATOM     11  C   UNL d   1      -2.912   5.479  -0.776  0.00  0.00     0.023 A 
BRANCH   8  12
ATOM     12  O   UNL d   1      -3.973   8.877   0.011  0.00  0.00    -0.294 OA
BRANCH  12  13
ATOM     13  C   UNL d   1      -5.198   9.438   0.307  0.00  0.00     0.077 A 
ATOM     14  C   UNL d   1      -5.187  10.661   0.982  0.00  0.00     0.039 A 
ATOM     15  C   UNL d   1      -6.392  11.296   1.301  0.00  0.00     0.026 A 
ATOM     16  C   UNL d   1      -7.604  10.708   0.937  0.00  0.00     0.034 A 
ATOM     17  C   UNL d   1      -7.621   9.504   0.238  0.00  0.00     0.026 A 
ATOM     18 CL   UNL d   1      -9.088  11.476   1.347  0.00  0.00    -0.084 Cl
ATOM     19  C   UNL d   1      -6.418   8.880  -0.095  0.00  0.00     0.039 A 
ENDBRANCH  12  13
ENDBRANCH   8  12
ENDBRANCH   1   5
BRANCH   2  20
ATOM     20  N   UNL d   1      -4.113   1.267   1.307  0.00  0.00    -0.263 N 
ATOM     21  C   UNL d   1      -3.853   0.643   2.514  0.00  0.00     0.276 C 
ATOM     22  O   UNL d   1      -3.614   1.302   3.523  0.00  0.00    -0.266 OA
ATOM     23  H   UNL d   1      -4.272   0.780   0.424  0.00  0.00     0.190 HD
BRANCH  21  24
ATOM     24  C   UNL d   1      -3.883  -0.843   2.534  0.00  0.00     0.110 A 
ATOM     25  C   UNL d   1      -4.169  -1.601   1.396  0.00  0.00     0.135 A 
ATOM     26  F   UNL d   1      -4.445  -1.011   0.223  0.00  0.00    -0.205 F 
ATOM     27  C   UNL d   1      -4.181  -2.997   1.432  0.00  0.00     0.043 A 
ATOM     28  C   UNL d   1      -3.908  -3.664   2.623  0.00  0.00     0.006 A 
ATOM     29  C   UNL d   1      -3.629  -2.926   3.771  0.00  0.00     0.043 A 
ATOM     30  C   UNL d   1      -3.618  -1.529   3.723  0.00  0.00     0.135 A 
ATOM     31  F   UNL d   1      -3.345  -0.879   4.862  0.00  0.00    -0.205 F 
ENDBRANCH  21  24
ENDBRANCH   2  20
TORSDOF 5
