REMARK  6 active torsions:
REMARK  status: ('A' for Active; 'I' for Inactive)
REMARK    1  A    between atoms: C_2  and  C_1 
REMARK    2  A    between atoms: S_4  and  C_3 
REMARK    3  A    between atoms: C_14  and  S_4 
REMARK    4  A    between atoms: C_5  and  C_14 
REMARK       I    between atoms: N_8  and  C_5 
REMARK    5  A    between atoms: C_17  and  N_8 
REMARK    6  A    between atoms: C_18  and  C_9 
ROOT
ATOM      1  C   UNL d   1       3.395   0.920   2.819  0.00  0.00     0.231 C 
ATOM      2  N   UNL d   1       3.912   2.113   3.280  0.00  0.00    -0.327 N 
ATOM      3  O   UNL d   1       2.471   0.822   2.008  0.00  0.00    -0.272 OA
ATOM      4  H   UNL d   1       4.741   2.062   3.867  0.00  0.00     0.169 HD
ENDROOT
BRANCH   1   5
ATOM      5  C   UNL d   1       4.006  -0.371   3.340  0.00  0.00     0.184 C 
BRANCH   5   6
ATOM      6  S   UNL d   1       5.304  -0.248   4.596  0.00  0.00    -0.102 SA
BRANCH   6   7
ATOM      7  C   UNL d   1       4.412   0.515   5.927  0.00  0.00     0.085 A 
ATOM      8  C   UNL d   1       3.378  -0.041   6.672  0.00  0.00     0.081 A 
ATOM      9  C   UNL d   1       2.756   0.789   7.626  0.00  0.00     0.020 A 
ATOM     10  C   UNL d   1       3.198   2.089   7.834  0.00  0.00     0.018 A 
ATOM     11  C   UNL d   1       4.257   2.535   7.076  0.00  0.00     0.089 A 
ATOM     12  N   UNL d   1       4.856   1.785   6.129  0.00  0.00    -0.360 N 
ATOM     13  HN  UNL d   1       5.626   2.161   5.577  1.00  0.00     0.166 HD
BRANCH   8  14
ATOM     14  C   UNL d   1       2.864  -1.441   6.525  0.00  0.00     0.420 C 
ATOM     15  F   UNL d   1       3.620  -2.282   5.775  0.00  0.00    -0.166 F 
ATOM     16  F   UNL d   1       1.622  -1.463   5.962  0.00  0.00    -0.166 F 
ATOM     17  F   UNL d   1       2.724  -2.064   7.731  0.00  0.00    -0.166 F 
ENDBRANCH   8  14
ENDBRANCH   6   7
ENDBRANCH   5   6
ENDBRANCH   1   5
BRANCH   2  18
ATOM     18  C   UNL d   1       3.360   3.401   3.092  0.00  0.00     0.034 A 
ATOM     19  C   UNL d   1       2.113   3.625   2.509  0.00  0.00     0.030 A 
ATOM     20  C   UNL d   1       1.590   4.917   2.408  0.00  0.00     0.010 A 
ATOM     21  C   UNL d   1       2.304   6.025   2.880  0.00  0.00    -0.055 A 
ATOM     22  C   UNL d   1       3.563   5.802   3.451  0.00  0.00     0.010 A 
ATOM     23  C   UNL d   1       4.082   4.503   3.563  0.00  0.00     0.030 A 
BRANCH  21  24
ATOM     24  C   UNL d   1       1.717   7.423   2.808  0.00  0.00     0.010 C 
ATOM     25  C   UNL d   1       1.388   7.836   1.370  0.00  0.00     0.015 C 
ATOM     26  C   UNL d   1       0.474   7.541   3.697  0.00  0.00     0.015 C 
ENDBRANCH  21  24
ENDBRANCH   2  18
TORSDOF 6
