REMARK  5 active torsions:
REMARK  status: ('A' for Active; 'I' for Inactive)
REMARK       I    between atoms: N_2  and  C_1 
REMARK    1  A    between atoms: O_4  and  C_1 
REMARK    2  A    between atoms: C_3  and  C_8 
REMARK    3  A    between atoms: O_12  and  C_3 
REMARK    4  A    between atoms: C_13  and  O_4 
REMARK    5  A    between atoms: C_14  and  C_13 
ROOT
ATOM      1  C   UNL d   1       0.854  -0.070   0.169  0.00  0.00     0.363 C 
ATOM      2  N   UNL d   1       0.363  -0.695  -0.966  0.00  0.00    -0.328 N 
ATOM      3  O   UNL d   1       1.663  -0.588   0.930  0.00  0.00    -0.238 OA
ATOM      4  C   UNL d   1      -0.720  -0.171  -1.787  0.00  0.00     0.129 C 
ATOM      5  C   UNL d   1       0.765  -2.059  -1.272  0.00  0.00     0.129 C 
ATOM      6  C   UNL d   1      -1.683  -2.528  -1.851  0.00  0.00     0.087 C 
ATOM      7  C   UNL d   1      -1.969  -1.039  -1.609  0.00  0.00     0.035 C 
ATOM      8  C   UNL d   1      -0.423  -3.008  -1.107  0.00  0.00     0.035 C 
ENDROOT
BRANCH   1   9
ATOM      9  O   UNL d   1       0.307   1.158   0.372  0.00  0.00    -0.299 OA
BRANCH   9  10
ATOM     10  C   UNL d   1       0.598   1.771   1.633  0.00  0.00     0.219 C 
BRANCH  10  11
ATOM     11  C   UNL d   1       1.562   2.922   1.492  0.00  0.00    -0.034 A 
ATOM     12  C   UNL d   1       1.093   4.224   1.266  0.00  0.00     0.009 A 
ATOM     13  C   UNL d   1       1.983   5.298   1.208  0.00  0.00     0.001 A 
ATOM     14  C   UNL d   1       3.351   5.080   1.363  0.00  0.00     0.000 A 
ATOM     15  C   UNL d   1       3.831   3.786   1.559  0.00  0.00     0.001 A 
ATOM     16  C   UNL d   1       2.942   2.711   1.618  0.00  0.00     0.009 A 
ENDBRANCH  10  11
ENDBRANCH   9  10
ENDBRANCH   1   9
BRANCH   6  17
ATOM     17  C   UNL d   1      -1.592  -2.812  -3.340  0.00  0.00     0.143 C 
ATOM     18  O   UNL d   1      -0.554  -2.874  -3.979  0.00  0.00    -0.650 OA
BRANCH  17  19
ATOM     19  O   UNL d   1      -2.801  -2.971  -3.925  0.00  0.00    -0.776 OA
ATOM     20  H   UNL d   1      -3.561  -2.912  -3.315  0.00  0.00     0.167 HD
ENDBRANCH  17  19
ENDBRANCH   6  17
TORSDOF 5
