REMARK  3 active torsions:
REMARK  status: ('A' for Active; 'I' for Inactive)
REMARK    1  A    between atoms: S_2  and  C_1 
REMARK    2  A    between atoms: N_8  and  S_2 
REMARK    3  A    between atoms: C_13  and  N_8 
ROOT
ATOM      1  N   UNL d   1       4.003  -0.785   1.477  0.00  0.00    -0.180 NA
ATOM      2  H   UNL d   1       4.998  -0.974   1.348  0.00  0.00     0.146 HD
ENDROOT
BRANCH   1   3
ATOM      3  S   UNL d   1       3.459   0.056   0.100  0.00  0.00     0.263 S 
ATOM      4  O   UNL d   1       2.059   0.402   0.249  0.00  0.00    -0.204 OA
ATOM      5  O   UNL d   1       3.945  -0.668  -1.055  0.00  0.00    -0.204 OA
BRANCH   3   6
ATOM      6  C   UNL d   1       4.301   1.588   0.015  0.00  0.00     0.161 A 
ATOM      7  N   UNL d   1       5.678   1.711   0.147  0.00  0.00    -0.335 N 
ATOM      8  C   UNL d   1       5.942   2.989  -0.062  0.00  0.00     0.079 A 
ATOM      9  HN  UNL d   1       6.346   0.970   0.359  1.00  0.00     0.168 HD
ATOM     10  C   UNL d   1       7.291   3.608  -0.116  0.00  0.00     0.089 C 
ATOM     11  N   UNL d   1       4.778   3.697  -0.260  0.00  0.00    -0.348 N 
ATOM     12  C   UNL d   1       3.730   2.824  -0.199  0.00  0.00     0.135 A 
ATOM     13  C   UNL d   1       4.673   5.111  -0.532  0.00  0.00     0.156 C 
ENDBRANCH   3   6
ENDBRANCH   1   3
BRANCH   1  14
ATOM     14  C   UNL d   1       3.675  -0.197   2.736  0.00  0.00     0.025 A 
ATOM     15  C   UNL d   1       4.608   0.609   3.387  0.00  0.00     0.064 A 
ATOM     16  C   UNL d   1       4.267   1.219   4.592  0.00  0.00     0.103 A 
ATOM     17  O   UNL d   1       5.237   1.984   5.188  0.00  0.00    -0.346 OA
ATOM     18  C   UNL d   1       2.985   1.051   5.129  0.00  0.00     0.102 A 
ATOM     19  C   UNL d   1       4.900   2.295   6.545  0.00  0.00     0.202 C 
ATOM     20  C   UNL d   1       3.448   2.731   6.650  0.00  0.00     0.202 C 
ATOM     21  O   UNL d   1       2.574   1.655   6.289  0.00  0.00    -0.346 OA
ATOM     22  C   UNL d   1       2.056   0.239   4.480  0.00  0.00     0.041 A 
ATOM     23  C   UNL d   1       2.399  -0.377   3.275  0.00  0.00     0.027 A 
ENDBRANCH   1  14
TORSDOF 3
