REMARK  4 active torsions:
REMARK  status: ('A' for Active; 'I' for Inactive)
REMARK    1  A    between atoms: C_11  and  C_3 
REMARK    2  A    between atoms: C_12  and  C_6 
REMARK    3  A    between atoms: O_18  and  C_12 
REMARK    4  A    between atoms: C_19  and  O_18 
ROOT
ATOM      1  C   UNL d   1       0.129   0.588  -0.049  0.00  0.00     0.172 A 
ATOM      2  N   UNL d   1      -0.137  -0.749  -0.052  0.00  0.00    -0.235 N 
ATOM      3  C   UNL d   1      -1.946   0.328  -0.012  0.00  0.00     0.207 A 
ATOM      4  N   UNL d   1      -0.953   1.311  -0.021  0.00  0.00    -0.316 N 
ATOM      5  HN  UNL d   1      -1.050   2.326  -0.010  1.00  0.00     0.169 HD
ATOM      6  C   UNL d   1       2.111  -0.840  -0.054  0.00  0.00     0.107 A 
ATOM      7  N   UNL d   1      -1.469  -0.943  -0.028  0.00  0.00    -0.273 N 
ATOM      8  HN  UNL d   1      -1.988  -1.821  -0.023  1.00  0.00     0.189 HD
ATOM      9  C   UNL d   1       0.975  -1.569  -0.055  0.00  0.00     0.056 A 
ATOM     10  S   UNL d   1       1.828   0.907  -0.059  0.00  0.00    -0.044 SA
ATOM     11  C   UNL d   1       0.826  -3.052  -0.021  0.00  0.00     0.072 C 
ENDROOT
BRANCH   6  12
ATOM     12  C   UNL d   1       3.470  -1.422   0.041  0.00  0.00     0.302 C 
ATOM     13  O   UNL d   1       3.681  -2.623   0.039  0.00  0.00    -0.259 OA
BRANCH  12  14
ATOM     14  O   UNL d   1       4.412  -0.464   0.226  0.00  0.00    -0.317 OA
BRANCH  14  15
ATOM     15  C   UNL d   1       5.678  -0.941   0.706  0.00  0.00     0.174 C 
ATOM     16  C   UNL d   1       5.650  -0.905   2.223  0.00  0.00     0.034 C 
ENDBRANCH  14  15
ENDBRANCH  12  14
ENDBRANCH   6  12
BRANCH   3  17
ATOM     17  C   UNL d   1      -3.425   0.649   0.007  0.00  0.00     0.450 C 
ATOM     18  F   UNL d   1      -3.678   1.986   0.027  0.00  0.00    -0.163 F 
ATOM     19  F   UNL d   1      -4.068   0.152  -1.084  0.00  0.00    -0.163 F 
ATOM     20  F   UNL d   1      -4.050   0.123   1.099  0.00  0.00    -0.163 F 
ENDBRANCH   3  17
TORSDOF 4
