REMARK  8 active torsions:
REMARK  status: ('A' for Active; 'I' for Inactive)
REMARK    1  A    between atoms: N_3  and  S_1 
REMARK    2  A    between atoms: C_6  and  S_1 
REMARK    3  A    between atoms: C_2  and  N_3 
REMARK    4  A    between atoms: C_19  and  N_3 
REMARK    5  A    between atoms: C_5  and  C_4 
REMARK    6  A    between atoms: O_18  and  C_5 
REMARK    7  A    between atoms: C_27  and  C_19 
REMARK    8  A    between atoms: C_24  and  C_27 
ROOT
ATOM      1  N   UNL d   1       1.935  -6.154   0.480  0.00  0.00    -0.197 NA
ATOM      2  C   UNL d   1       0.927  -5.716   0.113  0.00  0.00     0.059 C 
ATOM      3  C   UNL d   1      -0.340  -5.131  -0.349  0.00  0.00     0.125 C 
ENDROOT
BRANCH   3   4
ATOM      4  C   UNL d   1      -0.667  -3.827   0.376  0.00  0.00     0.035 C 
BRANCH   4   5
ATOM      5  C   UNL d   1       0.361  -2.716   0.109  0.00  0.00     0.143 C 
BRANCH   5   6
ATOM      6  N   UNL d   1      -0.087  -1.404   0.663  0.00  0.00    -0.271 N 
BRANCH   6   7
ATOM      7  C   UNL d   1      -0.559  -1.395   2.033  0.00  0.00     0.063 A 
ATOM      8  C   UNL d   1      -1.871  -0.984   2.346  0.00  0.00     0.067 A 
ATOM      9  C   UNL d   1      -2.297  -1.035   3.688  0.00  0.00     0.022 A 
ATOM     10  C   UNL d   1      -1.433  -1.468   4.696  0.00  0.00     0.025 A 
ATOM     11  C   UNL d   1      -0.130  -1.839   4.378  0.00  0.00     0.036 A 
ATOM     12  C   UNL d   1       0.314  -1.795   3.059  0.00  0.00     0.055 A 
ATOM     13 CL   UNL d   1       0.929  -2.378   5.621  0.00  0.00    -0.084 Cl
BRANCH   8  14
ATOM     14  C   UNL d   1      -2.827  -0.551   1.280  0.00  0.00     0.295 C 
ATOM     15  O   UNL d   1      -2.714  -0.782   0.088  0.00  0.00    -0.259 OA
BRANCH  14  16
ATOM     16  O   UNL d   1      -3.863   0.126   1.845  0.00  0.00    -0.322 OA
ATOM     17  C   UNL d   1      -4.865   0.560   0.924  0.00  0.00     0.213 C 
ENDBRANCH  14  16
ENDBRANCH   8  14
ENDBRANCH   6   7
BRANCH   6  18
ATOM     18  S   UNL d   1       0.934  -0.066   0.306  0.00  0.00     0.265 S 
ATOM     19  O   UNL d   1       2.296  -0.468   0.596  0.00  0.00    -0.200 OA
ATOM     20  O   UNL d   1       0.369   1.123   0.916  0.00  0.00    -0.200 OA
BRANCH  18  21
ATOM     21  C   UNL d   1       0.779   0.122  -1.456  0.00  0.00     0.080 A 
ATOM     22  C   UNL d   1      -0.289   0.863  -1.970  0.00  0.00     0.026 A 
ATOM     23  C   UNL d   1      -0.365   1.103  -3.344  0.00  0.00     0.008 A 
ATOM     24  C   UNL d   1       0.625   0.614  -4.208  0.00  0.00    -0.062 A 
ATOM     25  C   UNL d   1       1.683  -0.139  -3.681  0.00  0.00     0.008 A 
ATOM     26  C   UNL d   1       0.533   0.888  -5.681  0.00  0.00     0.048 C 
ATOM     27  C   UNL d   1       1.771  -0.374  -2.307  0.00  0.00     0.026 A 
ENDBRANCH  18  21
ENDBRANCH   6  18
ENDBRANCH   5   6
ENDBRANCH   4   5
ENDBRANCH   3   4
TORSDOF 8
