REMARK  2 active torsions:
REMARK  status: ('A' for Active; 'I' for Inactive)
REMARK    1  A    between atoms: C_3  and  N_1 
REMARK    2  A    between atoms: N_2  and  C_5 
ROOT
ATOM      1  C   UNL d   1       0.280  -0.092   1.210  0.00  0.00     0.103 A 
ATOM      2  C   UNL d   1      -1.311  -0.455   3.521  0.00  0.00     0.030 A 
ATOM      3  C   UNL d   1      -0.591  -1.179   1.288  0.00  0.00     0.038 A 
ATOM      4  C   UNL d   1       0.365   0.818   2.265  0.00  0.00     0.038 A 
ATOM      5  C   UNL d   1      -1.371  -1.351   2.439  0.00  0.00     0.032 A 
ATOM      6  C   UNL d   1      -0.429   0.631   3.402  0.00  0.00     0.032 A 
ENDROOT
BRANCH   2   7
ATOM      7  N   UNL d   1      -2.104  -0.635   4.633  0.00  0.00    -0.377 N 
ATOM      8  C   UNL d   1      -2.585   0.476   5.468  0.00  0.00     0.149 C 
ATOM      9  C   UNL d   1      -2.034   0.360   6.896  0.00  0.00     0.187 C 
ATOM     10  O   UNL d   1      -2.323  -0.926   7.470  0.00  0.00    -0.388 OA
ATOM     11  C   UNL d   1      -1.732  -1.967   6.674  0.00  0.00     0.187 C 
ATOM     12  C   UNL d   1      -2.281  -1.968   5.236  0.00  0.00     0.149 C 
ENDBRANCH   2   7
BRANCH   1  13
ATOM     13  N   UNL d   1       1.112   0.098   0.016  0.00  0.00    -0.116 N 
ATOM     14  O   UNL d   1       1.005  -0.729  -0.900  0.00  0.00    -0.532 OA
ATOM     15  O   UNL d   1       1.877   1.074  -0.005  0.00  0.00    -0.532 OA
ENDBRANCH   1  13
TORSDOF 2
