REMARK  2 active torsions:
REMARK  status: ('A' for Active; 'I' for Inactive)
REMARK    1  A    between atoms: C_12  and  C_9 
REMARK    2  A    between atoms: O_13  and  C_12 
ROOT
ATOM      1  N   UNL d   1      -0.311  -0.604  -0.006  0.00  0.00    -0.204 N 
ATOM      2  C   UNL d   1      -0.272   0.778  -0.006  0.00  0.00     0.133 A 
ATOM      3  C   UNL d   1       0.826  -1.429  -0.001  0.00  0.00     0.270 A 
ATOM      4  N   UNL d   1      -1.587  -1.077  -0.010  0.00  0.00    -0.294 N 
ATOM      5  HN  UNL d   1      -1.894  -2.050  -0.019  1.00  0.00     0.187 HD
ATOM      6  C   UNL d   1      -1.570   1.213   0.008  0.00  0.00     0.076 A 
ATOM      7  C   UNL d   1       2.115  -0.681   0.004  0.00  0.00     0.103 A 
ATOM      8  N   UNL d   1       0.932   1.394  -0.014  0.00  0.00    -0.342 N 
ATOM      9  C   UNL d   1       2.120   0.667  -0.003  0.00  0.00     0.040 A 
ATOM     10  C   UNL d   1      -2.346   0.026   0.001  0.00  0.00     0.026 A 
ATOM     11  O   UNL d   1       0.759  -2.651  -0.005  0.00  0.00    -0.266 OA
ATOM     12  C   UNL d   1      -3.826  -0.082   0.003  0.00  0.00     0.070 C 
ATOM     13  H   UNL d   1       1.034   2.401   0.113  0.00  0.00     0.167 HD
ENDROOT
BRANCH   9  14
ATOM     14  C   UNL d   1       3.419   1.444  -0.013  0.00  0.00     0.224 C 
BRANCH  14  15
ATOM     15  O   UNL d   1       3.446   2.305   1.126  0.00  0.00    -0.390 OA
ATOM     16  C   UNL d   1       4.662   3.040   1.190  0.00  0.00     0.201 C 
ENDBRANCH  14  15
ENDBRANCH   9  14
TORSDOF 2
