REMARK  2 active torsions:
REMARK  status: ('A' for Active; 'I' for Inactive)
REMARK    1  A    between atoms: C_11  and  C_5 
REMARK    2  A    between atoms: C_13  and  C_8 
ROOT
ATOM      1  C   UNL d   1       0.326   0.762   0.049  0.00  0.00     0.150 A 
ATOM      2  N   UNL d   1       0.303  -0.629  -0.004  0.00  0.00    -0.247 N 
ATOM      3  N   UNL d   1       1.572   1.181   0.064  0.00  0.00    -0.324 N 
ATOM      4  HN  UNL d   1       1.912   2.142   0.109  1.00  0.00     0.169 HD
ATOM      5  C   UNL d   1      -2.077  -0.741   0.004  0.00  0.00     0.067 A 
ATOM      6  N   UNL d   1       1.572  -1.096  -0.034  0.00  0.00    -0.277 N 
ATOM      7  HN  UNL d   1       1.890  -2.064  -0.074  1.00  0.00     0.189 HD
ATOM      8  C   UNL d   1       2.308   0.023   0.003  0.00  0.00     0.132 A 
ATOM      9  C   UNL d   1      -0.928   1.431   0.070  0.00  0.00     0.080 A 
ATOM     10  C   UNL d   1      -0.880  -1.365  -0.023  0.00  0.00     0.134 A 
ATOM     11  C   UNL d   1      -2.074   0.725   0.047  0.00  0.00     0.045 A 
ATOM     12 CL   UNL d   1      -0.951   3.153   0.113  0.00  0.00    -0.080 Cl
ENDROOT
BRANCH   8  13
ATOM     13  C   UNL d   1       3.769   0.048  -0.044  0.00  0.00     0.009 A 
ATOM     14  C   UNL d   1       4.454   1.270   0.063  0.00  0.00     0.017 A 
ATOM     15  C   UNL d   1       5.849   1.315  -0.015  0.00  0.00     0.025 A 
ATOM     16  C   UNL d   1       6.569   0.138  -0.200  0.00  0.00     0.034 A 
ATOM     17  C   UNL d   1       5.908  -1.085  -0.297  0.00  0.00     0.025 A 
ATOM     18 CL   UNL d   1       8.285   0.196  -0.315  0.00  0.00    -0.084 Cl
ATOM     19  C   UNL d   1       4.512  -1.129  -0.217  0.00  0.00     0.017 A 
ENDBRANCH   8  13
BRANCH   5  20
ATOM     20  C   UNL d   1      -3.383  -1.484  -0.007  0.00  0.00     0.418 C 
ATOM     21  F   UNL d   1      -4.459  -0.658   0.023  0.00  0.00    -0.166 F 
ATOM     22  F   UNL d   1      -3.506  -2.252  -1.118  0.00  0.00    -0.166 F 
ATOM     23  F   UNL d   1      -3.491  -2.311   1.062  0.00  0.00    -0.166 F 
ENDBRANCH   5  20
TORSDOF 2
