REMARK  4 active torsions:
REMARK  status: ('A' for Active; 'I' for Inactive)
REMARK       I    between atoms: C_2  and  N_5 
REMARK    1  A    between atoms: C_9  and  C_2 
REMARK    2  A    between atoms: N_5  and  C_16 
REMARK    3  A    between atoms: C_13  and  N_6 
REMARK    4  A    between atoms: C_17  and  C_13 
ROOT
ATOM      1  C   UNL d   1      -4.224  -3.637   3.202  0.00  0.00     0.035 A 
ATOM      2  C   UNL d   1      -3.075  -1.196   2.304  0.00  0.00    -0.030 A 
ATOM      3  C   UNL d   1      -3.174  -3.623   2.280  0.00  0.00     0.030 A 
ATOM      4  C   UNL d   1      -4.719  -2.405   3.648  0.00  0.00     0.030 A 
ATOM      5  C   UNL d   1      -4.151  -1.194   3.201  0.00  0.00     0.011 A 
ATOM      6  C   UNL d   1      -2.607  -2.427   1.839  0.00  0.00     0.011 A 
ENDROOT
BRANCH   1   7
ATOM      7  N   UNL d   1      -4.773  -4.840   3.727  0.00  0.00    -0.323 N 
ATOM      8  C   UNL d   1      -4.406  -6.121   3.335  0.00  0.00     0.256 C 
ATOM      9  O   UNL d   1      -3.680  -6.402   2.389  0.00  0.00    -0.267 OA
ATOM     10  H   UNL d   1      -5.501  -4.739   4.422  0.00  0.00     0.169 HD
BRANCH   8  11
ATOM     11  C   UNL d   1      -4.931  -7.277   4.115  0.00  0.00     0.032 A 
ATOM     12  C   UNL d   1      -5.014  -8.512   3.440  0.00  0.00     0.020 A 
ATOM     13  C   UNL d   1      -5.334  -9.682   4.126  0.00  0.00     0.043 A 
ATOM     14  C   UNL d   1      -5.573  -9.620   5.491  0.00  0.00     0.116 A 
ATOM     15  C   UNL d   1      -5.515  -8.407   6.175  0.00  0.00     0.043 A 
ATOM     16  F   UNL d   1      -5.840 -10.748   6.162  0.00  0.00    -0.206 F 
ATOM     17  C   UNL d   1      -5.193  -7.227   5.489  0.00  0.00     0.020 A 
ENDBRANCH   8  11
ENDBRANCH   1   7
BRANCH   2  18
ATOM     18  C   UNL d   1      -2.427   0.075   1.799  0.00  0.00     0.311 C 
BRANCH  18  19
ATOM     19  N   UNL d   1      -1.797   0.916   2.834  0.00  0.00     0.094 N 
ATOM     20  C   UNL d   1      -0.763   0.245   3.640  0.00  0.00     0.287 C 
ATOM     21  C   UNL d   1       0.487  -0.177   2.889  0.00  0.00     0.170 C 
ATOM     22  S   UNL d   1       1.248   1.216   2.094  0.00  0.00     0.147 S 
ATOM     23  C   UNL d   1      -0.114   2.038   1.311  0.00  0.00     0.170 C 
ATOM     24  O   UNL d   1       2.112   0.704   1.043  0.00  0.00    -0.228 OA
ATOM     25  O   UNL d   1       1.778   2.092   3.116  0.00  0.00    -0.228 OA
ATOM     26  C   UNL d   1      -1.281   2.182   2.277  0.00  0.00     0.287 C 
ENDBRANCH  18  19
ENDBRANCH   2  18
TORSDOF 4
