REMARK  6 active torsions:
REMARK  status: ('A' for Active; 'I' for Inactive)
REMARK    1  A    between atoms: C_6  and  C_1 
REMARK    2  A    between atoms: C_13  and  N_2 
REMARK    3  A    between atoms: C_8  and  C_3 
REMARK    4  A    between atoms: S_15  and  C_8 
REMARK    5  A    between atoms: C_12  and  C_16 
REMARK    6  A    between atoms: C_23  and  S_15 
ROOT
ATOM      1  C   UNL d   1      -0.308  -1.190   0.032  0.00  0.00     0.102 C 
ATOM      2  N   UNL d   1       1.010  -0.743   0.098  0.00  0.00    -0.253 N 
ATOM      3  C   UNL d   1      -1.117  -0.052  -0.116  0.00  0.00     0.076 C 
ATOM      4  N   UNL d   1       1.067   0.607   0.025  0.00  0.00    -0.297 N 
ATOM      5  HN  UNL d   1       1.880   1.202   0.186  1.00  0.00     0.187 HD
ATOM      6  C   UNL d   1      -0.165   0.995  -0.301  0.00  0.00     0.039 C 
ATOM      7  C   UNL d   1      -0.306   2.383  -0.816  0.00  0.00     0.071 C 
ENDROOT
BRANCH   2   8
ATOM      8  C   UNL d   1       2.257  -1.435   0.021  0.00  0.00     0.057 A 
ATOM      9  C   UNL d   1       2.398  -2.619  -0.712  0.00  0.00     0.047 A 
ATOM     10  C   UNL d   1       3.667  -3.202  -0.888  0.00  0.00     0.050 A 
ATOM     11  C   UNL d   1       4.787  -2.603  -0.288  0.00  0.00     0.016 A 
ATOM     12  C   UNL d   1       4.652  -1.427   0.447  0.00  0.00     0.003 A 
ATOM     13  C   UNL d   1       3.396  -0.834   0.584  0.00  0.00     0.031 A 
BRANCH  10  14
ATOM     14  C   UNL d   1       3.850  -4.427  -1.751  0.00  0.00     0.417 C 
ATOM     15  F   UNL d   1       2.692  -4.892  -2.297  0.00  0.00    -0.166 F 
ATOM     16  F   UNL d   1       4.684  -4.193  -2.805  0.00  0.00    -0.166 F 
ATOM     17  F   UNL d   1       4.394  -5.475  -1.073  0.00  0.00    -0.166 F 
ENDBRANCH  10  14
ENDBRANCH   2   8
BRANCH   1  18
ATOM     18  C   UNL d   1      -0.740  -2.615   0.198  0.00  0.00     0.087 A 
ATOM     19  N   UNL d   1      -0.051  -3.470   0.966  0.00  0.00    -0.259 N 
ATOM     20  O   UNL d   1      -0.738  -4.671   0.919  0.00  0.00    -0.242 OA
ATOM     21  HN  UNL d   1       0.807  -3.276   1.482  1.00  0.00     0.195 HD
ATOM     22  C   UNL d   1      -1.815  -4.540   0.104  0.00  0.00     0.074 A 
ATOM     23  C   UNL d   1      -1.836  -3.267  -0.406  0.00  0.00     0.068 A 
ATOM     24  C   UNL d   1      -2.690  -5.715  -0.053  0.00  0.00     0.079 C 
ENDBRANCH   1  18
BRANCH   3  25
ATOM     25  C   UNL d   1      -2.580   0.016  -0.087  0.00  0.00     0.228 C 
ATOM     26  O   UNL d   1      -3.321  -0.900  -0.434  0.00  0.00    -0.279 OA
BRANCH  25  27
ATOM     27  S   UNL d   1      -3.299   1.523   0.467  0.00  0.00    -0.047 SA
BRANCH  27  28
ATOM     28  C   UNL d   1      -4.037   1.146   2.050  0.00  0.00     0.008 A 
ATOM     29  C   UNL d   1      -4.278   2.236   2.902  0.00  0.00     0.019 A 
ATOM     30  C   UNL d   1      -4.774   2.048   4.196  0.00  0.00     0.001 A 
ATOM     31  C   UNL d   1      -5.053   0.764   4.651  0.00  0.00     0.000 A 
ATOM     32  C   UNL d   1      -4.878  -0.323   3.796  0.00  0.00     0.001 A 
ATOM     33  C   UNL d   1      -4.382  -0.133   2.499  0.00  0.00     0.019 A 
ENDBRANCH  27  28
ENDBRANCH  25  27
ENDBRANCH   3  25
TORSDOF 6
