REMARK  3 active torsions:
REMARK  status: ('A' for Active; 'I' for Inactive)
REMARK    1  A    between atoms: C_2  and  C_1 
REMARK    2  A    between atoms: C_4  and  C_2 
REMARK    3  A    between atoms: N_6  and  C_3 
ROOT
ATOM      1  C   UNL d   1      -1.096   1.098   0.889  0.00  0.00     0.014 A 
ATOM      2  C   UNL d   1      -1.794   1.335   2.082  0.00  0.00     0.017 A 
ATOM      3  C   UNL d   1      -1.788   1.129  -0.330  0.00  0.00     0.017 A 
ATOM      4  C   UNL d   1      -3.850   1.599   0.844  0.00  0.00     0.034 A 
ATOM      5  C   UNL d   1      -3.165   1.374  -0.350  0.00  0.00     0.025 A 
ATOM      6  C   UNL d   1      -3.171   1.580   2.060  0.00  0.00     0.025 A 
ATOM      7 CL   UNL d   1      -5.540   1.917   0.811  0.00  0.00    -0.084 Cl
ENDROOT
BRANCH   1   8
ATOM      8  C   UNL d   1       0.373   0.859   0.972  0.00  0.00     0.183 C 
ATOM      9  O   UNL d   1       1.018   1.336   1.900  0.00  0.00    -0.288 OA
BRANCH   8  10
ATOM     10  C   UNL d   1       0.992  -0.002  -0.071  0.00  0.00     0.072 C 
ATOM     11  C   UNL d   1       2.320  -0.161  -0.131  0.00  0.00     0.088 C 
BRANCH  11  12
ATOM     12  N   UNL d   1       3.079  -0.913  -1.018  0.00  0.00    -0.398 N 
ATOM     13  C   UNL d   1       2.535  -1.677  -2.139  0.00  0.00     0.148 C 
ATOM     14  C   UNL d   1       4.534  -1.021  -0.880  0.00  0.00     0.148 C 
ENDBRANCH  11  12
ENDBRANCH   8  10
ENDBRANCH   1   8
TORSDOF 3
