REMARK  4 active torsions:
REMARK  status: ('A' for Active; 'I' for Inactive)
REMARK    1  A    between atoms: C_2  and  C_1 
REMARK    2  A    between atoms: C_12  and  C_3 
REMARK    3  A    between atoms: C_16  and  C_3 
REMARK    4  A    between atoms: O_15  and  C_7 
ROOT
ATOM      1  C   UNL d   1      -2.318   0.621  -0.268  0.00  0.00     0.237 C 
ATOM      2  C   UNL d   1      -1.239  -1.520  -0.237  0.00  0.00     0.119 C 
ATOM      3  O   UNL d   1      -2.422  -0.749   0.067  0.00  0.00    -0.346 OA
ATOM      4  N   UNL d   1      -1.261   1.246   0.503  0.00  0.00    -0.262 NA
ATOM      5  C   UNL d   1       0.052  -0.685  -0.192  0.00  0.00     0.002 A 
ATOM      6  C   UNL d   1      -0.018   0.672   0.162  0.00  0.00     0.020 A 
ATOM      7  C   UNL d   1       1.311  -1.259  -0.447  0.00  0.00     0.012 A 
ATOM      8  C   UNL d   1       1.156   1.418   0.303  0.00  0.00     0.024 A 
ATOM      9  C   UNL d   1       2.474  -0.496  -0.344  0.00  0.00     0.001 A 
ATOM     10  C   UNL d   1       2.397   0.842   0.031  0.00  0.00     0.002 A 
ATOM     11  H   UNL d   1      -1.238   2.255   0.359  0.00  0.00     0.130 HD
ENDROOT
BRANCH   1  12
ATOM     12  C   UNL d   1      -3.638   1.306   0.033  0.00  0.00     0.021 A 
ATOM     13  C   UNL d   1      -4.083   1.580   1.338  0.00  0.00     0.097 A 
ATOM     14  C   UNL d   1      -5.309   2.227   1.553  0.00  0.00     0.069 A 
ATOM     15 CL   UNL d   1      -5.871   2.587   3.146  0.00  0.00    -0.081 Cl
ATOM     16  C   UNL d   1      -6.101   2.618   0.474  0.00  0.00     0.050 A 
ATOM     17  C   UNL d   1      -5.669   2.351  -0.820  0.00  0.00     0.036 A 
ATOM     18  C   UNL d   1      -4.459   1.696  -1.044  0.00  0.00     0.038 A 
ATOM     19 CL   UNL d   1      -6.625   2.848  -2.162  0.00  0.00    -0.084 Cl
BRANCH  13  20
ATOM     20  O   UNL d   1      -3.313   1.249   2.423  0.00  0.00    -0.358 OA
ATOM     21  H   UNL d   1      -2.446   0.923   2.101  0.00  0.00     0.217 HD
ENDBRANCH  13  20
ENDBRANCH   1  12
BRANCH   2  22
ATOM     22  C   UNL d   1      -1.166  -2.613   0.871  0.00  0.00    -0.019 A 
ATOM     23  C   UNL d   1      -1.204  -3.996   0.602  0.00  0.00     0.010 A 
ATOM     24  C   UNL d   1      -1.049  -4.943   1.619  0.00  0.00     0.001 A 
ATOM     25  C   UNL d   1      -0.853  -4.533   2.933  0.00  0.00     0.000 A 
ATOM     26  C   UNL d   1      -0.831  -3.175   3.233  0.00  0.00     0.001 A 
ATOM     27  C   UNL d   1      -0.993  -2.227   2.217  0.00  0.00     0.010 A 
ENDBRANCH   2  22
BRANCH   2  28
ATOM     28  C   UNL d   1      -1.443  -2.162  -1.651  0.00  0.00     0.044 C 
ATOM     29  C   UNL d   1      -1.597  -1.222  -2.841  0.00  0.00     0.009 C 
ENDBRANCH   2  28
TORSDOF 4
