REMARK  4 active torsions:
REMARK  status: ('A' for Active; 'I' for Inactive)
REMARK    1  A    between atoms: N_2  and  C_1 
REMARK    2  A    between atoms: O_10  and  C_3 
REMARK    3  A    between atoms: O_11  and  C_4 
REMARK    4  A    between atoms: O_12  and  C_9 
ROOT
ATOM      1  C   UNL d   1       1.343  -0.222   0.268  0.00  0.00     0.169 A 
ATOM      2  C   UNL d   1       0.485  -1.332   0.234  0.00  0.00     0.106 A 
ATOM      3  C   UNL d   1       0.874   1.091   0.122  0.00  0.00     0.106 A 
ATOM      4  C   UNL d   1      -0.490   1.277  -0.116  0.00  0.00     0.076 A 
ATOM      5  C   UNL d   1      -0.877  -1.114  -0.016  0.00  0.00     0.076 A 
ATOM      6  C   UNL d   1      -1.361   0.185  -0.191  0.00  0.00     0.073 A 
ENDROOT
BRANCH   1   7
ATOM      7  N   UNL d   1       2.751  -0.434   0.510  0.00  0.00    -0.110 N 
ATOM      8  O   UNL d   1       3.417  -0.923  -0.417  0.00  0.00    -0.532 OA
ATOM      9  O   UNL d   1       3.192  -0.121   1.625  0.00  0.00    -0.532 OA
ENDBRANCH   1   7
BRANCH   2  10
ATOM     10  O   UNL d   1       1.032  -2.569   0.443  0.00  0.00    -0.353 OA
ATOM     11  C   UNL d   1       0.150  -3.612   0.844  0.00  0.00     0.210 C 
ENDBRANCH   2  10
BRANCH   3  12
ATOM     12  O   UNL d   1       1.780   2.115   0.189  0.00  0.00    -0.353 OA
ATOM     13  C   UNL d   1       1.260   3.407   0.494  0.00  0.00     0.210 C 
ENDBRANCH   3  12
BRANCH   6  14
ATOM     14  O   UNL d   1      -2.670   0.526  -0.405  0.00  0.00    -0.356 OA
ATOM     15  C   UNL d   1      -3.536  -0.497  -0.880  0.00  0.00     0.210 C 
ENDBRANCH   6  14
TORSDOF 4
