REMARK  3 active torsions:
REMARK  status: ('A' for Active; 'I' for Inactive)
REMARK    1  A    between atoms: C_7  and  C_1 
REMARK    2  A    between atoms: O_11  and  C_7 
REMARK    3  A    between atoms: C_14  and  O_11 
ROOT
ATOM      1  C   UNL d   1      -1.888   0.036   0.175  0.00  0.00     0.137 A 
ATOM      2  C   UNL d   1      -0.871  -0.844   0.078  0.00  0.00     0.069 A 
ATOM      3  C   UNL d   1      -1.620   1.493   0.183  0.00  0.00     0.306 A 
ATOM      4  O   UNL d   1      -0.302   1.900   0.023  0.00  0.00    -0.274 OA
ATOM      5  C   UNL d   1       0.526  -0.383   0.043  0.00  0.00     0.021 A 
ATOM      6  C   UNL d   1       0.759   0.988   0.007  0.00  0.00     0.091 A 
ATOM      7  O   UNL d   1      -2.497   2.335   0.323  0.00  0.00    -0.259 OA
ATOM      8 CL   UNL d   1      -1.123  -2.562  -0.072  0.00  0.00    -0.082 Cl
ATOM      9  C   UNL d   1       1.650  -1.223   0.056  0.00  0.00     0.016 A 
ATOM     10  C   UNL d   1       2.044   1.532  -0.023  0.00  0.00     0.038 A 
ATOM     11  C   UNL d   1       2.947  -0.696   0.032  0.00  0.00     0.001 A 
ATOM     12  C   UNL d   1       3.144   0.681  -0.009  0.00  0.00     0.003 A 
ENDROOT
BRANCH   1  13
ATOM     13  C   UNL d   1      -3.291  -0.439   0.244  0.00  0.00     0.301 C 
ATOM     14  O   UNL d   1      -3.659  -1.465   0.804  0.00  0.00    -0.259 OA
BRANCH  13  15
ATOM     15  O   UNL d   1      -4.091   0.384  -0.472  0.00  0.00    -0.318 OA
BRANCH  15  16
ATOM     16  C   UNL d   1      -5.415  -0.083  -0.763  0.00  0.00     0.174 C 
ATOM     17  C   UNL d   1      -5.404  -0.505  -2.218  0.00  0.00     0.034 C 
ENDBRANCH  15  16
ENDBRANCH  13  15
ENDBRANCH   1  13
TORSDOF 3
