REMARK  3 active torsions:
REMARK  status: ('A' for Active; 'I' for Inactive)
REMARK    1  A    between atoms: C_3  and  C_9 
REMARK    2  A    between atoms: C_5  and  C_7 
REMARK       I    between atoms: N_8  and  C_5 
REMARK    3  A    between atoms: C_9  and  N_8 
ROOT
ATOM      1  N   UNL d   1       6.490  -1.851  -0.651  0.00  0.00    -0.197 NA
ATOM      2  C   UNL d   1       6.211  -1.151  -1.533  0.00  0.00     0.068 C 
ATOM      3  C   UNL d   1       5.838  -0.303  -2.665  0.00  0.00     0.226 C 
ENDROOT
BRANCH   3   4
ATOM      4  C   UNL d   1       4.343  -0.076  -2.767  0.00  0.00     0.230 C 
ATOM      5  N   UNL d   1       3.522  -1.127  -2.429  0.00  0.00    -0.356 N 
ATOM      6  H   UNL d   1       3.903  -2.018  -2.132  0.00  0.00     0.162 HD
ATOM      7  O   UNL d   1       3.901   0.988  -3.200  0.00  0.00    -0.273 OA
BRANCH   5   8
ATOM      8  C   UNL d   1       2.078  -1.009  -2.433  0.00  0.00     0.164 C 
BRANCH   8   9
ATOM      9  C   UNL d   1       1.474  -1.533  -3.706  0.00  0.00    -0.002 A 
ATOM     10  C   UNL d   1       1.054  -2.865  -3.799  0.00  0.00     0.127 A 
ATOM     11  C   UNL d   1       0.492  -3.370  -4.966  0.00  0.00     0.085 A 
ATOM     12  F   UNL d   1       1.190  -3.680  -2.743  0.00  0.00    -0.205 F 
ATOM     13  C   UNL d   1       0.354  -2.530  -6.061  0.00  0.00     0.119 A 
ATOM     14  C   UNL d   1       0.767  -1.202  -6.005  0.00  0.00     0.043 A 
ATOM     15  F   UNL d   1      -0.182  -3.005  -7.193  0.00  0.00    -0.206 F 
ATOM     16  C   UNL d   1       1.330  -0.703  -4.828  0.00  0.00     0.015 A 
ENDBRANCH   8   9
ENDBRANCH   5   8
ENDBRANCH   3   4
TORSDOF 3
