REMARK  4 active torsions:
REMARK  status: ('A' for Active; 'I' for Inactive)
REMARK    1  A    between atoms: CA_2  and  C_7 
REMARK    2  A    between atoms: C_9  and  C_3 
REMARK    3  A    between atoms: N_4  and  C_8 
REMARK    4  A    between atoms: OXT_14  and  C_7 
ROOT
ATOM      1  N   UNL d   1      -1.416   1.289  -0.001  0.00  0.00     0.118 N 
ATOM      2  CA  UNL d   1      -0.052   1.391  -0.610  0.00  0.00     0.336 C 
ATOM      3  C   UNL d   1      -1.782  -0.139   0.012  0.00  0.00     0.317 C 
ATOM      4  S   UNL d   1      -0.276  -1.140   0.053  0.00  0.00    -0.117 SA
ATOM      5  C   UNL d   1       0.856   0.293  -0.024  0.00  0.00     0.044 C 
ATOM      6  C   UNL d   1       1.363   0.550   1.401  0.00  0.00     0.029 C 
ATOM      7  C   UNL d   1       2.026  -0.031  -0.957  0.00  0.00     0.029 C 
ATOM      8  H   UNL d   1      -2.087   1.753  -0.620  0.00  0.00     0.319 HD
ENDROOT
BRANCH   3   9
ATOM      9  C   UNL d   1      -2.717  -0.466   1.159  0.00  0.00    -0.013 A 
ATOM     10  C   UNL d   1      -3.693  -1.468   1.006  0.00  0.00     0.046 A 
ATOM     11  C   UNL d   1      -4.573  -1.764   2.061  0.00  0.00     0.103 A 
ATOM     12  C   UNL d   1      -4.487  -1.080   3.278  0.00  0.00     0.036 A 
ATOM     13  C   UNL d   1      -3.509  -0.106   3.445  0.00  0.00     0.003 A 
ATOM     14  C   UNL d   1      -2.630   0.193   2.401  0.00  0.00     0.010 A 
BRANCH  11  15
ATOM     15  N   UNL d   1      -5.605  -2.793   1.879  0.00  0.00    -0.116 N 
ATOM     16  O   UNL d   1      -5.687  -3.331   0.768  0.00  0.00    -0.532 OA
ATOM     17  O   UNL d   1      -6.337  -3.053   2.845  0.00  0.00    -0.532 OA
ENDBRANCH  11  15
ENDBRANCH   3   9
BRANCH   2  18
ATOM     18  C   UNL d   1       0.505   2.794  -0.335  0.00  0.00     0.175 C 
ATOM     19  O   UNL d   1       1.550   3.232  -0.786  0.00  0.00    -0.648 OA
BRANCH  18  20
ATOM     20  OXT UNL d   1      -0.300   3.513   0.491  0.00  0.00    -0.775 OA
ATOM     21  HXT UNL d   1      -1.046   2.924   0.759  0.00  0.00     0.167 HD
ENDBRANCH  18  20
ENDBRANCH   2  18
TORSDOF 4
