REMARK  6 active torsions:
REMARK  status: ('A' for Active; 'I' for Inactive)
REMARK    1  A    between atoms: C_6  and  C_1 
REMARK    2  A    between atoms: S_2  and  N_11 
REMARK    3  A    between atoms: C_8  and  S_2 
REMARK       I    between atoms: N_13  and  C_6 
REMARK    4  A    between atoms: N_11  and  C_17 
REMARK    5  A    between atoms: C_23  and  N_13 
REMARK    6  A    between atoms: C_17  and  C_23 
ROOT
ATOM      1  C   UNL d   1       5.304   3.013  -0.165  0.00  0.00     0.152 C 
ENDROOT
BRANCH   1   2
ATOM      2  N   UNL d   1       6.247   4.132  -0.277  0.00  0.00    -0.314 N 
ATOM      3  H   UNL d   1       6.026   4.891  -0.922  0.00  0.00     0.172 HD
BRANCH   2   4
ATOM      4  S   UNL d   1       7.897   3.782  -0.251  0.00  0.00     0.258 S 
ATOM      5  O   UNL d   1       8.585   4.991  -0.637  0.00  0.00    -0.201 OA
ATOM      6  O   UNL d   1       8.173   3.090   0.989  0.00  0.00    -0.201 OA
BRANCH   4   7
ATOM      7  C   UNL d   1       8.070   2.618  -1.586  0.00  0.00     0.079 A 
ATOM      8  C   UNL d   1       7.700   3.008  -2.879  0.00  0.00     0.027 A 
ATOM      9  C   UNL d   1       7.781   2.085  -3.923  0.00  0.00     0.025 A 
ATOM     10  C   UNL d   1       8.244   0.792  -3.672  0.00  0.00     0.034 A 
ATOM     11  C   UNL d   1       8.622   0.410  -2.384  0.00  0.00     0.025 A 
ATOM     12 CL   UNL d   1       8.352  -0.339  -4.963  0.00  0.00    -0.084 Cl
ATOM     13  C   UNL d   1       8.534   1.325  -1.332  0.00  0.00     0.027 A 
ENDBRANCH   4   7
ENDBRANCH   2   4
ENDBRANCH   1   2
BRANCH   1  14
ATOM     14  C   UNL d   1       3.865   3.528  -0.053  0.00  0.00     0.143 C 
BRANCH  14  15
ATOM     15  N   UNL d   1       2.895   2.447  -0.029  0.00  0.00    -0.355 N 
ATOM     16  C   UNL d   1       2.486   1.841  -1.198  0.00  0.00     0.254 C 
ATOM     17  O   UNL d   1       2.893   2.213  -2.295  0.00  0.00    -0.268 OA
ATOM     18  H   UNL d   1       2.741   1.962   0.843  0.00  0.00     0.162 HD
BRANCH  16  19
ATOM     19  C   UNL d   1       1.613   0.682  -1.059  0.00  0.00     0.063 A 
ATOM     20  C   UNL d   1       0.728   0.340  -0.044  0.00  0.00     0.065 A 
ATOM     21  O   UNL d   1       0.112  -0.842  -0.338  0.00  0.00    -0.319 OA
ATOM     22  C   UNL d   1       0.263   0.949   1.221  0.00  0.00     0.077 C 
ATOM     23  C   UNL d   1       0.562  -1.258  -1.548  0.00  0.00     0.050 A 
ATOM     24  C   UNL d   1       1.474  -0.353  -2.038  0.00  0.00     0.051 A 
ATOM     25  C   UNL d   1      -0.004  -2.520  -2.061  0.00  0.00     0.076 C 
ENDBRANCH  16  19
ENDBRANCH  14  15
ENDBRANCH   1  14
TORSDOF 6
