REMARK  5 active torsions:
REMARK  status: ('A' for Active; 'I' for Inactive)
REMARK    1  A    between atoms: N_5  and  C_3 
REMARK       I    between atoms: C_4  and  N_5 
REMARK    2  A    between atoms: C_6  and  C_4 
REMARK    3  A    between atoms: C_7  and  C_6 
REMARK    4  A    between atoms: N_16  and  C_7 
REMARK    5  A    between atoms: O_18  and  N_9 
ROOT
ATOM      1  C   UNL d   1      -0.494   2.061  -0.149  0.00  0.00     0.228 C 
ATOM      2  N   UNL d   1       0.263   1.013  -0.653  0.00  0.00    -0.324 N 
ATOM      3  O   UNL d   1      -1.628   1.967   0.309  0.00  0.00    -0.273 OA
ATOM      4  H   UNL d   1       1.266   1.174  -0.637  0.00  0.00     0.169 HD
ENDROOT
BRANCH   1   5
ATOM      5  C   UNL d   1       0.175   3.414  -0.232  0.00  0.00     0.174 C 
BRANCH   5   6
ATOM      6  C   UNL d   1       1.622   3.502   0.199  0.00  0.00     0.083 C 
ATOM      7  N   UNL d   1       2.125   2.555   0.936  0.00  0.00    -0.262 N 
ATOM      8  HN  UNL d   1       1.621   1.717   1.227  1.00  0.00     0.195 HD
BRANCH   7   9
ATOM      9  O   UNL d   1       3.456   2.844   1.278  0.00  0.00    -0.289 OA
ATOM     10  H   UNL d   1       3.663   2.143   1.924  0.00  0.00     0.244 HD
ENDBRANCH   7   9
BRANCH   6  11
ATOM     11  N   UNL d   1       2.336   4.609  -0.189  0.00  0.00    -0.290 NA
ATOM     12  H   UNL d   1       1.823   5.479  -0.279  0.00  0.00     0.125 HD
ATOM     13  H   UNL d   1       3.196   4.699   0.346  0.00  0.00     0.125 HD
ENDBRANCH   6  11
ENDBRANCH   5   6
ENDBRANCH   1   5
BRANCH   2  14
ATOM     14  C   UNL d   1      -0.157  -0.336  -0.719  0.00  0.00     0.077 A 
ATOM     15  C   UNL d   1      -1.491  -0.750  -0.857  0.00  0.00     0.184 A 
ATOM     16  C   UNL d   1      -1.819  -2.101  -0.808  0.00  0.00     0.195 A 
ATOM     17  F   UNL d   1      -2.470   0.126  -1.123  0.00  0.00    -0.200 F 
ATOM     18  C   UNL d   1      -0.822  -3.053  -0.659  0.00  0.00     0.158 A 
ATOM     19  F   UNL d   1      -3.099  -2.487  -0.921  0.00  0.00    -0.199 F 
ATOM     20  F   UNL d   1      -1.134  -4.354  -0.594  0.00  0.00    -0.203 F 
ATOM     21  C   UNL d   1       0.514  -2.671  -0.594  0.00  0.00     0.048 A 
ATOM     22  C   UNL d   1       0.848  -1.314  -0.635  0.00  0.00     0.036 A 
ENDBRANCH   2  14
TORSDOF 5
