REMARK  4 active torsions:
REMARK  status: ('A' for Active; 'I' for Inactive)
REMARK    1  A    between atoms: C_5  and  C_1 
REMARK    2  A    between atoms: C_6  and  C_1 
REMARK    3  A    between atoms: N_4  and  C_2 
REMARK    4  A    between atoms: C_8  and  N_4 
ROOT
ATOM      1  N   UNL d   1       0.983  -2.302  -0.306  0.00  0.00    -0.385 N 
ATOM      2  H   UNL d   1       1.791  -2.213  -0.945  0.00  0.00     0.159 HD
ENDROOT
BRANCH   1   3
ATOM      3  C   UNL d   1       0.400  -1.096   0.042  0.00  0.00     0.102 C 
ATOM      4  C   UNL d   1      -0.071  -0.056  -0.684  0.00  0.00     0.070 C 
BRANCH   4   5
ATOM      5  C   UNL d   1      -0.666   1.108   0.045  0.00  0.00     0.160 C 
ATOM      6  O   UNL d   1      -0.764   2.205  -0.529  0.00  0.00    -0.293 OA
ATOM      7  C   UNL d   1      -1.163   0.994   1.469  0.00  0.00     0.097 C 
ENDBRANCH   4   5
BRANCH   4   8
ATOM      8  C   UNL d   1       0.015  -0.092  -2.187  0.00  0.00     0.160 C 
ATOM      9  O   UNL d   1       0.838  -0.831  -2.751  0.00  0.00    -0.293 OA
ATOM     10  C   UNL d   1      -0.914   0.724  -3.044  0.00  0.00     0.097 C 
ENDBRANCH   4   8
ENDBRANCH   1   3
BRANCH   1  11
ATOM     11  C   UNL d   1       0.238  -3.553  -0.598  0.00  0.00     0.173 C 
ATOM     12  C   UNL d   1       1.235  -4.614  -1.118  0.00  0.00     0.240 C 
ATOM     13  N   UNL d   1       0.787  -5.895  -1.278  0.00  0.00    -0.359 N 
ATOM     14  O   UNL d   1       2.407  -4.354  -1.402  0.00  0.00    -0.271 OA
ATOM     15  C   UNL d   1      -0.510  -6.408  -0.906  0.00  0.00     0.122 C 
ATOM     16  H   UNL d   1       1.495  -6.534  -1.621  0.00  0.00     0.162 HD
ATOM     17  C   UNL d   1      -1.627  -5.858  -1.783  0.00  0.00     0.020 C 
ATOM     18  C   UNL d   1      -2.022  -4.422  -1.443  0.00  0.00     0.004 C 
ATOM     19  C   UNL d   1      -0.905  -3.382  -1.614  0.00  0.00     0.035 C 
ENDBRANCH   1  11
TORSDOF 4
