REMARK  7 active torsions:
REMARK  status: ('A' for Active; 'I' for Inactive)
REMARK    1  A    between atoms: N_2  and  C_1 
REMARK    2  A    between atoms: C_3  and  C_1 
REMARK    3  A    between atoms: C_4  and  C_1 
REMARK    4  A    between atoms: N_6  and  C_1 
REMARK       I    between atoms: C_5  and  N_2 
REMARK    5  A    between atoms: C_8  and  C_5 
REMARK    6  A    between atoms: C_15  and  N_6 
REMARK    7  A    between atoms: C_16  and  C_15 
ROOT
ATOM      1  C   UNL d   1       1.022   0.045   0.017  0.00  0.00     0.426 C 
ENDROOT
BRANCH   1   2
ATOM      2  N   UNL d   1       0.620  -0.833   1.177  0.00  0.00    -0.307 N 
ATOM      3  C   UNL d   1       0.577  -0.427   2.489  0.00  0.00     0.254 C 
ATOM      4  O   UNL d   1       0.788   0.735   2.809  0.00  0.00    -0.268 OA
ATOM      5  H   UNL d   1       0.416  -1.798   0.935  0.00  0.00     0.166 HD
BRANCH   3   6
ATOM      6  C   UNL d   1       0.310  -1.447   3.547  0.00  0.00     0.032 A 
ATOM      7  C   UNL d   1       0.304  -2.829   3.325  0.00  0.00     0.017 A 
ATOM      8  C   UNL d   1       0.069  -3.709   4.389  0.00  0.00     0.001 A 
ATOM      9  C   UNL d   1      -0.150  -3.224   5.675  0.00  0.00     0.000 A 
ATOM     10  C   UNL d   1      -0.127  -1.845   5.909  0.00  0.00     0.001 A 
ATOM     11  C   UNL d   1       0.103  -0.967   4.850  0.00  0.00     0.017 A 
ENDBRANCH   3   6
ENDBRANCH   1   2
BRANCH   1  12
ATOM     12  C   UNL d   1       0.358   1.491   0.008  0.00  0.00     0.452 C 
ATOM     13  F   UNL d   1      -0.658   1.605   0.908  0.00  0.00    -0.166 F 
ATOM     14  F   UNL d   1       1.258   2.462   0.300  0.00  0.00    -0.166 F 
ATOM     15  F   UNL d   1      -0.166   1.869  -1.176  0.00  0.00    -0.166 F 
ENDBRANCH   1  12
BRANCH   1  16
ATOM     16  C   UNL d   1       0.501  -0.673  -1.308  0.00  0.00     0.452 C 
ATOM     17  F   UNL d   1       0.015  -1.915  -0.996  0.00  0.00    -0.166 F 
ATOM     18  F   UNL d   1      -0.478  -0.069  -2.000  0.00  0.00    -0.166 F 
ATOM     19  F   UNL d   1       1.519  -0.893  -2.183  0.00  0.00    -0.166 F 
ENDBRANCH   1  16
BRANCH   1  20
ATOM     20  N   UNL d   1       2.547  -0.026   0.032  0.00  0.00     0.136 N 
ATOM     21  H   UNL d   1       2.883   0.464  -0.804  0.00  0.00     0.320 HD
BRANCH  20  22
ATOM     22  C   UNL d   1       3.198   0.578   1.192  0.00  0.00     0.312 C 
BRANCH  22  23
ATOM     23  C   UNL d   1       4.700   0.644   1.030  0.00  0.00    -0.030 A 
ATOM     24  C   UNL d   1       5.317   1.786   0.501  0.00  0.00     0.009 A 
ATOM     25  C   UNL d   1       6.710   1.869   0.441  0.00  0.00     0.001 A 
ATOM     26  C   UNL d   1       7.495   0.812   0.901  0.00  0.00     0.000 A 
ATOM     27  C   UNL d   1       6.891  -0.336   1.408  0.00  0.00     0.001 A 
ATOM     28  C   UNL d   1       5.500  -0.424   1.465  0.00  0.00     0.009 A 
ENDBRANCH  22  23
ENDBRANCH  20  22
ENDBRANCH   1  20
TORSDOF 7
