REMARK  3 active torsions:
REMARK  status: ('A' for Active; 'I' for Inactive)
REMARK    1  A    between atoms: S_19  and  C_3 
REMARK    2  A    between atoms: C_6  and  C_4 
REMARK       I    between atoms: C_13  and  N_9 
REMARK    3  A    between atoms: O_21  and  N_17 
ROOT
ATOM      1  C   UNL d   1       0.136  -0.769   0.025  0.00  0.00     0.020 A 
ATOM      2  C   UNL d   1       0.452   0.672  -0.019  0.00  0.00    -0.024 A 
ATOM      3  C   UNL d   1       1.273  -1.560   0.005  0.00  0.00     0.054 A 
ATOM      4  C   UNL d   1       1.821   0.890  -0.074  0.00  0.00     0.041 A 
ATOM      5  S   UNL d   1       2.677  -0.592  -0.112  0.00  0.00    -0.080 SA
ATOM      6  C   UNL d   1      -1.263  -1.193   0.122  0.00  0.00     0.045 C 
ATOM      7  C   UNL d   1      -0.647   1.725   0.004  0.00  0.00     0.050 C 
ATOM      8  C   UNL d   1      -2.055   1.158   0.371  0.00  0.00    -0.038 C 
ATOM      9  C   UNL d   1      -2.280  -0.177  -0.369  0.00  0.00     0.069 C 
ATOM     10  N   UNL d   1      -1.555  -2.330   0.671  0.00  0.00    -0.271 N 
ATOM     11  HN  UNL d   1      -0.861  -2.980   1.040  1.00  0.00     0.194 HD
ATOM     12  C   UNL d   1      -3.160   2.137  -0.068  0.00  0.00     0.015 C 
ATOM     13  C   UNL d   1      -2.185   0.963   1.899  0.00  0.00     0.015 C 
ENDROOT
BRANCH   4  14
ATOM     14  C   UNL d   1       2.591   2.202  -0.086  0.00  0.00     0.067 A 
ATOM     15  N   UNL d   1       2.048   3.427  -0.004  0.00  0.00    -0.291 N 
ATOM     16  N   UNL d   1       3.118   4.280   0.044  0.00  0.00    -0.235 N 
ATOM     17  HN  UNL d   1       1.057   3.668   0.018  1.00  0.00     0.187 HD
ATOM     18  C   UNL d   1       3.001   5.671   0.241  0.00  0.00     0.238 C 
ATOM     19  C   UNL d   1       4.311   3.608  -0.098  0.00  0.00     0.122 A 
ATOM     20  O   UNL d   1       4.017   6.357   0.275  0.00  0.00    -0.272 OA
ATOM     21  C   UNL d   1       1.621   6.226   0.406  0.00  0.00     0.119 C 
ATOM     22  C   UNL d   1       4.007   2.277  -0.159  0.00  0.00     0.051 A 
ENDBRANCH   4  14
BRANCH   3  23
ATOM     23  S   UNL d   1       1.554  -3.297   0.144  0.00  0.00    -0.126 SA
ATOM     24  C   UNL d   1       0.330  -4.092  -0.900  0.00  0.00     0.096 C 
ENDBRANCH   3  23
BRANCH  10  25
ATOM     25  O   UNL d   1      -2.938  -2.559   0.698  0.00  0.00    -0.285 OA
ATOM     26  C   UNL d   1      -3.185  -3.804   1.339  0.00  0.00     0.237 C 
ENDBRANCH  10  25
TORSDOF 3
