REMARK  2 active torsions:
REMARK  status: ('A' for Active; 'I' for Inactive)
REMARK       I    between atoms: N_2  and  C_1 
REMARK    1  A    between atoms: C_4  and  C_1 
REMARK       I    between atoms: C_3  and  N_2 
REMARK       I    between atoms: N_6  and  C_3 
REMARK    2  A    between atoms: C_5  and  N_6 
ROOT
ATOM      1  C   UNL d   1       0.642   0.172   0.575  0.00  0.00     0.264 C 
ATOM      2  N   UNL d   1       0.385   1.007  -0.505  0.00  0.00    -0.275 N 
ATOM      3  C   UNL d   1       0.980   2.207  -0.840  0.00  0.00     0.328 C 
ATOM      4  N   UNL d   1       2.033   2.576  -0.052  0.00  0.00    -0.293 N 
ATOM      5  O   UNL d   1       1.524   0.421   1.389  0.00  0.00    -0.267 OA
ATOM      6  O   UNL d   1       0.510   2.823  -1.794  0.00  0.00    -0.247 OA
ATOM      7  H   UNL d   1      -0.410   0.819  -1.102  0.00  0.00     0.173 HD
ATOM      8  H   UNL d   1       2.326   1.920   0.665  0.00  0.00     0.172 HD
ENDROOT
BRANCH   1   9
ATOM      9  C   UNL d   1      -0.202  -1.057   0.683  0.00  0.00     0.092 A 
ATOM     10  C   UNL d   1       0.244  -2.227   1.320  0.00  0.00     0.052 A 
ATOM     11 CL   UNL d   1       1.817  -2.406   2.019  0.00  0.00    -0.083 Cl
ATOM     12  C   UNL d   1      -0.583  -3.360   1.378  0.00  0.00     0.025 A 
ATOM     13  C   UNL d   1      -1.857  -3.346   0.811  0.00  0.00     0.005 A 
ATOM     14  C   UNL d   1      -2.312  -2.190   0.189  0.00  0.00     0.043 A 
ATOM     15  C   UNL d   1      -1.491  -1.065   0.134  0.00  0.00     0.133 A 
ATOM     16  F   UNL d   1      -1.978   0.023  -0.482  0.00  0.00    -0.205 F 
ENDBRANCH   1   9
BRANCH   4  17
ATOM     17  C   UNL d   1       2.630   3.819  -0.062  0.00  0.00     0.132 A 
ATOM     18  N   UNL d   1       2.269   4.856  -0.825  0.00  0.00    -0.245 N 
ATOM     19  O   UNL d   1       3.040   5.925  -0.418  0.00  0.00    -0.241 OA
ATOM     20  HN  UNL d   1       1.564   4.856  -1.562  1.00  0.00     0.196 HD
ATOM     21  C   UNL d   1       3.876   5.526   0.574  0.00  0.00     0.076 A 
ATOM     22  C   UNL d   1       3.690   4.185   0.803  0.00  0.00     0.084 A 
ATOM     23  C   UNL d   1       4.717   6.571   1.179  0.00  0.00     0.079 C 
ENDBRANCH   4  17
TORSDOF 2
