REMARK  6 active torsions:
REMARK  status: ('A' for Active; 'I' for Inactive)
REMARK    1  A    between atoms: C_11  and  C_1 
REMARK    2  A    between atoms: C_12  and  C_6 
REMARK    3  A    between atoms: O_16  and  C_11 
REMARK    4  A    between atoms: O_17  and  C_12 
REMARK    5  A    between atoms: C_19  and  O_16 
REMARK    6  A    between atoms: C_20  and  O_17 
ROOT
ATOM      1  C   UNL d   1      -2.388   0.435   0.038  0.00  0.00     0.109 A 
ATOM      2  C   UNL d   1      -0.374  -0.765   0.136  0.00  0.00     0.027 A 
ATOM      3  C   UNL d   1       0.077   0.544   0.090  0.00  0.00     0.087 A 
ATOM      4  S   UNL d   1      -1.195   1.670   0.059  0.00  0.00    -0.063 SA
ATOM      5  C   UNL d   1      -1.803  -0.817   0.114  0.00  0.00     0.062 A 
ATOM      6  C   UNL d   1       1.969  -1.408   0.104  0.00  0.00     0.062 A 
ATOM      7  N   UNL d   1       1.361   0.950   0.060  0.00  0.00    -0.353 N 
ATOM      8  HN  UNL d   1       1.620   1.936   0.044  1.00  0.00     0.166 HD
ATOM      9  C   UNL d   1       0.614  -1.768   0.163  0.00  0.00     0.036 A 
ATOM     10  C   UNL d   1       2.288  -0.045   0.052  0.00  0.00     0.022 A 
ATOM     11  N   UNL d   1      -2.504  -1.974   0.122  0.00  0.00    -0.397 N 
ATOM     12  C   UNL d   1       3.707   0.448  -0.035  0.00  0.00     0.069 C 
ATOM     13  H   UNL d   1      -2.079  -2.885  -0.015  0.00  0.00     0.156 HD
ATOM     14  H   UNL d   1      -3.519  -1.973  -0.016  0.00  0.00     0.156 HD
ENDROOT
BRANCH   1  15
ATOM     15  C   UNL d   1      -3.802   0.728  -0.106  0.00  0.00     0.302 C 
ATOM     16  O   UNL d   1      -4.683  -0.126  -0.188  0.00  0.00    -0.259 OA
BRANCH  15  17
ATOM     17  O   UNL d   1      -4.027   2.067  -0.236  0.00  0.00    -0.317 OA
BRANCH  17  18
ATOM     18  C   UNL d   1      -5.316   2.428  -0.748  0.00  0.00     0.174 C 
ATOM     19  C   UNL d   1      -5.244   2.432  -2.264  0.00  0.00     0.034 C 
ENDBRANCH  17  18
ENDBRANCH  15  17
ENDBRANCH   1  15
BRANCH   6  20
ATOM     20  C   UNL d   1       3.011  -2.472   0.015  0.00  0.00     0.295 C 
ATOM     21  O   UNL d   1       4.207  -2.279  -0.116  0.00  0.00    -0.259 OA
BRANCH  20  22
ATOM     22  O   UNL d   1       2.407  -3.688  -0.001  0.00  0.00    -0.318 OA
BRANCH  22  23
ATOM     23  C   UNL d   1       3.195  -4.783  -0.486  0.00  0.00     0.174 C 
ATOM     24  C   UNL d   1       3.029  -4.850  -1.993  0.00  0.00     0.034 C 
ENDBRANCH  22  23
ENDBRANCH  20  22
ENDBRANCH   6  20
TORSDOF 6
