REMARK  2 active torsions:
REMARK  status: ('A' for Active; 'I' for Inactive)
REMARK    1  A    between atoms: C_12  and  C_9 
REMARK    2  A    between atoms: C_15  and  C_10 
ROOT
ATOM      1  C   UNL d   1      -0.210   0.718   0.012  0.00  0.00     0.130 A 
ATOM      2  N   UNL d   1      -0.256  -0.679   0.011  0.00  0.00    -0.229 N 
ATOM      3  N   UNL d   1      -1.542  -1.121   0.012  0.00  0.00    -0.295 N 
ATOM      4  HN  UNL d   1      -1.860  -2.090   0.014  1.00  0.00     0.187 HD
ATOM      5  N   UNL d   1       0.958   1.421   0.011  0.00  0.00    -0.337 N 
ATOM      6  HN  UNL d   1       0.962   2.441   0.011  1.00  0.00     0.167 HD
ATOM      7  C   UNL d   1       0.935  -1.415   0.007  0.00  0.00     0.140 A 
ATOM      8  C   UNL d   1      -1.513   1.149   0.013  0.00  0.00     0.077 A 
ATOM      9  C   UNL d   1       2.072   0.737   0.009  0.00  0.00     0.121 A 
ATOM     10  C   UNL d   1      -2.306  -0.018   0.009  0.00  0.00     0.037 A 
ATOM     11  C   UNL d   1       2.117  -0.768   0.006  0.00  0.00     0.077 A 
ATOM     12  C   UNL d   1       0.894  -2.837   0.003  0.00  0.00     0.119 C 
ATOM     13  N   UNL d   1       0.944  -3.998  -0.001  0.00  0.00    -0.190 NA
ENDROOT
BRANCH   9  14
ATOM     14  C   UNL d   1       3.411   1.485   0.015  0.00  0.00     0.432 C 
ATOM     15  F   UNL d   1       4.481   0.641   0.009  0.00  0.00    -0.165 F 
ATOM     16  F   UNL d   1       3.556   2.291  -1.071  0.00  0.00    -0.165 F 
ATOM     17  F   UNL d   1       3.554   2.274   1.113  0.00  0.00    -0.165 F 
ENDBRANCH   9  14
BRANCH  10  18
ATOM     18  C   UNL d   1      -3.829  -0.087  -0.011  0.00  0.00    -0.007 C 
ATOM     19  C   UNL d   1      -4.374   0.635  -1.262  0.00  0.00     0.021 C 
ATOM     20  C   UNL d   1      -4.340  -1.542  -0.037  0.00  0.00     0.021 C 
ATOM     21  C   UNL d   1      -4.421   0.604   1.236  0.00  0.00     0.021 C 
ENDBRANCH  10  18
TORSDOF 2
