REMARK  6 active torsions:
REMARK  status: ('A' for Active; 'I' for Inactive)
REMARK    1  A    between atoms: C_7  and  C_1 
REMARK    2  A    between atoms: C_8  and  N_2 
REMARK    3  A    between atoms: C_12  and  C_3 
REMARK    4  A    between atoms: O_13  and  C_7 
REMARK    5  A    between atoms: C_19  and  C_12 
REMARK    6  A    between atoms: C_18  and  O_13 
ROOT
ATOM      1  C   UNL d   1      -0.269   1.231   0.038  0.00  0.00     0.081 C 
ATOM      2  N   UNL d   1       0.992  -0.603  -0.096  0.00  0.00    -0.260 N 
ATOM      3  C   UNL d   1       1.054   0.788   0.016  0.00  0.00     0.052 C 
ATOM      4  N   UNL d   1      -0.279  -1.016  -0.345  0.00  0.00    -0.304 N 
ATOM      5  HN  UNL d   1      -0.590  -1.955  -0.594  1.00  0.00     0.186 HD
ATOM      6  C   UNL d   1      -1.028   0.070  -0.193  0.00  0.00     0.127 C 
ENDROOT
BRANCH   2   7
ATOM      7  C   UNL d   1       2.029  -1.581  -0.037  0.00  0.00     0.056 A 
ATOM      8  C   UNL d   1       3.204  -1.376   0.695  0.00  0.00     0.033 A 
ATOM      9  C   UNL d   1       4.238  -2.319   0.645  0.00  0.00     0.026 A 
ATOM     10  C   UNL d   1       4.088  -3.476  -0.113  0.00  0.00     0.034 A 
ATOM     11  C   UNL d   1       2.898  -3.722  -0.792  0.00  0.00     0.026 A 
ATOM     12 CL   UNL d   1       5.381  -4.604  -0.212  0.00  0.00    -0.084 Cl
ATOM     13  C   UNL d   1       1.862  -2.785  -0.742  0.00  0.00     0.033 A 
ENDBRANCH   2   7
BRANCH   3  14
ATOM     14  C   UNL d   1       2.314   1.609   0.011  0.00  0.00     0.060 C 
BRANCH  14  15
ATOM     15  C   UNL d   1       3.160   1.454  -1.257  0.00  0.00     0.002 C 
ATOM     16  C   UNL d   1       2.433   1.877  -2.527  0.00  0.00     0.005 C 
ENDBRANCH  14  15
ENDBRANCH   3  14
BRANCH   1  17
ATOM     17  C   UNL d   1      -0.763   2.584   0.231  0.00  0.00     0.296 C 
ATOM     18  O   UNL d   1      -0.043   3.557   0.412  0.00  0.00    -0.259 OA
BRANCH  17  19
ATOM     19  O   UNL d   1      -2.128   2.631   0.261  0.00  0.00    -0.318 OA
BRANCH  19  20
ATOM     20  C   UNL d   1      -2.683   3.865   0.737  0.00  0.00     0.174 C 
ATOM     21  C   UNL d   1      -2.761   3.813   2.252  0.00  0.00     0.034 C 
ENDBRANCH  19  20
ENDBRANCH  17  19
ENDBRANCH   1  17
TORSDOF 6
