REMARK  11 active torsions:
REMARK  status: ('A' for Active; 'I' for Inactive)
REMARK    1  A    between atoms: C_15  and  C_1 
REMARK    2  A    between atoms: O_20  and  C_4 
REMARK    3  A    between atoms: C_13  and  C_5 
REMARK    4  A    between atoms: C_22  and  C_8 
REMARK    5  A    between atoms: C_14  and  O_23 
REMARK    6  A    between atoms: O_25  and  C_19 
REMARK    7  A    between atoms: C_31  and  C_22 
REMARK    8  A    between atoms: O_23  and  C_29 
REMARK    9  A    between atoms: C_24  and  C_30 
REMARK   10  A    between atoms: C_29  and  C_24 
REMARK   11  A    between atoms: C_30  and  O_25 
ROOT
ATOM      1  O   UNL d   1       4.814   1.125  -1.162  0.00  0.00    -0.351 OA
ENDROOT
BRANCH   1   2
ATOM      2  C   UNL d   1       3.629   1.807  -1.248  0.00  0.00     0.071 A 
ATOM      3  C   UNL d   1       3.223   2.143  -2.545  0.00  0.00     0.075 A 
ATOM      4  C   UNL d   1       2.027   2.838  -2.752  0.00  0.00     0.091 A 
ATOM      5  O   UNL d   1       1.675   3.122  -4.049  0.00  0.00    -0.321 OA
ATOM      6  C   UNL d   1       1.245   3.211  -1.663  0.00  0.00     0.049 A 
ATOM      7  C   UNL d   1       0.496   3.801  -4.257  0.00  0.00     0.159 A 
ATOM      8  C   UNL d   1      -0.359   4.221  -3.313  0.00  0.00     0.048 A 
ATOM      9  C   UNL d   1      -0.017   3.937  -1.897  0.00  0.00     0.197 A 
ATOM     10  O   UNL d   1      -0.730   4.274  -0.962  0.00  0.00    -0.286 OA
ATOM     11  C   UNL d   1       1.656   2.903  -0.365  0.00  0.00     0.021 A 
ATOM     12  C   UNL d   1       2.847   2.202  -0.159  0.00  0.00     0.038 A 
BRANCH   8  13
ATOM     13  C   UNL d   1      -1.585   4.939  -3.674  0.00  0.00    -0.020 A 
ATOM     14  C   UNL d   1      -2.770   4.238  -3.932  0.00  0.00     0.012 A 
ATOM     15  C   UNL d   1      -3.937   4.928  -4.268  0.00  0.00     0.001 A 
ATOM     16  C   UNL d   1      -3.927   6.319  -4.352  0.00  0.00     0.000 A 
ATOM     17  C   UNL d   1      -2.751   7.024  -4.099  0.00  0.00     0.001 A 
ATOM     18  C   UNL d   1      -1.583   6.337  -3.761  0.00  0.00     0.012 A 
ENDBRANCH   8  13
ENDBRANCH   1   2
BRANCH   1  19
ATOM     19  C   UNL d   1       5.044   0.390   0.046  0.00  0.00     0.178 C 
BRANCH  19  20
ATOM     20  C   UNL d   1       6.430  -0.251  -0.007  0.00  0.00     0.053 C 
BRANCH  20  21
ATOM     21  C   UNL d   1       7.537   0.795  -0.120  0.00  0.00     0.178 C 
BRANCH  21  22
ATOM     22  O   UNL d   1       7.619   1.588   1.074  0.00  0.00    -0.350 OA
BRANCH  22  23
ATOM     23  C   UNL d   1       8.537   2.618   1.046  0.00  0.00     0.077 A 
ATOM     24  C   UNL d   1       9.001   3.129   2.284  0.00  0.00     0.009 A 
ATOM     25  C   UNL d   1       9.938   4.194   2.262  0.00  0.00     0.088 A 
ATOM     26  C   UNL d   1      10.421   4.716   1.051  0.00  0.00     0.043 A 
ATOM     27  C   UNL d   1       9.925   4.214  -0.151  0.00  0.00     0.021 A 
ATOM     28  C   UNL d   1       8.991   3.185  -0.152  0.00  0.00     0.038 A 
BRANCH  24  29
ATOM     29  C   UNL d   1       8.524   2.522   3.593  0.00  0.00     0.044 C 
BRANCH  29  30
ATOM     30  C   UNL d   1       7.399   3.275   4.310  0.00  0.00     0.000 C 
ATOM     31  C   UNL d   1       6.047   3.134   3.630  0.00  0.00     0.005 C 
ENDBRANCH  29  30
ENDBRANCH  24  29
BRANCH  25  32
ATOM     32  O   UNL d   1      10.378   4.769   3.426  0.00  0.00    -0.359 OA
ATOM     33  H   UNL d   1      10.464   4.087   4.110  0.00  0.00     0.217 HD
ENDBRANCH  25  32
BRANCH  26  34
ATOM     34  C   UNL d   1      11.475   5.763   0.932  0.00  0.00     0.158 C 
ATOM     35  O   UNL d   1      11.468   6.513  -0.047  0.00  0.00    -0.293 OA
ATOM     36  C   UNL d   1      12.591   5.835   1.938  0.00  0.00     0.097 C 
ENDBRANCH  26  34
ENDBRANCH  22  23
ENDBRANCH  21  22
ENDBRANCH  20  21
ENDBRANCH  19  20
ENDBRANCH   1  19
TORSDOF 11
