REMARK  2 active torsions:
REMARK  status: ('A' for Active; 'I' for Inactive)
REMARK    1  A    between atoms: C_8  and  N_2 
REMARK    2  A    between atoms: C_9  and  C_7 
ROOT
ATOM      1  C   UNL d   1       0.057  -0.751   0.053  0.00  0.00     0.058 A 
ATOM      2  N   UNL d   1      -1.185   1.127  -0.048  0.00  0.00    -0.220 N 
ATOM      3  C   UNL d   1      -1.339  -0.257   0.104  0.00  0.00     0.279 A 
ATOM      4  N   UNL d   1       0.142   1.540  -0.177  0.00  0.00    -0.294 N 
ATOM      5  HN  UNL d   1       0.474   2.496  -0.299  1.00  0.00     0.187 HD
ATOM      6  C   UNL d   1       0.874   0.460  -0.111  0.00  0.00     0.038 A 
ATOM      7  C   UNL d   1       0.330  -2.056   0.161  0.00  0.00     0.032 C 
ATOM      8  O   UNL d   1      -2.325  -0.958   0.256  0.00  0.00    -0.265 OA
ATOM      9  C   UNL d   1       2.364   0.488  -0.169  0.00  0.00     0.071 C 
ENDROOT
BRANCH   7  10
ATOM     10  C   UNL d   1       1.657  -2.671   0.161  0.00  0.00    -0.013 A 
ATOM     11  C   UNL d   1       2.314  -3.079  -1.011  0.00  0.00     0.045 A 
ATOM     12  C   UNL d   1       3.558  -3.709  -0.943  0.00  0.00     0.048 A 
ATOM     13 CL   UNL d   1       1.624  -2.817  -2.575  0.00  0.00    -0.083 Cl
ATOM     14  C   UNL d   1       4.150  -3.929   0.299  0.00  0.00     0.035 A 
ATOM     15  C   UNL d   1       3.516  -3.518   1.470  0.00  0.00     0.024 A 
ATOM     16 CL   UNL d   1       5.674  -4.721   0.390  0.00  0.00    -0.084 Cl
ATOM     17  C   UNL d   1       2.269  -2.893   1.402  0.00  0.00     0.015 A 
ENDBRANCH   7  10
BRANCH   2  18
ATOM     18  C   UNL d   1      -2.201   2.114  -0.030  0.00  0.00     0.061 A 
ATOM     19  C   UNL d   1      -3.533   1.794   0.264  0.00  0.00     0.055 A 
ATOM     20  C   UNL d   1      -4.509   2.793   0.295  0.00  0.00     0.036 A 
ATOM     21 CL   UNL d   1      -6.135   2.383   0.691  0.00  0.00    -0.084 Cl
ATOM     22  C   UNL d   1      -4.183   4.117   0.020  0.00  0.00     0.024 A 
ATOM     23  C   UNL d   1      -2.865   4.450  -0.281  0.00  0.00     0.004 A 
ATOM     24  C   UNL d   1      -1.883   3.456  -0.299  0.00  0.00     0.032 A 
ENDBRANCH   2  18
TORSDOF 2
