REMARK  5 active torsions:
REMARK  status: ('A' for Active; 'I' for Inactive)
REMARK    1  A    between atoms: S_4  and  C_1 
REMARK    2  A    between atoms: C_2  and  S_4 
REMARK    3  A    between atoms: C_8  and  N_3 
REMARK    4  A    between atoms: C_13  and  C_5 
REMARK    5  A    between atoms: O_24  and  C_13 
ROOT
ATOM      1  C   UNL d   1       2.109  -3.399  -0.082  0.00  0.00     0.094 A 
ATOM      2  C   UNL d   1       1.475  -3.888  -1.225  0.00  0.00     0.074 A 
ATOM      3  N   UNL d   1       2.455  -4.235   0.943  0.00  0.00    -0.352 N 
ATOM      4  HN  UNL d   1       2.931  -3.865   1.765  1.00  0.00     0.166 HD
ATOM      5  C   UNL d   1       1.188  -5.268  -1.288  0.00  0.00     0.045 A 
ATOM      6  C   UNL d   1       1.526  -6.128  -0.240  0.00  0.00     0.067 A 
ATOM      7  C   UNL d   1       2.163  -5.567   0.864  0.00  0.00     0.027 A 
ATOM      8  N   UNL d   1       0.882  -8.647  -0.374  0.00  0.00    -0.191 NA
ATOM      9  C   UNL d   1       1.192  -7.530  -0.323  0.00  0.00     0.101 C 
ATOM     10  C   UNL d   1       2.589  -6.375   2.058  0.00  0.00     0.070 C 
ENDROOT
BRANCH   2  11
ATOM     11  C   UNL d   1       0.978  -3.082  -2.366  0.00  0.00     0.295 C 
ATOM     12  O   UNL d   1       0.038  -3.454  -3.054  0.00  0.00    -0.259 OA
BRANCH  11  13
ATOM     13  O   UNL d   1       1.712  -1.972  -2.578  0.00  0.00    -0.322 OA
ATOM     14  C   UNL d   1       1.255  -1.168  -3.667  0.00  0.00     0.213 C 
ENDBRANCH  11  13
ENDBRANCH   2  11
BRANCH   1  15
ATOM     15  S   UNL d   1       2.333  -1.666   0.309  0.00  0.00    -0.035 SA
BRANCH  15  16
ATOM     16  C   UNL d   1       4.062  -1.647   0.540  0.00  0.00     0.157 A 
ATOM     17  N   UNL d   1       4.717  -1.176   1.685  0.00  0.00    -0.299 N 
ATOM     18  C   UNL d   1       6.053  -1.126   1.325  0.00  0.00     0.116 A 
ATOM     19  C   UNL d   1       6.125  -1.506   0.009  0.00  0.00     0.108 A 
ATOM     20  N   UNL d   1       4.893  -1.844  -0.464  0.00  0.00    -0.345 N 
ATOM     21  HN  UNL d   1       4.662  -2.179  -1.399  1.00  0.00     0.167 HD
BRANCH  17  22
ATOM     22  C   UNL d   1       4.185  -0.840   2.973  0.00  0.00     0.064 A 
ATOM     23  C   UNL d   1       3.105  -1.593   3.470  0.00  0.00     0.055 A 
ATOM     24  C   UNL d   1       2.504  -1.271   4.689  0.00  0.00     0.036 A 
ATOM     25 CL   UNL d   1       1.168  -2.197   5.251  0.00  0.00    -0.084 Cl
ATOM     26  C   UNL d   1       2.977  -0.212   5.451  0.00  0.00     0.026 A 
ATOM     27  C   UNL d   1       4.079   0.512   5.001  0.00  0.00     0.028 A 
ATOM     28  C   UNL d   1       4.691   0.207   3.772  0.00  0.00     0.061 A 
ATOM     29 CL   UNL d   1       5.974   1.278   3.323  0.00  0.00    -0.082 Cl
ENDBRANCH  17  22
ENDBRANCH  15  16
ENDBRANCH   1  15
TORSDOF 5
