REMARK  5 active torsions:
REMARK  status: ('A' for Active; 'I' for Inactive)
REMARK    1  A    between atoms: C_2  and  N_1 
REMARK    2  A    between atoms: N_4  and  C_3 
REMARK    3  A    between atoms: C_5  and  C_12 
REMARK    4  A    between atoms: N_17  and  C_5 
REMARK    5  A    between atoms: O_19  and  N_10 
ROOT
ATOM      1  N   UNL d   1      -4.115  -7.471  -1.075  0.00  0.00    -0.365 N 
ATOM      2  C   UNL d   1      -3.720  -4.625  -0.818  0.00  0.00     0.052 C 
ATOM      3  C   UNL d   1      -3.045  -6.866  -1.860  0.00  0.00     0.125 C 
ATOM      4  C   UNL d   1      -4.426  -6.826   0.201  0.00  0.00     0.125 C 
ATOM      5  C   UNL d   1      -4.821  -5.374  -0.056  0.00  0.00     0.032 C 
ATOM      6  C   UNL d   1      -3.356  -5.384  -2.103  0.00  0.00     0.032 C 
ENDROOT
BRANCH   1   7
ATOM      7  C   UNL d   1      -4.637  -8.726  -1.283  0.00  0.00     0.136 A 
ATOM      8  C   UNL d   1      -3.983  -9.837  -1.813  0.00  0.00     0.146 A 
ATOM      9  C   UNL d   1      -4.661 -11.044  -2.054  0.00  0.00     0.041 A 
ATOM     10  C   UNL d   1      -6.009 -11.128  -1.749  0.00  0.00     0.020 A 
ATOM     11  C   UNL d   1      -6.608 -10.009  -1.208  0.00  0.00     0.090 A 
ATOM     12  N   UNL d   1      -5.957  -8.847  -0.975  0.00  0.00    -0.350 N 
ATOM     13  HN  UNL d   1      -6.458  -8.058  -0.565  1.00  0.00     0.166 HD
BRANCH   8  14
ATOM     14  N   UNL d   1      -2.563  -9.841  -2.045  0.00  0.00    -0.112 N 
ATOM     15  O   UNL d   1      -1.816  -9.707  -1.067  0.00  0.00    -0.532 OA
ATOM     16  O   UNL d   1      -2.187 -10.046  -3.209  0.00  0.00    -0.532 OA
ENDBRANCH   8  14
ENDBRANCH   1   7
BRANCH   2  17
ATOM     17  C   UNL d   1      -2.520  -4.353   0.099  0.00  0.00     0.079 C 
ATOM     18  N   UNL d   1      -1.352  -4.829  -0.215  0.00  0.00    -0.262 N 
ATOM     19  HN  UNL d   1      -1.161  -5.389  -1.046  1.00  0.00     0.195 HD
BRANCH  18  20
ATOM     20  O   UNL d   1      -0.388  -4.470   0.740  0.00  0.00    -0.289 OA
ATOM     21  H   UNL d   1       0.382  -4.997   0.455  0.00  0.00     0.244 HD
ENDBRANCH  18  20
BRANCH  17  22
ATOM     22  N   UNL d   1      -2.737  -3.598   1.224  0.00  0.00    -0.290 NA
ATOM     23  H   UNL d   1      -3.441  -2.874   1.163  0.00  0.00     0.125 HD
ATOM     24  H   UNL d   1      -1.856  -3.287   1.625  0.00  0.00     0.125 HD
ENDBRANCH  17  22
ENDBRANCH   2  17
TORSDOF 5
