REMARK  1 active torsions:
REMARK  status: ('A' for Active; 'I' for Inactive)
REMARK    1  A    between atoms: C_8  and  N_4 
ROOT
ATOM      1  N   UNL d   1      -1.800   1.513  -0.299  0.00  0.00    -0.301 N 
ATOM      2  HN  UNL d   1      -1.522   2.419  -0.676  1.00  0.00     0.187 HD
ATOM      3  C   UNL d   1      -1.023   0.536   0.052  0.00  0.00     0.042 C 
ATOM      4  N   UNL d   1      -3.078   1.069  -0.054  0.00  0.00    -0.291 N 
ATOM      5  C   UNL d   1      -1.716  -0.640   0.685  0.00  0.00     0.058 C 
ATOM      6  C   UNL d   1       0.436   0.491  -0.042  0.00  0.00    -0.005 A 
ATOM      7  C   UNL d   1      -3.118  -0.372   0.165  0.00  0.00     0.160 C 
ATOM      8  C   UNL d   1       1.018  -0.773  -0.218  0.00  0.00    -0.046 A 
ATOM      9  C   UNL d   1      -1.110  -2.002   0.382  0.00  0.00     0.017 C 
ATOM     10  C   UNL d   1       0.136  -1.961  -0.505  0.00  0.00     0.040 C 
ATOM     11  C   UNL d   1       1.210   1.639   0.104  0.00  0.00     0.014 A 
ATOM     12  C   UNL d   1       2.412  -0.878  -0.219  0.00  0.00     0.008 A 
ATOM     13  C   UNL d   1       2.600   1.518   0.116  0.00  0.00     0.001 A 
ATOM     14  C   UNL d   1       3.198   0.263  -0.035  0.00  0.00     0.001 A 
ENDROOT
BRANCH   4  15
ATOM     15  C   UNL d   1      -4.203   1.847  -0.326  0.00  0.00     0.050 A 
ATOM     16  C   UNL d   1      -4.092   3.117  -0.914  0.00  0.00     0.031 A 
ATOM     17  C   UNL d   1      -5.215   3.919  -1.154  0.00  0.00     0.002 A 
ATOM     18  C   UNL d   1      -6.482   3.473  -0.792  0.00  0.00     0.000 A 
ATOM     19  C   UNL d   1      -6.623   2.224  -0.200  0.00  0.00     0.002 A 
ATOM     20  C   UNL d   1      -5.497   1.423   0.022  0.00  0.00     0.031 A 
ENDBRANCH   4  15
TORSDOF 1
