REMARK  4 active torsions:
REMARK  status: ('A' for Active; 'I' for Inactive)
REMARK    1  A    between atoms: C_7  and  C_1 
REMARK    2  A    between atoms: C_5  and  C_9 
REMARK    3  A    between atoms: O_18  and  C_7 
REMARK    4  A    between atoms: C_19  and  O_18 
ROOT
ATOM      1  C   UNL d   1      -2.379  -0.261   0.038  0.00  0.00     0.105 A 
ATOM      2  C   UNL d   1      -1.387   0.850   0.071  0.00  0.00     0.202 A 
ATOM      3  C   UNL d   1       0.054   0.490   0.034  0.00  0.00     0.043 A 
ATOM      4  C   UNL d   1      -1.896  -1.514   0.073  0.00  0.00     0.110 A 
ATOM      5  N   UNL d   1      -0.569  -1.853   0.132  0.00  0.00    -0.364 N 
ATOM      6  C   UNL d   1       1.029   1.496  -0.004  0.00  0.00     0.034 A 
ATOM      7  C   UNL d   1       2.391   1.157  -0.023  0.00  0.00     0.049 A 
ATOM      8  C   UNL d   1       0.418  -0.866   0.040  0.00  0.00     0.046 A 
ATOM      9  O   UNL d   1      -1.713   2.032   0.136  0.00  0.00    -0.286 OA
ATOM     10  C   UNL d   1       2.748  -0.203  -0.011  0.00  0.00     0.018 A 
ATOM     11  C   UNL d   1       1.772  -1.204   0.025  0.00  0.00     0.031 A 
ATOM     12  H   UNL d   1      -0.313  -2.824  -0.015  0.00  0.00     0.165 HD
ENDROOT
BRANCH   1  13
ATOM     13  C   UNL d   1      -3.837  -0.105  -0.121  0.00  0.00     0.298 C 
ATOM     14  O   UNL d   1      -4.641  -1.005   0.085  0.00  0.00    -0.259 OA
BRANCH  13  15
ATOM     15  O   UNL d   1      -4.128   1.096  -0.673  0.00  0.00    -0.318 OA
BRANCH  15  16
ATOM     16  C   UNL d   1      -5.428   1.221  -1.262  0.00  0.00     0.174 C 
ATOM     17  C   UNL d   1      -5.329   0.774  -2.710  0.00  0.00     0.034 C 
ENDBRANCH  15  16
ENDBRANCH  13  15
ENDBRANCH   1  13
BRANCH   7  18
ATOM     18  C   UNL d   1       3.461   2.219  -0.047  0.00  0.00     0.417 C 
ATOM     19  F   UNL d   1       2.974   3.489  -0.076  0.00  0.00    -0.166 F 
ATOM     20  F   UNL d   1       4.275   2.154   1.043  0.00  0.00    -0.166 F 
ATOM     21  F   UNL d   1       4.278   2.106  -1.131  0.00  0.00    -0.166 F 
ENDBRANCH   7  18
TORSDOF 4
