REMARK  3 active torsions:
REMARK  status: ('A' for Active; 'I' for Inactive)
REMARK    1  A    between atoms: C_2  and  N_1 
REMARK    2  A    between atoms: C_3  and  C_2 
REMARK    3  A    between atoms: C_5  and  C_2 
ROOT
ATOM      1  C   UNL d   1      -1.579   0.067   1.678  0.00  0.00     0.289 C 
ENDROOT
BRANCH   1   2
ATOM      2  N   UNL d   1      -1.409   0.053   0.191  0.00  0.00     0.105 N 
ATOM      3  C   UNL d   1      -0.764  -1.187  -0.318  0.00  0.00     0.303 C 
ATOM      4  C   UNL d   1       0.721  -1.357   0.069  0.00  0.00     0.299 C 
ATOM      5  N   UNL d   1       1.550  -0.215  -0.334  0.00  0.00     0.086 N 
ATOM      6  C   UNL d   1       0.945   1.054   0.084  0.00  0.00     0.299 C 
ATOM      7  H   UNL d   1       2.482  -0.307   0.068  0.00  0.00     0.315 HD
ATOM      8  C   UNL d   1      -0.555   1.172  -0.295  0.00  0.00     0.303 C 
ENDBRANCH   1   2
BRANCH   1   9
ATOM      9  C   UNL d   1      -2.258   1.361   2.176  0.00  0.00    -0.021 A 
ATOM     10  C   UNL d   1      -3.653   1.535   2.142  0.00  0.00     0.011 A 
ATOM     11  C   UNL d   1      -4.243   2.727   2.574  0.00  0.00     0.024 A 
ATOM     12  C   UNL d   1      -3.443   3.775   3.016  0.00  0.00     0.034 A 
ATOM     13  C   UNL d   1      -2.059   3.634   3.052  0.00  0.00     0.024 A 
ATOM     14 CL   UNL d   1      -4.166   5.255   3.512  0.00  0.00    -0.084 Cl
ATOM     15  C   UNL d   1      -1.472   2.430   2.651  0.00  0.00     0.011 A 
ENDBRANCH   1   9
BRANCH   1  16
ATOM     16  C   UNL d   1      -2.290  -1.173   2.256  0.00  0.00    -0.021 A 
ATOM     17  C   UNL d   1      -1.913  -1.656   3.521  0.00  0.00     0.010 A 
ATOM     18  C   UNL d   1      -2.549  -2.766   4.085  0.00  0.00     0.001 A 
ATOM     19  C   UNL d   1      -3.577  -3.404   3.393  0.00  0.00     0.000 A 
ATOM     20  C   UNL d   1      -3.975  -2.930   2.149  0.00  0.00     0.001 A 
ATOM     21  C   UNL d   1      -3.346  -1.818   1.585  0.00  0.00     0.010 A 
ENDBRANCH   1  16
TORSDOF 3
