REMARK  5 active torsions:
REMARK  status: ('A' for Active; 'I' for Inactive)
REMARK    1  A    between atoms: C_5  and  C_1 
REMARK    2  A    between atoms: C_15  and  N_8 
REMARK    3  A    between atoms: C_14  and  N_9 
REMARK    4  A    between atoms: C_16  and  C_14 
REMARK    5  A    between atoms: C_17  and  C_15 
ROOT
ATOM      1  C   UNL d   1       0.470   2.443  -0.101  0.00  0.00     0.112 C 
ATOM      2  N   UNL d   1      -0.210   4.640   0.813  0.00  0.00     0.121 N 
ATOM      3  N   UNL d   1       1.390   4.561  -1.032  0.00  0.00     0.121 N 
ATOM      4  C   UNL d   1       0.950   5.274   0.173  0.00  0.00     0.543 C 
ATOM      5  C   UNL d   1       0.072   3.226   1.153  0.00  0.00     0.289 C 
ATOM      6  C   UNL d   1       1.682   3.152  -0.708  0.00  0.00     0.289 C 
ENDROOT
BRANCH   1   7
ATOM      7  C   UNL d   1       0.697   0.990   0.112  0.00  0.00     0.117 A 
ATOM      8  N   UNL d   1       0.990   0.154  -0.936  0.00  0.00    -0.270 N 
ATOM      9  N   UNL d   1       0.953  -1.080  -0.456  0.00  0.00    -0.005 NA
ATOM     10  HN  UNL d   1       1.197   0.429  -1.897  1.00  0.00     0.185 HD
ATOM     11  N   UNL d   1       0.623  -0.931   0.831  0.00  0.00    -0.225 N 
ATOM     12  N   UNL d   1       0.471   0.333   1.260  0.00  0.00    -0.275 N 
ATOM     13  H   UNL d   1       0.477  -1.732   1.441  0.00  0.00     0.205 HD
ATOM     14  HN  UNL d   1       0.248   0.690   2.189  1.00  0.00     0.189 HD
ENDBRANCH   1   7
BRANCH   2  15
ATOM     15  C   UNL d   1      -0.591   5.410   2.016  0.00  0.00     0.313 C 
BRANCH  15  16
ATOM     16  C   UNL d   1      -1.823   4.870   2.716  0.00  0.00    -0.030 A 
ATOM     17  C   UNL d   1      -1.740   4.383   4.029  0.00  0.00     0.009 A 
ATOM     18  C   UNL d   1      -2.859   3.822   4.649  0.00  0.00     0.001 A 
ATOM     19  C   UNL d   1      -4.071   3.747   3.965  0.00  0.00     0.000 A 
ATOM     20  C   UNL d   1      -4.168   4.242   2.666  0.00  0.00     0.001 A 
ATOM     21  C   UNL d   1      -3.052   4.805   2.045  0.00  0.00     0.009 A 
ENDBRANCH  15  16
ENDBRANCH   2  15
BRANCH   3  22
ATOM     22  C   UNL d   1       0.425   4.726  -2.137  0.00  0.00     0.313 C 
BRANCH  22  23
ATOM     23  C   UNL d   1       0.840   4.041  -3.428  0.00  0.00    -0.030 A 
ATOM     24  C   UNL d   1       0.125   2.935  -3.915  0.00  0.00     0.009 A 
ATOM     25  C   UNL d   1       0.515   2.298  -5.095  0.00  0.00     0.001 A 
ATOM     26  C   UNL d   1       1.623   2.762  -5.803  0.00  0.00     0.000 A 
ATOM     27  C   UNL d   1       2.347   3.856  -5.325  0.00  0.00     0.001 A 
ATOM     28  C   UNL d   1       1.957   4.490  -4.144  0.00  0.00     0.009 A 
ENDBRANCH  22  23
ENDBRANCH   3  22
TORSDOF 5
