REMARK  6 active torsions:
REMARK  status: ('A' for Active; 'I' for Inactive)
REMARK    1  A    between atoms: N_3  and  C_1 
REMARK    2  A    between atoms: N_4  and  C_1 
REMARK       I    between atoms: C_2  and  N_6 
REMARK    3  A    between atoms: C_8  and  C_2 
REMARK    4  A    between atoms: N_6  and  N_3 
REMARK    5  A    between atoms: C_9  and  N_4 
REMARK    6  A    between atoms: C_10  and  C_8 
ROOT
ATOM      1  N   UNL d   1       0.302  -0.009   1.356  0.00  0.00    -0.274 N 
ATOM      2  H   UNL d   1      -0.688  -0.238   1.438  0.00  0.00     0.189 HD
ENDROOT
BRANCH   1   3
ATOM      3  C   UNL d   1       0.791   0.540   0.202  0.00  0.00     0.191 C 
ATOM      4  S   UNL d   1       2.426   0.716  -0.123  0.00  0.00    -0.039 SA
BRANCH   3   5
ATOM      5  N   UNL d   1      -0.112   0.889  -0.764  0.00  0.00    -0.332 N 
ATOM      6  H   UNL d   1       0.301   1.005  -1.684  0.00  0.00     0.168 HD
BRANCH   5   7
ATOM      7  C   UNL d   1      -1.452   1.325  -0.643  0.00  0.00     0.034 A 
ATOM      8  C   UNL d   1      -2.056   1.665   0.573  0.00  0.00     0.029 A 
ATOM      9  C   UNL d   1      -3.378   2.108   0.616  0.00  0.00     0.002 A 
ATOM     10  C   UNL d   1      -4.104   2.258  -0.560  0.00  0.00     0.000 A 
ATOM     11  C   UNL d   1      -3.503   1.967  -1.782  0.00  0.00     0.002 A 
ATOM     12  C   UNL d   1      -2.184   1.505  -1.823  0.00  0.00     0.029 A 
ENDBRANCH   5   7
ENDBRANCH   3   5
ENDBRANCH   1   3
BRANCH   1  13
ATOM     13  N   UNL d   1       0.984   0.122   2.580  0.00  0.00    -0.268 N 
ATOM     14  C   UNL d   1       0.207   0.372   3.699  0.00  0.00     0.240 C 
ATOM     15  O   UNL d   1      -1.024   0.336   3.674  0.00  0.00    -0.272 OA
ATOM     16  H   UNL d   1       1.952   0.435   2.527  0.00  0.00     0.190 HD
BRANCH  14  17
ATOM     17  C   UNL d   1       0.989   0.667   4.962  0.00  0.00     0.143 C 
BRANCH  17  18
ATOM     18  C   UNL d   1       1.208   2.138   5.219  0.00  0.00    -0.049 A 
ATOM     19  C   UNL d   1       0.123   3.005   5.413  0.00  0.00     0.007 A 
ATOM     20  C   UNL d   1       0.336   4.354   5.708  0.00  0.00     0.001 A 
ATOM     21  C   UNL d   1       1.633   4.850   5.814  0.00  0.00     0.000 A 
ATOM     22  C   UNL d   1       2.719   3.999   5.623  0.00  0.00     0.001 A 
ATOM     23  C   UNL d   1       2.509   2.650   5.327  0.00  0.00     0.007 A 
ENDBRANCH  17  18
ENDBRANCH  14  17
ENDBRANCH   1  13
TORSDOF 6
