REMARK  4 active torsions:
REMARK  status: ('A' for Active; 'I' for Inactive)
REMARK    1  A    between atoms: S_2  and  N_1 
REMARK    2  A    between atoms: C_13  and  S_2 
REMARK    3  A    between atoms: S_9  and  C_4 
REMARK    4  A    between atoms: C_7  and  S_9 
ROOT
ATOM      1  N   UNL d   1      -0.085  -1.165   0.052  0.00  0.00    -0.180 N 
ATOM      2  C   UNL d   1       1.248  -0.778   0.122  0.00  0.00     0.061 C 
ATOM      3  C   UNL d   1       1.216   0.605   0.075  0.00  0.00     0.057 C 
ATOM      4  N   UNL d   1      -0.942  -0.108   0.167  0.00  0.00    -0.287 N 
ATOM      5  HN  UNL d   1      -1.955  -0.134   0.275  1.00  0.00     0.188 HD
ATOM      6  C   UNL d   1      -0.150   0.968   0.104  0.00  0.00     0.042 C 
ATOM      7  C   UNL d   1       2.421  -1.688   0.160  0.00  0.00     0.072 C 
ATOM      8  C   UNL d   1      -0.754   2.323   0.053  0.00  0.00     0.071 C 
ENDROOT
BRANCH   1   9
ATOM      9  S   UNL d   1      -0.637  -2.818  -0.082  0.00  0.00     0.282 S 
ATOM     10  O   UNL d   1      -2.003  -2.763  -0.567  0.00  0.00    -0.198 OA
ATOM     11  O   UNL d   1       0.395  -3.535  -0.812  0.00  0.00    -0.198 OA
BRANCH   9  12
ATOM     12  C   UNL d   1      -0.682  -3.398   1.591  0.00  0.00     0.081 A 
ATOM     13  C   UNL d   1      -1.587  -2.825   2.492  0.00  0.00     0.027 A 
ATOM     14  C   UNL d   1      -1.633  -3.291   3.809  0.00  0.00     0.025 A 
ATOM     15  C   UNL d   1      -0.785  -4.324   4.211  0.00  0.00     0.034 A 
ATOM     16  C   UNL d   1       0.097  -4.912   3.304  0.00  0.00     0.025 A 
ATOM     17 CL   UNL d   1      -0.830  -4.881   5.838  0.00  0.00    -0.084 Cl
ATOM     18  C   UNL d   1       0.145  -4.455   1.985  0.00  0.00     0.027 A 
ENDBRANCH   9  12
ENDBRANCH   1   9
BRANCH   3  19
ATOM     19  S   UNL d   1       2.582   1.682  -0.112  0.00  0.00    -0.050 SA
BRANCH  19  20
ATOM     20  C   UNL d   1       2.811   2.190   1.532  0.00  0.00     0.151 A 
ATOM     21  N   UNL d   1       3.732   3.144   1.892  0.00  0.00    -0.341 N 
ATOM     22  C   UNL d   1       3.641   3.302   3.254  0.00  0.00     0.109 A 
ATOM     23  C   UNL d   1       4.662   3.881   1.071  0.00  0.00     0.158 C 
ATOM     24  C   UNL d   1       2.675   2.415   3.656  0.00  0.00     0.107 A 
ATOM     25  N   UNL d   1       2.167   1.732   2.584  0.00  0.00    -0.345 N 
ATOM     26  HN  UNL d   1       1.440   1.017   2.597  1.00  0.00     0.167 HD
ENDBRANCH  19  20
ENDBRANCH   3  19
TORSDOF 4
