REMARK  3 active torsions:
REMARK  status: ('A' for Active; 'I' for Inactive)
REMARK    1  A    between atoms: C_7  and  N_16 
REMARK    2  A    between atoms: N_17  and  C_12 
REMARK    3  A    between atoms: N_16  and  N_17 
ROOT
ATOM      1  N   UNL d   1      -3.226   1.177  -1.094  0.00  0.00    -0.310 N 
ATOM      2  H   UNL d   1      -2.786   2.086  -0.880  0.00  0.00     0.186 HD
ENDROOT
BRANCH   1   3
ATOM      3  N   UNL d   1      -4.483   1.204  -1.582  0.00  0.00    -0.298 N 
ATOM      4  H   UNL d   1      -4.860   0.370  -2.038  0.00  0.00     0.187 HD
BRANCH   3   5
ATOM      5  C   UNL d   1      -5.426   2.237  -1.373  0.00  0.00     0.091 A 
ATOM      6  C   UNL d   1      -6.370   2.520  -2.389  0.00  0.00     0.065 A 
ATOM      7  C   UNL d   1      -7.283   3.573  -2.275  0.00  0.00     0.050 A 
ATOM      8 CL   UNL d   1      -6.423   1.577  -3.844  0.00  0.00    -0.082 Cl
ATOM      9  C   UNL d   1      -7.271   4.366  -1.136  0.00  0.00     0.037 A 
ATOM     10  C   UNL d   1      -6.357   4.122  -0.118  0.00  0.00     0.050 A 
ATOM     11 CL   UNL d   1      -8.398   5.654  -0.975  0.00  0.00    -0.084 Cl
ATOM     12  C   UNL d   1      -5.434   3.075  -0.239  0.00  0.00     0.065 A 
ATOM     13 CL   UNL d   1      -4.400   2.824   1.129  0.00  0.00    -0.082 Cl
ENDBRANCH   3   5
ENDBRANCH   1   3
BRANCH   1  14
ATOM     14  C   UNL d   1      -2.490   0.084  -0.710  0.00  0.00     0.131 C 
ATOM     15  C   UNL d   1      -1.245   0.067  -0.207  0.00  0.00     0.131 C 
ATOM     16  C   UNL d   1      -0.621  -1.220   0.101  0.00  0.00     0.303 C 
ATOM     17  C   UNL d   1      -0.504   1.321  -0.009  0.00  0.00     0.303 C 
ATOM     18  O   UNL d   1       0.713  -1.207   0.268  0.00  0.00    -0.279 OA
ATOM     19  O   UNL d   1      -1.260  -2.257   0.215  0.00  0.00    -0.259 OA
ATOM     20  C   UNL d   1       1.428  -0.053  -0.181  0.00  0.00     0.175 C 
ATOM     21  O   UNL d   1       0.816   1.177   0.204  0.00  0.00    -0.279 OA
ATOM     22  C   UNL d   1       1.623  -0.102  -1.702  0.00  0.00     0.080 C 
ATOM     23  C   UNL d   1       2.794  -0.089   0.502  0.00  0.00     0.080 C 
ATOM     24  O   UNL d   1      -1.024   2.424  -0.035  0.00  0.00    -0.259 OA
ENDBRANCH   1  14
TORSDOF 3
