REMARK  1 active torsions:
REMARK  status: ('A' for Active; 'I' for Inactive)
REMARK    1  A    between atoms: S_8  and  C_3 
ROOT
ATOM      1  N   UNL d   1      -1.054  -1.002  -0.040  0.00  0.00    -0.359 N 
ATOM      2  HN  UNL d   1      -1.227  -2.007  -0.063  1.00  0.00     0.166 HD
ATOM      3  C   UNL d   1      -0.595   1.754  -0.007  0.00  0.00     0.014 A 
ATOM      4  C   UNL d   1       0.505   0.851  -0.015  0.00  0.00     0.007 A 
ATOM      5  C   UNL d   1       0.201  -0.528  -0.030  0.00  0.00     0.044 A 
ATOM      6  C   UNL d   1      -1.895   1.244   0.002  0.00  0.00     0.044 A 
ATOM      7  C   UNL d   1      -2.083  -0.130  -0.020  0.00  0.00     0.007 A 
ATOM      8  C   UNL d   1       1.875   1.230  -0.004  0.00  0.00     0.015 A 
ATOM      9  C   UNL d   1       1.236  -1.453  -0.024  0.00  0.00     0.030 A 
ATOM     10  C   UNL d   1      -3.459  -0.724   0.010  0.00  0.00     0.068 C 
ATOM     11  C   UNL d   1       2.897   0.283   0.001  0.00  0.00     0.001 A 
ATOM     12  C   UNL d   1       2.577  -1.066  -0.007  0.00  0.00     0.002 A 
ENDROOT
BRANCH   3  13
ATOM     13  S   UNL d   1      -0.327   3.538   0.098  0.00  0.00    -0.133 SA
ATOM     14  C   UNL d   1      -1.692   4.211  -0.889  0.00  0.00     0.095 C 
ENDBRANCH   3  13
TORSDOF 1
