REMARK  8 active torsions:
REMARK  status: ('A' for Active; 'I' for Inactive)
REMARK    1  A    between atoms: C_6  and  C_3 
REMARK    2  A    between atoms: C_16  and  C_4 
REMARK    3  A    between atoms: C_9  and  C_6 
REMARK    4  A    between atoms: C_7  and  C_12 
REMARK    5  A    between atoms: O_21  and  C_9 
REMARK    6  A    between atoms: O_17  and  C_16 
REMARK    7  A    between atoms: C_18  and  O_17 
REMARK    8  A    between atoms: C_24  and  O_21 
ROOT
ATOM      1  C   UNL d   1      -0.030  -2.671   0.030  0.00  0.00     0.240 C 
ENDROOT
BRANCH   1   2
ATOM      2  C   UNL d   1       0.255  -1.198   0.013  0.00  0.00     0.075 A 
ATOM      3  N   UNL d   1       0.504  -0.487  -1.071  0.00  0.00    -0.355 N 
ATOM      4  C   UNL d   1       0.704   0.845  -0.738  0.00  0.00     0.025 A 
ATOM      5  HN  UNL d   1       0.545  -0.864  -2.018  1.00  0.00     0.166 HD
ATOM      6  C   UNL d   1       0.598   1.122   0.613  0.00  0.00     0.077 A 
ATOM      7  S   UNL d   1       0.244  -0.305   1.486  0.00  0.00    -0.085 SA
BRANCH   4   8
ATOM      8  C   UNL d   1       1.029   1.814  -1.824  0.00  0.00     0.168 C 
BRANCH   8   9
ATOM      9  C   UNL d   1      -0.082   2.805  -2.078  0.00  0.00     0.264 C 
ATOM     10  O   UNL d   1      -1.091   2.958  -1.404  0.00  0.00    -0.265 OA
BRANCH   9  11
ATOM     11  O   UNL d   1       0.216   3.518  -3.206  0.00  0.00    -0.322 OA
BRANCH  11  12
ATOM     12  C   UNL d   1      -0.848   4.324  -3.731  0.00  0.00     0.174 C 
ATOM     13  C   UNL d   1      -1.654   3.477  -4.699  0.00  0.00     0.034 C 
ENDBRANCH  11  12
ENDBRANCH   9  11
ENDBRANCH   8   9
ENDBRANCH   4   8
ENDBRANCH   1   2
BRANCH   1  14
ATOM     14  O   UNL d   1       1.223  -3.339   0.202  0.00  0.00    -0.345 OA
BRANCH  14  15
ATOM     15  C   UNL d   1       1.178  -4.699   0.085  0.00  0.00     0.069 A 
ATOM     16  C   UNL d   1       2.330  -5.299  -0.419  0.00  0.00     0.037 A 
ATOM     17  C   UNL d   1       2.400  -6.686  -0.576  0.00  0.00     0.012 A 
ATOM     18  C   UNL d   1       1.317  -7.504  -0.216  0.00  0.00    -0.035 A 
ATOM     19  C   UNL d   1       0.176  -6.889   0.326  0.00  0.00     0.012 A 
ATOM     20  C   UNL d   1       0.104  -5.500   0.476  0.00  0.00     0.037 A 
BRANCH  18  21
ATOM     21  C   UNL d   1       1.404  -9.004  -0.421  0.00  0.00     0.141 C 
ATOM     22  S   UNL d   1       0.105  -9.625  -1.540  0.00  0.00    -0.148 SA
ATOM     23  C   UNL d   1      -0.103 -11.222  -0.724  0.00  0.00     0.085 C 
ATOM     24  C   UNL d   1      -0.063 -10.976   0.770  0.00  0.00     0.085 C 
ATOM     25  S   UNL d   1       1.370  -9.933   1.150  0.00  0.00    -0.148 SA
ENDBRANCH  18  21
ENDBRANCH  14  15
ENDBRANCH   1  14
TORSDOF 8
