REMARK  3 active torsions:
REMARK  status: ('A' for Active; 'I' for Inactive)
REMARK    1  A    between atoms: N_15  and  C_3 
REMARK    2  A    between atoms: S_16  and  C_9 
REMARK    3  A    between atoms: C_14  and  C_11 
ROOT
ATOM      1  N   UNL d   1      -0.205  -0.587  -0.053  0.00  0.00    -0.222 N 
ATOM      2  C   UNL d   1      -0.173   0.804   0.000  0.00  0.00     0.132 A 
ATOM      3  C   UNL d   1       0.993  -1.357  -0.086  0.00  0.00     0.146 A 
ATOM      4  C   UNL d   1       2.177  -0.701  -0.033  0.00  0.00     0.123 A 
ATOM      5  N   UNL d   1      -1.490  -1.057  -0.037  0.00  0.00    -0.294 N 
ATOM      6  HN  UNL d   1      -1.792  -2.031  -0.043  1.00  0.00     0.187 HD
ATOM      7  N   UNL d   1       0.997   1.506   0.031  0.00  0.00    -0.334 N 
ATOM      8  HN  UNL d   1       1.012   2.525   0.065  1.00  0.00     0.168 HD
ATOM      9  C   UNL d   1       2.094   0.806   0.016  0.00  0.00     0.095 A 
ATOM     10  C   UNL d   1      -1.485   1.216   0.004  0.00  0.00     0.077 A 
ATOM     11  C   UNL d   1      -2.269   0.035  -0.012  0.00  0.00     0.037 A 
ATOM     12  C   UNL d   1       3.417  -1.398  -0.030  0.00  0.00     0.106 C 
ATOM     13  N   UNL d   1       4.409  -2.005  -0.005  0.00  0.00    -0.191 NA
ENDROOT
BRANCH   3  14
ATOM     14  N   UNL d   1       0.838  -2.742  -0.177  0.00  0.00    -0.383 N 
ATOM     15  H   UNL d   1      -0.099  -3.053   0.094  0.00  0.00     0.157 HD
ATOM     16  H   UNL d   1       1.596  -3.324   0.175  0.00  0.00     0.157 HD
ENDBRANCH   3  14
BRANCH   9  17
ATOM     17  S   UNL d   1       3.635   1.659   0.047  0.00  0.00    -0.115 SA
ATOM     18  C   UNL d   1       3.119   3.391   0.039  0.00  0.00     0.097 C 
ENDBRANCH   9  17
BRANCH  11  19
ATOM     19  C   UNL d   1      -3.797  -0.059   0.013  0.00  0.00    -0.007 C 
ATOM     20  C   UNL d   1      -4.296  -1.520   0.015  0.00  0.00     0.021 C 
ATOM     21  C   UNL d   1      -4.351   0.628   1.281  0.00  0.00     0.021 C 
ATOM     22  C   UNL d   1      -4.403   0.642  -1.221  0.00  0.00     0.021 C 
ENDBRANCH  11  19
TORSDOF 3
