REMARK  4 active torsions:
REMARK  status: ('A' for Active; 'I' for Inactive)
REMARK    1  A    between atoms: N_6  and  C_1 
REMARK    2  A    between atoms: N_2  and  C_7 
REMARK    3  A    between atoms: C_8  and  C_5 
REMARK    4  A    between atoms: C_9  and  C_13 
ROOT
ATOM      1  C   UNL d   1       1.415  -0.221   0.160  0.00  0.00     0.132 A 
ATOM      2  C   UNL d   1       0.577  -1.332   0.002  0.00  0.00     0.088 A 
ATOM      3  C   UNL d   1       0.896   1.083   0.243  0.00  0.00     0.054 A 
ATOM      4  C   UNL d   1      -0.488   1.292   0.163  0.00  0.00     0.050 A 
ATOM      5  C   UNL d   1      -0.803  -1.111  -0.135  0.00  0.00     0.035 A 
ATOM      6  C   UNL d   1      -1.328   0.185  -0.040  0.00  0.00     0.019 A 
ENDROOT
BRANCH   2   7
ATOM      7  N   UNL d   1       1.048  -2.671   0.005  0.00  0.00    -0.265 N 
ATOM      8  N   UNL d   1       0.379  -3.632  -0.676  0.00  0.00    -0.290 N 
ATOM      9  C   UNL d   1       1.144  -4.738  -0.570  0.00  0.00     0.134 C 
ATOM     10  HN  UNL d   1      -0.511  -3.540  -1.165  1.00  0.00     0.187 HD
ATOM     11  C   UNL d   1       2.213  -4.518   0.333  0.00  0.00     0.055 C 
ATOM     12  C   UNL d   1       2.108  -3.200   0.703  0.00  0.00     0.119 C 
BRANCH   9  13
ATOM     13  C   UNL d   1       0.861  -6.021  -1.307  0.00  0.00     0.434 C 
ATOM     14  F   UNL d   1      -0.214  -5.949  -2.135  0.00  0.00    -0.165 F 
ATOM     15  F   UNL d   1       1.921  -6.393  -2.075  0.00  0.00    -0.165 F 
ATOM     16  F   UNL d   1       0.629  -7.051  -0.449  0.00  0.00    -0.165 F 
ENDBRANCH   9  13
ENDBRANCH   2   7
BRANCH   1  17
ATOM     17  N   UNL d   1       2.861  -0.336   0.080  0.00  0.00    -0.113 N 
ATOM     18  O   UNL d   1       3.333  -0.821  -0.953  0.00  0.00    -0.532 OA
ATOM     19  O   UNL d   1       3.504   0.077   1.053  0.00  0.00    -0.532 OA
ENDBRANCH   1  17
BRANCH   4  20
ATOM     20  C   UNL d   1      -1.080   2.679   0.284  0.00  0.00     0.417 C 
ATOM     21  F   UNL d   1      -0.140   3.652   0.435  0.00  0.00    -0.166 F 
ATOM     22  F   UNL d   1      -1.813   3.029  -0.806  0.00  0.00    -0.166 F 
ATOM     23  F   UNL d   1      -1.912   2.791   1.355  0.00  0.00    -0.166 F 
ENDBRANCH   4  20
TORSDOF 4
