REMARK  4 active torsions:
REMARK  status: ('A' for Active; 'I' for Inactive)
REMARK    1  A    between atoms: O_14  and  N_1 
REMARK    2  A    between atoms: C_6  and  C_12 
REMARK    3  A    between atoms: C_22  and  N_9 
REMARK    4  A    between atoms: C_12  and  O_14 
ROOT
ATOM      1  C   UNL d   1      -4.276  -1.356  -0.572  0.00  0.00     0.336 C 
ATOM      2  O   UNL d   1      -5.429  -1.167  -0.951  0.00  0.00    -0.255 OA
ENDROOT
BRANCH   1   3
ATOM      3  C   UNL d   1      -3.659  -2.671  -0.430  0.00  0.00     0.151 A 
ATOM      4  N   UNL d   1      -2.376  -2.828  -0.055  0.00  0.00    -0.272 N 
ATOM      5  N   UNL d   1      -2.227  -4.173  -0.016  0.00  0.00    -0.196 N 
ATOM      6  HN  UNL d   1      -1.684  -2.107   0.150  1.00  0.00     0.189 HD
ATOM      7  N   UNL d   1      -3.326  -4.898  -0.347  0.00  0.00    -0.281 N 
ATOM      8  C   UNL d   1      -4.242  -3.950  -0.583  0.00  0.00     0.058 A 
ATOM      9  HN  UNL d   1      -3.427  -5.912  -0.402  1.00  0.00     0.189 HD
ATOM     10  C   UNL d   1      -5.637  -4.313  -0.924  0.00  0.00     0.072 C 
BRANCH   5  11
ATOM     11  C   UNL d   1      -0.989  -4.772   0.326  0.00  0.00     0.074 A 
ATOM     12  C   UNL d   1       0.083  -3.972   0.753  0.00  0.00     0.033 A 
ATOM     13  C   UNL d   1       1.310  -4.559   1.064  0.00  0.00     0.002 A 
ATOM     14  C   UNL d   1       1.474  -5.939   0.943  0.00  0.00     0.000 A 
ATOM     15  C   UNL d   1       0.409  -6.737   0.526  0.00  0.00     0.002 A 
ATOM     16  C   UNL d   1      -0.826  -6.160   0.224  0.00  0.00     0.033 A 
ENDBRANCH   5  11
ENDBRANCH   1   3
BRANCH   1  17
ATOM     17  O   UNL d   1      -3.420  -0.361  -0.171  0.00  0.00    -0.181 OA
BRANCH  17  18
ATOM     18  N   UNL d   1      -4.065   0.750   0.381  0.00  0.00    -0.144 N 
ATOM     19  C   UNL d   1      -3.471   1.973   0.290  0.00  0.00     0.259 C 
ATOM     20  C   UNL d   1      -4.149   2.878   1.283  0.00  0.00     0.129 C 
ATOM     21  O   UNL d   1      -2.518   2.302  -0.401  0.00  0.00    -0.270 OA
ATOM     22  C   UNL d   1      -3.179   3.294   2.394  0.00  0.00     0.159 C 
ATOM     23  C   UNL d   1      -5.119   1.945   2.050  0.00  0.00     0.129 C 
ATOM     24  C   UNL d   1      -3.892   4.158   3.396  0.00  0.00     0.004 C 
ATOM     25  O   UNL d   1      -3.136   2.065   3.172  0.00  0.00    -0.371 OA
ATOM     26  C   UNL d   1      -4.742   3.354   4.053  0.00  0.00     0.004 C 
ATOM     27  C   UNL d   1      -4.560   1.987   3.470  0.00  0.00     0.159 C 
ATOM     28  C   UNL d   1      -4.854   0.588   1.478  0.00  0.00     0.259 C 
ATOM     29  O   UNL d   1      -5.232  -0.462   1.984  0.00  0.00    -0.270 OA
ENDBRANCH  17  18
ENDBRANCH   1  17
TORSDOF 4
