REMARK  3 active torsions:
REMARK  status: ('A' for Active; 'I' for Inactive)
REMARK    1  A    between atoms: C_2  and  C_1 
REMARK    2  A    between atoms: C_4  and  C_2 
REMARK    3  A    between atoms: C_5  and  C_4 
ROOT
ATOM      1  C   UNL d   1      -1.460  -1.990  -0.668  0.00  0.00     0.093 C 
ENDROOT
BRANCH   1   2
ATOM      2  C   UNL d   1      -0.768  -0.862  -0.472  0.00  0.00     0.076 A 
ATOM      3  N   UNL d   1       0.585  -0.754  -0.414  0.00  0.00    -0.321 N 
ATOM      4  C   UNL d   1       1.135   0.489  -0.223  0.00  0.00     0.232 A 
ATOM      5  H   UNL d   1       1.187  -1.565  -0.535  0.00  0.00     0.169 HD
ATOM      6  O   UNL d   1       2.337   0.705  -0.135  0.00  0.00    -0.272 OA
ATOM      7  C   UNL d   1       0.066   1.559  -0.161  0.00  0.00     0.184 A 
ATOM      8  S   UNL d   1      -1.530   0.671  -0.232  0.00  0.00    -0.103 SA
ENDBRANCH   1   2
BRANCH   1   9
ATOM      9  C   UNL d   1      -0.808  -3.319  -0.867  0.00  0.00     0.191 C 
ATOM     10  O   UNL d   1       0.387  -3.352  -1.163  0.00  0.00    -0.287 OA
BRANCH   9  11
ATOM     11  C   UNL d   1      -1.639  -4.506  -0.684  0.00  0.00     0.054 A 
ATOM     12  S   UNL d   1      -1.006  -6.040  -1.134  0.00  0.00    -0.098 SA
ATOM     13  C   UNL d   1      -2.408  -6.859  -0.604  0.00  0.00     0.050 A 
ATOM     14  C   UNL d   1      -3.352  -5.993  -0.102  0.00  0.00     0.009 A 
ATOM     15  C   UNL d   1      -2.912  -4.637  -0.154  0.00  0.00     0.023 A 
ENDBRANCH   9  11
ENDBRANCH   1   9
TORSDOF 3
