REMARK  8 active torsions:
REMARK  status: ('A' for Active; 'I' for Inactive)
REMARK    1  A    between atoms: C_13  and  C_2 
REMARK    2  A    between atoms: N_18  and  C_6 
REMARK    3  A    between atoms: O_23  and  C_12 
REMARK    4  A    between atoms: O_24  and  C_14 
REMARK    5  A    between atoms: N_16  and  C_25 
REMARK    6  A    between atoms: C_28  and  N_18 
REMARK    7  A    between atoms: C_20  and  C_21 
REMARK    8  A    between atoms: C_25  and  C_28 
ROOT
ATOM      1  C   UNL d   1       0.298   1.372  -1.137  0.00  0.00     0.048 A 
ATOM      2  C   UNL d   1      -0.901   2.209  -1.231  0.00  0.00    -0.003 A 
ATOM      3  C   UNL d   1      -1.931   1.534  -1.869  0.00  0.00     0.065 A 
ATOM      4  C   UNL d   1       0.053   0.123  -1.700  0.00  0.00     0.089 A 
ATOM      5  S   UNL d   1      -1.510  -0.044  -2.345  0.00  0.00    -0.082 SA
ATOM      6  C   UNL d   1       1.610   1.543  -0.625  0.00  0.00     0.095 A 
ATOM      7  N   UNL d   1       0.900  -0.917  -1.774  0.00  0.00    -0.346 N 
ATOM      8  HN  UNL d   1       0.663  -1.811  -2.205  1.00  0.00     0.167 HD
ATOM      9  N   UNL d   1       2.468   0.500  -0.655  0.00  0.00    -0.342 N 
ATOM     10  HN  UNL d   1       3.400   0.587  -0.249  1.00  0.00     0.167 HD
ATOM     11  C   UNL d   1       2.080  -0.650  -1.224  0.00  0.00     0.182 A 
ENDROOT
BRANCH   6  12
ATOM     12  N   UNL d   1       2.031   2.725  -0.000  0.00  0.00    -0.277 NA
ATOM     13  H   UNL d   1       1.896   2.562   0.994  0.00  0.00     0.129 HD
BRANCH  12  14
ATOM     14  C   UNL d   1       3.457   3.043  -0.200  0.00  0.00     0.113 C 
BRANCH  14  15
ATOM     15  C   UNL d   1       3.642   4.572  -0.224  0.00  0.00     0.133 C 
BRANCH  15  16
ATOM     16  N   UNL d   1       3.126   5.096  -1.500  0.00  0.00    -0.397 N 
ATOM     17  C   UNL d   1       2.049   5.796  -1.400  0.00  0.00     0.094 C 
ATOM     18  HN  UNL d   1       3.585   4.919  -2.394  1.00  0.00     0.158 HD
BRANCH  17  19
ATOM     19  C   UNL d   1       1.326   6.269  -2.595  0.00  0.00    -0.018 A 
ATOM     20  C   UNL d   1       1.539   5.652  -3.831  0.00  0.00     0.052 A 
ATOM     21  C   UNL d   1       0.792   6.042  -4.944  0.00  0.00     0.102 A 
ATOM     22  C   UNL d   1      -0.194   7.028  -4.787  0.00  0.00     0.099 A 
ATOM     23  C   UNL d   1      -0.399   7.654  -3.557  0.00  0.00     0.040 A 
ATOM     24  C   UNL d   1       0.378   7.284  -2.460  0.00  0.00     0.015 A 
BRANCH  21  25
ATOM     25  O   UNL d   1       0.937   5.514  -6.201  0.00  0.00    -0.353 OA
ATOM     26  C   UNL d   1       2.079   4.695  -6.418  0.00  0.00     0.210 C 
ENDBRANCH  21  25
BRANCH  22  27
ATOM     27  O   UNL d   1      -0.967   7.380  -5.862  0.00  0.00    -0.358 OA
ATOM     28  H   UNL d   1      -1.592   8.071  -5.596  0.00  0.00     0.217 HD
ENDBRANCH  22  27
ENDBRANCH  17  19
ENDBRANCH  15  16
ENDBRANCH  14  15
ENDBRANCH  12  14
ENDBRANCH   6  12
BRANCH   2  29
ATOM     29  C   UNL d   1      -1.143   3.576  -0.748  0.00  0.00    -0.024 A 
ATOM     30  C   UNL d   1      -1.891   4.491  -1.515  0.00  0.00     0.012 A 
ATOM     31  C   UNL d   1      -2.156   5.779  -1.040  0.00  0.00     0.001 A 
ATOM     32  C   UNL d   1      -1.625   6.199   0.177  0.00  0.00     0.000 A 
ATOM     33  C   UNL d   1      -0.879   5.312   0.944  0.00  0.00     0.001 A 
ATOM     34  C   UNL d   1      -0.678   4.002   0.499  0.00  0.00     0.012 A 
ENDBRANCH   2  29
TORSDOF 8
