REMARK  3 active torsions:
REMARK  status: ('A' for Active; 'I' for Inactive)
REMARK    1  A    between atoms: C_4  and  C_1 
REMARK    2  A    between atoms: C_3  and  C_2 
REMARK       I    between atoms: N_13  and  C_4 
REMARK    3  A    between atoms: C_16  and  N_13 
ROOT
ATOM      1  C   UNL d   1      -0.184  -1.170   0.227  0.00  0.00     0.094 A 
ATOM      2  C   UNL d   1      -1.459  -0.638   0.358  0.00  0.00     0.145 A 
ATOM      3  O   UNL d   1      -1.397   0.710   0.119  0.00  0.00    -0.234 OA
ATOM      4  N   UNL d   1      -0.107   1.109  -0.100  0.00  0.00    -0.264 N 
ATOM      5  HN  UNL d   1       0.223   2.054  -0.294  1.00  0.00     0.194 HD
ATOM      6  C   UNL d   1       0.627  -0.001  -0.006  0.00  0.00     0.047 A 
ATOM      7  C   UNL d   1       2.106   0.099  -0.118  0.00  0.00     0.071 C 
ENDROOT
BRANCH   1   8
ATOM      8  C   UNL d   1       0.383  -2.512   0.326  0.00  0.00     0.261 C 
ATOM      9  N   UNL d   1      -0.451  -3.597   0.509  0.00  0.00    -0.323 N 
ATOM     10  H   UNL d   1      -1.455  -3.448   0.472  0.00  0.00     0.169 HD
ATOM     11  O   UNL d   1       1.601  -2.632   0.195  0.00  0.00    -0.267 OA
BRANCH   9  12
ATOM     12  C   UNL d   1      -0.018  -4.937   0.705  0.00  0.00     0.035 A 
ATOM     13  C   UNL d   1       1.304  -5.282   1.020  0.00  0.00     0.031 A 
ATOM     14  C   UNL d   1       1.683  -6.614   1.215  0.00  0.00     0.026 A 
ATOM     15  C   UNL d   1       0.735  -7.620   1.096  0.00  0.00     0.034 A 
ATOM     16  C   UNL d   1      -0.586  -7.301   0.788  0.00  0.00     0.026 A 
ATOM     17 CL   UNL d   1       1.197  -9.259   1.341  0.00  0.00    -0.084 Cl
ATOM     18  C   UNL d   1      -0.964  -5.964   0.602  0.00  0.00     0.031 A 
ENDBRANCH   9  12
ENDBRANCH   1   8
BRANCH   2  19
ATOM     19  C   UNL d   1      -2.766  -1.234   0.742  0.00  0.00     0.094 A 
ATOM     20  N   UNL d   1      -2.972  -2.521   1.042  0.00  0.00    -0.258 N 
ATOM     21  O   UNL d   1      -4.297  -2.599   1.459  0.00  0.00    -0.242 OA
ATOM     22  HN  UNL d   1      -2.299  -3.285   0.978  1.00  0.00     0.195 HD
ATOM     23  C   UNL d   1      -4.871  -1.366   1.381  0.00  0.00     0.074 A 
ATOM     24  C   UNL d   1      -3.952  -0.474   0.893  0.00  0.00     0.068 A 
ATOM     25  C   UNL d   1      -6.265  -1.236   1.843  0.00  0.00     0.079 C 
ENDBRANCH   2  19
TORSDOF 3
