REMARK  5 active torsions:
REMARK  status: ('A' for Active; 'I' for Inactive)
REMARK    1  A    between atoms: C_7  and  C_1 
REMARK    2  A    between atoms: C_8  and  N_2 
REMARK    3  A    between atoms: C_11  and  C_3 
REMARK    4  A    between atoms: O_10  and  C_7 
REMARK    5  A    between atoms: C_14  and  C_11 
ROOT
ATOM      1  C   UNL d   1      -0.345   1.194  -0.002  0.00  0.00     0.079 C 
ATOM      2  N   UNL d   1       0.942  -0.634  -0.034  0.00  0.00    -0.260 N 
ATOM      3  C   UNL d   1       0.985   0.764   0.012  0.00  0.00     0.053 C 
ATOM      4  N   UNL d   1      -0.329  -1.060  -0.289  0.00  0.00    -0.304 N 
ATOM      5  HN  UNL d   1      -0.629  -2.004  -0.534  1.00  0.00     0.186 HD
ATOM      6  C   UNL d   1      -1.091   0.015  -0.150  0.00  0.00     0.128 C 
ENDROOT
BRANCH   2   7
ATOM      7  C   UNL d   1       1.944  -1.633   0.174  0.00  0.00     0.056 A 
ATOM      8  C   UNL d   1       3.134  -1.378   0.862  0.00  0.00     0.031 A 
ATOM      9  C   UNL d   1       4.041  -2.414   1.115  0.00  0.00     0.002 A 
ATOM     10  C   UNL d   1       3.770  -3.712   0.688  0.00  0.00     0.000 A 
ATOM     11  C   UNL d   1       2.594  -3.979  -0.004  0.00  0.00     0.002 A 
ATOM     12  C   UNL d   1       1.685  -2.949  -0.256  0.00  0.00     0.031 A 
ENDBRANCH   2   7
BRANCH   3  13
ATOM     13  C   UNL d   1       2.219   1.623   0.017  0.00  0.00     0.060 C 
BRANCH  13  14
ATOM     14  C   UNL d   1       3.123   1.452  -1.207  0.00  0.00     0.002 C 
ATOM     15  C   UNL d   1       2.443   1.817  -2.519  0.00  0.00     0.005 C 
ENDBRANCH  13  14
ENDBRANCH   3  13
BRANCH   1  16
ATOM     16  C   UNL d   1      -0.841   2.557   0.115  0.00  0.00     0.179 C 
ATOM     17  O   UNL d   1      -0.253   3.449   0.705  0.00  0.00    -0.646 OA
BRANCH  16  18
ATOM     18  O   UNL d   1      -2.034   2.780  -0.496  0.00  0.00    -0.773 OA
ATOM     19  H   UNL d   1      -2.336   2.039  -1.050  0.00  0.00     0.167 HD
ENDBRANCH  16  18
ENDBRANCH   1  16
TORSDOF 5
