REMARK  3 active torsions:
REMARK  status: ('A' for Active; 'I' for Inactive)
REMARK    1  A    between atoms: O_4  and  C_1 
REMARK    2  A    between atoms: C_12  and  O_4 
REMARK    3  A    between atoms: C_5  and  C_6 
ROOT
ATOM      1  C   UNL d   1      -6.152  -0.200  -0.132  0.00  0.00     0.009 A 
ATOM      2  C   UNL d   1      -5.256  -0.154  -1.204  0.00  0.00     0.018 A 
ATOM      3  C   UNL d   1      -5.808  -0.899   1.032  0.00  0.00     0.018 A 
ATOM      4  C   UNL d   1      -3.703  -1.554   0.040  0.00  0.00     0.076 A 
ATOM      5  C   UNL d   1      -4.572  -1.546   1.132  0.00  0.00     0.038 A 
ATOM      6  C   UNL d   1      -4.036  -0.832  -1.112  0.00  0.00     0.038 A 
ENDROOT
BRANCH   4   7
ATOM      7  O   UNL d   1      -2.502  -2.225  -0.020  0.00  0.00    -0.309 OA
BRANCH   7   8
ATOM      8  C   UNL d   1      -2.245  -3.279   0.828  0.00  0.00     0.098 A 
ATOM      9  C   UNL d   1      -3.050  -4.418   0.986  0.00  0.00     0.069 A 
ATOM     10  C   UNL d   1      -2.659  -5.433   1.865  0.00  0.00     0.050 A 
ATOM     11 CL   UNL d   1      -4.500  -4.684   0.082  0.00  0.00    -0.081 Cl
ATOM     12  C   UNL d   1      -1.435  -5.350   2.523  0.00  0.00     0.035 A 
ATOM     13  C   UNL d   1      -0.595  -4.259   2.317  0.00  0.00     0.026 A 
ATOM     14 CL   UNL d   1      -0.940  -6.622   3.570  0.00  0.00    -0.084 Cl
ATOM     15  C   UNL d   1      -1.003  -3.222   1.474  0.00  0.00     0.041 A 
ENDBRANCH   7   8
ENDBRANCH   4   7
BRANCH   1  16
ATOM     16  C   UNL d   1      -7.484   0.457  -0.183  0.00  0.00     0.155 C 
ATOM     17  O   UNL d   1      -8.431  -0.057   0.416  0.00  0.00    -0.293 OA
ATOM     18  C   UNL d   1      -7.644   1.760  -0.917  0.00  0.00     0.096 C 
ENDBRANCH   1  16
TORSDOF 3
