REMARK  4 active torsions:
REMARK  status: ('A' for Active; 'I' for Inactive)
REMARK    1  A    between atoms: N_2  and  S_1 
REMARK    2  A    between atoms: C_4  and  S_1 
REMARK    3  A    between atoms: S_5  and  N_2 
REMARK    4  A    between atoms: C_13  and  S_5 
ROOT
ATOM      1  N   UNL d   1       0.424   0.316  -1.364  0.00  0.00    -0.236 N 
ATOM      2  HN  UNL d   1      -0.266  -0.351  -1.710  1.00  0.00     0.189 HD
ENDROOT
BRANCH   1   3
ATOM      3  S   UNL d   1       1.116   0.075   0.156  0.00  0.00     0.274 S 
ATOM      4  O   UNL d   1       0.671   1.122   1.052  0.00  0.00    -0.200 OA
ATOM      5  O   UNL d   1       2.506  -0.307   0.040  0.00  0.00    -0.200 OA
BRANCH   3   6
ATOM      6  C   UNL d   1       0.393  -1.348   0.778  0.00  0.00     0.135 A 
ATOM      7  C   UNL d   1       0.424  -2.597   0.203  0.00  0.00     0.098 A 
ATOM      8  O   UNL d   1      -0.264  -3.460   0.997  0.00  0.00    -0.241 OA
ATOM      9  C   UNL d   1       1.019  -3.183  -1.013  0.00  0.00     0.081 C 
ATOM     10  N   UNL d   1      -0.750  -2.788   2.100  0.00  0.00    -0.264 N 
ATOM     11  C   UNL d   1      -0.338  -1.519   1.976  0.00  0.00     0.054 A 
ATOM     12  HN  UNL d   1      -1.310  -3.179   2.858  1.00  0.00     0.194 HD
ATOM     13  C   UNL d   1      -0.686  -0.538   3.032  0.00  0.00     0.072 C 
ENDBRANCH   3   6
ENDBRANCH   1   3
BRANCH   1  14
ATOM     14  S   UNL d   1       0.844   1.616  -2.307  0.00  0.00     0.061 S 
ATOM     15  O   UNL d   1       2.268   1.752  -2.491  0.00  0.00    -0.244 OA
ATOM     16  C   UNL d   1       0.031   1.324  -3.850  0.00  0.00     0.143 C 
BRANCH  14  17
ATOM     17  C   UNL d   1       0.132   3.065  -1.642  0.00  0.00     0.039 A 
ATOM     18  C   UNL d   1       0.807   4.277  -1.803  0.00  0.00     0.023 A 
ATOM     19  C   UNL d   1       0.207   5.462  -1.371  0.00  0.00     0.025 A 
ATOM     20  C   UNL d   1      -1.050   5.421  -0.769  0.00  0.00     0.034 A 
ATOM     21  C   UNL d   1      -1.709   4.205  -0.584  0.00  0.00     0.025 A 
ATOM     22 CL   UNL d   1      -1.805   6.884  -0.268  0.00  0.00    -0.084 Cl
ATOM     23  C   UNL d   1      -1.119   3.018  -1.026  0.00  0.00     0.023 A 
ENDBRANCH  14  17
ENDBRANCH   1  14
TORSDOF 4
