REMARK  0 active torsions:
REMARK  status: ('A' for Active; 'I' for Inactive)
ROOT
ATOM      1  C   UNL d   1       2.731  -0.762   2.022  0.00  0.00    -0.060 C 
ATOM      2  C   UNL d   1       3.174   0.383   1.135  0.00  0.00     0.041 C 
ATOM      3  C   UNL d   1       1.573  -1.427   1.903  0.00  0.00     0.054 C 
ATOM      4  C   UNL d   1       3.408   1.356   2.277  0.00  0.00     0.139 C 
ATOM      5  C   UNL d   1       2.150   0.785   0.069  0.00  0.00     0.029 C 
ATOM      6  C   UNL d   1       0.556  -0.939   0.939  0.00  0.00     0.149 C 
ATOM      7  C   UNL d   1       3.583  -0.823   3.258  0.00  0.00     0.043 C 
ATOM      8  C   UNL d   1       3.885   0.651   3.533  0.00  0.00     0.084 C 
ATOM      9  O   UNL d   1       3.288   2.575   2.189  0.00  0.00    -0.297 OA
ATOM     10  O   UNL d   1      -0.427  -1.630   0.693  0.00  0.00    -0.293 OA
ATOM     11  C   UNL d   1       0.706   0.482   0.439  0.00  0.00     0.084 C 
ATOM     12  C   UNL d   1       4.541   0.157   0.466  0.00  0.00     0.028 C 
ENDROOT
TORSDOF 0
