REMARK  8 active torsions:
REMARK  status: ('A' for Active; 'I' for Inactive)
REMARK    1  A    between atoms: S_8  and  C_2 
REMARK    2  A    between atoms: C_6  and  C_3 
REMARK    3  A    between atoms: O_14  and  C_6 
REMARK    4  A    between atoms: C_13  and  S_8 
REMARK    5  A    between atoms: C_10  and  C_13 
REMARK    6  A    between atoms: O_16  and  C_10 
REMARK    7  A    between atoms: C_17  and  O_14 
REMARK    8  A    between atoms: C_18  and  O_16 
ROOT
ATOM      1  C   UNL d   1      -0.184  -1.082   0.054  0.00  0.00     0.075 A 
ATOM      2  C   UNL d   1       1.153  -0.726   0.073  0.00  0.00     0.064 A 
ATOM      3  C   UNL d   1      -0.360   1.264  -0.004  0.00  0.00     0.088 A 
ATOM      4  S   UNL d   1       1.328   0.971   0.024  0.00  0.00    -0.075 SA
ATOM      5  C   UNL d   1      -1.076   0.068   0.005  0.00  0.00    -0.016 A 
ATOM      6  C   UNL d   1      -0.651  -2.438   0.091  0.00  0.00     0.102 C 
ATOM      7  N   UNL d   1      -1.024  -3.540   0.110  0.00  0.00    -0.191 NA
ATOM      8  C   UNL d   1      -2.571  -0.071  -0.015  0.00  0.00     0.051 C 
ENDROOT
BRANCH   2   9
ATOM      9  S   UNL d   1       2.631  -1.671   0.211  0.00  0.00    -0.111 SA
BRANCH   9  10
ATOM     10  C   UNL d   1       2.434  -3.150  -0.794  0.00  0.00     0.191 C 
BRANCH  10  11
ATOM     11  C   UNL d   1       1.995  -2.919  -2.220  0.00  0.00     0.268 C 
ATOM     12  O   UNL d   1       1.258  -2.029  -2.621  0.00  0.00    -0.264 OA
BRANCH  11  13
ATOM     13  O   UNL d   1       2.427  -3.973  -2.978  0.00  0.00    -0.321 OA
BRANCH  13  14
ATOM     14  C   UNL d   1       1.731  -4.181  -4.215  0.00  0.00     0.174 C 
ATOM     15  C   UNL d   1       0.560  -5.107  -3.936  0.00  0.00     0.034 C 
ENDBRANCH  13  14
ENDBRANCH  11  13
ENDBRANCH  10  11
ENDBRANCH   9  10
ENDBRANCH   2   9
BRANCH   3  16
ATOM     16  C   UNL d   1      -0.856   2.643  -0.032  0.00  0.00     0.300 C 
ATOM     17  O   UNL d   1      -2.032   2.976  -0.094  0.00  0.00    -0.259 OA
BRANCH  16  18
ATOM     18  O   UNL d   1       0.177   3.537   0.037  0.00  0.00    -0.317 OA
BRANCH  18  19
ATOM     19  C   UNL d   1      -0.160   4.929   0.008  0.00  0.00     0.174 C 
ATOM     20  C   UNL d   1      -0.445   5.428   1.412  0.00  0.00     0.034 C 
ENDBRANCH  18  19
ENDBRANCH  16  18
ENDBRANCH   3  16
TORSDOF 8
