REMARK  3 active torsions:
REMARK  status: ('A' for Active; 'I' for Inactive)
REMARK    1  A    between atoms: C_10  and  C_2 
REMARK    2  A    between atoms: C_13  and  C_9 
REMARK    3  A    between atoms: C_14  and  C_15 
ROOT
ATOM      1  N   UNL d   1      -0.299  -0.248   0.697  0.00  0.00    -0.235 N 
ATOM      2  C   UNL d   1       0.842  -0.551   1.433  0.00  0.00     0.143 A 
ATOM      3  C   UNL d   1      -0.183   0.369  -0.553  0.00  0.00     0.130 A 
ATOM      4  N   UNL d   1      -1.597  -0.466   1.007  0.00  0.00    -0.291 N 
ATOM      5  HN  UNL d   1      -1.959  -0.895   1.859  1.00  0.00     0.187 HD
ATOM      6  C   UNL d   1      -1.462   0.525  -1.023  0.00  0.00     0.082 A 
ATOM      7  N   UNL d   1       1.018   0.708  -1.105  0.00  0.00    -0.345 N 
ATOM      8  HN  UNL d   1       1.081   1.162  -2.016  1.00  0.00     0.167 HD
ATOM      9  C   UNL d   1      -2.315  -0.008  -0.028  0.00  0.00     0.062 A 
ATOM     10  C   UNL d   1       2.054  -0.241   0.930  0.00  0.00     0.061 A 
ATOM     11  C   UNL d   1       2.076   0.423  -0.409  0.00  0.00     0.009 A 
ATOM     12  C   UNL d   1       3.429   0.781  -0.969  0.00  0.00     0.068 C 
ENDROOT
BRANCH   9  13
ATOM     13  C   UNL d   1      -3.781  -0.079  -0.045  0.00  0.00    -0.008 A 
ATOM     14  C   UNL d   1      -4.499  -0.598   1.038  0.00  0.00     0.014 A 
ATOM     15  C   UNL d   1      -5.902  -0.643   1.018  0.00  0.00     0.009 A 
ATOM     16  C   UNL d   1      -6.635  -0.180  -0.089  0.00  0.00    -0.051 A 
ATOM     17  C   UNL d   1      -5.900   0.323  -1.173  0.00  0.00     0.009 A 
ATOM     18  C   UNL d   1      -4.502   0.373  -1.153  0.00  0.00     0.014 A 
BRANCH  16  19
ATOM     19  C   UNL d   1      -8.172  -0.222  -0.095  0.00  0.00    -0.024 C 
ATOM     20  C   UNL d   1      -8.792   0.347  -1.393  0.00  0.00     0.019 C 
ATOM     21  C   UNL d   1      -8.661  -1.678   0.047  0.00  0.00     0.019 C 
ATOM     22  C   UNL d   1      -8.729   0.613   1.077  0.00  0.00     0.019 C 
ENDBRANCH  16  19
ENDBRANCH   9  13
BRANCH   2  23
ATOM     23  C   UNL d   1       0.698  -1.209   2.754  0.00  0.00     0.434 C 
ATOM     24  F   UNL d   1      -0.556  -1.517   3.155  0.00  0.00    -0.165 F 
ATOM     25  F   UNL d   1       1.404  -2.374   2.784  0.00  0.00    -0.165 F 
ATOM     26  F   UNL d   1       1.234  -0.431   3.735  0.00  0.00    -0.165 F 
ENDBRANCH   2  23
TORSDOF 3
