REMARK  8 active torsions:
REMARK  status: ('A' for Active; 'I' for Inactive)
REMARK    1  A    between atoms: C_6  and  C_1 
REMARK    2  A    between atoms: C_4  and  C_5 
REMARK    3  A    between atoms: O_14  and  C_6 
REMARK    4  A    between atoms: C_8  and  S_15 
REMARK    5  A    between atoms: C_19  and  C_10 
REMARK    6  A    between atoms: N_23  and  C_10 
REMARK    7  A    between atoms: N_11  and  O_14 
REMARK    8  A    between atoms: S_15  and  C_19 
ROOT
ATOM      1  C   UNL d   1      -5.086   1.090   0.110  0.00  0.00     0.105 C 
ATOM      2  N   UNL d   1      -3.910   0.540   0.073  0.00  0.00    -0.245 N 
ATOM      3  HN  UNL d   1      -3.775  -0.462  -0.061  1.00  0.00     0.196 HD
ENDROOT
BRANCH   1   4
ATOM      4  C   UNL d   1      -6.331   0.167   0.030  0.00  0.00     0.158 C 
BRANCH   4   5
ATOM      5  S   UNL d   1      -5.814  -1.581  -0.111  0.00  0.00    -0.104 SA
BRANCH   5   6
ATOM      6  C   UNL d   1      -7.304  -2.531   0.032  0.00  0.00     0.085 A 
ATOM      7  C   UNL d   1      -7.267  -3.925   0.091  0.00  0.00     0.081 A 
ATOM      8  C   UNL d   1      -8.498  -4.610   0.124  0.00  0.00     0.020 A 
ATOM      9  C   UNL d   1      -9.694  -3.913   0.114  0.00  0.00     0.018 A 
ATOM     10  C   UNL d   1      -9.629  -2.534   0.074  0.00  0.00     0.089 A 
ATOM     11  N   UNL d   1      -8.470  -1.835   0.031  0.00  0.00    -0.360 N 
ATOM     12  HN  UNL d   1      -8.473  -0.815  -0.001  1.00  0.00     0.166 HD
BRANCH   7  13
ATOM     13  C   UNL d   1      -6.019  -4.768   0.098  0.00  0.00     0.420 C 
ATOM     14  F   UNL d   1      -4.822  -4.136   0.193  0.00  0.00    -0.166 F 
ATOM     15  F   UNL d   1      -6.029  -5.657   1.137  0.00  0.00    -0.166 F 
ATOM     16  F   UNL d   1      -5.934  -5.541  -1.025  0.00  0.00    -0.166 F 
ENDBRANCH   7  13
ENDBRANCH   5   6
ENDBRANCH   4   5
ENDBRANCH   1   4
BRANCH   1  17
ATOM     17  N   UNL d   1      -5.290   2.445   0.228  0.00  0.00    -0.387 N 
ATOM     18  H   UNL d   1      -4.473   2.999   0.000  0.00  0.00     0.157 HD
ATOM     19  H   UNL d   1      -6.157   2.822  -0.132  0.00  0.00     0.157 HD
ENDBRANCH   1  17
BRANCH   2  20
ATOM     20  O   UNL d   1      -2.834   1.437   0.232  0.00  0.00    -0.192 OA
BRANCH  20  21
ATOM     21  C   UNL d   1      -1.756   0.714   0.713  0.00  0.00     0.333 C 
ATOM     22  O   UNL d   1      -1.792  -0.462   1.073  0.00  0.00    -0.256 OA
BRANCH  21  23
ATOM     23  C   UNL d   1      -0.516   1.477   0.798  0.00  0.00     0.134 A 
ATOM     24  N   UNL d   1      -0.364   2.732   0.342  0.00  0.00    -0.255 N 
ATOM     25  O   UNL d   1       0.956   3.074   0.606  0.00  0.00    -0.242 OA
ATOM     26  HN  UNL d   1      -1.073   3.314  -0.106  1.00  0.00     0.195 HD
ATOM     27  C   UNL d   1       1.583   2.034   1.221  0.00  0.00     0.075 A 
ATOM     28  C   UNL d   1       0.698   1.000   1.361  0.00  0.00     0.072 A 
ATOM     29  C   UNL d   1       2.995   2.225   1.592  0.00  0.00     0.079 C 
ENDBRANCH  21  23
ENDBRANCH  20  21
ENDBRANCH   2  20
TORSDOF 8
