REMARK  2 active torsions:
REMARK  status: ('A' for Active; 'I' for Inactive)
REMARK    1  A    between atoms: C_9  and  C_3 
REMARK    2  A    between atoms: C_17  and  C_4 
ROOT
ATOM      1  C   UNL d   1      -3.857   1.571  -0.535  0.00  0.00     0.150 C 
ATOM      2  C   UNL d   1      -3.268   1.990   0.824  0.00  0.00     0.195 C 
ATOM      3  C   UNL d   1      -4.332   0.098  -0.441  0.00  0.00     0.080 C 
ATOM      4  C   UNL d   1      -4.736   2.740  -1.090  0.00  0.00     0.200 C 
ATOM      5  O   UNL d   1      -4.835   3.945  -0.287  0.00  0.00    -0.337 OA
ATOM      6  N   UNL d   1      -2.654   1.452  -1.423  0.00  0.00    -0.319 N 
ATOM      7  HN  UNL d   1      -2.270   2.221  -1.973  1.00  0.00     0.181 HD
ATOM      8  C   UNL d   1      -2.874   3.386   0.961  0.00  0.00     0.046 A 
ATOM      9  C   UNL d   1      -3.714   4.317   0.383  0.00  0.00     0.083 A 
ATOM     10  N   UNL d   1      -2.176   0.290  -1.407  0.00  0.00    -0.339 N 
ATOM     11  HN  UNL d   1      -1.356  -0.004  -1.938  1.00  0.00     0.179 HD
ATOM     12  O   UNL d   1      -3.066   1.236   1.771  0.00  0.00    -0.289 OA
ATOM     13  C   UNL d   1      -2.958  -0.592  -0.520  0.00  0.00     0.151 C 
ATOM     14  C   UNL d   1      -1.766   3.771   1.720  0.00  0.00     0.018 A 
ATOM     15  C   UNL d   1      -3.482   5.670   0.602  0.00  0.00     0.038 A 
ATOM     16  C   UNL d   1      -1.508   5.126   1.901  0.00  0.00     0.001 A 
ATOM     17  C   UNL d   1      -2.372   6.077   1.351  0.00  0.00     0.003 A 
ENDROOT
BRANCH   3  18
ATOM     18  C   UNL d   1      -5.203  -0.656  -1.447  0.00  0.00    -0.028 A 
ATOM     19  C   UNL d   1      -5.890  -1.831  -1.048  0.00  0.00     0.042 A 
ATOM     20  C   UNL d   1      -6.516  -2.665  -1.977  0.00  0.00     0.048 A 
ATOM     21 CL   UNL d   1      -5.927  -2.366   0.601  0.00  0.00    -0.084 Cl
ATOM     22  C   UNL d   1      -6.479  -2.337  -3.325  0.00  0.00     0.035 A 
ATOM     23  C   UNL d   1      -5.834  -1.180  -3.745  0.00  0.00     0.024 A 
ATOM     24 CL   UNL d   1      -7.191  -3.395  -4.479  0.00  0.00    -0.084 Cl
ATOM     25  C   UNL d   1      -5.187  -0.351  -2.819  0.00  0.00     0.011 A 
ENDBRANCH   3  18
BRANCH   4  26
ATOM     26  C   UNL d   1      -6.176   2.474  -1.480  0.00  0.00    -0.026 A 
ATOM     27  C   UNL d   1      -7.130   2.039  -0.549  0.00  0.00     0.010 A 
ATOM     28  C   UNL d   1      -8.466   1.884  -0.927  0.00  0.00     0.001 A 
ATOM     29  C   UNL d   1      -8.871   2.173  -2.230  0.00  0.00     0.000 A 
ATOM     30  C   UNL d   1      -7.940   2.627  -3.162  0.00  0.00     0.001 A 
ATOM     31  C   UNL d   1      -6.606   2.784  -2.787  0.00  0.00     0.010 A 
ENDBRANCH   4  26
TORSDOF 2
