REMARK  2 active torsions:
REMARK  status: ('A' for Active; 'I' for Inactive)
REMARK    1  A    between atoms: C_4  and  N_1 
REMARK    2  A    between atoms: C_3  and  C_4 
ROOT
ATOM      1  C   UNL d   1       0.008  -2.765   0.180  0.00  0.00     0.175 C 
ENDROOT
BRANCH   1   2
ATOM      2  C   UNL d   1       1.336  -3.438   0.450  0.00  0.00     0.020 A 
ATOM      3  C   UNL d   1       1.730  -3.660   1.777  0.00  0.00     0.126 A 
ATOM      4  F   UNL d   1       0.915  -3.310   2.783  0.00  0.00    -0.205 F 
ATOM      5  C   UNL d   1       2.958  -4.234   2.103  0.00  0.00     0.043 A 
ATOM      6  C   UNL d   1       3.825  -4.622   1.090  0.00  0.00     0.005 A 
ATOM      7  C   UNL d   1       3.453  -4.431  -0.240  0.00  0.00     0.024 A 
ATOM      8  C   UNL d   1       2.223  -3.837  -0.559  0.00  0.00     0.045 A 
ATOM      9 CL   UNL d   1       1.858  -3.646  -2.235  0.00  0.00    -0.084 Cl
ENDBRANCH   1   2
BRANCH   1  10
ATOM     10  N   UNL d   1       0.107  -1.306   0.042  0.00  0.00    -0.320 N 
ATOM     11  C   UNL d   1      -0.237  -0.719  -1.180  0.00  0.00     0.253 A 
ATOM     12  C   UNL d   1      -0.041   0.770  -1.276  0.00  0.00     0.006 A 
ATOM     13  O   UNL d   1      -0.677  -1.343  -2.142  0.00  0.00    -0.267 OA
ATOM     14  C   UNL d   1      -0.257   1.437  -2.597  0.00  0.00     0.054 C 
ATOM     15  C   UNL d   1       0.346   1.452  -0.186  0.00  0.00     0.013 A 
ATOM     16  C   UNL d   1       0.563   0.788   1.069  0.00  0.00     0.018 A 
ATOM     17  C   UNL d   1       0.452  -0.542   1.146  0.00  0.00     0.094 A 
ENDBRANCH   1  10
TORSDOF 2
