REMARK  8 active torsions:
REMARK  status: ('A' for Active; 'I' for Inactive)
REMARK    1  A    between atoms: C_2  and  S_1 
REMARK    2  A    between atoms: N_7  and  S_1 
REMARK       I    between atoms: C_5  and  N_6 
REMARK    3  A    between atoms: C_18  and  C_5 
REMARK    4  A    between atoms: N_6  and  C_13 
REMARK    5  A    between atoms: C_8  and  C_19 
REMARK    6  A    between atoms: O_15  and  C_8 
REMARK    7  A    between atoms: O_14  and  C_18 
REMARK    8  A    between atoms: C_19  and  O_14 
ROOT
ATOM      1  C   UNL d   1       0.271  -0.132  -1.558  0.00  0.00     0.074 A 
ATOM      2  C   UNL d   1      -0.003  -1.354  -2.171  0.00  0.00     0.027 A 
ATOM      3  C   UNL d   1       0.029   1.067  -2.229  0.00  0.00     0.027 A 
ATOM      4  C   UNL d   1      -0.737  -0.179  -4.170  0.00  0.00     0.034 A 
ATOM      5  C   UNL d   1      -0.516  -1.374  -3.472  0.00  0.00     0.031 A 
ATOM      6  C   UNL d   1      -0.468   1.039  -3.536  0.00  0.00     0.031 A 
ENDROOT
BRANCH   4   7
ATOM      7  N   UNL d   1      -1.242  -0.278  -5.481  0.00  0.00    -0.325 N 
ATOM      8  C   UNL d   1      -1.319   0.738  -6.419  0.00  0.00     0.245 C 
ATOM      9  O   UNL d   1      -0.869   1.875  -6.301  0.00  0.00    -0.271 OA
ATOM     10  H   UNL d   1      -1.534  -1.196  -5.789  0.00  0.00     0.169 HD
BRANCH   8  11
ATOM     11  C   UNL d   1      -1.980   0.293  -7.725  0.00  0.00     0.271 C 
BRANCH  11  12
ATOM     12  O   UNL d   1      -3.279  -0.264  -7.498  0.00  0.00    -0.372 OA
BRANCH  12  13
ATOM     13  C   UNL d   1      -4.024  -0.350  -8.718  0.00  0.00     0.277 C 
BRANCH  13  14
ATOM     14  C   UNL d   1      -3.636  -1.603  -9.485  0.00  0.00     0.164 C 
ATOM     15  O   UNL d   1      -3.458  -1.658 -10.691  0.00  0.00    -0.648 OA
BRANCH  14  16
ATOM     16  O   UNL d   1      -3.504  -2.675  -8.663  0.00  0.00    -0.775 OA
ATOM     17  H   UNL d   1      -3.684  -2.411  -7.736  0.00  0.00     0.167 HD
ENDBRANCH  14  16
ENDBRANCH  13  14
ENDBRANCH  12  13
ENDBRANCH  11  12
ENDBRANCH   8  11
ENDBRANCH   4   7
BRANCH   1  18
ATOM     18  S   UNL d   1       0.926  -0.093   0.083  0.00  0.00     0.239 S 
ATOM     19  O   UNL d   1       1.200  -1.442   0.518  0.00  0.00    -0.206 OA
ATOM     20  O   UNL d   1       0.153   0.838   0.871  0.00  0.00    -0.206 OA
BRANCH  18  21
ATOM     21  N   UNL d   1       2.431   0.615  -0.149  0.00  0.00    -0.225 NA
ATOM     22  H   UNL d   1       3.168  -0.065   0.033  0.00  0.00     0.136 HD
ATOM     23  H   UNL d   1       2.504   1.463   0.412  0.00  0.00     0.136 HD
ENDBRANCH  18  21
ENDBRANCH   1  18
TORSDOF 8
