REMARK  4 active torsions:
REMARK  status: ('A' for Active; 'I' for Inactive)
REMARK    1  A    between atoms: C_9  and  N_1 
REMARK    2  A    between atoms: S_8  and  C_2 
REMARK    3  A    between atoms: O_11  and  C_3 
REMARK    4  A    between atoms: C_10  and  C_9 
ROOT
ATOM      1  N   UNL d   1      -0.115  -1.168   0.039  0.00  0.00    -0.288 N 
ATOM      2  C   UNL d   1       1.050  -0.451   0.092  0.00  0.00     0.162 A 
ATOM      3  C   UNL d   1      -1.112  -0.224   0.051  0.00  0.00     0.240 A 
ATOM      4  N   UNL d   1       0.781   0.834   0.117  0.00  0.00    -0.277 N 
ATOM      5  HN  UNL d   1       1.465   1.590   0.152  1.00  0.00     0.189 HD
ATOM      6  N   UNL d   1      -0.589   0.977   0.086  0.00  0.00    -0.263 N 
ATOM      7  HN  UNL d   1      -1.103   1.858   0.091  1.00  0.00     0.190 HD
ENDROOT
BRANCH   1   8
ATOM      8  C   UNL d   1      -0.291  -2.597  -0.114  0.00  0.00     0.161 C 
BRANCH   8   9
ATOM      9  C   UNL d   1      -0.524  -3.354   1.167  0.00  0.00    -0.017 C 
ATOM     10  C   UNL d   1      -0.501  -2.888   2.425  0.00  0.00     0.008 C 
ENDBRANCH   8   9
ENDBRANCH   1   8
BRANCH   2  11
ATOM     11  S   UNL d   1       2.642  -1.124   0.111  0.00  0.00    -0.105 SA
ATOM     12  H   UNL d   1       2.372  -2.334   0.615  0.00  0.00     0.110 HD
ENDBRANCH   2  11
BRANCH   3  13
ATOM     13  O   UNL d   1      -2.416  -0.452   0.023  0.00  0.00    -0.331 OA
ATOM     14  H   UNL d   1      -2.587  -1.383   0.232  0.00  0.00     0.221 HD
ENDBRANCH   3  13
TORSDOF 4
