REMARK  6 active torsions:
REMARK  status: ('A' for Active; 'I' for Inactive)
REMARK    1  A    between atoms: N_2  and  C_1 
REMARK    2  A    between atoms: C_7  and  C_12 
REMARK       I    between atoms: N_9  and  C_7 
REMARK    3  A    between atoms: C_12  and  N_8 
REMARK    4  A    between atoms: C_19  and  N_9 
REMARK    5  A    between atoms: C_26  and  C_14 
REMARK    6  A    between atoms: C_27  and  C_26 
ROOT
ATOM      1  N   UNL d   1       0.509   2.588  -0.112  0.00  0.00    -0.214 N 
ATOM      2  N   UNL d   1       0.812   5.537   0.095  0.00  0.00     0.100 N 
ATOM      3  C   UNL d   1      -0.093   3.293   1.017  0.00  0.00     0.171 C 
ATOM      4  C   UNL d   1       1.748   3.193  -0.600  0.00  0.00     0.171 C 
ATOM      5  C   UNL d   1       1.519   4.700  -0.916  0.00  0.00     0.293 C 
ATOM      6  C   UNL d   1      -0.356   4.768   0.616  0.00  0.00     0.293 C 
ENDROOT
BRANCH   2   7
ATOM      7  C   UNL d   1       1.677   5.943   1.222  0.00  0.00     0.375 C 
BRANCH   7   8
ATOM      8  C   UNL d   1       2.831   6.873   0.822  0.00  0.00     0.250 C 
ATOM      9  N   UNL d   1       2.527   7.809  -0.153  0.00  0.00    -0.326 N 
ATOM     10  H   UNL d   1       1.573   7.778  -0.498  0.00  0.00     0.169 HD
ATOM     11  O   UNL d   1       3.903   6.776   1.424  0.00  0.00    -0.271 OA
BRANCH   9  12
ATOM     12  C   UNL d   1       3.421   8.740  -0.740  0.00  0.00     0.035 A 
ATOM     13  C   UNL d   1       4.792   8.772  -0.454  0.00  0.00     0.032 A 
ATOM     14  C   UNL d   1       5.645   9.669  -1.102  0.00  0.00     0.044 A 
ATOM     15  C   UNL d   1       5.129  10.555  -2.033  0.00  0.00     0.116 A 
ATOM     16  C   UNL d   1       3.769  10.561  -2.323  0.00  0.00     0.044 A 
ATOM     17  F   UNL d   1       5.949  11.402  -2.667  0.00  0.00    -0.206 F 
ATOM     18  C   UNL d   1       2.916   9.655  -1.677  0.00  0.00     0.032 A 
ENDBRANCH   9  12
ENDBRANCH   7   8
ENDBRANCH   2   7
BRANCH   1  19
ATOM     19  C   UNL d   1       0.432   1.203  -0.081  0.00  0.00     0.679 A 
ATOM     20  N   UNL d   1      -0.577   0.634   0.603  0.00  0.00    -0.201 N 
ATOM     21  C   UNL d   1      -0.682  -0.710   0.587  0.00  0.00     0.114 A 
ATOM     22  HN  UNL d   1      -1.244   1.205   1.121  1.00  0.00     0.183 HD
ATOM     23  C   UNL d   1       0.187  -1.542  -0.076  0.00  0.00    -0.026 A 
ATOM     24  C   UNL d   1       1.178  -0.873  -0.760  0.00  0.00     0.114 A 
ATOM     25  N   UNL d   1       1.318   0.471  -0.776  0.00  0.00    -0.201 N 
ATOM     26  HN  UNL d   1       2.073   0.916  -1.298  1.00  0.00     0.183 HD
BRANCH  23  27
ATOM     27  C   UNL d   1       0.054  -3.035  -0.052  0.00  0.00     0.041 C 
BRANCH  27  28
ATOM     28  C   UNL d   1       1.265  -3.718   0.590  0.00  0.00     0.000 C 
ATOM     29  C   UNL d   1       1.096  -5.228   0.657  0.00  0.00     0.005 C 
ENDBRANCH  27  28
ENDBRANCH  23  27
ENDBRANCH   1  19
TORSDOF 6
