REMARK  4 active torsions:
REMARK  status: ('A' for Active; 'I' for Inactive)
REMARK       I    between atoms: N_2  and  C_1 
REMARK    1  A    between atoms: C_3  and  C_1 
REMARK    2  A    between atoms: C_4  and  N_2 
REMARK    3  A    between atoms: C_14  and  C_7 
REMARK    4  A    between atoms: C_15  and  C_8 
ROOT
ATOM      1  C   UNL d   1       1.063   0.634  -0.217  0.00  0.00     0.257 C 
ATOM      2  N   UNL d   1       0.417  -0.077  -1.218  0.00  0.00    -0.322 N 
ATOM      3  O   UNL d   1       2.216   1.053  -0.261  0.00  0.00    -0.267 OA
ATOM      4  H   UNL d   1      -0.582   0.068  -1.254  0.00  0.00     0.169 HD
ENDROOT
BRANCH   2   5
ATOM      5  C   UNL d   1       1.066  -0.378  -2.438  0.00  0.00     0.047 A 
ATOM      6  C   UNL d   1       2.130  -1.312  -2.477  0.00  0.00    -0.031 A 
ATOM      7  C   UNL d   1       2.715  -1.617  -3.720  0.00  0.00     0.009 A 
ATOM      8  C   UNL d   1       2.274  -1.008  -4.893  0.00  0.00     0.001 A 
ATOM      9  C   UNL d   1       1.218  -0.105  -4.845  0.00  0.00     0.009 A 
ATOM     10  C   UNL d   1       0.587   0.212  -3.630  0.00  0.00    -0.031 A 
BRANCH   6  11
ATOM     11  C   UNL d   1       2.587  -2.107  -1.269  0.00  0.00     0.036 C 
ATOM     12  C   UNL d   1       4.080  -2.002  -0.984  0.00  0.00     0.010 C 
ENDBRANCH   6  11
BRANCH  10  13
ATOM     13  C   UNL d   1      -0.507   1.256  -3.664  0.00  0.00     0.036 C 
ATOM     14  C   UNL d   1       0.052   2.670  -3.594  0.00  0.00     0.010 C 
ENDBRANCH  10  13
ENDBRANCH   2   5
BRANCH   1  15
ATOM     15  C   UNL d   1       0.254   0.835   1.012  0.00  0.00     0.048 A 
ATOM     16  C   UNL d   1       0.086   2.073   1.647  0.00  0.00     0.022 A 
ATOM     17  I   UNL d   1       0.710   3.898   0.831  0.00  0.00    -0.043 I 
ATOM     18  C   UNL d   1      -0.585   2.133   2.878  0.00  0.00     0.019 A 
ATOM     19  C   UNL d   1      -1.090   0.972   3.468  0.00  0.00     0.001 A 
ATOM     20  C   UNL d   1      -0.946  -0.254   2.827  0.00  0.00     0.001 A 
ATOM     21  C   UNL d   1      -0.276  -0.325   1.606  0.00  0.00     0.018 A 
ENDBRANCH   1  15
TORSDOF 4
