REMARK  6 active torsions:
REMARK  status: ('A' for Active; 'I' for Inactive)
REMARK    1  A    between atoms: C_3  and  C_1 
REMARK       I    between atoms: N_4  and  C_1 
REMARK    2  A    between atoms: C_7  and  C_2 
REMARK    3  A    between atoms: C_6  and  N_4 
REMARK       I    between atoms: N_15  and  C_7 
REMARK    4  A    between atoms: C_9  and  C_20 
REMARK    5  A    between atoms: C_19  and  N_15 
REMARK    6  A    between atoms: C_20  and  C_19 
ROOT
ATOM      1  C   UNL d   1      -1.662  -0.059   1.030  0.00  0.00     0.058 A 
ATOM      2  C   UNL d   1      -3.008   0.303   1.233  0.00  0.00     0.050 A 
ATOM      3  C   UNL d   1      -0.859   0.742   0.192  0.00  0.00     0.019 A 
ATOM      4  C   UNL d   1      -3.541   1.393   0.518  0.00  0.00     0.030 A 
ATOM      5  C   UNL d   1      -1.386   1.862  -0.454  0.00  0.00     0.001 A 
ATOM      6  C   UNL d   1      -2.732   2.176  -0.306  0.00  0.00     0.002 A 
ENDROOT
BRANCH   1   7
ATOM      7  C   UNL d   1      -1.077  -1.370   1.513  0.00  0.00     0.253 C 
ATOM      8  O   UNL d   1      -1.723  -2.401   1.470  0.00  0.00    -0.268 OA
ATOM      9  N   UNL d   1       0.231  -1.292   1.925  0.00  0.00    -0.356 N 
ATOM     10  H   UNL d   1       0.610  -0.362   2.041  0.00  0.00     0.162 HD
BRANCH   9  11
ATOM     11  C   UNL d   1       1.040  -2.410   2.435  0.00  0.00     0.127 C 
BRANCH  11  12
ATOM     12  C   UNL d   1       2.206  -1.789   3.177  0.00  0.00     0.060 C 
BRANCH  12  13
ATOM     13  C   UNL d   1       3.376  -2.537   3.730  0.00  0.00    -0.029 C 
ATOM     14  C   UNL d   1       3.949  -2.166   4.937  0.00  0.00     0.096 C 
ATOM     15  N   UNL d   1       5.284  -2.437   4.858  0.00  0.00    -0.365 N 
ATOM     16  C   UNL d   1       5.551  -3.142   3.712  0.00  0.00     0.042 C 
ATOM     17  H   UNL d   1       5.983  -2.110   5.509  0.00  0.00     0.165 HD
ATOM     18  C   UNL d   1       4.325  -3.402   3.089  0.00  0.00    -0.002 C 
ATOM     19  C   UNL d   1       6.782  -3.539   3.178  0.00  0.00     0.030 C 
ATOM     20  C   UNL d   1       4.331  -4.267   1.974  0.00  0.00     0.014 C 
ATOM     21  C   UNL d   1       5.552  -4.775   1.499  0.00  0.00     0.001 C 
ATOM     22  C   UNL d   1       6.761  -4.366   2.057  0.00  0.00     0.002 C 
ENDBRANCH  12  13
ENDBRANCH  11  12
ENDBRANCH   9  11
ENDBRANCH   1   7
BRANCH   2  23
ATOM     23  N   UNL d   1      -3.890  -0.338   2.119  0.00  0.00    -0.322 N 
ATOM     24  C   UNL d   1      -3.544  -0.788   3.377  0.00  0.00     0.257 C 
ATOM     25  O   UNL d   1      -2.481  -0.500   3.921  0.00  0.00    -0.267 OA
ATOM     26  H   UNL d   1      -4.881  -0.271   1.912  0.00  0.00     0.169 HD
BRANCH  24  27
ATOM     27  C   UNL d   1      -4.569  -1.577   4.142  0.00  0.00     0.054 A 
ATOM     28  C   UNL d   1      -5.779  -2.088   3.639  0.00  0.00     0.049 A 
ATOM     29 CL   UNL d   1      -6.385  -1.798   2.043  0.00  0.00    -0.083 Cl
ATOM     30  C   UNL d   1      -6.601  -2.885   4.452  0.00  0.00     0.025 A 
ATOM     31  C   UNL d   1      -6.243  -3.172   5.768  0.00  0.00     0.002 A 
ATOM     32  C   UNL d   1      -5.068  -2.648   6.289  0.00  0.00     0.001 A 
ATOM     33  C   UNL d   1      -4.241  -1.860   5.485  0.00  0.00     0.019 A 
ENDBRANCH  24  27
ENDBRANCH   2  23
TORSDOF 6
