REMARK  1 active torsions:
REMARK  status: ('A' for Active; 'I' for Inactive)
REMARK    1  A    between atoms: C_14  and  C_7 
ROOT
ATOM      1  C   UNL d   1      -2.516  -0.670  -0.002  0.00  0.00     0.057 A 
ATOM      2  S   UNL d   1      -2.567   1.069   0.006  0.00  0.00    -0.085 SA
ATOM      3  C   UNL d   1      -0.131  -0.050   0.015  0.00  0.00     0.038 A 
ATOM      4  C   UNL d   1      -0.803   1.178   0.012  0.00  0.00     0.022 A 
ATOM      5  C   UNL d   1      -1.100  -1.181   0.019  0.00  0.00     0.201 A 
ATOM      6  C   UNL d   1       1.271  -0.089   0.011  0.00  0.00    -0.045 A 
ATOM      7  C   UNL d   1      -3.659  -1.373  -0.024  0.00  0.00     0.035 C 
ATOM      8  C   UNL d   1      -0.117   2.386   0.009  0.00  0.00     0.043 A 
ATOM      9  C   UNL d   1       1.959   1.145   0.006  0.00  0.00     0.031 A 
ATOM     10  C   UNL d   1       1.271   2.362   0.006  0.00  0.00     0.035 A 
ATOM     11  O   UNL d   1      -0.782  -2.355   0.040  0.00  0.00    -0.286 OA
ATOM     12 CL   UNL d   1       2.146   3.842  -0.001  0.00  0.00    -0.084 Cl
ATOM     13  C   UNL d   1       2.109  -1.334   0.008  0.00  0.00     0.049 C 
ENDROOT
BRANCH   7  14
ATOM     14  C   UNL d   1      -3.805  -2.825  -0.017  0.00  0.00    -0.019 A 
ATOM     15  C   UNL d   1      -3.963  -3.544  -1.198  0.00  0.00     0.099 A 
ATOM     16  N   UNL d   1      -4.165  -4.882  -1.251  0.00  0.00    -0.374 N 
ATOM     17  C   UNL d   1      -4.199  -5.533  -0.068  0.00  0.00     0.087 A 
ATOM     18  HN  UNL d   1      -4.286  -5.373  -2.137  1.00  0.00     0.164 HD
ATOM     19  C   UNL d   1      -4.061  -4.908   1.161  0.00  0.00     0.018 A 
ATOM     20  C   UNL d   1      -3.867  -3.530   1.184  0.00  0.00     0.014 A 
ENDBRANCH   7  14
TORSDOF 1
