REMARK  3 active torsions:
REMARK  status: ('A' for Active; 'I' for Inactive)
REMARK    1  A    between atoms: C_2  and  S_1 
REMARK    2  A    between atoms: C_5  and  C_2 
REMARK    3  A    between atoms: N_6  and  C_5 
ROOT
ATOM      1  C   UNL d   1       0.467   1.507  -0.605  0.00  0.00     0.170 C 
ENDROOT
BRANCH   1   2
ATOM      2  S   UNL d   1       1.089  -0.069  -0.048  0.00  0.00     0.142 S 
ATOM      3  O   UNL d   1       0.492  -0.361   1.240  0.00  0.00    -0.228 OA
ATOM      4  O   UNL d   1       2.526  -0.086  -0.227  0.00  0.00    -0.228 OA
ATOM      5  C   UNL d   1       0.384  -1.201  -1.223  0.00  0.00     0.161 C 
ENDBRANCH   1   2
BRANCH   1   6
ATOM      6  C   UNL d   1       0.848   2.610   0.378  0.00  0.00     0.286 C 
BRANCH   6   7
ATOM      7  N   UNL d   1       0.387   3.954  -0.033  0.00  0.00     0.080 N 
ATOM      8  C   UNL d   1      -1.073   4.042  -0.123  0.00  0.00     0.309 C 
ATOM      9  C   UNL d   1       0.872   4.952   0.931  0.00  0.00     0.309 C 
ENDBRANCH   6   7
ENDBRANCH   1   6
TORSDOF 3
