REMARK  3 active torsions:
REMARK  status: ('A' for Active; 'I' for Inactive)
REMARK    1  A    between atoms: S_3  and  C_1 
REMARK    2  A    between atoms: C_7  and  S_3 
REMARK    3  A    between atoms: C_9  and  C_7 
ROOT
ATOM      1  C   UNL d   1       0.505   8.171  -0.035  0.00  0.00     0.034 A 
ATOM      2  C   UNL d   1       0.833   5.379  -0.025  0.00  0.00    -0.049 A 
ATOM      3 CL   UNL d   1       0.299   9.879  -0.051  0.00  0.00    -0.084 Cl
ATOM      4  C   UNL d   1       1.632   7.603  -0.624  0.00  0.00     0.024 A 
ATOM      5  C   UNL d   1      -0.450   7.363   0.573  0.00  0.00     0.024 A 
ATOM      6  C   UNL d   1      -0.280   5.975   0.590  0.00  0.00     0.009 A 
ATOM      7  C   UNL d   1       1.796   6.213  -0.616  0.00  0.00     0.009 A 
ENDROOT
BRANCH   2   8
ATOM      8  C   UNL d   1       1.063   3.881   0.004  0.00  0.00     0.118 C 
BRANCH   8   9
ATOM      9  S   UNL d   1      -0.407   2.901  -0.406  0.00  0.00    -0.118 SA
BRANCH   9  10
ATOM     10  C   UNL d   1       0.144   1.238  -0.241  0.00  0.00     0.041 A 
ATOM     11  S   UNL d   1      -0.997  -0.043  -0.258  0.00  0.00    -0.095 SA
ATOM     12  C   UNL d   1       0.224  -1.232  -0.116  0.00  0.00     0.051 A 
ATOM     13  C   UNL d   1       1.478  -0.668  -0.046  0.00  0.00     0.009 A 
ATOM     14  C   UNL d   1       1.432   0.756  -0.114  0.00  0.00     0.026 A 
ENDBRANCH   9  10
ENDBRANCH   8   9
ENDBRANCH   2   8
TORSDOF 3
