REMARK  6 active torsions:
REMARK  status: ('A' for Active; 'I' for Inactive)
REMARK    1  A    between atoms: C_7  and  C_1 
REMARK    2  A    between atoms: N_8  and  C_2 
REMARK    3  A    between atoms: C_23  and  N_3 
REMARK    4  A    between atoms: S_10  and  C_7 
REMARK    5  A    between atoms: C_9  and  C_11 
REMARK    6  A    between atoms: C_14  and  S_10 
ROOT
ATOM      1  C   UNL d   1      -0.981  -2.470  -0.559  0.00  0.00     0.245 C 
ATOM      2  O   UNL d   1      -2.194  -2.637  -0.461  0.00  0.00    -0.278 OA
ENDROOT
BRANCH   1   3
ATOM      3  C   UNL d   1      -0.302  -1.246  -0.170  0.00  0.00     0.143 C 
ATOM      4  C   UNL d   1       1.024  -0.814  -0.222  0.00  0.00     0.159 C 
ATOM      5  C   UNL d   1       1.025   0.556   0.119  0.00  0.00     0.057 C 
ATOM      6  C   UNL d   1       2.150   1.525   0.119  0.00  0.00     0.072 C 
ATOM      7  N   UNL d   1      -0.195   0.953   0.484  0.00  0.00    -0.300 N 
ATOM      8  N   UNL d   1      -0.955  -0.158   0.389  0.00  0.00    -0.286 N 
ATOM      9  HN  UNL d   1      -0.487   1.887   0.771  1.00  0.00     0.187 HD
BRANCH   4  10
ATOM     10  N   UNL d   1       2.194  -1.557  -0.550  0.00  0.00    -0.111 N 
ATOM     11  O   UNL d   1       2.550  -2.411   0.266  0.00  0.00    -0.532 OA
ATOM     12  O   UNL d   1       2.787  -1.232  -1.586  0.00  0.00    -0.532 OA
ENDBRANCH   4  10
BRANCH   8  13
ATOM     13  C   UNL d   1      -2.299  -0.082   0.944  0.00  0.00     0.145 C 
ATOM     14  C   UNL d   1      -3.300   0.509  -0.029  0.00  0.00     0.028 C 
ENDBRANCH   8  13
ENDBRANCH   1   3
BRANCH   1  15
ATOM     15  S   UNL d   1       0.024  -3.784  -1.118  0.00  0.00    -0.028 SA
BRANCH  15  16
ATOM     16  C   UNL d   1      -0.811  -4.304  -2.594  0.00  0.00     0.077 A 
ATOM     17  N   UNL d   1      -0.692  -3.523  -3.692  0.00  0.00    -0.359 N 
ATOM     18  C   UNL d   1      -1.042  -4.068  -4.886  0.00  0.00     0.105 A 
ATOM     19  HN  UNL d   1      -0.353  -2.563  -3.626  1.00  0.00     0.166 HD
ATOM     20  C   UNL d   1      -1.496  -5.370  -5.044  0.00  0.00     0.063 A 
ATOM     21  C   UNL d   1      -1.682  -6.127  -3.886  0.00  0.00     0.020 A 
ATOM     22  C   UNL d   1      -1.335  -5.590  -2.647  0.00  0.00     0.038 A 
BRANCH  20  23
ATOM     23  C   UNL d   1      -1.707  -5.965  -6.405  0.00  0.00     0.418 C 
ATOM     24  F   UNL d   1      -1.425  -5.112  -7.427  0.00  0.00    -0.166 F 
ATOM     25  F   UNL d   1      -0.922  -7.060  -6.611  0.00  0.00    -0.166 F 
ATOM     26  F   UNL d   1      -2.986  -6.384  -6.606  0.00  0.00    -0.166 F 
ENDBRANCH  20  23
ENDBRANCH  15  16
ENDBRANCH   1  15
TORSDOF 6
