REMARK  5 active torsions:
REMARK  status: ('A' for Active; 'I' for Inactive)
REMARK    1  A    between atoms: C_11  and  C_3 
REMARK    2  A    between atoms: C_14  and  C_4 
REMARK    3  A    between atoms: O_13  and  N_7 
REMARK    4  A    between atoms: C_9  and  O_13 
REMARK    5  A    between atoms: C_15  and  C_9 
ROOT
ATOM      1  C   UNL d   1      -0.407  -0.959   0.030  0.00  0.00    -0.039 A 
ATOM      2  C   UNL d   1       0.103   0.356   0.042  0.00  0.00    -0.043 A 
ATOM      3  C   UNL d   1      -1.781  -1.185  -0.021  0.00  0.00    -0.005 A 
ATOM      4  C   UNL d   1      -2.114   1.303  -0.011  0.00  0.00    -0.049 A 
ATOM      5  C   UNL d   1      -0.728   1.469   0.019  0.00  0.00     0.016 A 
ATOM      6  C   UNL d   1      -2.609  -0.030  -0.032  0.00  0.00     0.022 A 
ATOM      7  C   UNL d   1       1.618   0.374   0.036  0.00  0.00    -0.020 C 
ATOM      8  C   UNL d   1       0.743  -1.919   0.031  0.00  0.00     0.041 C 
ATOM      9  C   UNL d   1       1.917  -1.064   0.500  0.00  0.00     0.018 C 
ATOM     10  C   UNL d   1       2.225   1.378   1.019  0.00  0.00     0.020 C 
ATOM     11  C   UNL d   1       2.130   0.638  -1.387  0.00  0.00     0.020 C 
ENDROOT
BRANCH   3  12
ATOM     12  C   UNL d   1      -2.462  -2.537  -0.024  0.00  0.00     0.039 C 
ATOM     13  N   UNL d   1      -2.087  -3.678  -0.523  0.00  0.00    -0.261 N 
ATOM     14  HN  UNL d   1      -2.691  -4.500  -0.492  1.00  0.00     0.194 HD
ATOM     15  C   UNL d   1      -3.836  -2.605   0.639  0.00  0.00     0.071 C 
BRANCH  13  16
ATOM     16  O   UNL d   1      -0.820  -3.725  -1.102  0.00  0.00    -0.199 OA
BRANCH  16  17
ATOM     17  C   UNL d   1      -0.843  -4.540  -2.198  0.00  0.00     0.288 C 
ATOM     18  O   UNL d   1      -1.714  -4.506  -3.067  0.00  0.00    -0.262 OA
BRANCH  17  19
ATOM     19  C   UNL d   1       0.293  -5.574  -2.187  0.00  0.00     0.039 C 
ATOM     20  C   UNL d   1      -0.284  -6.847  -1.553  0.00  0.00     0.025 C 
ATOM     21  C   UNL d   1       0.718  -5.856  -3.635  0.00  0.00     0.025 C 
ATOM     22  C   UNL d   1       1.543  -5.151  -1.398  0.00  0.00     0.025 C 
ENDBRANCH  17  19
ENDBRANCH  16  17
ENDBRANCH  13  16
ENDBRANCH   3  12
BRANCH   4  23
ATOM     23  C   UNL d   1      -3.079   2.507  -0.025  0.00  0.00    -0.024 C 
ATOM     24  C   UNL d   1      -3.971   2.479   1.235  0.00  0.00     0.019 C 
ATOM     25  C   UNL d   1      -2.363   3.881  -0.038  0.00  0.00     0.019 C 
ATOM     26  C   UNL d   1      -3.973   2.457  -1.281  0.00  0.00     0.019 C 
ENDBRANCH   4  23
TORSDOF 5
