REMARK  4 active torsions:
REMARK  status: ('A' for Active; 'I' for Inactive)
REMARK    1  A    between atoms: C_6  and  C_1 
REMARK    2  A    between atoms: O_12  and  C_6 
REMARK    3  A    between atoms: O_14  and  C_11 
REMARK    4  A    between atoms: C_15  and  O_12 
ROOT
ATOM      1  C   UNL d   1       2.519   0.026  -0.010  0.00  0.00     0.103 A 
ATOM      2  C   UNL d   1       1.610  -1.015  -0.053  0.00  0.00     0.069 A 
ATOM      3  S   UNL d   1       1.712   1.536  -0.091  0.00  0.00    -0.082 SA
ATOM      4  C   UNL d   1       0.237  -0.574  -0.067  0.00  0.00     0.007 A 
ATOM      5  C   UNL d   1       0.158   0.818  -0.076  0.00  0.00     0.018 A 
ATOM      6  C   UNL d   1      -0.985  -1.298  -0.056  0.00  0.00     0.051 A 
ATOM      7 CL   UNL d   1       2.007  -2.690  -0.035  0.00  0.00    -0.082 Cl
ATOM      8  C   UNL d   1      -1.078   1.491  -0.068  0.00  0.00     0.022 A 
ATOM      9  C   UNL d   1      -2.222  -0.642  -0.038  0.00  0.00     0.069 A 
ATOM     10  C   UNL d   1      -2.261   0.746  -0.043  0.00  0.00     0.038 A 
ENDROOT
BRANCH   1  11
ATOM     11  C   UNL d   1       3.964  -0.048   0.135  0.00  0.00     0.302 C 
ATOM     12  O   UNL d   1       4.616  -1.073   0.273  0.00  0.00    -0.259 OA
BRANCH  11  13
ATOM     13  O   UNL d   1       4.511   1.204   0.185  0.00  0.00    -0.317 OA
BRANCH  13  14
ATOM     14  C   UNL d   1       5.852   1.287   0.686  0.00  0.00     0.174 C 
ATOM     15  C   UNL d   1       5.793   1.396   2.200  0.00  0.00     0.034 C 
ENDBRANCH  13  14
ENDBRANCH  11  13
ENDBRANCH   1  11
BRANCH   9  16
ATOM     16  O   UNL d   1      -3.305  -1.476  -0.012  0.00  0.00    -0.356 OA
ATOM     17  C   UNL d   1      -4.589  -0.863   0.005  0.00  0.00     0.210 C 
ENDBRANCH   9  16
TORSDOF 4
