REMARK  4 active torsions:
REMARK  status: ('A' for Active; 'I' for Inactive)
REMARK    1  A    between atoms: C_7  and  C_1 
REMARK    2  A    between atoms: C_6  and  C_12 
REMARK    3  A    between atoms: O_15  and  C_7 
REMARK    4  A    between atoms: N_8  and  O_15 
ROOT
ATOM      1  N   UNL d   1       3.538  -4.051   0.084  0.00  0.00    -0.268 N 
ATOM      2  HN  UNL d   1       3.025  -4.932   0.099  1.00  0.00     0.194 HD
ATOM      3  C   UNL d   1       4.826  -3.954   0.042  0.00  0.00     0.129 C 
ENDROOT
BRANCH   1   4
ATOM      4  O   UNL d   1       2.939  -2.777   0.107  0.00  0.00    -0.195 OA
BRANCH   4   5
ATOM      5  C   UNL d   1       1.569  -2.913   0.083  0.00  0.00     0.317 C 
ATOM      6  O   UNL d   1       0.964  -3.983   0.054  0.00  0.00    -0.257 OA
BRANCH   5   7
ATOM      7  C   UNL d   1       0.833  -1.649   0.101  0.00  0.00     0.072 A 
ATOM      8  C   UNL d   1       1.337  -0.364   0.121  0.00  0.00     0.092 A 
ATOM      9  S   UNL d   1       0.137   0.846   0.150  0.00  0.00    -0.065 SA
ATOM     10 CL   UNL d   1       2.975   0.174   0.122  0.00  0.00    -0.075 Cl
ATOM     11  C   UNL d   1      -1.089  -0.314   0.131  0.00  0.00     0.077 A 
ATOM     12  C   UNL d   1      -0.615  -1.597   0.101  0.00  0.00     0.051 A 
ATOM     13 CL   UNL d   1      -2.735   0.171   0.151  0.00  0.00    -0.076 Cl
ENDBRANCH   5   7
ENDBRANCH   4   5
ENDBRANCH   1   4
BRANCH   3  14
ATOM     14  C   UNL d   1       5.686  -5.159   0.000  0.00  0.00     0.025 A 
ATOM     15  C   UNL d   1       5.286  -6.340  -0.649  0.00  0.00     0.047 A 
ATOM     16 CL   UNL d   1       3.841  -6.486  -1.590  0.00  0.00    -0.083 Cl
ATOM     17  C   UNL d   1       6.105  -7.477  -0.616  0.00  0.00     0.025 A 
ATOM     18  C   UNL d   1       7.331  -7.447   0.042  0.00  0.00     0.003 A 
ATOM     19  C   UNL d   1       7.750  -6.272   0.662  0.00  0.00     0.025 A 
ATOM     20  C   UNL d   1       6.936  -5.132   0.642  0.00  0.00     0.047 A 
ATOM     21 CL   UNL d   1       7.537  -3.734   1.467  0.00  0.00    -0.083 Cl
ENDBRANCH   3  14
TORSDOF 4
