REMARK  7 active torsions:
REMARK  status: ('A' for Active; 'I' for Inactive)
REMARK    1  A    between atoms: C_7  and  C_1 
REMARK    2  A    between atoms: S_8  and  C_5 
REMARK    3  A    between atoms: O_16  and  C_7 
REMARK    4  A    between atoms: C_12  and  S_8 
REMARK    5  A    between atoms: C_9  and  C_12 
REMARK    6  A    between atoms: C_10  and  C_9 
REMARK    7  A    between atoms: C_22  and  O_16 
ROOT
ATOM      1  C   UNL d   1      -0.127  -1.116  -0.027  0.00  0.00     0.104 A 
ATOM      2  N   UNL d   1      -0.665   1.161  -0.174  0.00  0.00    -0.347 N 
ATOM      3  HN  UNL d   1      -1.260   1.989  -0.212  1.00  0.00     0.167 HD
ATOM      4  C   UNL d   1      -1.122  -0.149  -0.076  0.00  0.00     0.029 A 
ATOM      5  C   UNL d   1       0.647   1.172  -0.209  0.00  0.00     0.113 A 
ATOM      6  S   UNL d   1       1.407  -0.355  -0.138  0.00  0.00    -0.057 SA
ATOM      7  C   UNL d   1      -2.592  -0.382  -0.015  0.00  0.00     0.070 C 
ENDROOT
BRANCH   5   8
ATOM      8  S   UNL d   1       1.577   2.645  -0.324  0.00  0.00    -0.097 SA
BRANCH   8   9
ATOM      9  C   UNL d   1       0.262   3.893  -0.339  0.00  0.00     0.165 C 
BRANCH   9  10
ATOM     10  C   UNL d   1       0.822   5.286  -0.585  0.00  0.00     0.169 C 
ATOM     11  O   UNL d   1       2.003   5.516  -0.850  0.00  0.00    -0.291 OA
BRANCH  10  12
ATOM     12  C   UNL d   1      -0.116   6.451  -0.509  0.00  0.00     0.011 A 
ATOM     13  C   UNL d   1      -1.495   6.300  -0.316  0.00  0.00     0.017 A 
ATOM     14  C   UNL d   1      -2.321   7.428  -0.238  0.00  0.00     0.025 A 
ATOM     15  C   UNL d   1      -1.774   8.706  -0.355  0.00  0.00     0.034 A 
ATOM     16  C   UNL d   1      -0.406   8.868  -0.560  0.00  0.00     0.025 A 
ATOM     17 CL   UNL d   1      -2.792  10.086  -0.244  0.00  0.00    -0.084 Cl
ATOM     18  C   UNL d   1       0.419   7.743  -0.638  0.00  0.00     0.017 A 
ENDBRANCH  10  12
ENDBRANCH   9  10
ENDBRANCH   8   9
ENDBRANCH   5   8
BRANCH   1  19
ATOM     19  C   UNL d   1      -0.278  -2.546   0.141  0.00  0.00     0.302 C 
ATOM     20  O   UNL d   1      -1.348  -3.128   0.274  0.00  0.00    -0.259 OA
BRANCH  19  21
ATOM     21  O   UNL d   1       0.939  -3.160   0.216  0.00  0.00    -0.317 OA
BRANCH  21  22
ATOM     22  C   UNL d   1       0.945  -4.482   0.769  0.00  0.00     0.174 C 
ATOM     23  C   UNL d   1       1.045  -4.363   2.279  0.00  0.00     0.034 C 
ENDBRANCH  21  22
ENDBRANCH  19  21
ENDBRANCH   1  19
TORSDOF 7
