REMARK  2 active torsions:
REMARK  status: ('A' for Active; 'I' for Inactive)
REMARK    1  A    between atoms: S_3  and  C_1 
REMARK    2  A    between atoms: C_13  and  S_3 
ROOT
ATOM      1  C   UNL d   1       2.110  -0.836  -0.062  0.00  0.00     0.103 A 
ATOM      2  N   UNL d   1      -0.248  -0.658  -0.004  0.00  0.00    -0.243 N 
ATOM      3  C   UNL d   1       0.909  -1.460  -0.046  0.00  0.00     0.055 A 
ATOM      4  C   UNL d   1      -0.167   0.739   0.021  0.00  0.00     0.129 A 
ATOM      5  N   UNL d   1      -1.542  -1.071   0.003  0.00  0.00    -0.297 N 
ATOM      6  HN  UNL d   1      -1.884  -2.032  -0.001  1.00  0.00     0.187 HD
ATOM      7  N   UNL d   1       1.025   1.402   0.033  0.00  0.00    -0.349 N 
ATOM      8  HN  UNL d   1       1.081   2.420   0.060  1.00  0.00     0.167 HD
ATOM      9  C   UNL d   1      -1.463   1.200   0.033  0.00  0.00     0.076 A 
ATOM     10  C   UNL d   1       2.085   0.650   0.006  0.00  0.00     0.115 A 
ATOM     11  C   UNL d   1      -2.271   0.048   0.017  0.00  0.00     0.026 A 
ATOM     12  C   UNL d   1       0.679  -2.947  -0.070  0.00  0.00     0.072 C 
ATOM     13  C   UNL d   1      -3.752  -0.023   0.010  0.00  0.00     0.070 C 
ENDROOT
BRANCH   1  14
ATOM     14  S   UNL d   1       3.637  -1.640  -0.056  0.00  0.00     0.210 S 
ATOM     15  O   UNL d   1       4.712  -0.668  -0.104  0.00  0.00    -0.217 OA
ATOM     16  O   UNL d   1       3.627  -2.659   0.975  0.00  0.00    -0.217 OA
BRANCH  14  17
ATOM     17  C   UNL d   1       3.709  -2.485  -1.628  0.00  0.00     0.064 A 
ATOM     18  C   UNL d   1       3.507  -1.768  -2.812  0.00  0.00     0.025 A 
ATOM     19  C   UNL d   1       3.462  -2.456  -4.027  0.00  0.00     0.025 A 
ATOM     20  C   UNL d   1       3.631  -3.842  -4.052  0.00  0.00     0.034 A 
ATOM     21  C   UNL d   1       3.879  -4.548  -2.875  0.00  0.00     0.025 A 
ATOM     22 CL   UNL d   1       3.519  -4.688  -5.545  0.00  0.00    -0.084 Cl
ATOM     23  C   UNL d   1       3.928  -3.869  -1.657  0.00  0.00     0.025 A 
ENDBRANCH  14  17
ENDBRANCH   1  14
TORSDOF 2
