REMARK  2 active torsions:
REMARK  status: ('A' for Active; 'I' for Inactive)
REMARK    1  A    between atoms: N_5  and  N_1 
REMARK       I    between atoms: C_3  and  N_5 
REMARK       I    between atoms: N_9  and  C_3 
REMARK    2  A    between atoms: C_13  and  N_9 
ROOT
ATOM      1  N   UNL d   1       2.278  -0.826   0.149  0.00  0.00    -0.209 N 
ATOM      2  C   UNL d   1       2.237   0.447   0.714  0.00  0.00     0.280 A 
ATOM      3  C   UNL d   1       1.136  -1.595   0.006  0.00  0.00     0.211 A 
ATOM      4  C   UNL d   1       0.889   0.919   1.100  0.00  0.00     0.060 A 
ATOM      5  N   UNL d   1      -0.043  -1.237   0.390  0.00  0.00    -0.350 N 
ATOM      6  HN  UNL d   1      -0.847  -1.854   0.270  1.00  0.00     0.166 HD
ATOM      7  C   UNL d   1      -0.182   0.028   0.977  0.00  0.00     0.049 A 
ATOM      8  O   UNL d   1       3.209   1.183   0.881  0.00  0.00    -0.265 OA
ATOM      9  C   UNL d   1       0.687   2.219   1.580  0.00  0.00     0.019 A 
ATOM     10  C   UNL d   1      -1.445   0.427   1.419  0.00  0.00     0.030 A 
ATOM     11  C   UNL d   1      -0.588   2.616   1.984  0.00  0.00     0.001 A 
ATOM     12  C   UNL d   1      -1.649   1.712   1.926  0.00  0.00     0.002 A 
ENDROOT
BRANCH   1  13
ATOM     13  N   UNL d   1       3.537  -1.392  -0.253  0.00  0.00    -0.237 N 
ATOM     14  C   UNL d   1       3.897  -2.635   0.274  0.00  0.00     0.341 C 
ATOM     15  N   UNL d   1       5.115  -3.116  -0.168  0.00  0.00    -0.307 N 
ATOM     16  O   UNL d   1       3.147  -3.254   1.028  0.00  0.00    -0.245 OA
ATOM     17  H   UNL d   1       5.787  -2.430  -0.476  0.00  0.00     0.170 HD
ATOM     18  C   UNL d   1       4.353  -0.516  -1.082  0.00  0.00     0.183 C 
BRANCH  15  19
ATOM     19  C   UNL d   1       5.612  -4.431  -0.015  0.00  0.00     0.036 A 
ATOM     20  C   UNL d   1       4.825  -5.517   0.376  0.00  0.00     0.029 A 
ATOM     21  C   UNL d   1       5.388  -6.790   0.517  0.00  0.00     0.002 A 
ATOM     22  C   UNL d   1       6.741  -6.991   0.258  0.00  0.00     0.000 A 
ATOM     23  C   UNL d   1       7.529  -5.922  -0.160  0.00  0.00     0.002 A 
ATOM     24  C   UNL d   1       6.965  -4.650  -0.304  0.00  0.00     0.029 A 
ENDBRANCH  15  19
ENDBRANCH   1  13
TORSDOF 2
