REMARK  4 active torsions:
REMARK  status: ('A' for Active; 'I' for Inactive)
REMARK    1  A    between atoms: C_3  and  C_1 
REMARK    2  A    between atoms: C_5  and  C_1 
REMARK    3  A    between atoms: C_4  and  C_3 
REMARK    4  A    between atoms: N_6  and  C_5 
ROOT
ATOM      1  C   UNL d   1       0.943   0.011  -0.082  0.00  0.00     0.101 C 
ATOM      2  C   UNL d   1       0.259  -0.678   0.860  0.00  0.00     0.060 C 
ATOM      3  S   UNL d   1      -1.482  -0.804   0.910  0.00  0.00    -0.121 SA
ATOM      4  S   UNL d   1       1.094  -1.562   2.129  0.00  0.00    -0.121 SA
ATOM      5  C   UNL d   1      -1.103  -0.781   3.666  0.00  0.00     0.021 C 
ATOM      6  C   UNL d   1       0.418  -0.708   3.583  0.00  0.00     0.081 C 
ATOM      7  C   UNL d   1      -1.809  -0.057   2.525  0.00  0.00     0.081 C 
ENDROOT
BRANCH   1   8
ATOM      8  C   UNL d   1       0.312   0.787  -1.216  0.00  0.00     0.210 C 
ATOM      9  O   UNL d   1      -0.757   0.407  -1.686  0.00  0.00    -0.285 OA
BRANCH   8  10
ATOM     10  C   UNL d   1       1.013   1.957  -1.764  0.00  0.00     0.056 A 
ATOM     11  S   UNL d   1       0.661   2.420  -3.387  0.00  0.00    -0.098 SA
ATOM     12  C   UNL d   1       1.778   3.707  -3.349  0.00  0.00     0.050 A 
ATOM     13  C   UNL d   1       2.397   3.814  -2.124  0.00  0.00     0.009 A 
ATOM     14  C   UNL d   1       1.941   2.820  -1.205  0.00  0.00     0.023 A 
ENDBRANCH   8  10
ENDBRANCH   1   8
BRANCH   1  15
ATOM     15  C   UNL d   1       2.463   0.011  -0.082  0.00  0.00    -0.031 C 
BRANCH  15  16
ATOM     16  N   UNL d   1       3.724   0.011  -0.082  0.00  0.00    -0.365 N 
ATOM     17  HN2 UNL d   1       2.704   0.011  -0.082  1.00  0.00     0.165 HD
ATOM     18  HN1 UNL d   1       4.744   0.011  -0.082  1.00  0.00     0.165 HD
ENDBRANCH  15  16
ENDBRANCH   1  15
TORSDOF 4
