REMARK  4 active torsions:
REMARK  status: ('A' for Active; 'I' for Inactive)
REMARK    1  A    between atoms: C_2  and  C_1 
REMARK       I    between atoms: N_12  and  C_2 
REMARK    2  A    between atoms: C_7  and  C_3 
REMARK    3  A    between atoms: O_14  and  C_6 
REMARK    4  A    between atoms: O_15  and  C_8 
ROOT
ATOM      1  C   UNL d   1       0.922   0.185  -0.919  0.00  0.00     0.112 C 
ATOM      2  C   UNL d   1       0.245   1.036  -0.122  0.00  0.00     0.040 C 
ATOM      3  C   UNL d   1       0.282  -0.694  -1.834  0.00  0.00     0.105 C 
ATOM      4  N   UNL d   1      -0.186  -1.431  -2.601  0.00  0.00    -0.191 NA
ENDROOT
BRANCH   1   5
ATOM      5  C   UNL d   1       2.410   0.174  -0.790  0.00  0.00     0.260 C 
ATOM      6  O   UNL d   1       3.015   0.894  -0.004  0.00  0.00    -0.267 OA
ATOM      7  N   UNL d   1       3.101  -0.695  -1.581  0.00  0.00    -0.365 N 
ATOM      8  H   UNL d   1       2.690  -1.335  -2.250  0.00  0.00     0.159 HD
ATOM      9  H   UNL d   1       4.108  -0.712  -1.476  0.00  0.00     0.159 HD
ENDBRANCH   1   5
BRANCH   2  10
ATOM     10  C   UNL d   1      -1.217   1.116  -0.057  0.00  0.00    -0.032 A 
ATOM     11  C   UNL d   1      -1.905   0.276   0.828  0.00  0.00     0.051 A 
ATOM     12  C   UNL d   1      -3.302   0.284   0.876  0.00  0.00     0.102 A 
ATOM     13  C   UNL d   1      -3.998   1.164   0.037  0.00  0.00     0.099 A 
ATOM     14  C   UNL d   1      -3.320   2.020  -0.833  0.00  0.00     0.040 A 
ATOM     15  C   UNL d   1      -1.925   1.993  -0.883  0.00  0.00     0.014 A 
BRANCH  12  16
ATOM     16  O   UNL d   1      -4.060  -0.521   1.685  0.00  0.00    -0.353 OA
ATOM     17  C   UNL d   1      -3.369  -1.432   2.530  0.00  0.00     0.210 C 
ENDBRANCH  12  16
BRANCH  13  18
ATOM     18  O   UNL d   1      -5.367   1.179   0.074  0.00  0.00    -0.358 OA
ATOM     19  H   UNL d   1      -5.699   1.807  -0.586  0.00  0.00     0.217 HD
ENDBRANCH  13  18
ENDBRANCH   2  10
TORSDOF 4
