REMARK  3 active torsions:
REMARK  status: ('A' for Active; 'I' for Inactive)
REMARK       I    between atoms: N_5  and  C_1 
REMARK       I    between atoms: N_7  and  C_1 
REMARK    1  A    between atoms: C_4  and  C_8 
REMARK    2  A    between atoms: C_13  and  N_5 
REMARK    3  A    between atoms: C_14  and  N_7 
ROOT
ATOM      1  C   UNL d   1       2.960  -3.683  -1.295  0.00  0.00    -0.007 A 
ATOM      2  C   UNL d   1       2.211  -2.655  -0.698  0.00  0.00     0.043 A 
ATOM      3  C   UNL d   1       1.127  -2.042  -1.331  0.00  0.00     0.037 A 
ATOM      4  C   UNL d   1       2.507  -4.167  -2.529  0.00  0.00     0.014 A 
ATOM      5  C   UNL d   1       1.371  -3.624  -3.142  0.00  0.00     0.003 A 
ATOM      6  C   UNL d   1       0.685  -2.561  -2.547  0.00  0.00     0.029 A 
ENDROOT
BRANCH   3   7
ATOM      7  N   UNL d   1       0.492  -0.893  -0.799  0.00  0.00    -0.309 N 
ATOM      8  C   UNL d   1       1.060  -0.052   0.153  0.00  0.00     0.325 C 
ATOM      9  N   UNL d   1       0.243   1.026   0.441  0.00  0.00    -0.309 N 
ATOM     10  O   UNL d   1       2.167  -0.226   0.653  0.00  0.00    -0.247 OA
ATOM     11  H   UNL d   1      -0.687   1.010   0.053  0.00  0.00     0.170 HD
ATOM     12  H   UNL d   1      -0.287  -0.529  -1.326  0.00  0.00     0.170 HD
BRANCH   9  13
ATOM     13  C   UNL d   1       0.562   2.116   1.284  0.00  0.00     0.036 A 
ATOM     14  C   UNL d   1       1.789   2.265   1.941  0.00  0.00     0.031 A 
ATOM     15  C   UNL d   1       2.038   3.371   2.760  0.00  0.00     0.026 A 
ATOM     16  C   UNL d   1       1.060   4.344   2.921  0.00  0.00     0.034 A 
ATOM     17  C   UNL d   1      -0.163   4.219   2.268  0.00  0.00     0.026 A 
ATOM     18 CL   UNL d   1       1.364   5.703   3.929  0.00  0.00    -0.084 Cl
ATOM     19  C   UNL d   1      -0.412   3.108   1.453  0.00  0.00     0.031 A 
ENDBRANCH   9  13
ENDBRANCH   3   7
BRANCH   1  20
ATOM     20  C   UNL d   1       4.183  -4.190  -0.636  0.00  0.00     0.045 A 
ATOM     21  N   UNL d   1       4.492  -5.486  -0.857  0.00  0.00    -0.345 N 
ATOM     22  C   UNL d   1       5.580  -5.971  -0.227  0.00  0.00     0.077 A 
ATOM     23  HN  UNL d   1       3.928  -6.071  -1.473  1.00  0.00     0.167 HD
ATOM     24  C   UNL d   1       5.924  -7.411  -0.436  0.00  0.00     0.089 C 
ATOM     25  N   UNL d   1       6.381  -5.264   0.588  0.00  0.00    -0.356 N 
ATOM     26  C   UNL d   1       6.055  -3.976   0.771  0.00  0.00     0.091 A 
ATOM     27  HN  UNL d   1       7.193  -5.684   1.043  1.00  0.00     0.166 HD
ATOM     28  C   UNL d   1       4.969  -3.385   0.175  0.00  0.00     0.047 A 
ENDBRANCH   1  20
TORSDOF 3
