REMARK  4 active torsions:
REMARK  status: ('A' for Active; 'I' for Inactive)
REMARK    1  A    between atoms: C_10  and  C_2 
REMARK    2  A    between atoms: C_11  and  C_3 
REMARK    3  A    between atoms: C_4  and  C_9 
REMARK    4  A    between atoms: C_5  and  C_8 
ROOT
ATOM      1  O   UNL d   1      -0.914   0.039  -0.023  0.00  0.00    -0.309 OA
ATOM      2  C   UNL d   1      -0.048   1.096  -0.079  0.00  0.00     0.086 A 
ATOM      3  C   UNL d   1      -0.174  -1.109   0.060  0.00  0.00     0.086 A 
ATOM      4  C   UNL d   1       1.248   0.625  -0.024  0.00  0.00     0.041 A 
ATOM      5  C   UNL d   1       1.167  -0.786   0.051  0.00  0.00     0.041 A 
ENDROOT
BRANCH   2   6
ATOM      6  C   UNL d   1      -0.640   2.428  -0.201  0.00  0.00    -0.002 A 
ATOM      7  C   UNL d   1      -2.032   2.613  -0.228  0.00  0.00     0.030 A 
ATOM      8  C   UNL d   1      -2.597   3.889  -0.405  0.00  0.00     0.048 A 
ATOM      9  C   UNL d   1      -1.747   4.996  -0.541  0.00  0.00     0.016 A 
ATOM     10  C   UNL d   1      -0.365   4.832  -0.496  0.00  0.00     0.002 A 
ATOM     11  C   UNL d   1       0.181   3.558  -0.327  0.00  0.00     0.014 A 
BRANCH   8  12
ATOM     12  C   UNL d   1      -4.091   4.079  -0.475  0.00  0.00     0.417 C 
ATOM     13  F   UNL d   1      -4.802   2.931  -0.300  0.00  0.00    -0.166 F 
ATOM     14  F   UNL d   1      -4.551   4.949   0.468  0.00  0.00    -0.166 F 
ATOM     15  F   UNL d   1      -4.492   4.587  -1.674  0.00  0.00    -0.166 F 
ENDBRANCH   8  12
ENDBRANCH   2   6
BRANCH   3  16
ATOM     16  C   UNL d   1      -0.916  -2.366   0.156  0.00  0.00    -0.002 A 
ATOM     17  C   UNL d   1      -2.320  -2.393   0.137  0.00  0.00     0.030 A 
ATOM     18  C   UNL d   1      -3.029  -3.599   0.286  0.00  0.00     0.048 A 
ATOM     19  C   UNL d   1      -2.313  -4.794   0.438  0.00  0.00     0.016 A 
ATOM     20  C   UNL d   1      -0.921  -4.786   0.437  0.00  0.00     0.002 A 
ATOM     21  C   UNL d   1      -0.230  -3.582   0.297  0.00  0.00     0.014 A 
BRANCH  18  22
ATOM     22  C   UNL d   1      -4.537  -3.621   0.304  0.00  0.00     0.417 C 
ATOM     23  F   UNL d   1      -5.109  -2.399   0.114  0.00  0.00    -0.166 F 
ATOM     24  F   UNL d   1      -5.059  -4.431  -0.660  0.00  0.00    -0.166 F 
ATOM     25  F   UNL d   1      -5.032  -4.084   1.486  0.00  0.00    -0.166 F 
ENDBRANCH  18  22
ENDBRANCH   3  16
TORSDOF 4
