REMARK  8 active torsions:
REMARK  status: ('A' for Active; 'I' for Inactive)
REMARK    1  A    between atoms: C_8  and  C_1 
REMARK    2  A    between atoms: C_7  and  C_2 
REMARK    3  A    between atoms: C_9  and  C_3 
REMARK    4  A    between atoms: O_14  and  C_7 
REMARK    5  A    between atoms: O_15  and  C_8 
REMARK    6  A    between atoms: C_23  and  O_14 
REMARK    7  A    between atoms: C_22  and  O_15 
REMARK    8  A    between atoms: O_21  and  C_18 
ROOT
ATOM      1  C   UNL d   1      -1.272  -0.951   0.143  0.00  0.00     0.052 C 
ATOM      2  C   UNL d   1       1.294  -0.964   0.110  0.00  0.00     0.052 C 
ATOM      3  C   UNL d   1       0.007  -1.778  -0.060  0.00  0.00     0.100 C 
ATOM      4  C   UNL d   1      -1.217   0.405   0.139  0.00  0.00     0.018 C 
ATOM      5  C   UNL d   1       1.242   0.391   0.104  0.00  0.00     0.018 C 
ATOM      6  N   UNL d   1       0.015   1.029   0.015  0.00  0.00    -0.362 N 
ATOM      7  C   UNL d   1      -2.374   1.362   0.274  0.00  0.00     0.069 C 
ATOM      8  C   UNL d   1       2.446   1.297   0.172  0.00  0.00     0.069 C 
ATOM      9  H   UNL d   1       0.020   2.046   0.064  0.00  0.00     0.165 HD
ENDROOT
BRANCH   3  10
ATOM     10  C   UNL d   1      -0.031  -2.452  -1.444  0.00  0.00    -0.044 A 
ATOM     11  C   UNL d   1      -0.132  -3.847  -1.559  0.00  0.00     0.011 A 
ATOM     12  C   UNL d   1      -0.150  -4.464  -2.818  0.00  0.00     0.037 A 
ATOM     13  C   UNL d   1      -0.077  -3.696  -3.979  0.00  0.00     0.068 A 
ATOM     14  C   UNL d   1       0.008  -2.308  -3.872  0.00  0.00     0.037 A 
ATOM     15  C   UNL d   1       0.030  -1.690  -2.620  0.00  0.00     0.011 A 
BRANCH  13  16
ATOM     16  O   UNL d   1      -0.079  -4.165  -5.263  0.00  0.00    -0.356 OA
ATOM     17  C   UNL d   1      -0.147  -5.574  -5.435  0.00  0.00     0.210 C 
ENDBRANCH  13  16
ENDBRANCH   3  10
BRANCH   2  18
ATOM     18  C   UNL d   1       2.588  -1.692   0.247  0.00  0.00     0.292 C 
ATOM     19  O   UNL d   1       3.687  -1.160   0.315  0.00  0.00    -0.259 OA
BRANCH  18  20
ATOM     20  O   UNL d   1       2.387  -3.034   0.254  0.00  0.00    -0.318 OA
BRANCH  20  21
ATOM     21  C   UNL d   1       3.566  -3.835   0.088  0.00  0.00     0.174 C 
ATOM     22  C   UNL d   1       3.849  -4.000  -1.395  0.00  0.00     0.034 C 
ENDBRANCH  20  21
ENDBRANCH  18  20
ENDBRANCH   2  18
BRANCH   1  23
ATOM     23  C   UNL d   1      -2.486  -1.794   0.312  0.00  0.00     0.292 C 
ATOM     24  O   UNL d   1      -2.453  -2.923   0.777  0.00  0.00    -0.259 OA
BRANCH  23  25
ATOM     25  O   UNL d   1      -3.579  -1.182  -0.201  0.00  0.00    -0.318 OA
BRANCH  25  26
ATOM     26  C   UNL d   1      -4.770  -1.971  -0.314  0.00  0.00     0.174 C 
ATOM     27  C   UNL d   1      -4.890  -2.399  -1.762  0.00  0.00     0.034 C 
ENDBRANCH  25  26
ENDBRANCH  23  25
ENDBRANCH   1  23
TORSDOF 8
