REMARK  3 active torsions:
REMARK  status: ('A' for Active; 'I' for Inactive)
REMARK    1  A    between atoms: C_2  and  C_1 
REMARK    2  A    between atoms: C_14  and  C_7 
REMARK    3  A    between atoms: C_13  and  C_8 
ROOT
ATOM      1  C   UNL d   1       0.015  -1.293  -0.052  0.00  0.00     0.052 A 
ATOM      2  N   UNL d   1      -1.319   0.544   0.003  0.00  0.00    -0.259 N 
ATOM      3  HN  UNL d   1      -2.133   1.158   0.012  1.00  0.00     0.195 HD
ATOM      4  C   UNL d   1      -1.330  -0.804  -0.010  0.00  0.00     0.080 A 
ATOM      5  O   UNL d   1       0.001   0.931   0.001  0.00  0.00    -0.241 OA
ATOM      6  C   UNL d   1       0.804  -0.164  -0.019  0.00  0.00     0.087 A 
ATOM      7  C   UNL d   1       2.254   0.098  -0.020  0.00  0.00     0.080 C 
ENDROOT
BRANCH   1   8
ATOM      8  C   UNL d   1       0.458  -2.684  -0.101  0.00  0.00     0.054 A 
ATOM      9  N   UNL d   1      -0.290  -3.601  -0.815  0.00  0.00    -0.349 N 
ATOM     10  C   UNL d   1       0.205  -4.817  -0.678  0.00  0.00     0.084 A 
ATOM     11  HN  UNL d   1      -1.113  -3.370  -1.372  1.00  0.00     0.166 HD
ATOM     12  S   UNL d   1       1.664  -4.888   0.240  0.00  0.00    -0.081 SA
ATOM     13  C   UNL d   1       1.573  -3.203   0.518  0.00  0.00     0.082 A 
BRANCH  10  14
ATOM     14  C   UNL d   1      -0.382  -6.029  -1.279  0.00  0.00    -0.002 A 
ATOM     15  C   UNL d   1      -1.183  -5.909  -2.428  0.00  0.00     0.016 A 
ATOM     16  C   UNL d   1      -1.722  -7.039  -3.053  0.00  0.00     0.024 A 
ATOM     17  C   UNL d   1      -1.478  -8.304  -2.525  0.00  0.00     0.034 A 
ATOM     18  C   UNL d   1      -0.721  -8.445  -1.366  0.00  0.00     0.024 A 
ATOM     19 CL   UNL d   1      -2.111  -9.699  -3.307  0.00  0.00    -0.084 Cl
ATOM     20  C   UNL d   1      -0.180  -7.314  -0.745  0.00  0.00     0.016 A 
ENDBRANCH  10  14
ENDBRANCH   1   8
BRANCH   4  21
ATOM     21  C   UNL d   1      -2.608  -1.523   0.048  0.00  0.00    -0.007 A 
ATOM     22  C   UNL d   1      -3.747  -0.993  -0.580  0.00  0.00     0.014 A 
ATOM     23  C   UNL d   1      -4.967  -1.675  -0.541  0.00  0.00     0.001 A 
ATOM     24  C   UNL d   1      -5.065  -2.896   0.122  0.00  0.00     0.000 A 
ATOM     25  C   UNL d   1      -3.951  -3.423   0.769  0.00  0.00     0.001 A 
ATOM     26  C   UNL d   1      -2.737  -2.732   0.747  0.00  0.00     0.014 A 
ENDBRANCH   4  21
TORSDOF 3
