REMARK  2 active torsions:
REMARK  status: ('A' for Active; 'I' for Inactive)
REMARK    1  A    between atoms: C_7  and  C_3 
REMARK    2  A    between atoms: N_15  and  C_13 
ROOT
ATOM      1  C   UNL d   1      -0.021  -0.655  -0.096  0.00  0.00     0.024 C 
ATOM      2  C   UNL d   1      -2.567  -0.615  -0.084  0.00  0.00     0.057 C 
ATOM      3  C   UNL d   1      -1.299  -1.456   0.082  0.00  0.00     0.104 C 
ATOM      4  C   UNL d   1      -0.037   0.691  -0.179  0.00  0.00     0.020 C 
ATOM      5  N   UNL d   1      -1.248   1.362  -0.197  0.00  0.00    -0.362 N 
ATOM      6  C   UNL d   1      -2.486   0.736  -0.178  0.00  0.00     0.023 C 
ATOM      7  C   UNL d   1      -3.822  -1.291  -0.115  0.00  0.00     0.098 C 
ATOM      8  C   UNL d   1       1.269  -1.393  -0.238  0.00  0.00     0.158 C 
ATOM      9  N   UNL d   1      -4.847  -1.837  -0.159  0.00  0.00    -0.192 NA
ATOM     10  O   UNL d   1       1.282  -2.622  -0.304  0.00  0.00    -0.293 OA
ATOM     11  C   UNL d   1       1.219   1.525  -0.203  0.00  0.00     0.058 C 
ATOM     12  C   UNL d   1      -3.707   1.619  -0.199  0.00  0.00     0.069 C 
ATOM     13  C   UNL d   1       2.536  -0.595  -0.424  0.00  0.00     0.084 C 
ATOM     14  C   UNL d   1       2.439   0.747   0.283  0.00  0.00     0.014 C 
ATOM     15  H   UNL d   1      -1.229   2.379  -0.185  0.00  0.00     0.165 HD
ENDROOT
BRANCH   3  16
ATOM     16  C   UNL d   1      -1.306  -2.219   1.413  0.00  0.00    -0.022 A 
ATOM     17  C   UNL d   1      -1.343  -1.622   2.683  0.00  0.00     0.043 A 
ATOM     18  C   UNL d   1      -1.332  -2.405   3.847  0.00  0.00     0.053 A 
ATOM     19 CL   UNL d   1      -1.385   0.087   2.945  0.00  0.00    -0.084 Cl
ATOM     20  C   UNL d   1      -1.279  -3.803   3.815  0.00  0.00     0.031 A 
ATOM     21  C   UNL d   1      -1.241  -4.387   2.544  0.00  0.00     0.030 A 
ATOM     22  C   UNL d   1      -1.255  -3.621   1.370  0.00  0.00     0.012 A 
BRANCH  20  23
ATOM     23  N   UNL d   1      -1.245  -4.550   4.978  0.00  0.00    -0.390 N 
ATOM     24  C   UNL d   1      -1.898  -4.099   6.203  0.00  0.00     0.149 C 
ATOM     25  C   UNL d   1      -0.621  -5.865   5.034  0.00  0.00     0.149 C 
ENDBRANCH  20  23
ENDBRANCH   3  16
TORSDOF 2
