REMARK  8 active torsions:
REMARK  status: ('A' for Active; 'I' for Inactive)
REMARK    1  A    between atoms: C_9  and  C_1 
REMARK    2  A    between atoms: S_2  and  C_7 
REMARK    3  A    between atoms: C_14  and  S_2 
REMARK    4  A    between atoms: C_7  and  C_5 
REMARK    5  A    between atoms: C_6  and  C_11 
REMARK    6  A    between atoms: O_21  and  C_9 
REMARK    7  A    between atoms: C_17  and  C_14 
REMARK    8  A    between atoms: C_25  and  O_21 
ROOT
ATOM      1  S   UNL d   1       1.709  -3.389  -0.038  0.00  0.00     0.154 S 
ATOM      2  O   UNL d   1       2.276  -3.021  -1.323  0.00  0.00    -0.227 OA
ATOM      3  O   UNL d   1       2.404  -3.030   1.188  0.00  0.00    -0.227 OA
ENDROOT
BRANCH   1   4
ATOM      4  C   UNL d   1       0.079  -2.663   0.004  0.00  0.00     0.205 C 
BRANCH   4   5
ATOM      5  C   UNL d   1      -0.575  -2.990   1.295  0.00  0.00     0.065 A 
ATOM      6  N   UNL d   1      -1.316  -4.059   1.492  0.00  0.00    -0.348 N 
ATOM      7  C   UNL d   1      -1.783  -4.091   2.812  0.00  0.00     0.115 A 
ATOM      8  HN  UNL d   1      -1.521  -4.765   0.785  1.00  0.00     0.166 HD
ATOM      9  C   UNL d   1      -1.386  -3.009   3.577  0.00  0.00     0.087 A 
ATOM     10  S   UNL d   1      -0.453  -1.925   2.640  0.00  0.00    -0.085 SA
BRANCH   7  11
ATOM     11  C   UNL d   1      -2.554  -5.213   3.350  0.00  0.00     0.310 C 
ATOM     12  O   UNL d   1      -2.882  -5.301   4.527  0.00  0.00    -0.258 OA
BRANCH  11  13
ATOM     13  O   UNL d   1      -2.764  -6.181   2.410  0.00  0.00    -0.317 OA
BRANCH  13  14
ATOM     14  C   UNL d   1      -3.048  -7.485   2.927  0.00  0.00     0.175 C 
ATOM     15  C   UNL d   1      -1.722  -8.182   3.177  0.00  0.00     0.034 C 
ENDBRANCH  13  14
ENDBRANCH  11  13
ENDBRANCH   7  11
ENDBRANCH   4   5
ENDBRANCH   1   4
BRANCH   1  16
ATOM     16  C   UNL d   1       1.415  -5.162  -0.055  0.00  0.00     0.179 C 
BRANCH  16  17
ATOM     17  C   UNL d   1       2.743  -5.883  -0.039  0.00  0.00    -0.043 A 
ATOM     18  C   UNL d   1       3.352  -6.214   1.184  0.00  0.00     0.024 A 
ATOM     19  C   UNL d   1       4.595  -6.868   1.223  0.00  0.00     0.048 A 
ATOM     20  C   UNL d   1       5.228  -7.194   0.015  0.00  0.00     0.016 A 
ATOM     21  C   UNL d   1       4.636  -6.866  -1.204  0.00  0.00     0.001 A 
ATOM     22  C   UNL d   1       3.402  -6.211  -1.231  0.00  0.00     0.008 A 
BRANCH  19  23
ATOM     23  C   UNL d   1       5.255  -7.212   2.536  0.00  0.00     0.417 C 
ATOM     24  F   UNL d   1       4.537  -6.828   3.628  0.00  0.00    -0.166 F 
ATOM     25  F   UNL d   1       5.455  -8.553   2.679  0.00  0.00    -0.166 F 
ATOM     26  F   UNL d   1       6.482  -6.637   2.674  0.00  0.00    -0.166 F 
ENDBRANCH  19  23
ENDBRANCH  16  17
ENDBRANCH   1  16
TORSDOF 8
