REMARK  3 active torsions:
REMARK  status: ('A' for Active; 'I' for Inactive)
REMARK    1  A    between atoms: C_2  and  C_1 
REMARK       I    between atoms: N_6  and  C_2 
REMARK    2  A    between atoms: C_9  and  C_5 
REMARK    3  A    between atoms: C_7  and  N_6 
ROOT
ATOM      1  C   UNL d   1       0.889   0.026  -0.020  0.00  0.00     0.113 C 
ATOM      2  C   UNL d   1       0.130   0.813  -0.809  0.00  0.00     0.041 C 
ATOM      3  C   UNL d   1       0.346  -0.804   0.995  0.00  0.00     0.105 C 
ATOM      4  N   UNL d   1      -0.027  -1.502   1.843  0.00  0.00    -0.191 NA
ENDROOT
BRANCH   1   5
ATOM      5  C   UNL d   1       2.371   0.060  -0.265  0.00  0.00     0.266 C 
ATOM      6  N   UNL d   1       3.154  -0.557   0.698  0.00  0.00    -0.320 N 
ATOM      7  H   UNL d   1       2.703  -1.160   1.377  0.00  0.00     0.169 HD
ATOM      8  O   UNL d   1       2.802   0.560  -1.302  0.00  0.00    -0.267 OA
BRANCH   6   9
ATOM      9  C   UNL d   1       4.571  -0.609   0.683  0.00  0.00     0.077 A 
ATOM     10  C   UNL d   1       5.400   0.333   0.051  0.00  0.00     0.184 A 
ATOM     11  C   UNL d   1       6.779   0.158   0.023  0.00  0.00     0.195 A 
ATOM     12  F   UNL d   1       4.904   1.473  -0.451  0.00  0.00    -0.200 F 
ATOM     13  F   UNL d   1       7.559   1.061  -0.588  0.00  0.00    -0.199 F 
ATOM     14  C   UNL d   1       7.351  -0.940   0.648  0.00  0.00     0.158 A 
ATOM     15  C   UNL d   1       6.558  -1.853   1.334  0.00  0.00     0.048 A 
ATOM     16  F   UNL d   1       8.678  -1.121   0.614  0.00  0.00    -0.203 F 
ATOM     17  C   UNL d   1       5.170  -1.681   1.363  0.00  0.00     0.036 A 
ENDBRANCH   6   9
ENDBRANCH   1   5
BRANCH   2  18
ATOM     18  C   UNL d   1      -1.332   0.943  -0.735  0.00  0.00    -0.013 A 
ATOM     19  C   UNL d   1      -2.222   0.001  -1.282  0.00  0.00     0.045 A 
ATOM     20  C   UNL d   1      -3.603   0.194  -1.192  0.00  0.00     0.048 A 
ATOM     21 CL   UNL d   1      -1.656  -1.413  -2.100  0.00  0.00    -0.083 Cl
ATOM     22  C   UNL d   1      -4.099   1.330  -0.557  0.00  0.00     0.035 A 
ATOM     23  C   UNL d   1      -3.230   2.274  -0.013  0.00  0.00     0.024 A 
ATOM     24 CL   UNL d   1      -5.798   1.577  -0.451  0.00  0.00    -0.084 Cl
ATOM     25  C   UNL d   1      -1.851   2.082  -0.102  0.00  0.00     0.015 A 
ENDBRANCH   2  18
TORSDOF 3
