REMARK  7 active torsions:
REMARK  status: ('A' for Active; 'I' for Inactive)
REMARK    1  A    between atoms: C_7  and  C_1 
REMARK    2  A    between atoms: S_8  and  C_3 
REMARK    3  A    between atoms: O_16  and  C_7 
REMARK    4  A    between atoms: C_12  and  S_8 
REMARK    5  A    between atoms: C_9  and  C_12 
REMARK    6  A    between atoms: C_10  and  C_9 
REMARK    7  A    between atoms: C_21  and  O_16 
ROOT
ATOM      1  C   UNL d   1       0.804  -0.834   0.251  0.00  0.00     0.125 A 
ATOM      2  N   UNL d   1       0.864   0.524   0.444  0.00  0.00    -0.331 N 
ATOM      3  C   UNL d   1      -0.385   1.027   0.259  0.00  0.00     0.145 A 
ATOM      4  N   UNL d   1      -1.262   0.092  -0.013  0.00  0.00    -0.344 N 
ATOM      5  HN  UNL d   1      -2.261   0.204  -0.183  1.00  0.00     0.167 HD
ATOM      6  C   UNL d   1      -0.530  -1.075  -0.017  0.00  0.00     0.126 A 
ATOM      7  H   UNL d   1       1.694   1.063   0.651  0.00  0.00     0.168 HD
ENDROOT
BRANCH   3   8
ATOM      8  S   UNL d   1      -0.629   2.721   0.387  0.00  0.00    -0.086 SA
BRANCH   8   9
ATOM      9  C   UNL d   1      -2.411   2.844   0.062  0.00  0.00     0.166 C 
BRANCH   9  10
ATOM     10  C   UNL d   1      -2.897   4.277   0.212  0.00  0.00     0.169 C 
ATOM     11  O   UNL d   1      -2.161   5.231   0.465  0.00  0.00    -0.291 OA
BRANCH  10  12
ATOM     12  C   UNL d   1      -4.360   4.551   0.048  0.00  0.00     0.011 A 
ATOM     13  C   UNL d   1      -5.277   3.564  -0.337  0.00  0.00     0.017 A 
ATOM     14  C   UNL d   1      -6.635   3.879  -0.462  0.00  0.00     0.025 A 
ATOM     15  C   UNL d   1      -7.080   5.176  -0.205  0.00  0.00     0.034 A 
ATOM     16  C   UNL d   1      -6.177   6.166   0.171  0.00  0.00     0.025 A 
ATOM     17 CL   UNL d   1      -8.751   5.552  -0.349  0.00  0.00    -0.084 Cl
ATOM     18  C   UNL d   1      -4.821   5.854   0.295  0.00  0.00     0.017 A 
ENDBRANCH  10  12
ENDBRANCH   9  10
ENDBRANCH   8   9
ENDBRANCH   3   8
BRANCH   1  19
ATOM     19  C   UNL d   1       1.954  -1.684   0.300  0.00  0.00     0.311 C 
ATOM     20  O   UNL d   1       3.094  -1.283   0.501  0.00  0.00    -0.258 OA
BRANCH  19  21
ATOM     21  O   UNL d   1       1.601  -2.965   0.023  0.00  0.00    -0.317 OA
BRANCH  21  22
ATOM     22  C   UNL d   1       2.691  -3.855  -0.257  0.00  0.00     0.175 C 
ATOM     23  C   UNL d   1       2.980  -3.801  -1.746  0.00  0.00     0.034 C 
ENDBRANCH  21  22
ENDBRANCH  19  21
ENDBRANCH   1  19
TORSDOF 7
