REMARK  3 active torsions:
REMARK  status: ('A' for Active; 'I' for Inactive)
REMARK    1  A    between atoms: C_2  and  C_1 
REMARK       I    between atoms: N_5  and  C_1 
REMARK    2  A    between atoms: O_9  and  N_3 
REMARK    3  A    between atoms: C_7  and  N_5 
ROOT
ATOM      1  C   UNL d   1       0.981   1.258  -1.882  0.00  0.00     0.263 C 
ATOM      2  N   UNL d   1       0.151   1.061  -0.799  0.00  0.00    -0.322 N 
ATOM      3  O   UNL d   1       0.703   1.588  -3.023  0.00  0.00    -0.267 OA
ATOM      4  H   UNL d   1       0.597   0.835   0.084  0.00  0.00     0.169 HD
ENDROOT
BRANCH   2   5
ATOM      5  C   UNL d   1      -1.259   1.123  -0.799  0.00  0.00     0.035 A 
ATOM      6  C   UNL d   1      -2.022   1.407  -1.935  0.00  0.00     0.031 A 
ATOM      7  C   UNL d   1      -3.421   1.416  -1.871  0.00  0.00     0.026 A 
ATOM      8  C   UNL d   1      -4.062   1.139  -0.669  0.00  0.00     0.034 A 
ATOM      9  C   UNL d   1      -3.317   0.861   0.473  0.00  0.00     0.026 A 
ATOM     10 CL   UNL d   1      -5.780   1.138  -0.594  0.00  0.00    -0.084 Cl
ATOM     11  C   UNL d   1      -1.919   0.854   0.408  0.00  0.00     0.031 A 
ENDBRANCH   2   5
BRANCH   1  12
ATOM     12  C   UNL d   1       2.420   0.930  -1.582  0.00  0.00     0.188 C 
ATOM     13  N   UNL d   1       3.283   1.868  -1.373  0.00  0.00    -0.275 N 
ATOM     14  HN  UNL d   1       3.086   2.869  -1.369  1.00  0.00     0.193 HD
BRANCH  13  15
ATOM     15  O   UNL d   1       4.535   1.279  -1.154  0.00  0.00    -0.290 OA
ATOM     16  H   UNL d   1       5.140   2.044  -1.201  0.00  0.00     0.244 HD
ENDBRANCH  13  15
ENDBRANCH   1  12
TORSDOF 3
