REMARK  6 active torsions:
REMARK  status: ('A' for Active; 'I' for Inactive)
REMARK    1  A    between atoms: N_5  and  C_1 
REMARK    2  A    between atoms: C_4  and  C_8 
REMARK       I    between atoms: C_6  and  N_12 
REMARK       I    between atoms: N_11  and  C_6 
REMARK    3  A    between atoms: C_7  and  O_15 
REMARK    4  A    between atoms: C_26  and  N_11 
REMARK    5  A    between atoms: N_12  and  C_25 
REMARK    6  A    between atoms: O_15  and  C_28 
ROOT
ATOM      1  N   UNL d   1      -0.086   2.442   0.532  0.00  0.00    -0.217 N 
ATOM      2  C   UNL d   1      -0.169   2.989  -0.815  0.00  0.00     0.143 C 
ATOM      3  C   UNL d   1      -0.741   3.242   1.562  0.00  0.00     0.143 C 
ATOM      4  C   UNL d   1       0.568   4.327  -0.829  0.00  0.00     0.045 C 
ATOM      5  C   UNL d   1      -0.127   4.646   1.585  0.00  0.00     0.045 C 
ATOM      6  C   UNL d   1      -0.007   5.308   0.204  0.00  0.00     0.089 C 
ENDROOT
BRANCH   6   7
ATOM      7  N   UNL d   1      -1.248   5.868  -0.323  0.00  0.00    -0.338 N 
ATOM      8  C   UNL d   1      -1.955   6.879   0.260  0.00  0.00     0.321 C 
ATOM      9  N   UNL d   1      -2.990   7.396  -0.481  0.00  0.00    -0.309 N 
ATOM     10  O   UNL d   1      -1.662   7.384   1.338  0.00  0.00    -0.247 OA
ATOM     11  H   UNL d   1      -3.323   8.271  -0.093  0.00  0.00     0.170 HD
ATOM     12  H   UNL d   1      -1.207   6.028  -1.319  0.00  0.00     0.164 HD
BRANCH   9  13
ATOM     13  C   UNL d   1      -3.509   7.005  -1.735  0.00  0.00     0.036 C 
ATOM     14  C   UNL d   1      -3.338   5.728  -2.275  0.00  0.00     0.032 C 
ATOM     15  C   UNL d   1      -3.660   5.451  -3.606  0.00  0.00     0.039 C 
ATOM     16  C   UNL d   1      -4.277   6.418  -4.389  0.00  0.00     0.078 C 
ATOM     17  C   UNL d   1      -4.566   7.661  -3.814  0.00  0.00     0.039 C 
ATOM     18  C   UNL d   1      -4.192   7.955  -2.495  0.00  0.00     0.032 C 
BRANCH  16  19
ATOM     19  O   UNL d   1      -4.672   6.289  -5.686  0.00  0.00    -0.255 OA
BRANCH  19  20
ATOM     20  C   UNL d   1      -4.501   5.046  -6.351  0.00  0.00     0.530 C 
ATOM     21  F   UNL d   1      -4.795   3.987  -5.568  0.00  0.00    -0.144 F 
ATOM     22  F   UNL d   1      -5.340   5.013  -7.411  0.00  0.00    -0.144 F 
ATOM     23  F   UNL d   1      -3.237   4.926  -6.809  0.00  0.00    -0.144 F 
ENDBRANCH  19  20
ENDBRANCH  16  19
ENDBRANCH   9  13
ENDBRANCH   6   7
BRANCH   1  24
ATOM     24  C   UNL d   1      -0.132   1.062   0.640  0.00  0.00     0.680 A 
ATOM     25  N   UNL d   1      -0.570   0.497   1.773  0.00  0.00    -0.186 N 
ATOM     26  C   UNL d   1      -0.524  -0.860   1.889  0.00  0.00     0.133 A 
ATOM     27  HN  UNL d   1      -0.931   1.071   2.535  1.00  0.00     0.184 HD
ATOM     28  C   UNL d   1      -0.031  -1.668   0.880  0.00  0.00     0.052 A 
ATOM     29  C   UNL d   1       0.391  -1.005  -0.247  0.00  0.00     0.108 A 
ATOM     30  N   UNL d   1       0.343   0.328  -0.379  0.00  0.00    -0.202 N 
ATOM     31  HN  UNL d   1       0.661   0.777  -1.239  1.00  0.00     0.183 HD
BRANCH  26  32
ATOM     32  C   UNL d   1      -1.022  -1.515   3.163  0.00  0.00     0.433 C 
ATOM     33  F   UNL d   1      -1.515  -0.651   4.089  0.00  0.00    -0.165 F 
ATOM     34  F   UNL d   1      -2.019  -2.418   2.923  0.00  0.00    -0.165 F 
ATOM     35  F   UNL d   1      -0.041  -2.221   3.798  0.00  0.00    -0.165 F 
ENDBRANCH  26  32
ENDBRANCH   1  24
TORSDOF 6
