REMARK  5 active torsions:
REMARK  status: ('A' for Active; 'I' for Inactive)
REMARK    1  A    between atoms: C_14  and  C_1 
REMARK    2  A    between atoms: S_10  and  C_2 
REMARK    3  A    between atoms: C_8  and  N_9 
REMARK       I    between atoms: N_9  and  C_11 
REMARK    4  A    between atoms: C_20  and  S_10 
REMARK    5  A    between atoms: C_11  and  C_20 
ROOT
ATOM      1  C   UNL d   1       1.368  -4.372  -0.269  0.00  0.00     0.183 C 
ENDROOT
BRANCH   1   2
ATOM      2  C   UNL d   1       2.201  -5.629  -0.437  0.00  0.00     0.231 C 
ATOM      3  N   UNL d   1       3.514  -5.463  -0.838  0.00  0.00    -0.324 N 
ATOM      4  H   UNL d   1       3.909  -4.528  -0.763  0.00  0.00     0.169 HD
ATOM      5  O   UNL d   1       1.722  -6.722  -0.121  0.00  0.00    -0.272 OA
BRANCH   3   6
ATOM      6  C   UNL d   1       4.415  -6.508  -1.133  0.00  0.00     0.077 A 
ATOM      7  C   UNL d   1       5.789  -6.274  -0.996  0.00  0.00     0.184 A 
ATOM      8  C   UNL d   1       6.713  -7.275  -1.253  0.00  0.00     0.195 A 
ATOM      9  F   UNL d   1       6.211  -5.071  -0.567  0.00  0.00    -0.200 F 
ATOM     10  F   UNL d   1       8.023  -7.045  -1.070  0.00  0.00    -0.199 F 
ATOM     11  C   UNL d   1       6.281  -8.521  -1.696  0.00  0.00     0.158 A 
ATOM     12  C   UNL d   1       4.923  -8.768  -1.881  0.00  0.00     0.048 A 
ATOM     13  F   UNL d   1       7.165  -9.488  -1.958  0.00  0.00    -0.203 F 
ATOM     14  C   UNL d   1       3.993  -7.766  -1.587  0.00  0.00     0.036 A 
ENDBRANCH   3   6
ENDBRANCH   1   2
BRANCH   1  15
ATOM     15  S   UNL d   1       1.827  -3.034  -1.414  0.00  0.00    -0.112 SA
BRANCH  15  16
ATOM     16  C   UNL d   1       0.701  -1.780  -0.937  0.00  0.00     0.061 C 
ATOM     17  C   UNL d   1      -0.196  -1.226  -1.783  0.00  0.00     0.027 C 
ATOM     18  C   UNL d   1      -1.017  -0.101  -1.213  0.00  0.00     0.091 C 
ATOM     19  S   UNL d   1      -0.782   0.081   0.519  0.00  0.00    -0.039 SA
ATOM     20  S   UNL d   1      -2.091   0.901  -2.030  0.00  0.00    -0.071 SA
ATOM     21  S   UNL d   1       0.850  -1.115   0.669  0.00  0.00    -0.044 SA
BRANCH  17  22
ATOM     22  C   UNL d   1      -0.403  -1.647  -3.182  0.00  0.00    -0.022 A 
ATOM     23  C   UNL d   1      -1.314  -2.669  -3.482  0.00  0.00     0.012 A 
ATOM     24  C   UNL d   1      -1.614  -2.974  -4.811  0.00  0.00     0.001 A 
ATOM     25  C   UNL d   1      -1.004  -2.265  -5.845  0.00  0.00     0.000 A 
ATOM     26  C   UNL d   1      -0.077  -1.265  -5.555  0.00  0.00     0.001 A 
ATOM     27  C   UNL d   1       0.230  -0.961  -4.228  0.00  0.00     0.012 A 
ENDBRANCH  17  22
ENDBRANCH  15  16
ENDBRANCH   1  15
TORSDOF 5
