REMARK  1 active torsions:
REMARK  status: ('A' for Active; 'I' for Inactive)
REMARK    1  A    between atoms: C_7  and  C_4 
ROOT
ATOM      1  C   UNL d   1      -1.126  -0.852   0.036  0.00  0.00     0.045 A 
ATOM      2  C   UNL d   1       0.375  -0.981  -0.001  0.00  0.00     0.257 A 
ATOM      3  N   UNL d   1       0.838   0.316  -0.149  0.00  0.00    -0.322 N 
ATOM      4  C   UNL d   1      -1.896  -1.950   0.064  0.00  0.00     0.031 C 
ATOM      5  C   UNL d   1      -1.442   0.577  -0.041  0.00  0.00     0.006 A 
ATOM      6  C   UNL d   1      -0.211   1.231  -0.173  0.00  0.00     0.046 A 
ATOM      7  O   UNL d   1       1.034  -1.998   0.074  0.00  0.00    -0.267 OA
ATOM      8  C   UNL d   1      -2.615   1.311   0.004  0.00  0.00     0.015 A 
ATOM      9  C   UNL d   1      -0.105   2.602  -0.296  0.00  0.00     0.030 A 
ATOM     10  C   UNL d   1      -2.531   2.704  -0.110  0.00  0.00     0.001 A 
ATOM     11  C   UNL d   1      -1.288   3.343  -0.267  0.00  0.00     0.002 A 
ATOM     12  H   UNL d   1       1.819   0.539  -0.213  0.00  0.00     0.169 HD
ENDROOT
BRANCH   4  13
ATOM     13  C   UNL d   1      -3.359  -1.947  -0.018  0.00  0.00    -0.013 A 
ATOM     14  C   UNL d   1      -4.042  -1.980  -1.246  0.00  0.00     0.044 A 
ATOM     15 CL   UNL d   1      -3.203  -2.081  -2.756  0.00  0.00    -0.083 Cl
ATOM     16  C   UNL d   1      -5.438  -1.923  -1.279  0.00  0.00     0.024 A 
ATOM     17  C   UNL d   1      -6.162  -1.837  -0.091  0.00  0.00     0.002 A 
ATOM     18  C   UNL d   1      -5.494  -1.817   1.132  0.00  0.00     0.001 A 
ATOM     19  C   UNL d   1      -4.099  -1.874   1.170  0.00  0.00     0.013 A 
ENDBRANCH   4  13
TORSDOF 1
