REMARK  7 active torsions:
REMARK  status: ('A' for Active; 'I' for Inactive)
REMARK    1  A    between atoms: N_6  and  S_1 
REMARK    2  A    between atoms: C_10  and  S_1 
REMARK    3  A    between atoms: C_2  and  N_7 
REMARK    4  A    between atoms: C_28  and  C_27 
REMARK    5  A    between atoms: C_29  and  C_28 
REMARK    6  A    between atoms: C_31  and  C_29 
REMARK    7  A    between atoms: C_30  and  C_31 
ROOT
ATOM      1  N   UNL d   1       0.679  -1.024  -1.287  0.00  0.00    -0.205 NA
ATOM      2  N   UNL d   1       0.915  -2.611  -3.877  0.00  0.00    -0.360 N 
ATOM      3  C   UNL d   1       0.817  -0.419  -2.664  0.00  0.00     0.127 C 
ATOM      4  C   UNL d   1       0.239  -1.314  -3.775  0.00  0.00     0.140 C 
ATOM      5  C   UNL d   1       0.765  -3.518  -1.558  0.00  0.00     0.035 C 
ATOM      6  C   UNL d   1       1.531  -2.263  -1.162  0.00  0.00     0.109 C 
ATOM      7  C   UNL d   1       0.390  -3.674  -3.029  0.00  0.00     0.126 C 
ENDROOT
BRANCH   1   8
ATOM      8  S   UNL d   1       1.054   0.099  -0.021  0.00  0.00     0.243 S 
ATOM      9  O   UNL d   1       2.317   0.717  -0.372  0.00  0.00    -0.206 OA
ATOM     10  O   UNL d   1       0.884  -0.584   1.245  0.00  0.00    -0.206 OA
BRANCH   8  11
ATOM     11  C   UNL d   1      -0.212   1.344  -0.091  0.00  0.00     0.074 A 
ATOM     12  C   UNL d   1      -1.526   1.008   0.244  0.00  0.00     0.025 A 
ATOM     13  C   UNL d   1      -2.490   2.017   0.357  0.00  0.00     0.009 A 
ATOM     14  C   UNL d   1      -2.148   3.362   0.144  0.00  0.00    -0.058 A 
ATOM     15  C   UNL d   1      -0.826   3.680  -0.197  0.00  0.00     0.009 A 
ATOM     16  C   UNL d   1       0.140   2.678  -0.317  0.00  0.00     0.025 A 
BRANCH  14  17
ATOM     17  C   UNL d   1      -3.181   4.452   0.324  0.00  0.00     0.038 C 
BRANCH  17  18
ATOM     18  C   UNL d   1      -3.414   5.316  -0.921  0.00  0.00     0.005 C 
BRANCH  18  19
ATOM     19  C   UNL d   1      -3.947   4.514  -2.111  0.00  0.00    -0.000 C 
BRANCH  19  20
ATOM     20  C   UNL d   1      -4.149   5.408  -3.333  0.00  0.00    -0.005 C 
ATOM     21  C   UNL d   1      -4.650   4.609  -4.526  0.00  0.00     0.005 C 
ENDBRANCH  19  20
ENDBRANCH  18  19
ENDBRANCH  17  18
ENDBRANCH  14  17
ENDBRANCH   8  11
ENDBRANCH   1   8
BRANCH   2  22
ATOM     22  C   UNL d   1       1.994  -2.853  -4.684  0.00  0.00     0.147 A 
ATOM     23  N   UNL d   1       2.579  -4.031  -4.777  0.00  0.00    -0.336 N 
ATOM     24  C   UNL d   1       3.603  -4.023  -5.712  0.00  0.00     0.051 A 
ATOM     25  HN  UNL d   1       2.310  -4.848  -4.230  1.00  0.00     0.168 HD
ATOM     26  C   UNL d   1       4.401  -5.125  -6.088  0.00  0.00     0.032 A 
ATOM     27  C   UNL d   1       3.836  -2.793  -6.321  0.00  0.00     0.036 A 
ATOM     28  C   UNL d   1       5.399  -4.967  -7.059  0.00  0.00     0.026 A 
ATOM     29  C   UNL d   1       5.607  -3.725  -7.649  0.00  0.00     0.035 A 
ATOM     30  C   UNL d   1       4.836  -2.615  -7.293  0.00  0.00     0.045 A 
ATOM     31 CL   UNL d   1       6.836  -3.547  -8.842  0.00  0.00    -0.084 Cl
ATOM     32  S   UNL d   1       2.730  -1.645  -5.686  0.00  0.00    -0.052 SA
ENDBRANCH   2  22
TORSDOF 7
