REMARK  5 active torsions:
REMARK  status: ('A' for Active; 'I' for Inactive)
REMARK    1  A    between atoms: C_4  and  C_1 
REMARK    2  A    between atoms: N_3  and  C_2 
REMARK       I    between atoms: N_6  and  C_4 
REMARK    3  A    between atoms: C_8  and  N_6 
REMARK    4  A    between atoms: N_16  and  C_8 
REMARK    5  A    between atoms: C_17  and  N_16 
ROOT
ATOM      1  C   UNL d   1      -0.475  -4.710   1.408  0.00  0.00    -0.098 C 
ATOM      2  C   UNL d   1      -1.624  -4.481   1.136  0.00  0.00     0.014 C 
ATOM      3  C   UNL d   1       0.911  -4.981   1.797  0.00  0.00     0.215 C 
ENDROOT
BRANCH   3   4
ATOM      4  N   UNL d   1       1.784  -5.093   0.639  0.00  0.00    -0.357 N 
ATOM      5  H   UNL d   1       2.289  -5.970   0.567  0.00  0.00     0.162 HD
BRANCH   4   6
ATOM      6  C   UNL d   1       2.480  -4.045   0.082  0.00  0.00     0.175 C 
ATOM      7  S   UNL d   1       3.966  -4.370  -0.592  0.00  0.00    -0.041 SA
BRANCH   6   8
ATOM      8  N   UNL d   1       1.829  -2.831   0.162  0.00  0.00    -0.300 N 
ATOM      9  C   UNL d   1       2.294  -1.544  -0.086  0.00  0.00     0.258 C 
ATOM     10  O   UNL d   1       3.471  -1.225  -0.194  0.00  0.00    -0.267 OA
ATOM     11  H   UNL d   1       0.830  -2.943   0.188  0.00  0.00     0.171 HD
BRANCH   9  12
ATOM     12  C   UNL d   1       1.231  -0.525  -0.129  0.00  0.00     0.041 A 
ATOM     13  C   UNL d   1      -0.134  -0.629   0.323  0.00  0.00     0.061 A 
ATOM     14  C   UNL d   1      -0.844   0.538   0.127  0.00  0.00     0.144 A 
ATOM     15  S   UNL d   1       0.092   1.764  -0.574  0.00  0.00    -0.077 SA
ATOM     16  C   UNL d   1       1.472   0.751  -0.617  0.00  0.00     0.069 A 
BRANCH  14  17
ATOM     17  N   UNL d   1      -2.225   0.761   0.469  0.00  0.00    -0.108 N 
ATOM     18  O   UNL d   1      -2.789  -0.161   1.075  0.00  0.00    -0.531 OA
ATOM     19  O   UNL d   1      -2.751   1.829   0.135  0.00  0.00    -0.531 OA
ENDBRANCH  14  17
ENDBRANCH   9  12
ENDBRANCH   6   8
ENDBRANCH   4   6
ENDBRANCH   3   4
TORSDOF 5
