REMARK  4 active torsions:
REMARK  status: ('A' for Active; 'I' for Inactive)
REMARK    1  A    between atoms: C_2  and  C_1 
REMARK       I    between atoms: N_3  and  C_1 
REMARK       I    between atoms: C_5  and  N_3 
REMARK    2  A    between atoms: C_4  and  N_7 
REMARK       I    between atoms: N_7  and  C_5 
REMARK    3  A    between atoms: O_21  and  C_6 
REMARK    4  A    between atoms: O_24  and  C_12 
ROOT
ATOM      1  C   UNL d   1       0.933  -0.749  -0.119  0.00  0.00     0.265 C 
ATOM      2  N   UNL d   1       0.249  -1.895  -0.526  0.00  0.00    -0.275 N 
ATOM      3  C   UNL d   1       0.647  -3.201  -0.438  0.00  0.00     0.327 C 
ATOM      4  N   UNL d   1       1.210  -3.598   0.738  0.00  0.00    -0.303 N 
ATOM      5  O   UNL d   1       1.634  -0.664   0.876  0.00  0.00    -0.267 OA
ATOM      6  O   UNL d   1       0.440  -3.885  -1.436  0.00  0.00    -0.247 OA
ATOM      7  H   UNL d   1      -0.236  -1.790  -1.405  0.00  0.00     0.173 HD
ATOM      8  H   UNL d   1       1.481  -2.847   1.372  0.00  0.00     0.171 HD
ENDROOT
BRANCH   1   9
ATOM      9  C   UNL d   1       0.580   0.415  -0.988  0.00  0.00     0.100 A 
ATOM     10  C   UNL d   1       1.057   0.434  -2.317  0.00  0.00     0.108 A 
ATOM     11  C   UNL d   1       0.471   1.320  -3.235  0.00  0.00     0.068 A 
ATOM     12 CL   UNL d   1       1.006   1.503  -4.865  0.00  0.00    -0.081 Cl
ATOM     13  C   UNL d   1      -0.597   2.131  -2.841  0.00  0.00     0.029 A 
ATOM     14  C   UNL d   1      -1.028   2.138  -1.515  0.00  0.00     0.039 A 
ATOM     15  C   UNL d   1      -0.413   1.317  -0.566  0.00  0.00     0.086 A 
BRANCH  10  16
ATOM     16  O   UNL d   1       2.174  -0.313  -2.596  0.00  0.00    -0.353 OA
ATOM     17  C   UNL d   1       2.012  -1.337  -3.575  0.00  0.00     0.210 C 
ENDBRANCH  10  16
BRANCH  15  18
ATOM     18  O   UNL d   1      -0.860   1.289   0.727  0.00  0.00    -0.355 OA
ATOM     19  C   UNL d   1      -0.974   2.574   1.350  0.00  0.00     0.210 C 
ENDBRANCH  15  18
ENDBRANCH   1   9
BRANCH   4  20
ATOM     20  C   UNL d   1       1.539  -4.928   1.132  0.00  0.00     0.114 A 
ATOM     21  C   UNL d   1       1.228  -6.103   0.430  0.00  0.00     0.149 A 
ATOM     22  C   UNL d   1       1.614  -7.361   0.896  0.00  0.00     0.087 A 
ATOM     23  F   UNL d   1       0.512  -6.102  -0.699  0.00  0.00    -0.203 F 
ATOM     24  C   UNL d   1       2.300  -7.468   2.095  0.00  0.00     0.122 A 
ATOM     25  C   UNL d   1       2.596  -6.336   2.839  0.00  0.00     0.087 A 
ATOM     26  F   UNL d   1       2.666  -8.674   2.543  0.00  0.00    -0.206 F 
ATOM     27  C   UNL d   1       2.214  -5.086   2.354  0.00  0.00     0.149 A 
ATOM     28  F   UNL d   1       2.501  -4.004   3.096  0.00  0.00    -0.203 F 
ENDBRANCH   4  20
TORSDOF 4
