REMARK  6 active torsions:
REMARK  status: ('A' for Active; 'I' for Inactive)
REMARK    1  A    between atoms: C_10  and  C_1 
REMARK    2  A    between atoms: C_2  and  C_3 
REMARK    3  A    between atoms: O_14  and  C_2 
REMARK    4  A    between atoms: O_15  and  C_5 
REMARK    5  A    between atoms: C_6  and  S_9 
REMARK    6  A    between atoms: S_9  and  C_10 
ROOT
ATOM      1  C   UNL d   1       0.287   1.131  -0.021  0.00  0.00    -0.014 A 
ATOM      2  C   UNL d   1      -1.917   0.052  -0.038  0.00  0.00     0.040 A 
ATOM      3  C   UNL d   1      -1.123   1.212  -0.042  0.00  0.00     0.028 A 
ATOM      4  C   UNL d   1       0.871  -0.144   0.012  0.00  0.00     0.072 A 
ATOM      5  C   UNL d   1      -1.298  -1.203  -0.018  0.00  0.00     0.020 A 
ATOM      6  C   UNL d   1       0.092  -1.299   0.010  0.00  0.00     0.038 A 
ENDROOT
BRANCH   1   7
ATOM      7  C   UNL d   1       1.103   2.407   0.030  0.00  0.00     0.122 C 
BRANCH   7   8
ATOM      8  S   UNL d   1       2.194   2.589  -1.424  0.00  0.00    -0.108 SA
BRANCH   8   9
ATOM      9  C   UNL d   1       2.947   4.170  -1.076  0.00  0.00     0.069 A 
ATOM     10  N   UNL d   1       2.602   4.812   0.062  0.00  0.00    -0.361 N 
ATOM     11  C   UNL d   1       3.181   6.012   0.296  0.00  0.00     0.089 A 
ATOM     12  HN  UNL d   1       1.933   4.408   0.717  1.00  0.00     0.165 HD
ATOM     13  C   UNL d   1       4.100   6.607  -0.554  0.00  0.00     0.017 A 
ATOM     14  C   UNL d   1       4.449   5.931  -1.715  0.00  0.00     0.004 A 
ATOM     15  C   UNL d   1       3.866   4.693  -1.983  0.00  0.00     0.037 A 
ENDBRANCH   8   9
ENDBRANCH   7   8
ENDBRANCH   1   7
BRANCH   4  16
ATOM     16  O   UNL d   1       2.221  -0.339   0.054  0.00  0.00    -0.360 OA
ATOM     17  H   UNL d   1       2.666   0.484  -0.213  0.00  0.00     0.217 HD
ENDBRANCH   4  16
BRANCH   2  18
ATOM     18  C   UNL d   1      -3.407   0.081  -0.044  0.00  0.00     0.292 C 
ATOM     19  O   UNL d   1      -4.095  -0.928  -0.044  0.00  0.00    -0.259 OA
BRANCH  18  20
ATOM     20  O   UNL d   1      -3.877   1.354  -0.043  0.00  0.00    -0.323 OA
ATOM     21  C   UNL d   1      -5.305   1.429  -0.052  0.00  0.00     0.213 C 
ENDBRANCH  18  20
ENDBRANCH   2  18
TORSDOF 6
