REMARK  7 active torsions:
REMARK  status: ('A' for Active; 'I' for Inactive)
REMARK    1  A    between atoms: C_6  and  C_1 
REMARK    2  A    between atoms: O_24  and  C_2 
REMARK    3  A    between atoms: C_4  and  C_10 
REMARK    4  A    between atoms: O_22  and  C_4 
REMARK    5  A    between atoms: C_5  and  C_13 
REMARK    6  A    between atoms: N_7  and  O_22 
REMARK    7  A    between atoms: O_25  and  C_9 
ROOT
ATOM      1  N   UNL d   1      -0.735   4.310   6.434  0.00  0.00    -0.268 N 
ATOM      2  HN  UNL d   1      -0.624   5.304   6.231  1.00  0.00     0.194 HD
ATOM      3  C   UNL d   1      -1.214   3.845   7.541  0.00  0.00     0.127 C 
ENDROOT
BRANCH   1   4
ATOM      4  O   UNL d   1      -0.385   3.275   5.537  0.00  0.00    -0.195 OA
BRANCH   4   5
ATOM      5  C   UNL d   1       0.060   3.852   4.381  0.00  0.00     0.315 C 
ATOM      6  O   UNL d   1       0.193   5.049   4.142  0.00  0.00    -0.257 OA
BRANCH   5   7
ATOM      7  C   UNL d   1       0.340   2.834   3.332  0.00  0.00     0.041 A 
ATOM      8  C   UNL d   1       0.280   3.251   1.994  0.00  0.00     0.018 A 
ATOM      9  C   UNL d   1       0.604   2.370   0.962  0.00  0.00     0.017 A 
ATOM     10  C   UNL d   1       1.010   1.058   1.250  0.00  0.00     0.048 A 
ATOM     11  C   UNL d   1       1.049   0.640   2.590  0.00  0.00     0.017 A 
ATOM     12  C   UNL d   1       0.714   1.520   3.630  0.00  0.00     0.018 A 
BRANCH  10  13
ATOM     13  C   UNL d   1       1.413   0.140   0.118  0.00  0.00     0.417 C 
ATOM     14  F   UNL d   1       1.842  -1.083   0.534  0.00  0.00    -0.166 F 
ATOM     15  F   UNL d   1       2.428   0.654  -0.630  0.00  0.00    -0.166 F 
ATOM     16  F   UNL d   1       0.392  -0.097  -0.751  0.00  0.00    -0.166 F 
ENDBRANCH  10  13
ENDBRANCH   5   7
ENDBRANCH   4   5
ENDBRANCH   1   4
BRANCH   3  17
ATOM     17  C   UNL d   1      -1.685   4.774   8.608  0.00  0.00     0.006 A 
ATOM     18  C   UNL d   1      -2.206   4.330   9.845  0.00  0.00     0.081 A 
ATOM     19  C   UNL d   1      -2.667   5.271  10.808  0.00  0.00     0.124 A 
ATOM     20 CL   UNL d   1      -2.163   2.625  10.179  0.00  0.00    -0.080 Cl
ATOM     21  C   UNL d   1      -2.569   6.651  10.511  0.00  0.00     0.103 A 
ATOM     22  C   UNL d   1      -2.025   7.066   9.289  0.00  0.00     0.040 A 
ATOM     23  C   UNL d   1      -1.588   6.144   8.347  0.00  0.00     0.017 A 
BRANCH  19  24
ATOM     24  O   UNL d   1      -3.067   4.957  12.083  0.00  0.00    -0.351 OA
ATOM     25  C   UNL d   1      -3.952   3.866  12.300  0.00  0.00     0.210 C 
ENDBRANCH  19  24
BRANCH  21  26
ATOM     26  O   UNL d   1      -2.926   7.734  11.273  0.00  0.00    -0.353 OA
ATOM     27  C   UNL d   1      -3.532   7.548  12.540  0.00  0.00     0.210 C 
ENDBRANCH  21  26
ENDBRANCH   3  17
TORSDOF 7
