REMARK  8 active torsions:
REMARK  status: ('A' for Active; 'I' for Inactive)
REMARK    1  A    between atoms: S_8  and  C_2 
REMARK    2  A    between atoms: C_6  and  C_4 
REMARK    3  A    between atoms: O_15  and  C_6 
REMARK    4  A    between atoms: C_13  and  S_8 
REMARK    5  A    between atoms: C_9  and  C_13 
REMARK    6  A    between atoms: O_16  and  C_9 
REMARK    7  A    between atoms: C_19  and  O_15 
REMARK    8  A    between atoms: C_20  and  O_16 
ROOT
ATOM      1  C   UNL d   1       0.533   0.682  -0.022  0.00  0.00     0.041 A 
ATOM      2  C   UNL d   1       1.902   0.891  -0.040  0.00  0.00     0.057 A 
ATOM      3  C   UNL d   1       0.210  -0.734   0.012  0.00  0.00    -0.019 A 
ATOM      4  C   UNL d   1       1.342  -1.535   0.056  0.00  0.00     0.088 A 
ATOM      5  S   UNL d   1       2.760  -0.588  -0.036  0.00  0.00    -0.076 SA
ATOM      6  C   UNL d   1      -0.525   1.696  -0.037  0.00  0.00     0.162 C 
ATOM      7  O   UNL d   1      -0.325   2.892  -0.244  0.00  0.00    -0.292 OA
ATOM      8  C   UNL d   1      -1.216  -1.220   0.040  0.00  0.00     0.042 C 
ATOM      9  C   UNL d   1      -1.927   1.196   0.278  0.00  0.00     0.084 C 
ATOM     10  C   UNL d   1      -2.196  -0.135  -0.417  0.00  0.00     0.012 C 
ENDROOT
BRANCH   2  11
ATOM     11  S   UNL d   1       2.845   2.373  -0.126  0.00  0.00    -0.112 SA
BRANCH  11  12
ATOM     12  C   UNL d   1       2.356   3.281   1.348  0.00  0.00     0.191 C 
BRANCH  12  13
ATOM     13  C   UNL d   1       2.713   2.582   2.634  0.00  0.00     0.268 C 
ATOM     14  O   UNL d   1       1.984   1.786   3.214  0.00  0.00    -0.264 OA
BRANCH  13  15
ATOM     15  O   UNL d   1       3.909   3.042   3.104  0.00  0.00    -0.321 OA
BRANCH  15  16
ATOM     16  C   UNL d   1       4.178   2.802   4.494  0.00  0.00     0.174 C 
ATOM     17  C   UNL d   1       3.698   4.013   5.276  0.00  0.00     0.034 C 
ENDBRANCH  15  16
ENDBRANCH  13  15
ENDBRANCH  12  13
ENDBRANCH  11  12
ENDBRANCH   2  11
BRANCH   4  18
ATOM     18  C   UNL d   1       1.410  -2.984   0.214  0.00  0.00     0.300 C 
ATOM     19  O   UNL d   1       0.446  -3.717   0.387  0.00  0.00    -0.259 OA
BRANCH  18  20
ATOM     20  O   UNL d   1       2.707  -3.407   0.252  0.00  0.00    -0.317 OA
BRANCH  20  21
ATOM     21  C   UNL d   1       2.939  -4.660   0.903  0.00  0.00     0.174 C 
ATOM     22  C   UNL d   1       3.038  -4.405   2.397  0.00  0.00     0.034 C 
ENDBRANCH  20  21
ENDBRANCH  18  20
ENDBRANCH   4  18
TORSDOF 8
