REMARK  5 active torsions:
REMARK  status: ('A' for Active; 'I' for Inactive)
REMARK    1  A    between atoms: S_7  and  C_2 
REMARK    2  A    between atoms: C_9  and  C_3 
REMARK    3  A    between atoms: C_18  and  S_7 
REMARK    4  A    between atoms: C_8  and  N_11 
REMARK    5  A    between atoms: C_10  and  C_18 
REMARK       I    between atoms: N_11  and  C_10 
ROOT
ATOM      1  N   UNL d   1       0.976  -0.195  -0.235  0.00  0.00    -0.330 N 
ATOM      2  C   UNL d   1       0.244   0.924  -0.538  0.00  0.00     0.147 C 
ATOM      3  C   UNL d   1       0.076  -1.235  -0.055  0.00  0.00     0.061 C 
ATOM      4  N   UNL d   1      -1.038   0.727  -0.362  0.00  0.00    -0.344 N 
ATOM      5  HN  UNL d   1      -1.788   1.412  -0.452  1.00  0.00     0.167 HD
ATOM      6  C   UNL d   1      -1.154  -0.596  -0.033  0.00  0.00     0.120 C 
ATOM      7  C   UNL d   1       2.412  -0.259  -0.088  0.00  0.00     0.158 C 
ENDROOT
BRANCH   2   8
ATOM      8  S   UNL d   1       0.903   2.307  -1.345  0.00  0.00    -0.084 SA
BRANCH   8   9
ATOM      9  C   UNL d   1      -0.469   3.492  -1.267  0.00  0.00     0.185 C 
BRANCH   9  10
ATOM     10  C   UNL d   1      -1.661   3.261  -2.195  0.00  0.00     0.231 C 
ATOM     11  N   UNL d   1      -1.830   1.992  -2.701  0.00  0.00    -0.326 N 
ATOM     12  H   UNL d   1      -1.221   1.293  -2.290  0.00  0.00     0.169 HD
ATOM     13  O   UNL d   1      -2.439   4.200  -2.396  0.00  0.00    -0.272 OA
BRANCH  11  14
ATOM     14  C   UNL d   1      -2.919   1.486  -3.437  0.00  0.00     0.037 A 
ATOM     15  C   UNL d   1      -3.914   2.281  -4.003  0.00  0.00     0.053 A 
ATOM     16  C   UNL d   1      -5.003   1.687  -4.646  0.00  0.00     0.037 A 
ATOM     17 CL   UNL d   1      -6.242   2.677  -5.315  0.00  0.00    -0.084 Cl
ATOM     18  C   UNL d   1      -5.107   0.302  -4.742  0.00  0.00     0.048 A 
ATOM     19  C   UNL d   1      -4.097  -0.489  -4.207  0.00  0.00     0.037 A 
ATOM     20  C   UNL d   1      -3.003   0.093  -3.566  0.00  0.00     0.053 A 
ATOM     21 CL   UNL d   1      -4.208  -2.203  -4.313  0.00  0.00    -0.084 Cl
ENDBRANCH  11  14
ENDBRANCH   9  10
ENDBRANCH   8   9
ENDBRANCH   2   8
BRANCH   3  22
ATOM     22  C   UNL d   1       0.379  -2.663   0.034  0.00  0.00    -0.008 A 
ATOM     23  C   UNL d   1      -0.377  -3.499   0.866  0.00  0.00     0.015 A 
ATOM     24  C   UNL d   1      -0.153  -4.881   0.889  0.00  0.00     0.024 A 
ATOM     25  C   UNL d   1       0.835  -5.435   0.081  0.00  0.00     0.034 A 
ATOM     26  C   UNL d   1       1.593  -4.623  -0.756  0.00  0.00     0.024 A 
ATOM     27 CL   UNL d   1       1.108  -7.133   0.099  0.00  0.00    -0.084 Cl
ATOM     28  C   UNL d   1       1.358  -3.246  -0.787  0.00  0.00     0.015 A 
ENDBRANCH   3  22
TORSDOF 5
