REMARK  3 active torsions:
REMARK  status: ('A' for Active; 'I' for Inactive)
REMARK    1  A    between atoms: C_8  and  C_1 
REMARK    2  A    between atoms: C_9  and  C_7 
REMARK    3  A    between atoms: N_17  and  C_12 
ROOT
ATOM      1  C   UNL d   1      -0.223  -1.054   0.006  0.00  0.00     0.176 A 
ATOM      2  O   UNL d   1      -1.089   0.011  -0.030  0.00  0.00    -0.273 OA
ATOM      3  N   UNL d   1       1.039  -0.669   0.060  0.00  0.00    -0.277 N 
ATOM      4  HN  UNL d   1       1.859  -1.275   0.099  1.00  0.00     0.189 HD
ATOM      5  N   UNL d   1       1.034   0.708   0.055  0.00  0.00    -0.277 N 
ATOM      6  HN  UNL d   1       1.848   1.321   0.084  1.00  0.00     0.189 HD
ATOM      7  C   UNL d   1      -0.230   1.077   0.004  0.00  0.00     0.174 A 
ENDROOT
BRANCH   1   8
ATOM      8  C   UNL d   1      -0.802  -2.397   0.027  0.00  0.00     0.038 A 
ATOM      9  C   UNL d   1       0.016  -3.552   0.021  0.00  0.00     0.020 A 
ATOM     10  C   UNL d   1      -0.593  -4.817   0.013  0.00  0.00     0.024 A 
ATOM     11  C   UNL d   1      -1.979  -4.955   0.094  0.00  0.00     0.002 A 
ATOM     12  C   UNL d   1      -2.784  -3.824   0.139  0.00  0.00     0.001 A 
ATOM     13  C   UNL d   1      -2.201  -2.557   0.099  0.00  0.00     0.017 A 
BRANCH   9  14
ATOM     14  N   UNL d   1       1.404  -3.496  -0.209  0.00  0.00    -0.302 NA
ATOM     15  H   UNL d   1       1.831  -2.605   0.051  0.00  0.00     0.124 HD
ATOM     16  H   UNL d   1       1.924  -4.292   0.145  0.00  0.00     0.124 HD
ENDBRANCH   9  14
ENDBRANCH   1   8
BRANCH   7  17
ATOM     17  C   UNL d   1      -0.808   2.414   0.013  0.00  0.00     0.018 A 
ATOM     18  C   UNL d   1      -2.192   2.632  -0.054  0.00  0.00     0.041 A 
ATOM     19  C   UNL d   1      -2.715   3.931  -0.014  0.00  0.00     0.056 A 
ATOM     20 CL   UNL d   1      -4.434   4.106  -0.083  0.00  0.00    -0.083 Cl
ATOM     21  C   UNL d   1      -1.856   5.031   0.086  0.00  0.00     0.055 A 
ATOM     22  C   UNL d   1      -0.477   4.826   0.143  0.00  0.00     0.026 A 
ATOM     23 CL   UNL d   1      -2.431   6.658   0.148  0.00  0.00    -0.083 Cl
ATOM     24  C   UNL d   1       0.041   3.528   0.108  0.00  0.00     0.017 A 
ENDBRANCH   7  17
TORSDOF 3
