REMARK  3 active torsions:
REMARK  status: ('A' for Active; 'I' for Inactive)
REMARK    1  A    between atoms: C_2  and  S_1 
REMARK    2  A    between atoms: C_9  and  S_1 
REMARK    3  A    between atoms: S_10  and  C_3 
ROOT
ATOM      1  C   UNL d   1       0.520   0.157  -1.602  0.00  0.00     0.105 C 
ATOM      2  C   UNL d   1      -0.853   0.301  -1.790  0.00  0.00     0.064 C 
ATOM      3  C   UNL d   1       1.204   0.139  -2.863  0.00  0.00     0.064 C 
ATOM      4  S   UNL d   1      -1.250   0.629  -3.426  0.00  0.00    -0.092 SA
ATOM      5  C   UNL d   1       0.363   0.438  -3.915  0.00  0.00     0.076 C 
ATOM      6 CL   UNL d   1       2.847  -0.223  -3.176  0.00  0.00    -0.082 Cl
ENDROOT
BRANCH   1   7
ATOM      7  S   UNL d   1       1.188  -0.084  -0.015  0.00  0.00     0.182 S 
ATOM      8  O   UNL d   1       0.854  -1.467   0.268  0.00  0.00    -0.222 OA
ATOM      9  O   UNL d   1       0.641   1.015   0.760  0.00  0.00    -0.222 OA
BRANCH   7  10
ATOM     10  C   UNL d   1       2.962   0.075   0.024  0.00  0.00     0.105 C 
ATOM     11  C   UNL d   1       3.438   1.482  -0.327  0.00  0.00     0.026 C 
ATOM     12  C   UNL d   1       3.482  -0.296   1.417  0.00  0.00     0.026 C 
ENDBRANCH   7  10
ENDBRANCH   1   7
BRANCH   2  13
ATOM     13  S   UNL d   1      -2.166   0.103  -0.623  0.00  0.00    -0.126 SA
ATOM     14  C   UNL d   1      -2.588   1.824  -0.284  0.00  0.00     0.096 C 
ENDBRANCH   2  13
TORSDOF 3
