REMARK  2 active torsions:
REMARK  status: ('A' for Active; 'I' for Inactive)
REMARK    1  A    between atoms: C_2  and  C_1 
REMARK       I    between atoms: N_3  and  C_1 
REMARK    2  A    between atoms: C_11  and  N_3 
ROOT
ATOM      1  C   UNL d   1       0.933  -0.030  -0.151  0.00  0.00     0.256 C 
ATOM      2  N   UNL d   1       0.210   1.079   0.253  0.00  0.00    -0.323 N 
ATOM      3  O   UNL d   1       2.134  -0.224  -0.001  0.00  0.00    -0.267 OA
ATOM      4  H   UNL d   1      -0.793   1.048   0.138  0.00  0.00     0.169 HD
ENDROOT
BRANCH   1   5
ATOM      5  C   UNL d   1       0.120  -1.113  -0.776  0.00  0.00     0.033 A 
ATOM      6  C   UNL d   1      -1.018  -0.824  -1.545  0.00  0.00     0.027 A 
ATOM      7  C   UNL d   1      -1.779  -1.884  -2.001  0.00  0.00    -0.022 A 
ATOM      8  C   UNL d   1      -3.020  -1.876  -2.808  0.00  0.00     0.068 C 
ATOM      9  C   UNL d   1      -1.398  -3.196  -1.762  0.00  0.00     0.075 A 
ATOM     10  C   UNL d   1      -3.433  -3.337  -2.619  0.00  0.00     0.180 C 
ATOM     11  O   UNL d   1      -2.262  -4.120  -2.288  0.00  0.00    -0.350 OA
ATOM     12  C   UNL d   1      -0.250  -3.509  -1.066  0.00  0.00     0.038 A 
ATOM     13  C   UNL d   1       0.512  -2.452  -0.559  0.00  0.00     0.020 A 
ENDBRANCH   1   5
BRANCH   2  14
ATOM     14  C   UNL d   1       0.698   2.214   0.936  0.00  0.00     0.035 A 
ATOM     15  C   UNL d   1       2.038   2.400   1.275  0.00  0.00     0.029 A 
ATOM     16  C   UNL d   1       2.437   3.527   1.997  0.00  0.00     0.002 A 
ATOM     17  C   UNL d   1       1.502   4.485   2.379  0.00  0.00     0.000 A 
ATOM     18  C   UNL d   1       0.165   4.323   2.026  0.00  0.00     0.002 A 
ATOM     19  C   UNL d   1      -0.235   3.193   1.307  0.00  0.00     0.029 A 
ENDBRANCH   2  14
TORSDOF 2
