REMARK  7 active torsions:
REMARK  status: ('A' for Active; 'I' for Inactive)
REMARK    1  A    between atoms: C_7  and  C_1 
REMARK    2  A    between atoms: C_12  and  N_2 
REMARK    3  A    between atoms: C_13  and  C_6 
REMARK       I    between atoms: N_10  and  C_7 
REMARK    4  A    between atoms: C_8  and  C_11 
REMARK       I    between atoms: C_9  and  N_14 
REMARK       I    between atoms: N_15  and  C_9 
REMARK    5  A    between atoms: N_14  and  N_10 
REMARK    6  A    between atoms: C_23  and  C_12 
REMARK    7  A    between atoms: C_19  and  N_15 
ROOT
ATOM      1  C   UNL d   1      -0.710  -2.762  -0.017  0.00  0.00     0.288 C 
ATOM      2  N   UNL d   1      -1.850  -3.212  -0.695  0.00  0.00    -0.261 N 
ATOM      3  O   UNL d   1       0.031  -3.498   0.627  0.00  0.00    -0.264 OA
ATOM      4  H   UNL d   1      -2.356  -2.574  -1.292  0.00  0.00     0.190 HD
ENDROOT
BRANCH   1   5
ATOM      5  C   UNL d   1      -0.486  -1.311  -0.113  0.00  0.00     0.122 C 
ATOM      6  N   UNL d   1       0.733  -0.664  -0.023  0.00  0.00    -0.282 N 
ATOM      7  N   UNL d   1       0.650   0.678  -0.172  0.00  0.00    -0.301 N 
ATOM      8  C   UNL d   1      -0.654   0.951  -0.151  0.00  0.00     0.036 C 
ATOM      9  HN  UNL d   1       1.419   1.339  -0.278  1.00  0.00     0.187 HD
ATOM     10  C   UNL d   1      -1.402  -0.259  -0.186  0.00  0.00     0.064 C 
BRANCH   6  11
ATOM     11  C   UNL d   1       2.070  -1.207   0.196  0.00  0.00     0.188 C 
BRANCH  11  12
ATOM     12  C   UNL d   1       2.404  -1.324   1.665  0.00  0.00    -0.038 A 
ATOM     13  C   UNL d   1       2.909  -2.534   2.160  0.00  0.00     0.009 A 
ATOM     14  C   UNL d   1       3.211  -2.676   3.514  0.00  0.00     0.001 A 
ATOM     15  C   UNL d   1       3.022  -1.609   4.390  0.00  0.00     0.000 A 
ATOM     16  C   UNL d   1       2.549  -0.391   3.910  0.00  0.00     0.001 A 
ATOM     17  C   UNL d   1       2.254  -0.244   2.553  0.00  0.00     0.009 A 
ENDBRANCH  11  12
ENDBRANCH   6  11
BRANCH   8  18
ATOM     18  C   UNL d   1      -1.085   2.416  -0.075  0.00  0.00    -0.007 C 
ATOM     19  C   UNL d   1      -2.616   2.575  -0.053  0.00  0.00     0.021 C 
ATOM     20  C   UNL d   1      -0.528   3.076   1.212  0.00  0.00     0.021 C 
ATOM     21  C   UNL d   1      -0.535   3.208  -1.282  0.00  0.00     0.021 C 
ENDBRANCH   8  18
ENDBRANCH   1   5
BRANCH   2  22
ATOM     22  N   UNL d   1      -2.420  -4.523  -0.554  0.00  0.00    -0.248 N 
ATOM     23  C   UNL d   1      -1.806  -5.659  -1.003  0.00  0.00     0.339 C 
ATOM     24  N   UNL d   1      -2.481  -6.850  -0.976  0.00  0.00    -0.308 N 
ATOM     25  O   UNL d   1      -0.647  -5.677  -1.440  0.00  0.00    -0.245 OA
ATOM     26  H   UNL d   1      -1.810  -7.593  -1.171  0.00  0.00     0.170 HD
ATOM     27  H   UNL d   1      -3.275  -4.585  -0.023  0.00  0.00     0.192 HD
BRANCH  24  28
ATOM     28  C   UNL d   1      -3.816  -7.297  -0.866  0.00  0.00     0.037 A 
ATOM     29  C   UNL d   1      -4.950  -6.486  -0.849  0.00  0.00     0.045 A 
ATOM     30  C   UNL d   1      -6.252  -7.050  -0.783  0.00  0.00     0.050 A 
ATOM     31  C   UNL d   1      -6.409  -8.444  -0.754  0.00  0.00     0.016 A 
ATOM     32  C   UNL d   1      -5.287  -9.261  -0.797  0.00  0.00     0.003 A 
ATOM     33  C   UNL d   1      -4.014  -8.693  -0.851  0.00  0.00     0.029 A 
BRANCH  30  34
ATOM     34  C   UNL d   1      -7.482  -6.173  -0.725  0.00  0.00     0.417 C 
ATOM     35  F   UNL d   1      -7.224  -4.865  -1.011  0.00  0.00    -0.166 F 
ATOM     36  F   UNL d   1      -8.453  -6.562  -1.599  0.00  0.00    -0.166 F 
ATOM     37  F   UNL d   1      -8.061  -6.178   0.506  0.00  0.00    -0.166 F 
ENDBRANCH  30  34
ENDBRANCH  24  28
ENDBRANCH   2  22
TORSDOF 7
