REMARK  5 active torsions:
REMARK  status: ('A' for Active; 'I' for Inactive)
REMARK    1  A    between atoms: N_4  and  C_1 
REMARK    2  A    between atoms: C_18  and  N_7 
REMARK    3  A    between atoms: C_17  and  C_10 
REMARK    4  A    between atoms: C_13  and  C_15 
REMARK    5  A    between atoms: C_15  and  C_18 
ROOT
ATOM      1  N   UNL d   1      -1.992  -5.217   0.538  0.00  0.00    -0.323 N 
ATOM      2  HN  UNL d   1      -1.107  -5.187   1.044  1.00  0.00     0.169 HD
ATOM      3  C   UNL d   1      -2.751  -6.260   0.260  0.00  0.00     0.182 A 
ATOM      4  N   UNL d   1      -3.839  -4.543  -0.626  0.00  0.00    -0.247 N 
ATOM      5  HN  UNL d   1      -4.518  -3.950  -1.104  1.00  0.00     0.196 HD
ATOM      6  C   UNL d   1      -2.698  -4.183  -0.027  0.00  0.00     0.105 A 
ATOM      7  O   UNL d   1      -3.878  -5.922  -0.439  0.00  0.00    -0.217 OA
ENDROOT
BRANCH   6   8
ATOM      8  C   UNL d   1      -2.284  -2.760   0.046  0.00  0.00     0.098 C 
BRANCH   8   9
ATOM      9  C   UNL d   1      -0.774  -2.567   0.010  0.00  0.00     0.137 C 
BRANCH   9  10
ATOM     10  N   UNL d   1      -0.406  -1.159   0.045  0.00  0.00    -0.343 N 
ATOM     11  C   UNL d   1      -0.201  -0.372  -1.059  0.00  0.00     0.147 A 
ATOM     12  C   UNL d   1       0.135   0.866  -0.553  0.00  0.00     0.190 A 
ATOM     13  N   UNL d   1       0.133   0.849   0.825  0.00  0.00    -0.326 N 
ATOM     14  C   UNL d   1      -0.190  -0.385   1.165  0.00  0.00     0.081 A 
ATOM     15  HN  UNL d   1       0.339   1.627   1.451  1.00  0.00     0.169 HD
ATOM     16  C   UNL d   1      -0.310  -0.881   2.561  0.00  0.00     0.089 C 
BRANCH  12  17
ATOM     17  N   UNL d   1       0.459   2.067  -1.294  0.00  0.00    -0.096 N 
ATOM     18  O   UNL d   1       0.432   1.978  -2.531  0.00  0.00    -0.530 OA
ATOM     19  O   UNL d   1       0.737   3.088  -0.651  0.00  0.00    -0.530 OA
ENDBRANCH  12  17
ENDBRANCH   9  10
ENDBRANCH   8   9
ENDBRANCH   6   8
BRANCH   3  20
ATOM     20  C   UNL d   1      -2.584  -7.678   0.578  0.00  0.00     0.017 A 
ATOM     21  C   UNL d   1      -1.470  -8.109   1.317  0.00  0.00     0.019 A 
ATOM     22  C   UNL d   1      -1.300  -9.464   1.628  0.00  0.00     0.043 A 
ATOM     23  C   UNL d   1      -2.241 -10.393   1.201  0.00  0.00     0.116 A 
ATOM     24  C   UNL d   1      -3.351  -9.993   0.468  0.00  0.00     0.043 A 
ATOM     25  F   UNL d   1      -2.077 -11.687   1.497  0.00  0.00    -0.206 F 
ATOM     26  C   UNL d   1      -3.521  -8.641   0.158  0.00  0.00     0.019 A 
ENDBRANCH   3  20
TORSDOF 5
