REMARK  5 active torsions:
REMARK  status: ('A' for Active; 'I' for Inactive)
REMARK    1  A    between atoms: C_3  and  C_1 
REMARK    2  A    between atoms: C_5  and  CA_2 
REMARK       I    between atoms: N_6  and  C_3 
REMARK    3  A    between atoms: N_4  and  C_12 
REMARK    4  A    between atoms: OXT_22  and  C_5 
REMARK    5  A    between atoms: C_17  and  N_6 
ROOT
ATOM      1  C   UNL d   1      -1.746  -4.150  -0.965  0.00  0.00     0.275 C 
ATOM      2  N   UNL d   1      -0.933  -3.749   0.088  0.00  0.00    -0.322 N 
ATOM      3  O   UNL d   1      -1.433  -4.846  -1.920  0.00  0.00    -0.266 OA
ATOM      4  H   UNL d   1      -1.329  -3.049   0.707  0.00  0.00     0.169 HD
ENDROOT
BRANCH   2   5
ATOM      5  C   UNL d   1       0.441  -4.032   0.236  0.00  0.00     0.035 A 
ATOM      6  C   UNL d   1       1.127  -4.920  -0.583  0.00  0.00     0.032 A 
ATOM      7  C   UNL d   1       2.514  -5.048  -0.480  0.00  0.00     0.031 A 
ATOM      8  C   UNL d   1       3.272  -4.301   0.434  0.00  0.00     0.030 A 
ATOM      9  C   UNL d   1       2.558  -3.491   1.323  0.00  0.00     0.031 A 
ATOM     10  C   UNL d   1       1.160  -3.353   1.226  0.00  0.00     0.032 A 
BRANCH   8  11
ATOM     11  N   UNL d   1       4.660  -4.420   0.407  0.00  0.00    -0.378 N 
ATOM     12  C   UNL d   1       5.479  -3.954   1.540  0.00  0.00     0.153 C 
ATOM     13  C   UNL d   1       6.915  -4.535   1.414  0.00  0.00     0.291 C 
ATOM     14  N   UNL d   1       7.568  -4.224   0.119  0.00  0.00     0.087 N 
ATOM     15  C   UNL d   1       6.688  -4.656  -0.990  0.00  0.00     0.291 C 
ATOM     16  C   UNL d   1       8.863  -4.897   0.018  0.00  0.00     0.310 C 
ATOM     17  C   UNL d   1       5.271  -4.052  -0.894  0.00  0.00     0.153 C 
ENDBRANCH   8  11
ENDBRANCH   2   5
BRANCH   1  18
ATOM     18  C   UNL d   1      -3.087  -3.508  -0.976  0.00  0.00     0.134 A 
ATOM     19  CA  UNL d   1      -4.180  -4.070  -1.618  0.00  0.00     0.139 A 
ATOM     20  N   UNL d   1      -5.315  -3.343  -1.908  0.00  0.00    -0.357 N 
ATOM     21  C   UNL d   1      -5.302  -2.058  -1.484  0.00  0.00     0.105 A 
ATOM     22  HN  UNL d   1      -6.109  -3.746  -2.406  1.00  0.00     0.165 HD
ATOM     23  C   UNL d   1      -4.235  -1.514  -0.785  0.00  0.00     0.105 A 
ATOM     24  N   UNL d   1      -3.111  -2.216  -0.510  0.00  0.00    -0.358 N 
ATOM     25  HN  UNL d   1      -2.331  -1.812   0.010  1.00  0.00     0.165 HD
BRANCH  19  26
ATOM     26  C   UNL d   1      -4.296  -5.520  -1.932  0.00  0.00     0.196 C 
ATOM     27  O   UNL d   1      -3.644  -6.418  -1.436  0.00  0.00    -0.645 OA
BRANCH  26  28
ATOM     28  OXT UNL d   1      -5.349  -5.730  -2.766  0.00  0.00    -0.772 OA
ATOM     29  HXT UNL d   1      -5.823  -4.881  -2.923  0.00  0.00     0.167 HD
ENDBRANCH  26  28
ENDBRANCH  19  26
ENDBRANCH   1  18
TORSDOF 5
