REMARK  3 active torsions:
REMARK  status: ('A' for Active; 'I' for Inactive)
REMARK    1  A    between atoms: C_3  and  C_1 
REMARK    2  A    between atoms: C_10  and  C_2 
REMARK       I    between atoms: N_15  and  C_10 
REMARK       I    between atoms: C_13  and  N_16 
REMARK       I    between atoms: N_19  and  C_13 
REMARK    3  A    between atoms: N_16  and  N_15 
ROOT
ATOM      1  C   UNL d   1      -1.359  -0.760   0.120  0.00  0.00     0.145 A 
ATOM      2  C   UNL d   1      -0.123  -1.378   0.004  0.00  0.00     0.096 A 
ATOM      3  O   UNL d   1      -1.206   0.577  -0.116  0.00  0.00    -0.234 OA
ATOM      4  N   UNL d   1       0.120   0.884  -0.279  0.00  0.00    -0.264 N 
ATOM      5  HN  UNL d   1       0.523   1.804  -0.455  1.00  0.00     0.194 HD
ATOM      6  C   UNL d   1       0.776  -0.275  -0.160  0.00  0.00     0.047 A 
ATOM      7  C   UNL d   1       2.260  -0.250  -0.199  0.00  0.00     0.071 C 
ENDROOT
BRANCH   2   8
ATOM      8  C   UNL d   1       0.249  -2.779   0.091  0.00  0.00     0.275 C 
ATOM      9  N   UNL d   1      -0.659  -3.697  -0.399  0.00  0.00    -0.262 N 
ATOM     10  H   UNL d   1      -1.645  -3.484  -0.560  0.00  0.00     0.190 HD
ATOM     11  O   UNL d   1       1.353  -3.135   0.505  0.00  0.00    -0.266 OA
BRANCH   9  12
ATOM     12  N   UNL d   1      -0.314  -5.060  -0.410  0.00  0.00    -0.249 N 
ATOM     13  C   UNL d   1      -1.303  -5.958  -0.759  0.00  0.00     0.334 C 
ATOM     14  O   UNL d   1      -2.405  -5.620  -1.174  0.00  0.00    -0.246 OA
ATOM     15  N   UNL d   1      -0.893  -7.260  -0.605  0.00  0.00    -0.346 N 
ATOM     16  C   UNL d   1      -1.741  -8.346  -1.024  0.00  0.00     0.151 C 
ATOM     17  H   UNL d   1       0.104  -7.415  -0.628  0.00  0.00     0.163 HD
ATOM     18  H   UNL d   1       0.398  -5.333   0.260  0.00  0.00     0.192 HD
ENDBRANCH   9  12
ENDBRANCH   2   8
BRANCH   1  19
ATOM     19  C   UNL d   1      -2.678  -1.311   0.533  0.00  0.00     0.094 A 
ATOM     20  N   UNL d   1      -2.879  -2.587   0.872  0.00  0.00    -0.258 N 
ATOM     21  O   UNL d   1      -4.186  -2.657   1.323  0.00  0.00    -0.242 OA
ATOM     22  HN  UNL d   1      -2.208  -3.353   0.810  1.00  0.00     0.195 HD
ATOM     23  C   UNL d   1      -4.756  -1.424   1.246  0.00  0.00     0.074 A 
ATOM     24  C   UNL d   1      -3.852  -0.543   0.708  0.00  0.00     0.068 A 
ATOM     25  C   UNL d   1      -6.125  -1.290   1.773  0.00  0.00     0.079 C 
ENDBRANCH   1  19
TORSDOF 3
