REMARK  4 active torsions:
REMARK  status: ('A' for Active; 'I' for Inactive)
REMARK    1  A    between atoms: S_7  and  C_2 
REMARK    2  A    between atoms: C_10  and  S_7 
REMARK    3  A    between atoms: C_8  and  C_10 
REMARK    4  A    between atoms: O_13  and  C_8 
ROOT
ATOM      1  C   UNL d   1      -0.278  -0.814   0.005  0.00  0.00     0.049 A 
ATOM      2  C   UNL d   1      -1.275   1.405   0.041  0.00  0.00     0.023 A 
ATOM      3  C   UNL d   1      -1.412   0.009   0.019  0.00  0.00     0.052 A 
ATOM      4  C   UNL d   1       1.002  -0.257   0.009  0.00  0.00     0.041 A 
ATOM      5  C   UNL d   1       0.024   1.946   0.031  0.00  0.00     0.028 A 
ATOM      6  C   UNL d   1       1.170   1.132   0.024  0.00  0.00    -0.039 A 
ATOM      7 CL   UNL d   1       2.355  -1.331  -0.016  0.00  0.00    -0.084 Cl
ATOM      8 CL   UNL d   1      -2.949  -0.780  -0.040  0.00  0.00    -0.083 Cl
ATOM      9  C   UNL d   1       2.531   1.770   0.032  0.00  0.00     0.050 C 
ENDROOT
BRANCH   2  10
ATOM     10  S   UNL d   1      -2.613   2.599  -0.066  0.00  0.00    -0.118 SA
BRANCH  10  11
ATOM     11  C   UNL d   1      -3.546   2.341   1.481  0.00  0.00     0.190 C 
BRANCH  11  12
ATOM     12  C   UNL d   1      -2.737   2.518   2.747  0.00  0.00     0.268 C 
ATOM     13  O   UNL d   1      -1.545   2.782   2.832  0.00  0.00    -0.264 OA
BRANCH  12  14
ATOM     14  O   UNL d   1      -3.564   2.333   3.823  0.00  0.00    -0.326 OA
ATOM     15  C   UNL d   1      -2.915   2.449   5.091  0.00  0.00     0.213 C 
ENDBRANCH  12  14
ENDBRANCH  11  12
ENDBRANCH  10  11
ENDBRANCH   2  10
TORSDOF 4
