REMARK  4 active torsions:
REMARK  status: ('A' for Active; 'I' for Inactive)
REMARK       I    between atoms: C_7  and  N_1 
REMARK    1  A    between atoms: N_8  and  C_2 
REMARK    2  A    between atoms: C_9  and  C_6 
REMARK       I    between atoms: N_11  and  C_7 
REMARK    3  A    between atoms: O_13  and  C_16 
REMARK    4  A    between atoms: C_19  and  O_13 
ROOT
ATOM      1  N   UNL d   1       0.959  -0.762   0.144  0.00  0.00    -0.189 N 
ATOM      2  C   UNL d   1      -0.336  -1.278   0.021  0.00  0.00     0.132 C 
ATOM      3  N   UNL d   1       0.942   0.596   0.358  0.00  0.00    -0.288 N 
ATOM      4  HN  UNL d   1       1.712   1.188   0.671  1.00  0.00     0.188 HD
ATOM      5  C   UNL d   1      -1.133  -0.167  -0.166  0.00  0.00     0.082 C 
ATOM      6  C   UNL d   1      -0.315   0.970   0.063  0.00  0.00     0.062 C 
ATOM      7  C   UNL d   1       2.204  -1.440   0.083  0.00  0.00     0.342 C 
ATOM      8  O   UNL d   1       2.334  -2.498  -0.516  0.00  0.00    -0.245 OA
ATOM      9  N   UNL d   1       3.162  -0.796   0.831  0.00  0.00    -0.346 N 
ATOM     10  C   UNL d   1       4.430  -1.412   1.116  0.00  0.00     0.151 C 
ATOM     11  H   UNL d   1       2.896   0.086   1.261  0.00  0.00     0.163 HD
ENDROOT
BRANCH   6  12
ATOM     12  C   UNL d   1      -0.740   2.377   0.075  0.00  0.00    -0.008 A 
ATOM     13  C   UNL d   1      -1.952   2.768  -0.519  0.00  0.00     0.016 A 
ATOM     14  C   UNL d   1      -2.381   4.101  -0.471  0.00  0.00     0.038 A 
ATOM     15  C   UNL d   1      -1.579   5.070   0.133  0.00  0.00     0.076 A 
ATOM     16  C   UNL d   1      -0.382   4.694   0.740  0.00  0.00     0.038 A 
ATOM     17  C   UNL d   1       0.038   3.358   0.705  0.00  0.00     0.016 A 
BRANCH  15  18
ATOM     18  O   UNL d   1      -1.931   6.396   0.242  0.00  0.00    -0.311 OA
BRANCH  18  19
ATOM     19  C   UNL d   1      -2.545   7.027  -0.818  0.00  0.00     0.076 A 
ATOM     20  C   UNL d   1      -3.433   8.054  -0.491  0.00  0.00     0.037 A 
ATOM     21  C   UNL d   1      -4.088   8.765  -1.498  0.00  0.00     0.003 A 
ATOM     22  C   UNL d   1      -3.853   8.451  -2.837  0.00  0.00     0.000 A 
ATOM     23  C   UNL d   1      -2.945   7.446  -3.168  0.00  0.00     0.003 A 
ATOM     24  C   UNL d   1      -2.275   6.747  -2.160  0.00  0.00     0.037 A 
ENDBRANCH  18  19
ENDBRANCH  15  18
ENDBRANCH   6  12
BRANCH   2  25
ATOM     25  N   UNL d   1      -0.713  -2.585   0.171  0.00  0.00    -0.362 N 
ATOM     26  C   UNL d   1       0.117  -3.587   0.863  0.00  0.00     0.150 C 
ATOM     27  C   UNL d   1      -0.784  -4.563   1.631  0.00  0.00     0.187 C 
ATOM     28  O   UNL d   1      -1.732  -5.196   0.757  0.00  0.00    -0.388 OA
ATOM     29  C   UNL d   1      -2.570  -4.206   0.136  0.00  0.00     0.187 C 
ATOM     30  C   UNL d   1      -1.758  -3.182  -0.677  0.00  0.00     0.150 C 
ENDBRANCH   2  25
TORSDOF 4
