REMARK  9 active torsions:
REMARK  status: ('A' for Active; 'I' for Inactive)
REMARK    1  A    between atoms: C_6  and  C_1 
REMARK    2  A    between atoms: N_8  and  C_2 
REMARK    3  A    between atoms: C_9  and  N_4 
REMARK    4  A    between atoms: O_17  and  C_6 
REMARK    5  A    between atoms: C_7  and  O_12 
REMARK       I    between atoms: N_10  and  C_7 
REMARK    6  A    between atoms: C_15  and  N_8 
REMARK    7  A    between atoms: C_18  and  N_10 
REMARK    8  A    between atoms: O_12  and  C_16 
REMARK    9  A    between atoms: C_26  and  O_17 
ROOT
ATOM      1  C   UNL d   1       1.670   2.837   0.681  0.00  0.00     0.032 A 
ATOM      2  C   UNL d   1       4.345   3.725   0.725  0.00  0.00     0.081 A 
ATOM      3  C   UNL d   1       2.689   2.124   0.042  0.00  0.00     0.032 A 
ATOM      4  C   UNL d   1       2.029   4.011   1.360  0.00  0.00     0.032 A 
ATOM      5  C   UNL d   1       4.020   2.528   0.105  0.00  0.00     0.039 A 
ATOM      6  C   UNL d   1       3.357   4.460   1.379  0.00  0.00     0.039 A 
ENDROOT
BRANCH   1   7
ATOM      7  N   UNL d   1       0.338   2.386   0.752  0.00  0.00    -0.351 N 
ATOM      8  H   UNL d   1      -0.350   3.138   0.674  0.00  0.00     0.166 HD
BRANCH   7   9
ATOM      9  C   UNL d   1      -0.168   1.131   0.492  0.00  0.00     0.115 C 
ATOM     10  C   UNL d   1      -1.413   0.739   0.193  0.00  0.00     0.067 C 
ATOM     11  C   UNL d   1      -1.572  -0.716  -0.039  0.00  0.00     0.174 C 
ATOM     12  N   UNL d   1      -0.232  -1.192   0.195  0.00  0.00    -0.334 N 
ATOM     13  C   UNL d   1       0.586  -0.158   0.630  0.00  0.00     0.272 C 
ATOM     14  O   UNL d   1       1.717  -0.289   1.066  0.00  0.00    -0.266 OA
BRANCH  10  15
ATOM     15  C   UNL d   1      -2.541   1.669   0.181  0.00  0.00     0.293 C 
ATOM     16  O   UNL d   1      -2.429   2.883   0.108  0.00  0.00    -0.259 OA
BRANCH  15  17
ATOM     17  O   UNL d   1      -3.684   0.979   0.422  0.00  0.00    -0.318 OA
BRANCH  17  18
ATOM     18  C   UNL d   1      -4.786   1.768   0.895  0.00  0.00     0.174 C 
ATOM     19  C   UNL d   1      -4.660   1.933   2.401  0.00  0.00     0.034 C 
ENDBRANCH  17  18
ENDBRANCH  15  17
ENDBRANCH  10  15
BRANCH  12  20
ATOM     20  C   UNL d   1       0.247  -2.564  -0.078  0.00  0.00     0.025 C 
ATOM     21  C   UNL d   1      -0.907  -3.526  -0.418  0.00  0.00     0.037 C 
ATOM     22  C   UNL d   1       1.213  -2.530  -1.280  0.00  0.00     0.037 C 
ATOM     23  C   UNL d   1       0.985  -3.142   1.146  0.00  0.00     0.037 C 
ENDBRANCH  12  20
ENDBRANCH   7   9
ENDBRANCH   1   7
BRANCH   2  24
ATOM     24  O   UNL d   1       5.649   4.257   0.732  0.00  0.00    -0.261 OA
BRANCH  24  25
ATOM     25  C   UNL d   1       6.470   4.073  -0.373  0.00  0.00     0.370 C 
ATOM     26  N   UNL d   1       7.648   4.763  -0.380  0.00  0.00    -0.302 N 
ATOM     27  H   UNL d   1       8.146   4.583  -1.240  0.00  0.00     0.171 HD
ATOM     28  O   UNL d   1       6.215   3.380  -1.359  0.00  0.00    -0.238 OA
BRANCH  26  29
ATOM     29  C   UNL d   1       8.180   5.747   0.464  0.00  0.00     0.036 A 
ATOM     30  C   UNL d   1       7.657   6.123   1.700  0.00  0.00     0.029 A 
ATOM     31  C   UNL d   1       8.239   7.173   2.423  0.00  0.00     0.002 A 
ATOM     32  C   UNL d   1       9.350   7.845   1.917  0.00  0.00     0.000 A 
ATOM     33  C   UNL d   1       9.895   7.458   0.696  0.00  0.00     0.002 A 
ATOM     34  C   UNL d   1       9.317   6.411  -0.019  0.00  0.00     0.029 A 
ENDBRANCH  26  29
ENDBRANCH  24  25
ENDBRANCH   2  24
TORSDOF 9
