REMARK  2 active torsions:
REMARK  status: ('A' for Active; 'I' for Inactive)
REMARK    1  A    between atoms: N_15  and  N_7 
REMARK    2  A    between atoms: C_17  and  N_15 
ROOT
ATOM      1  S   UNL d   1       0.856  -1.665  -0.112  0.00  0.00     0.286 S 
ATOM      2  C   UNL d   1       2.173  -0.573  -0.531  0.00  0.00     0.216 C 
ATOM      3  N   UNL d   1       1.176  -1.957   1.538  0.00  0.00    -0.273 N 
ATOM      4  C   UNL d   1       2.251   0.622   0.374  0.00  0.00     0.232 C 
ATOM      5  C   UNL d   1       2.075   0.320   1.778  0.00  0.00     0.085 A 
ATOM      6  C   UNL d   1       1.623  -0.871   2.320  0.00  0.00     0.066 A 
ATOM      7  N   UNL d   1       3.039  -0.888  -1.451  0.00  0.00    -0.285 N 
ATOM      8  HN  UNL d   1       2.943  -1.742  -2.000  1.00  0.00     0.188 HD
ATOM      9  S   UNL d   1       2.467   1.471   2.974  0.00  0.00    -0.096 SA
ATOM     10  O   UNL d   1      -0.364  -0.882  -0.201  0.00  0.00    -0.198 OA
ATOM     11  O   UNL d   1       1.031  -2.894  -0.856  0.00  0.00    -0.198 OA
ATOM     12  C   UNL d   1       1.675  -0.846   3.745  0.00  0.00     0.039 A 
ATOM     13  C   UNL d   1       2.105   0.370   4.231  0.00  0.00     0.053 A 
ATOM     14  O   UNL d   1       2.522   1.713  -0.121  0.00  0.00    -0.284 OA
ATOM     15  C   UNL d   1       1.036  -3.325   2.048  0.00  0.00     0.170 C 
ENDROOT
BRANCH   7  16
ATOM     16  N   UNL d   1       4.078  -0.030  -1.651  0.00  0.00    -0.300 N 
ATOM     17  H   UNL d   1       3.893   0.980  -1.603  0.00  0.00     0.187 HD
BRANCH  16  18
ATOM     18  C   UNL d   1       5.008  -0.381  -2.654  0.00  0.00     0.048 A 
ATOM     19  C   UNL d   1       5.838   0.606  -3.200  0.00  0.00     0.032 A 
ATOM     20  C   UNL d   1       6.795   0.280  -4.167  0.00  0.00     0.026 A 
ATOM     21  C   UNL d   1       6.949  -1.044  -4.571  0.00  0.00     0.034 A 
ATOM     22  C   UNL d   1       6.160  -2.044  -4.015  0.00  0.00     0.026 A 
ATOM     23 CL   UNL d   1       8.129  -1.444  -5.757  0.00  0.00    -0.084 Cl
ATOM     24  C   UNL d   1       5.198  -1.713  -3.055  0.00  0.00     0.032 A 
ENDBRANCH  16  18
ENDBRANCH   7  16
TORSDOF 2
