REMARK  5 active torsions:
REMARK  status: ('A' for Active; 'I' for Inactive)
REMARK    1  A    between atoms: C_3  and  N_1 
REMARK    2  A    between atoms: C_4  and  C_2 
REMARK       I    between atoms: N_6  and  C_4 
REMARK       I    between atoms: C_5  and  N_7 
REMARK    3  A    between atoms: C_10  and  C_5 
REMARK    4  A    between atoms: N_7  and  N_6 
REMARK    5  A    between atoms: C_11  and  C_12 
ROOT
ATOM      1  C   UNL d   1       2.348   1.345  -6.092  0.00  0.00     0.270 C 
ATOM      2  N   UNL d   1       1.378   0.631  -5.418  0.00  0.00    -0.263 N 
ATOM      3  O   UNL d   1       2.252   2.564  -6.253  0.00  0.00    -0.266 OA
ATOM      4  H   UNL d   1       1.304  -0.383  -5.409  0.00  0.00     0.190 HD
ENDROOT
BRANCH   2   5
ATOM      5  N   UNL d   1       0.286   1.340  -4.888  0.00  0.00    -0.263 N 
ATOM      6  C   UNL d   1      -0.828   0.628  -4.501  0.00  0.00     0.272 C 
ATOM      7  O   UNL d   1      -0.904  -0.594  -4.595  0.00  0.00    -0.266 OA
ATOM      8  H   UNL d   1       0.349   2.357  -4.928  0.00  0.00     0.190 HD
BRANCH   6   9
ATOM      9  C   UNL d   1      -1.944   1.385  -3.884  0.00  0.00     0.066 A 
ATOM     10  C   UNL d   1      -3.274   0.992  -4.064  0.00  0.00     0.118 A 
ATOM     11  C   UNL d   1      -4.322   1.579  -3.338  0.00  0.00     0.037 A 
ATOM     12  C   UNL d   1      -4.034   2.586  -2.421  0.00  0.00     0.002 A 
ATOM     13  C   UNL d   1      -2.715   3.011  -2.246  0.00  0.00     0.001 A 
ATOM     14  C   UNL d   1      -1.671   2.413  -2.968  0.00  0.00     0.020 A 
BRANCH  10  15
ATOM     15  N   UNL d   1      -3.628   0.020  -5.081  0.00  0.00    -0.115 N 
ATOM     16  O   UNL d   1      -3.323   0.299  -6.247  0.00  0.00    -0.532 OA
ATOM     17  O   UNL d   1      -4.300  -0.956  -4.718  0.00  0.00    -0.532 OA
ENDBRANCH  10  15
ENDBRANCH   6   9
ENDBRANCH   2   5
BRANCH   1  18
ATOM     18  C   UNL d   1       3.549   0.608  -6.594  0.00  0.00     0.033 A 
ATOM     19  C   UNL d   1       3.903  -0.676  -6.170  0.00  0.00     0.017 A 
ATOM     20  C   UNL d   1       5.125  -1.243  -6.575  0.00  0.00     0.009 A 
ATOM     21  C   UNL d   1       6.029  -0.550  -7.405  0.00  0.00    -0.051 A 
ATOM     22  C   UNL d   1       5.629   0.716  -7.861  0.00  0.00     0.009 A 
ATOM     23  C   UNL d   1       4.413   1.285  -7.461  0.00  0.00     0.017 A 
BRANCH  21  24
ATOM     24  C   UNL d   1       7.410  -1.151  -7.742  0.00  0.00    -0.024 C 
ATOM     25  C   UNL d   1       8.282  -0.241  -8.640  0.00  0.00     0.019 C 
ATOM     26  C   UNL d   1       8.204  -1.384  -6.437  0.00  0.00     0.019 C 
ATOM     27  C   UNL d   1       7.248  -2.497  -8.477  0.00  0.00     0.019 C 
ENDBRANCH  21  24
ENDBRANCH   1  18
TORSDOF 5
