REMARK  9 active torsions:
REMARK  status: ('A' for Active; 'I' for Inactive)
REMARK       I    between atoms: N_3  and  C_1 
REMARK    1  A    between atoms: C_13  and  C_1 
REMARK    2  A    between atoms: C_14  and  N_3 
REMARK    3  A    between atoms: O_10  and  C_4 
REMARK    4  A    between atoms: C_5  and  O_11 
REMARK    5  A    between atoms: O_11  and  C_16 
REMARK    6  A    between atoms: O_12  and  C_15 
REMARK    7  A    between atoms: C_18  and  C_13 
REMARK    8  A    between atoms: C_16  and  C_14 
REMARK    9  A    between atoms: C_15  and  C_18 
ROOT
ATOM      1  C   UNL d   1      -1.182  -1.026  -0.732  0.00  0.00     0.149 C 
ENDROOT
BRANCH   1   2
ATOM      2  N   UNL d   1       0.263  -1.014  -0.606  0.00  0.00    -0.359 N 
ATOM      3  C   UNL d   1       1.062  -0.405  -1.548  0.00  0.00     0.217 C 
ATOM      4  O   UNL d   1       0.624   0.076  -2.586  0.00  0.00    -0.274 OA
ATOM      5  H   UNL d   1       0.685  -1.423   0.218  0.00  0.00     0.162 HD
BRANCH   3   6
ATOM      6  C   UNL d   1       2.538  -0.425  -1.203  0.00  0.00     0.105 C 
BRANCH   6   7
ATOM      7  C   UNL d   1       3.276   0.779  -1.790  0.00  0.00     0.035 C 
BRANCH   7   8
ATOM      8  C   UNL d   1       2.784   2.107  -1.223  0.00  0.00     0.164 C 
BRANCH   8   9
ATOM      9  O   UNL d   1       2.950   2.113   0.190  0.00  0.00    -0.401 OA
ATOM     10  H   UNL d   1       2.622   2.974   0.505  0.00  0.00     0.209 HD
ENDBRANCH   8   9
ENDBRANCH   7   8
ENDBRANCH   6   7
ENDBRANCH   3   6
ENDBRANCH   1   2
BRANCH   1  11
ATOM     11  C   UNL d   1      -1.704  -2.208  -1.547  0.00  0.00     0.195 C 
BRANCH  11  12
ATOM     12  O   UNL d   1      -3.130  -2.119  -1.582  0.00  0.00    -0.350 OA
BRANCH  12  13
ATOM     13  C   UNL d   1      -3.789  -3.149  -2.192  0.00  0.00     0.069 A 
ATOM     14  C   UNL d   1      -5.102  -3.344  -1.760  0.00  0.00     0.039 A 
ATOM     15  C   UNL d   1      -5.881  -4.364  -2.310  0.00  0.00     0.039 A 
ATOM     16  C   UNL d   1      -5.371  -5.174  -3.324  0.00  0.00     0.068 A 
ATOM     17  C   UNL d   1      -4.065  -4.970  -3.769  0.00  0.00     0.039 A 
ATOM     18  C   UNL d   1      -3.276  -3.959  -3.205  0.00  0.00     0.039 A 
BRANCH  16  19
ATOM     19  O   UNL d   1      -6.218  -6.150  -3.771  0.00  0.00    -0.356 OA
ATOM     20  C   UNL d   1      -6.028  -6.568  -5.117  0.00  0.00     0.210 C 
ENDBRANCH  16  19
ENDBRANCH  12  13
ENDBRANCH  11  12
ENDBRANCH   1  11
TORSDOF 9
