REMARK  7 active torsions:
REMARK  status: ('A' for Active; 'I' for Inactive)
REMARK    1  A    between atoms: C_4  and  C_1 
REMARK    2  A    between atoms: O_9  and  C_1 
REMARK    3  A    between atoms: C_2  and  C_3 
REMARK    4  A    between atoms: O_10  and  C_2 
REMARK    5  A    between atoms: C_11  and  C_5 
REMARK    6  A    between atoms: C_18  and  O_9 
REMARK    7  A    between atoms: C_19  and  O_10 
ROOT
ATOM      1  C   UNL d   1       0.174   1.693  -3.030  0.00  0.00     0.041 A 
ATOM      2  C   UNL d   1       0.490   0.799  -0.799  0.00  0.00     0.041 A 
ATOM      3  C   UNL d   1      -1.305   2.431  -1.204  0.00  0.00    -0.049 A 
ATOM      4  C   UNL d   1       0.886   0.879  -2.143  0.00  0.00     0.035 A 
ATOM      5  C   UNL d   1      -0.923   2.438  -2.557  0.00  0.00     0.025 A 
ATOM      6  C   UNL d   1      -0.599   1.567  -0.346  0.00  0.00     0.025 A 
ENDROOT
BRANCH   1   7
ATOM      7  C   UNL d   1       0.513   1.831  -4.476  0.00  0.00     0.298 C 
ATOM      8  O   UNL d   1      -0.213   2.421  -5.261  0.00  0.00    -0.259 OA
BRANCH   7   9
ATOM      9  O   UNL d   1       1.732   1.230  -4.762  0.00  0.00    -0.274 OA
BRANCH   9  10
ATOM     10  C   UNL d   1       2.311   1.156  -6.051  0.00  0.00     0.096 A 
ATOM     11  C   UNL d   1       1.817   1.762  -7.204  0.00  0.00     0.064 A 
ATOM     12  C   UNL d   1       2.486   1.561  -8.409  0.00  0.00     0.052 A 
ATOM     13 CL   UNL d   1       1.901   2.270  -9.861  0.00  0.00    -0.083 Cl
ATOM     14  C   UNL d   1       3.630   0.774  -8.418  0.00  0.00     0.111 A 
ATOM     15  N   UNL d   1       4.146   0.192  -7.311  0.00  0.00    -0.371 N 
ATOM     16  C   UNL d   1       3.474   0.399  -6.152  0.00  0.00     0.125 A 
ATOM     17  HN  UNL d   1       4.996  -0.372  -7.346  1.00  0.00     0.164 HD
ENDBRANCH   9  10
ENDBRANCH   7   9
ENDBRANCH   1   7
BRANCH   2  18
ATOM     18  C   UNL d   1       1.251  -0.106   0.113  0.00  0.00     0.298 C 
ATOM     19  O   UNL d   1       2.221  -0.756  -0.240  0.00  0.00    -0.259 OA
BRANCH  18  20
ATOM     20  O   UNL d   1       0.680  -0.083   1.378  0.00  0.00    -0.274 OA
BRANCH  20  21
ATOM     21  C   UNL d   1       1.082  -0.948   2.414  0.00  0.00     0.096 A 
ATOM     22  C   UNL d   1       1.520  -2.251   2.215  0.00  0.00     0.064 A 
ATOM     23  C   UNL d   1       1.787  -3.039   3.330  0.00  0.00     0.052 A 
ATOM     24 CL   UNL d   1       2.315  -4.663   3.147  0.00  0.00    -0.083 Cl
ATOM     25  C   UNL d   1       1.598  -2.495   4.596  0.00  0.00     0.111 A 
ATOM     26  N   UNL d   1       1.170  -1.230   4.816  0.00  0.00    -0.371 N 
ATOM     27  C   UNL d   1       0.917  -0.483   3.716  0.00  0.00     0.125 A 
ATOM     28  HN  UNL d   1       1.045  -0.861   5.759  1.00  0.00     0.164 HD
ENDBRANCH  20  21
ENDBRANCH  18  20
ENDBRANCH   2  18
BRANCH   3  29
ATOM     29  C   UNL d   1      -2.415   3.352  -0.658  0.00  0.00    -0.024 C 
ATOM     30  C   UNL d   1      -1.938   4.053   0.636  0.00  0.00     0.019 C 
ATOM     31  C   UNL d   1      -2.812   4.473  -1.646  0.00  0.00     0.019 C 
ATOM     32  C   UNL d   1      -3.679   2.531  -0.342  0.00  0.00     0.019 C 
ENDBRANCH   3  29
TORSDOF 7
