REMARK  5 active torsions:
REMARK  status: ('A' for Active; 'I' for Inactive)
REMARK    1  A    between atoms: N_2  and  S_1 
REMARK    2  A    between atoms: C_12  and  S_1 
REMARK    3  A    between atoms: C_7  and  C_5 
REMARK    4  A    between atoms: N_6  and  C_11 
REMARK    5  A    between atoms: S_22  and  C_16 
ROOT
ATOM      1  N   UNL d   1       0.295  -1.468   0.462  0.00  0.00    -0.188 N 
ATOM      2  N   UNL d   1      -0.589  -1.676   1.469  0.00  0.00    -0.284 N 
ATOM      3  HN  UNL d   1      -1.048  -0.971   2.046  1.00  0.00     0.188 HD
ATOM      4  C   UNL d   1      -0.731  -3.008   1.543  0.00  0.00     0.062 A 
ATOM      5  C   UNL d   1       0.688  -2.635  -0.144  0.00  0.00     0.131 A 
ATOM      6  C   UNL d   1       0.047  -3.645   0.532  0.00  0.00     0.052 A 
ENDROOT
BRANCH   4   7
ATOM      7  C   UNL d   1      -1.501  -3.661   2.616  0.00  0.00     0.011 A 
ATOM      8  C   UNL d   1      -0.986  -4.866   3.143  0.00  0.00     0.051 A 
ATOM      9  C   UNL d   1      -1.620  -5.515   4.212  0.00  0.00     0.103 A 
ATOM     10  C   UNL d   1      -2.770  -4.973   4.785  0.00  0.00     0.037 A 
ATOM     11  C   UNL d   1      -3.302  -3.794   4.259  0.00  0.00     0.022 A 
ATOM     12  C   UNL d   1      -2.691  -3.135   3.173  0.00  0.00     0.012 A 
BRANCH   9  13
ATOM     13  N   UNL d   1      -1.070  -6.777   4.726  0.00  0.00    -0.116 N 
ATOM     14  O   UNL d   1      -0.079  -7.248   4.149  0.00  0.00    -0.532 OA
ATOM     15  O   UNL d   1      -1.631  -7.297   5.699  0.00  0.00    -0.532 OA
ENDBRANCH   9  13
BRANCH  12  16
ATOM     16  S   UNL d   1      -3.582  -1.722   2.511  0.00  0.00    -0.134 SA
ATOM     17  C   UNL d   1      -2.894  -0.421   3.569  0.00  0.00     0.095 C 
ENDBRANCH  12  16
ENDBRANCH   4   7
BRANCH   1  18
ATOM     18  S   UNL d   1       0.921   0.073  -0.022  0.00  0.00     0.282 S 
ATOM     19  O   UNL d   1       1.867  -0.187  -1.093  0.00  0.00    -0.198 OA
ATOM     20  O   UNL d   1       1.321   0.732   1.210  0.00  0.00    -0.198 OA
BRANCH  18  21
ATOM     21  C   UNL d   1      -0.451   0.943  -0.728  0.00  0.00     0.081 A 
ATOM     22  C   UNL d   1      -0.833   2.179  -0.193  0.00  0.00     0.027 A 
ATOM     23  C   UNL d   1      -1.827   2.931  -0.825  0.00  0.00     0.025 A 
ATOM     24  C   UNL d   1      -2.429   2.448  -1.987  0.00  0.00     0.034 A 
ATOM     25  C   UNL d   1      -2.053   1.213  -2.518  0.00  0.00     0.025 A 
ATOM     26 CL   UNL d   1      -3.623   3.394  -2.786  0.00  0.00    -0.084 Cl
ATOM     27  C   UNL d   1      -1.058   0.457  -1.892  0.00  0.00     0.027 A 
ENDBRANCH  18  21
ENDBRANCH   1  18
TORSDOF 5
