REMARK  4 active torsions:
REMARK  status: ('A' for Active; 'I' for Inactive)
REMARK    1  A    between atoms: C_6  and  C_1 
REMARK    2  A    between atoms: C_12  and  C_2 
REMARK    3  A    between atoms: C_5  and  C_9 
REMARK       I    between atoms: C_9  and  N_15 
REMARK       I    between atoms: N_16  and  C_12 
REMARK    4  A    between atoms: N_15  and  N_16 
ROOT
ATOM      1  C   UNL d   1      -1.366  -0.648  -0.022  0.00  0.00     0.086 A 
ATOM      2  C   UNL d   1      -0.074  -1.266   0.026  0.00  0.00     0.094 A 
ATOM      3  N   UNL d   1      -1.235   0.662  -0.295  0.00  0.00    -0.259 N 
ATOM      4  HN  UNL d   1      -1.991   1.328  -0.453  1.00  0.00     0.195 HD
ATOM      5  O   UNL d   1       0.109   0.931  -0.322  0.00  0.00    -0.241 OA
ATOM      6  C   UNL d   1       0.808  -0.212  -0.122  0.00  0.00     0.090 A 
ATOM      7  C   UNL d   1       2.275  -0.044  -0.074  0.00  0.00     0.080 C 
ENDROOT
BRANCH   2   8
ATOM      8  C   UNL d   1       0.280  -2.655   0.228  0.00  0.00     0.275 C 
ATOM      9  N   UNL d   1       1.306  -3.092  -0.592  0.00  0.00    -0.263 N 
ATOM     10  H   UNL d   1       1.605  -2.554  -1.405  0.00  0.00     0.190 HD
ATOM     11  O   UNL d   1      -0.301  -3.382   1.027  0.00  0.00    -0.266 OA
BRANCH   9  12
ATOM     12  N   UNL d   1       1.690  -4.434  -0.569  0.00  0.00    -0.262 N 
ATOM     13  C   UNL d   1       2.449  -4.942  -1.608  0.00  0.00     0.288 C 
ATOM     14  O   UNL d   1       2.807  -4.252  -2.566  0.00  0.00    -0.264 OA
ATOM     15  H   UNL d   1       1.357  -5.030   0.189  0.00  0.00     0.190 HD
BRANCH  13  16
ATOM     16  C   UNL d   1       2.792  -6.357  -1.474  0.00  0.00     0.126 A 
ATOM     17  N   UNL d   1       2.470  -7.057  -0.371  0.00  0.00    -0.256 N 
ATOM     18  O   UNL d   1       2.940  -8.338  -0.583  0.00  0.00    -0.242 OA
ATOM     19  HN  UNL d   1       1.979  -6.712   0.453  1.00  0.00     0.195 HD
ATOM     20  C   UNL d   1       3.531  -8.412  -1.804  0.00  0.00     0.075 A 
ATOM     21  C   UNL d   1       3.474  -7.182  -2.407  0.00  0.00     0.071 A 
ATOM     22  C   UNL d   1       4.065  -9.731  -2.189  0.00  0.00     0.079 C 
ENDBRANCH  13  16
ENDBRANCH   9  12
ENDBRANCH   2   8
BRANCH   1  23
ATOM     23  C   UNL d   1      -2.712  -1.216   0.120  0.00  0.00     0.037 A 
ATOM     24  C   UNL d   1      -3.640  -0.648   1.023  0.00  0.00     0.048 A 
ATOM     25 CL   UNL d   1      -3.231   0.628   2.126  0.00  0.00    -0.083 Cl
ATOM     26  C   UNL d   1      -4.964  -1.107   1.088  0.00  0.00     0.025 A 
ATOM     27  C   UNL d   1      -5.383  -2.161   0.286  0.00  0.00     0.003 A 
ATOM     28  C   UNL d   1      -4.479  -2.754  -0.590  0.00  0.00     0.025 A 
ATOM     29  C   UNL d   1      -3.162  -2.278  -0.689  0.00  0.00     0.048 A 
ATOM     30 CL   UNL d   1      -2.180  -3.022  -1.909  0.00  0.00    -0.083 Cl
ENDBRANCH   1  23
TORSDOF 4
