REMARK  4 active torsions:
REMARK  status: ('A' for Active; 'I' for Inactive)
REMARK    1  A    between atoms: C_7  and  C_4 
REMARK    2  A    between atoms: C_9  and  C_7 
REMARK    3  A    between atoms: C_13  and  C_8 
REMARK    4  A    between atoms: O_15  and  C_14 
ROOT
ATOM      1  C   UNL d   1      -1.350   0.138  -0.145  0.00  0.00     0.081 A 
ATOM      2  N   UNL d   1      -0.497  -0.910  -0.300  0.00  0.00    -0.317 N 
ATOM      3  C   UNL d   1       1.042   0.826  -0.100  0.00  0.00     0.075 A 
ATOM      4  C   UNL d   1      -2.682   0.056  -0.066  0.00  0.00     0.092 C 
ATOM      5  C   UNL d   1       0.850  -0.647  -0.293  0.00  0.00     0.263 A 
ATOM      6  S   UNL d   1      -0.499   1.640  -0.003  0.00  0.00    -0.067 SA
ATOM      7  C   UNL d   1       2.197   1.495   0.004  0.00  0.00     0.036 C 
ATOM      8  O   UNL d   1       1.721  -1.491  -0.415  0.00  0.00    -0.267 OA
ATOM      9  H   UNL d   1      -0.836  -1.859  -0.435  0.00  0.00     0.169 HD
ENDROOT
BRANCH   4  10
ATOM     10  C   UNL d   1      -3.400  -1.244  -0.121  0.00  0.00     0.184 C 
ATOM     11  O   UNL d   1      -2.908  -2.231  -0.658  0.00  0.00    -0.287 OA
BRANCH  10  12
ATOM     12  C   UNL d   1      -4.748  -1.312   0.504  0.00  0.00     0.017 A 
ATOM     13  C   UNL d   1      -5.080  -0.529   1.622  0.00  0.00     0.052 A 
ATOM     14  C   UNL d   1      -6.332  -0.666   2.226  0.00  0.00     0.069 A 
ATOM     15  C   UNL d   1      -7.250  -1.580   1.702  0.00  0.00     0.037 A 
ATOM     16  C   UNL d   1      -6.925  -2.362   0.594  0.00  0.00     0.004 A 
ATOM     17  C   UNL d   1      -5.671  -2.236  -0.001  0.00  0.00     0.015 A 
BRANCH  14  18
ATOM     18  O   UNL d   1      -6.769   0.014   3.329  0.00  0.00    -0.356 OA
ATOM     19  C   UNL d   1      -5.859   0.919   3.942  0.00  0.00     0.210 C 
ENDBRANCH  14  18
ENDBRANCH  10  12
ENDBRANCH   4  10
BRANCH   7  20
ATOM     20  C   UNL d   1       3.535   0.906  -0.055  0.00  0.00    -0.035 A 
ATOM     21  C   UNL d   1       4.188   0.770  -1.284  0.00  0.00     0.011 A 
ATOM     22  C   UNL d   1       5.470   0.218  -1.339  0.00  0.00     0.001 A 
ATOM     23  C   UNL d   1       6.102  -0.197  -0.167  0.00  0.00     0.000 A 
ATOM     24  C   UNL d   1       5.456  -0.059   1.060  0.00  0.00     0.001 A 
ATOM     25  C   UNL d   1       4.174   0.492   1.118  0.00  0.00     0.011 A 
ENDBRANCH   7  20
TORSDOF 4
