REMARK  10 active torsions:
REMARK  status: ('A' for Active; 'I' for Inactive)
REMARK    1  A    between atoms: C_8  and  C_1 
REMARK    2  A    between atoms: C_2  and  C_7 
REMARK    3  A    between atoms: C_3  and  C_5 
REMARK    4  A    between atoms: C_4  and  C_6 
REMARK    5  A    between atoms: C_11  and  N_14 
REMARK    6  A    between atoms: N_13  and  C_12 
REMARK       I    between atoms: C_16  and  N_13 
REMARK       I    between atoms: N_14  and  C_15 
REMARK    7  A    between atoms: C_15  and  C_35 
REMARK    8  A    between atoms: C_36  and  C_16 
REMARK    9  A    between atoms: C_35  and  C_37 
REMARK   10  A    between atoms: C_37  and  C_36 
ROOT
ATOM      1  C   UNL d   1      -1.257  -5.738  -3.174  0.00  0.00     0.019 C 
ENDROOT
BRANCH   1   2
ATOM      2  C   UNL d   1      -1.893  -7.096  -3.519  0.00  0.00     0.103 C 
BRANCH   2   3
ATOM      3  C   UNL d   1      -1.779  -8.000  -2.297  0.00  0.00     0.222 C 
ATOM      4  N   UNL d   1      -2.155  -9.318  -2.489  0.00  0.00    -0.327 N 
ATOM      5  H   UNL d   1      -2.389  -9.608  -3.433  0.00  0.00     0.169 HD
ATOM      6  O   UNL d   1      -1.364  -7.535  -1.234  0.00  0.00    -0.273 OA
BRANCH   4   7
ATOM      7  C   UNL d   1      -2.015 -10.345  -1.515  0.00  0.00     0.036 A 
ATOM      8  C   UNL d   1      -1.722 -10.074  -0.175  0.00  0.00     0.045 A 
ATOM      9  C   UNL d   1      -1.399 -11.088   0.738  0.00  0.00     0.050 A 
ATOM     10  C   UNL d   1      -1.454 -12.418   0.312  0.00  0.00     0.032 A 
ATOM     11  C   UNL d   1      -1.816 -12.730  -1.009  0.00  0.00     0.050 A 
ATOM     12  C   UNL d   1      -2.105 -11.684  -1.914  0.00  0.00     0.045 A 
BRANCH   9  13
ATOM     13  C   UNL d   1      -0.962 -10.702   2.130  0.00  0.00     0.417 C 
ATOM     14  F   UNL d   1      -0.485 -11.753   2.854  0.00  0.00    -0.166 F 
ATOM     15  F   UNL d   1       0.036  -9.776   2.125  0.00  0.00    -0.166 F 
ATOM     16  F   UNL d   1      -1.972 -10.166   2.867  0.00  0.00    -0.166 F 
ENDBRANCH   9  13
BRANCH  11  17
ATOM     17  C   UNL d   1      -1.854 -14.170  -1.466  0.00  0.00     0.417 C 
ATOM     18  F   UNL d   1      -1.403 -15.050  -0.528  0.00  0.00    -0.166 F 
ATOM     19  F   UNL d   1      -3.109 -14.581  -1.793  0.00  0.00    -0.166 F 
ATOM     20  F   UNL d   1      -1.088 -14.383  -2.572  0.00  0.00    -0.166 F 
ENDBRANCH  11  17
ENDBRANCH   4   7
ENDBRANCH   2   3
ENDBRANCH   1   2
BRANCH   1  21
ATOM     21  C   UNL d   1      -1.329  -4.673  -4.259  0.00  0.00     0.103 C 
BRANCH  21  22
ATOM     22  C   UNL d   1      -0.503  -3.467  -3.817  0.00  0.00     0.222 C 
ATOM     23  N   UNL d   1      -1.183  -2.617  -2.957  0.00  0.00    -0.327 N 
ATOM     24  H   UNL d   1      -2.171  -2.797  -2.830  0.00  0.00     0.169 HD
ATOM     25  O   UNL d   1       0.663  -3.352  -4.180  0.00  0.00    -0.273 OA
BRANCH  23  26
ATOM     26  C   UNL d   1      -0.646  -1.543  -2.210  0.00  0.00     0.036 A 
ATOM     27  C   UNL d   1       0.714  -1.227  -2.169  0.00  0.00     0.045 A 
ATOM     28  C   UNL d   1       1.202  -0.196  -1.344  0.00  0.00     0.050 A 
ATOM     29  C   UNL d   1       0.297   0.546  -0.573  0.00  0.00     0.032 A 
ATOM     30  C   UNL d   1      -1.074   0.262  -0.604  0.00  0.00     0.050 A 
ATOM     31  C   UNL d   1      -1.532  -0.788  -1.427  0.00  0.00     0.045 A 
BRANCH  28  32
ATOM     32  C   UNL d   1       2.686   0.081  -1.288  0.00  0.00     0.417 C 
ATOM     33  F   UNL d   1       3.023   1.008  -0.347  0.00  0.00    -0.166 F 
ATOM     34  F   UNL d   1       3.175   0.553  -2.466  0.00  0.00    -0.166 F 
ATOM     35  F   UNL d   1       3.414  -1.029  -0.990  0.00  0.00    -0.166 F 
ENDBRANCH  28  32
BRANCH  30  36
ATOM     36  C   UNL d   1      -2.051   1.049   0.235  0.00  0.00     0.417 C 
ATOM     37  F   UNL d   1      -1.461   1.993   1.019  0.00  0.00    -0.166 F 
ATOM     38  F   UNL d   1      -2.969   1.712  -0.522  0.00  0.00    -0.166 F 
ATOM     39  F   UNL d   1      -2.768   0.255   1.079  0.00  0.00    -0.166 F 
ENDBRANCH  30  36
ENDBRANCH  23  26
ENDBRANCH  21  22
ENDBRANCH   1  21
TORSDOF 10
