REMARK  6 active torsions:
REMARK  status: ('A' for Active; 'I' for Inactive)
REMARK    1  A    between atoms: N_6  and  C_1 
REMARK    2  A    between atoms: C_8  and  N_2 
REMARK    3  A    between atoms: C_9  and  C_4 
REMARK    4  A    between atoms: O_22  and  C_9 
REMARK    5  A    between atoms: N_17  and  C_12 
REMARK    6  A    between atoms: C_26  and  O_22 
ROOT
ATOM      1  C   UNL d   1      -0.201  -1.188  -0.107  0.00  0.00     0.135 C 
ATOM      2  N   UNL d   1       1.108  -0.652  -0.037  0.00  0.00    -0.289 N 
ATOM      3  C   UNL d   1      -1.074  -0.112  -0.005  0.00  0.00     0.097 C 
ATOM      4  C   UNL d   1       1.018   0.752  -0.031  0.00  0.00     0.124 C 
ATOM      5  C   UNL d   1      -0.336   1.099  -0.038  0.00  0.00    -0.004 C 
ATOM      6  C   UNL d   1      -2.500  -0.196   0.118  0.00  0.00     0.104 C 
ATOM      7  N   UNL d   1      -3.653  -0.241   0.189  0.00  0.00    -0.191 NA
ATOM      8  C   UNL d   1      -0.913   2.477   0.018  0.00  0.00     0.052 C 
ENDROOT
BRANCH   1   9
ATOM      9  N   UNL d   1      -0.427  -2.540  -0.184  0.00  0.00    -0.337 N 
ATOM     10  C   UNL d   1      -1.503  -2.968  -0.762  0.00  0.00     0.179 C 
ATOM     11  HN  UNL d   1       0.245  -3.199   0.209  1.00  0.00     0.168 HD
BRANCH  10  12
ATOM     12  N   UNL d   1      -1.974  -4.263  -0.798  0.00  0.00    -0.386 N 
ATOM     13  C   UNL d   1      -1.293  -5.354  -0.123  0.00  0.00     0.149 C 
ATOM     14  C   UNL d   1      -3.272  -4.590  -1.370  0.00  0.00     0.149 C 
ENDBRANCH  10  12
ENDBRANCH   1   9
BRANCH   2  15
ATOM     15  C   UNL d   1       2.336  -1.405  -0.072  0.00  0.00     0.063 A 
ATOM     16  C   UNL d   1       2.552  -2.575   0.683  0.00  0.00     0.062 A 
ATOM     17  C   UNL d   1       3.768  -3.272   0.572  0.00  0.00     0.050 A 
ATOM     18 CL   UNL d   1       1.518  -3.125   1.960  0.00  0.00    -0.082 Cl
ATOM     19  C   UNL d   1       4.797  -2.772  -0.219  0.00  0.00     0.035 A 
ATOM     20  C   UNL d   1       4.619  -1.595  -0.933  0.00  0.00     0.026 A 
ATOM     21 CL   UNL d   1       6.311  -3.588  -0.278  0.00  0.00    -0.084 Cl
ATOM     22  C   UNL d   1       3.388  -0.933  -0.885  0.00  0.00     0.033 A 
ENDBRANCH   2  15
BRANCH   4  23
ATOM     23  C   UNL d   1       2.125   1.686   0.133  0.00  0.00     0.311 C 
ATOM     24  O   UNL d   1       3.147   1.485   0.773  0.00  0.00    -0.258 OA
BRANCH  23  25
ATOM     25  O   UNL d   1       1.827   2.856  -0.497  0.00  0.00    -0.317 OA
BRANCH  25  26
ATOM     26  C   UNL d   1       2.597   4.018  -0.150  0.00  0.00     0.175 C 
ATOM     27  C   UNL d   1       3.265   4.581  -1.388  0.00  0.00     0.034 C 
ENDBRANCH  25  26
ENDBRANCH  23  25
ENDBRANCH   4  23
TORSDOF 6
