REMARK  4 active torsions:
REMARK  status: ('A' for Active; 'I' for Inactive)
REMARK       I    between atoms: C_3  and  N_1 
REMARK       I    between atoms: C_4  and  N_1 
REMARK    1  A    between atoms: C_2  and  C_7 
REMARK    2  A    between atoms: C_8  and  C_3 
REMARK    3  A    between atoms: O_18  and  C_4 
REMARK    4  A    between atoms: C_19  and  O_18 
ROOT
ATOM      1  C   UNL d   1       0.198   2.794  -2.562  0.00  0.00    -0.091 C 
ATOM      2  C   UNL d   1       1.122   3.447  -2.964  0.00  0.00     0.014 C 
ATOM      3  C   UNL d   1      -0.927   1.997  -2.058  0.00  0.00     0.273 C 
ENDROOT
BRANCH   3   4
ATOM      4  O   UNL d   1      -0.469   1.042  -1.096  0.00  0.00    -0.292 OA
BRANCH   4   5
ATOM      5  C   UNL d   1      -0.405   1.475   0.184  0.00  0.00     0.368 C 
ATOM      6  N   UNL d   1       0.059   0.541   1.077  0.00  0.00    -0.269 N 
ATOM      7  C   UNL d   1       0.306  -0.800   0.857  0.00  0.00     0.260 C 
ATOM      8  H   UNL d   1       0.158   0.916   2.007  0.00  0.00     0.174 HD
ATOM      9  O   UNL d   1      -0.032  -1.433  -0.137  0.00  0.00    -0.267 OA
ATOM     10  O   UNL d   1      -0.705   2.601   0.566  0.00  0.00    -0.238 OA
BRANCH   7  11
ATOM     11  C   UNL d   1       0.982  -1.527   1.971  0.00  0.00     0.032 A 
ATOM     12  C   UNL d   1       0.756  -2.904   2.095  0.00  0.00     0.018 A 
ATOM     13  C   UNL d   1       1.436  -3.649   3.061  0.00  0.00     0.017 A 
ATOM     14  C   UNL d   1       2.363  -3.032   3.913  0.00  0.00     0.048 A 
ATOM     15  C   UNL d   1       2.566  -1.646   3.805  0.00  0.00     0.017 A 
ATOM     16  C   UNL d   1       1.884  -0.897   2.838  0.00  0.00     0.018 A 
BRANCH  14  17
ATOM     17  C   UNL d   1       3.154  -3.867   4.894  0.00  0.00     0.417 C 
ATOM     18  F   UNL d   1       4.051  -3.145   5.622  0.00  0.00    -0.166 F 
ATOM     19  F   UNL d   1       2.362  -4.503   5.798  0.00  0.00    -0.166 F 
ATOM     20  F   UNL d   1       3.877  -4.842   4.275  0.00  0.00    -0.166 F 
ENDBRANCH  14  17
ENDBRANCH   7  11
ENDBRANCH   4   5
ENDBRANCH   3   4
TORSDOF 4
