REMARK  2 active torsions:
REMARK  status: ('A' for Active; 'I' for Inactive)
REMARK    1  A    between atoms: C_6  and  N_1 
REMARK    2  A    between atoms: C_8  and  C_6 
ROOT
ATOM      1  N   UNL d   1       1.622  -0.956  -0.041  0.00  0.00    -0.284 N 
ATOM      2  C   UNL d   1       2.310   0.239  -0.083  0.00  0.00     0.373 A 
ATOM      3  O   UNL d   1       1.428   1.327  -0.091  0.00  0.00    -0.259 OA
ATOM      4  C   UNL d   1       0.278  -0.668  -0.013  0.00  0.00     0.073 A 
ATOM      5  C   UNL d   1       0.188   0.709  -0.043  0.00  0.00     0.107 A 
ATOM      6  O   UNL d   1       3.526   0.365  -0.112  0.00  0.00    -0.237 OA
ATOM      7  C   UNL d   1      -0.836  -1.480   0.030  0.00  0.00     0.033 A 
ATOM      8  C   UNL d   1      -1.029   1.356  -0.026  0.00  0.00     0.040 A 
ATOM      9  C   UNL d   1      -2.082  -0.845   0.036  0.00  0.00     0.002 A 
ATOM     10  C   UNL d   1      -2.178   0.561   0.012  0.00  0.00     0.003 A 
ENDROOT
BRANCH   1  11
ATOM     11  C   UNL d   1       2.211  -2.267   0.054  0.00  0.00     0.212 C 
BRANCH  11  12
ATOM     12  C   UNL d   1       1.948  -3.203  -1.118  0.00  0.00     0.141 C 
ATOM     13  O   UNL d   1       2.006  -4.427  -0.960  0.00  0.00    -0.297 OA
ATOM     14  C   UNL d   1       1.740  -2.638  -2.498  0.00  0.00     0.092 C 
ENDBRANCH  11  12
ENDBRANCH   1  11
TORSDOF 2
