REMARK  4 active torsions:
REMARK  status: ('A' for Active; 'I' for Inactive)
REMARK    1  A    between atoms: C_6  and  C_1 
REMARK    2  A    between atoms: C_4  and  C_7 
REMARK       I    between atoms: N_9  and  C_6 
REMARK    3  A    between atoms: C_20  and  N_9 
REMARK    4  A    between atoms: C_19  and  C_20 
ROOT
ATOM      1  C   UNL d   1      -3.208   0.223  -0.023  0.00  0.00     0.253 C 
ATOM      2  N   UNL d   1      -3.972   1.383  -0.012  0.00  0.00    -0.353 N 
ATOM      3  O   UNL d   1      -3.779  -0.872  -0.071  0.00  0.00    -0.268 OA
ATOM      4  H   UNL d   1      -3.582   2.299   0.113  0.00  0.00     0.163 HD
ENDROOT
BRANCH   1   5
ATOM      5  C   UNL d   1      -1.712   0.217   0.022  0.00  0.00     0.054 A 
ATOM      6  C   UNL d   1      -0.819   1.289   0.005  0.00  0.00     0.021 A 
ATOM      7  N   UNL d   1       0.541   1.109   0.024  0.00  0.00    -0.355 N 
ATOM      8  C   UNL d   1      -1.214   2.731  -0.036  0.00  0.00     0.069 C 
ATOM      9  C   UNL d   1       1.064  -0.152   0.055  0.00  0.00     0.117 A 
ATOM     10  HN  UNL d   1       1.163   1.918   0.014  1.00  0.00     0.166 HD
ATOM     11  C   UNL d   1       0.239  -1.264   0.083  0.00  0.00     0.035 A 
ATOM     12  C   UNL d   1      -1.138  -1.071   0.067  0.00  0.00     0.021 A 
BRANCH   9  13
ATOM     13  C   UNL d   1       2.573  -0.368   0.058  0.00  0.00     0.432 C 
ATOM     14  F   UNL d   1       3.310   0.776   0.003  0.00  0.00    -0.165 F 
ATOM     15  F   UNL d   1       2.999  -1.033   1.173  0.00  0.00    -0.165 F 
ATOM     16  F   UNL d   1       2.989  -1.130  -0.997  0.00  0.00    -0.165 F 
ENDBRANCH   9  13
ENDBRANCH   1   5
BRANCH   2  17
ATOM     17  C   UNL d   1      -5.409   1.194  -0.021  0.00  0.00     0.161 C 
BRANCH  17  18
ATOM     18  C   UNL d   1      -6.327   2.389  -0.014  0.00  0.00    -0.039 A 
ATOM     19  C   UNL d   1      -5.934   3.731  -0.053  0.00  0.00     0.034 A 
ATOM     20  C   UNL d   1      -6.894   4.755  -0.052  0.00  0.00     0.056 A 
ATOM     21 CL   UNL d   1      -6.323   6.388  -0.100  0.00  0.00    -0.083 Cl
ATOM     22  C   UNL d   1      -8.262   4.452  -0.017  0.00  0.00     0.055 A 
ATOM     23  C   UNL d   1      -8.666   3.121   0.020  0.00  0.00     0.026 A 
ATOM     24 CL   UNL d   1      -9.491   5.664  -0.019  0.00  0.00    -0.083 Cl
ATOM     25  C   UNL d   1      -7.710   2.105   0.023  0.00  0.00     0.010 A 
ENDBRANCH  17  18
ENDBRANCH   2  17
TORSDOF 4
