REMARK  2 active torsions:
REMARK  status: ('A' for Active; 'I' for Inactive)
REMARK    1  A    between atoms: C_15  and  C_3 
REMARK    2  A    between atoms: O_21  and  C_18 
ROOT
ATOM      1  N   UNL d   1       1.185   1.072   0.084  0.00  0.00    -0.334 N 
ATOM      2  HN  UNL d   1       0.305   0.558   0.127  1.00  0.00     0.168 HD
ATOM      3  C   UNL d   1       1.361   2.382   0.019  0.00  0.00     0.159 A 
ATOM      4  O   UNL d   1       2.678   2.772   0.002  0.00  0.00    -0.291 OA
ATOM      5  N   UNL d   1       4.903  -2.239   0.145  0.00  0.00    -0.352 N 
ATOM      6  C   UNL d   1       2.465   0.563   0.082  0.00  0.00     0.070 A 
ATOM      7  C   UNL d   1       4.343  -0.951   0.066  0.00  0.00     0.069 A 
ATOM      8  C   UNL d   1       3.374   1.607   0.036  0.00  0.00     0.107 A 
ATOM      9  C   UNL d   1       5.216   0.159   0.047  0.00  0.00     0.105 A 
ATOM     10  O   UNL d   1       6.594   0.022   0.038  0.00  0.00    -0.306 OA
ATOM     11  C   UNL d   1       2.950  -0.756   0.110  0.00  0.00     0.065 A 
ATOM     12  C   UNL d   1       4.751   1.474   0.024  0.00  0.00     0.079 A 
ATOM     13  C   UNL d   1       6.294  -2.399   0.038  0.00  0.00     0.067 A 
ATOM     14  C   UNL d   1       7.111  -1.257   0.025  0.00  0.00     0.102 A 
ATOM     15  C   UNL d   1       6.898  -3.657   0.057  0.00  0.00     0.032 A 
ATOM     16  C   UNL d   1       8.501  -1.366  -0.010  0.00  0.00     0.039 A 
ATOM     17  C   UNL d   1       8.293  -3.770   0.021  0.00  0.00     0.002 A 
ATOM     18  C   UNL d   1       9.092  -2.627  -0.015  0.00  0.00     0.003 A 
ATOM     19  H   UNL d   1       4.327  -3.018  -0.142  0.00  0.00     0.166 HD
ENDROOT
BRANCH   3  20
ATOM     20  C   UNL d   1       0.387   3.468  -0.081  0.00  0.00     0.015 A 
ATOM     21  C   UNL d   1      -0.985   3.206  -0.023  0.00  0.00     0.018 A 
ATOM     22  C   UNL d   1      -1.915   4.242  -0.184  0.00  0.00     0.037 A 
ATOM     23  C   UNL d   1      -1.494   5.558  -0.391  0.00  0.00     0.068 A 
ATOM     24  C   UNL d   1      -0.130   5.835  -0.431  0.00  0.00     0.037 A 
ATOM     25  C   UNL d   1       0.799   4.798  -0.277  0.00  0.00     0.018 A 
BRANCH  23  26
ATOM     26  O   UNL d   1      -2.498   6.465  -0.587  0.00  0.00    -0.356 OA
ATOM     27  C   UNL d   1      -2.172   7.837  -0.392  0.00  0.00     0.210 C 
ENDBRANCH  23  26
ENDBRANCH   3  20
TORSDOF 2
