REMARK  7 active torsions:
REMARK  status: ('A' for Active; 'I' for Inactive)
REMARK    1  A    between atoms: C_4  and  C_1 
REMARK       I    between atoms: C_2  and  N_8 
REMARK       I    between atoms: N_7  and  C_2 
REMARK    2  A    between atoms: C_3  and  S_9 
REMARK    3  A    between atoms: C_22  and  N_7 
REMARK    4  A    between atoms: N_8  and  C_21 
REMARK    5  A    between atoms: S_9  and  C_23 
REMARK    6  A    between atoms: C_10  and  O_13 
REMARK    7  A    between atoms: O_13  and  C_14 
ROOT
ATOM      1  N   UNL d   1      -3.575   1.320   3.842  0.00  0.00    -0.344 N 
ATOM      2  HN  UNL d   1      -4.306   2.029   3.789  1.00  0.00     0.167 HD
ATOM      3  C   UNL d   1      -2.393   1.471   3.199  0.00  0.00     0.148 A 
ATOM      4  C   UNL d   1      -2.800  -0.841   4.651  0.00  0.00     0.051 A 
ATOM      5  C   UNL d   1      -3.742   0.181   4.559  0.00  0.00     0.119 A 
ATOM      6  C   UNL d   1      -1.424   0.490   3.163  0.00  0.00     0.059 A 
ATOM      7  C   UNL d   1      -1.639  -0.677   3.891  0.00  0.00     0.035 A 
ENDROOT
BRANCH   4   8
ATOM      8  N   UNL d   1      -3.037  -1.942   5.519  0.00  0.00    -0.307 N 
ATOM      9  C   UNL d   1      -2.180  -3.009   5.699  0.00  0.00     0.325 C 
ATOM     10  N   UNL d   1      -2.594  -3.882   6.691  0.00  0.00    -0.309 N 
ATOM     11  O   UNL d   1      -1.162  -3.166   5.035  0.00  0.00    -0.247 OA
ATOM     12  H   UNL d   1      -3.494  -3.716   7.116  0.00  0.00     0.170 HD
ATOM     13  H   UNL d   1      -3.896  -1.933   6.046  0.00  0.00     0.170 HD
BRANCH  10  14
ATOM     14  C   UNL d   1      -1.953  -5.104   7.018  0.00  0.00     0.036 A 
ATOM     15  C   UNL d   1      -0.706  -5.482   6.509  0.00  0.00     0.031 A 
ATOM     16  C   UNL d   1      -0.200  -6.767   6.711  0.00  0.00     0.021 A 
ATOM     17  C   UNL d   1      -0.936  -7.704   7.430  0.00  0.00     0.009 A 
ATOM     18  C   UNL d   1      -2.119  -7.298   8.055  0.00  0.00     0.021 A 
ATOM     19  C   UNL d   1      -2.624  -6.004   7.852  0.00  0.00     0.031 A 
BRANCH  17  20
ATOM     20  S   UNL d   1      -0.381  -9.387   7.557  0.00  0.00    -0.016 SA
BRANCH  20  21
ATOM     21  C   UNL d   1      -0.453  -9.901   5.826  0.00  0.00     0.448 C 
ATOM     22  F   UNL d   1      -0.728  -8.898   4.960  0.00  0.00    -0.160 F 
ATOM     23  F   UNL d   1       0.728 -10.443   5.439  0.00  0.00    -0.160 F 
ATOM     24  F   UNL d   1      -1.404 -10.850   5.646  0.00  0.00    -0.160 F 
ENDBRANCH  20  21
ENDBRANCH  17  20
ENDBRANCH  10  14
ENDBRANCH   4   8
BRANCH   3  25
ATOM     25  O   UNL d   1      -2.081   2.651   2.528  0.00  0.00    -0.294 OA
BRANCH  25  26
ATOM     26  C   UNL d   1      -2.713   3.814   2.897  0.00  0.00     0.078 A 
ATOM     27  C   UNL d   1      -3.135   4.097   4.197  0.00  0.00     0.053 A 
ATOM     28  C   UNL d   1      -3.877   5.252   4.471  0.00  0.00     0.050 A 
ATOM     29  C   UNL d   1      -4.075   6.189   3.446  0.00  0.00     0.016 A 
ATOM     30  C   UNL d   1      -3.567   5.955   2.167  0.00  0.00     0.004 A 
ATOM     31  C   UNL d   1      -2.897   4.762   1.890  0.00  0.00     0.037 A 
BRANCH  28  32
ATOM     32  C   UNL d   1      -4.516   5.437   5.822  0.00  0.00     0.417 C 
ATOM     33  F   UNL d   1      -4.236   4.435   6.705  0.00  0.00    -0.166 F 
ATOM     34  F   UNL d   1      -5.876   5.487   5.745  0.00  0.00    -0.166 F 
ATOM     35  F   UNL d   1      -4.134   6.590   6.436  0.00  0.00    -0.166 F 
ENDBRANCH  28  32
ENDBRANCH  25  26
ENDBRANCH   3  25
TORSDOF 7
