REMARK  4 active torsions:
REMARK  status: ('A' for Active; 'I' for Inactive)
REMARK    1  A    between atoms: C_6  and  S_1 
REMARK    2  A    between atoms: C_7  and  S_1 
REMARK    3  A    between atoms: N_2  and  C_5 
REMARK    4  A    between atoms: N_3  and  C_4 
ROOT
ATOM      1  S   UNL d   1       1.397  -0.032   0.034  0.00  0.00     0.090 S 
ATOM      2  O   UNL d   1       2.803  -0.369  -0.374  0.00  0.00    -0.247 OA
ENDROOT
BRANCH   1   3
ATOM      3  C   UNL d   1       0.676   0.815  -1.404  0.00  0.00     0.069 A 
ATOM      4  C   UNL d   1      -0.544   1.503  -1.368  0.00  0.00     0.122 A 
ATOM      5  C   UNL d   1      -1.028   2.214  -2.481  0.00  0.00     0.037 A 
ATOM      6  C   UNL d   1      -0.281   2.240  -3.657  0.00  0.00     0.003 A 
ATOM      7  C   UNL d   1       0.942   1.576  -3.714  0.00  0.00     0.002 A 
ATOM      8  C   UNL d   1       1.420   0.884  -2.597  0.00  0.00     0.024 A 
BRANCH   4   9
ATOM      9  N   UNL d   1      -1.353   1.530  -0.168  0.00  0.00    -0.114 N 
ATOM     10  O   UNL d   1      -1.761   0.445   0.263  0.00  0.00    -0.532 OA
ATOM     11  O   UNL d   1      -1.615   2.643   0.309  0.00  0.00    -0.532 OA
ENDBRANCH   4   9
ENDBRANCH   1   3
BRANCH   1  12
ATOM     12  C   UNL d   1       0.521  -1.627  -0.116  0.00  0.00     0.069 A 
ATOM     13  C   UNL d   1       0.076  -2.358   1.006  0.00  0.00     0.122 A 
ATOM     14  C   UNL d   1      -0.514  -3.630   0.845  0.00  0.00     0.037 A 
ATOM     15  C   UNL d   1      -0.664  -4.185  -0.424  0.00  0.00     0.003 A 
ATOM     16  C   UNL d   1      -0.219  -3.483  -1.536  0.00  0.00     0.002 A 
ATOM     17  C   UNL d   1       0.379  -2.228  -1.382  0.00  0.00     0.024 A 
BRANCH  13  18
ATOM     18  N   UNL d   1       0.222  -1.872   2.386  0.00  0.00    -0.114 N 
ATOM     19  O   UNL d   1       0.351  -0.659   2.587  0.00  0.00    -0.532 OA
ATOM     20  O   UNL d   1       0.187  -2.720   3.294  0.00  0.00    -0.532 OA
ENDBRANCH  13  18
ENDBRANCH   1  12
TORSDOF 4
