REMARK  6 active torsions:
REMARK  status: ('A' for Active; 'I' for Inactive)
REMARK    1  A    between atoms: C_8  and  C_3 
REMARK    2  A    between atoms: C_11  and  C_5 
REMARK    3  A    between atoms: C_6  and  S_10 
REMARK    4  A    between atoms: O_14  and  C_6 
REMARK    5  A    between atoms: S_10  and  C_11 
REMARK    6  A    between atoms: C_19  and  O_14 
ROOT
ATOM      1  N   UNL d   1       1.416  -0.645   0.046  0.00  0.00    -0.352 N 
ATOM      2  HN  UNL d   1       2.278  -1.186   0.102  1.00  0.00     0.166 HD
ATOM      3  C   UNL d   1       0.206  -1.171   0.017  0.00  0.00     0.084 A 
ATOM      4  S   UNL d   1      -1.070  -0.013  -0.033  0.00  0.00    -0.081 SA
ATOM      5  C   UNL d   1       1.362   0.744  -0.010  0.00  0.00     0.026 A 
ATOM      6  C   UNL d   1       0.076   1.255  -0.037  0.00  0.00     0.077 A 
ENDROOT
BRANCH   3   7
ATOM      7  C   UNL d   1      -0.067  -2.617  -0.032  0.00  0.00    -0.002 A 
ATOM      8  C   UNL d   1      -1.236  -3.190   0.498  0.00  0.00     0.016 A 
ATOM      9  C   UNL d   1      -1.461  -4.569   0.418  0.00  0.00     0.024 A 
ATOM     10  C   UNL d   1      -0.515  -5.393  -0.191  0.00  0.00     0.034 A 
ATOM     11  C   UNL d   1       0.656  -4.848  -0.715  0.00  0.00     0.024 A 
ATOM     12 CL   UNL d   1      -0.798  -7.084  -0.299  0.00  0.00    -0.084 Cl
ATOM     13  C   UNL d   1       0.880  -3.470  -0.628  0.00  0.00     0.016 A 
ENDBRANCH   3   7
BRANCH   5  14
ATOM     14  C   UNL d   1       2.621   1.564  -0.008  0.00  0.00     0.139 C 
BRANCH  14  15
ATOM     15  S   UNL d   1       3.971   0.779  -0.927  0.00  0.00    -0.087 SA
BRANCH  15  16
ATOM     16  C   UNL d   1       5.301   1.911  -0.728  0.00  0.00     0.175 C 
ATOM     17  S   UNL d   1       5.158   3.574  -0.596  0.00  0.00    -0.045 SA
BRANCH  16  18
ATOM     18  O   UNL d   1       6.524   1.304  -0.721  0.00  0.00    -0.336 OA
BRANCH  18  19
ATOM     19  C   UNL d   1       7.736   1.982  -1.119  0.00  0.00     0.172 C 
ATOM     20  C   UNL d   1       8.737   0.917  -1.527  0.00  0.00     0.034 C 
ENDBRANCH  18  19
ENDBRANCH  16  18
ENDBRANCH  15  16
ENDBRANCH  14  15
ENDBRANCH   5  14
TORSDOF 6
