REMARK  5 active torsions:
REMARK  status: ('A' for Active; 'I' for Inactive)
REMARK    1  A    between atoms: S_5  and  C_1 
REMARK    2  A    between atoms: C_3  and  C_13 
REMARK       I    between atoms: N_4  and  C_3 
REMARK    3  A    between atoms: C_14  and  N_4 
REMARK    4  A    between atoms: C_13  and  S_5 
REMARK    5  A    between atoms: C_15  and  C_8 
ROOT
ATOM      1  C   UNL d   1      -0.225   7.045  -0.902  0.00  0.00     0.231 C 
ATOM      2  N   UNL d   1      -0.383   5.939  -0.081  0.00  0.00    -0.327 N 
ATOM      3  O   UNL d   1      -1.119   7.569  -1.566  0.00  0.00    -0.272 OA
ATOM      4  H   UNL d   1       0.423   5.668   0.470  0.00  0.00     0.169 HD
ENDROOT
BRANCH   2   5
ATOM      5  C   UNL d   1      -1.524   5.104   0.014  0.00  0.00     0.034 A 
ATOM      6  C   UNL d   1      -2.650   5.243  -0.795  0.00  0.00     0.030 A 
ATOM      7  C   UNL d   1      -3.719   4.336  -0.711  0.00  0.00     0.010 A 
ATOM      8  C   UNL d   1      -3.689   3.269   0.189  0.00  0.00    -0.055 A 
ATOM      9  C   UNL d   1      -2.576   3.151   1.032  0.00  0.00     0.010 A 
ATOM     10  C   UNL d   1      -1.504   4.056   0.943  0.00  0.00     0.030 A 
BRANCH   8  11
ATOM     11  C   UNL d   1      -4.800   2.232   0.218  0.00  0.00     0.010 C 
ATOM     12  C   UNL d   1      -6.162   2.841   0.562  0.00  0.00     0.015 C 
ATOM     13  C   UNL d   1      -4.876   1.480  -1.117  0.00  0.00     0.015 C 
ENDBRANCH   8  11
ENDBRANCH   2   5
BRANCH   1  14
ATOM     14  C   UNL d   1       1.148   7.709  -0.870  0.00  0.00     0.183 C 
BRANCH  14  15
ATOM     15  S   UNL d   1       2.513   6.514  -0.862  0.00  0.00    -0.113 SA
BRANCH  15  16
ATOM     16  C   UNL d   1       3.910   7.585  -0.959  0.00  0.00     0.041 A 
ATOM     17  S   UNL d   1       4.236   8.810   0.191  0.00  0.00    -0.095 SA
ATOM     18  C   UNL d   1       5.715   9.222  -0.564  0.00  0.00     0.051 A 
ATOM     19  C   UNL d   1       5.954   8.453  -1.681  0.00  0.00     0.009 A 
ATOM     20  C   UNL d   1       4.905   7.512  -1.913  0.00  0.00     0.026 A 
ENDBRANCH  15  16
ENDBRANCH  14  15
ENDBRANCH   1  14
TORSDOF 5
