REMARK  8 active torsions:
REMARK  status: ('A' for Active; 'I' for Inactive)
REMARK    1  A    between atoms: C_6  and  C_1 
REMARK    2  A    between atoms: C_15  and  N_2 
REMARK    3  A    between atoms: C_27  and  C_3 
REMARK    4  A    between atoms: S_12  and  C_6 
REMARK    5  A    between atoms: C_8  and  C_10 
REMARK    6  A    between atoms: C_9  and  C_11 
REMARK    7  A    between atoms: C_13  and  S_12 
REMARK    8  A    between atoms: C_32  and  C_27 
ROOT
ATOM      1  C   UNL d   1      -0.684   2.354  -0.012  0.00  0.00     0.227 C 
ATOM      2  O   UNL d   1      -0.021   3.222  -0.577  0.00  0.00    -0.279 OA
ENDROOT
BRANCH   1   3
ATOM      3  C   UNL d   1      -0.343   0.931  -0.025  0.00  0.00     0.063 C 
ATOM      4  C   UNL d   1       0.831   0.294  -0.465  0.00  0.00     0.050 C 
ATOM      5  N   UNL d   1       0.693  -1.058  -0.107  0.00  0.00    -0.260 N 
ATOM      6  N   UNL d   1      -0.538  -1.293   0.416  0.00  0.00    -0.304 N 
ATOM      7  C   UNL d   1      -1.164  -0.131   0.398  0.00  0.00     0.126 C 
ATOM      8  HN  UNL d   1      -0.904  -2.184   0.752  1.00  0.00     0.186 HD
BRANCH   4   9
ATOM      9  C   UNL d   1       2.031   0.907  -1.135  0.00  0.00     0.060 C 
BRANCH   9  10
ATOM     10  C   UNL d   1       3.083   1.519  -0.207  0.00  0.00     0.002 C 
ATOM     11  C   UNL d   1       3.764   0.543   0.739  0.00  0.00     0.005 C 
ENDBRANCH   9  10
ENDBRANCH   4   9
BRANCH   5  12
ATOM     12  C   UNL d   1       1.541  -2.204  -0.207  0.00  0.00     0.056 A 
ATOM     13  C   UNL d   1       1.340  -3.235   0.738  0.00  0.00     0.033 A 
ATOM     14  C   UNL d   1       2.010  -4.455   0.635  0.00  0.00     0.026 A 
ATOM     15  C   UNL d   1       2.885  -4.662  -0.423  0.00  0.00     0.034 A 
ATOM     16  C   UNL d   1       3.120  -3.643  -1.347  0.00  0.00     0.026 A 
ATOM     17 CL   UNL d   1       3.636  -6.196  -0.619  0.00  0.00    -0.084 Cl
ATOM     18  C   UNL d   1       2.457  -2.410  -1.239  0.00  0.00     0.033 A 
ENDBRANCH   5  12
ENDBRANCH   1   3
BRANCH   1  19
ATOM     19  S   UNL d   1      -2.114   2.733   0.968  0.00  0.00    -0.047 SA
BRANCH  19  20
ATOM     20  C   UNL d   1      -2.480   4.457   0.737  0.00  0.00     0.010 A 
ATOM     21  C   UNL d   1      -2.432   5.083  -0.510  0.00  0.00     0.035 A 
ATOM     22  C   UNL d   1      -2.800   6.434  -0.658  0.00  0.00     0.050 A 
ATOM     23  C   UNL d   1      -3.215   7.157   0.471  0.00  0.00     0.032 A 
ATOM     24  C   UNL d   1      -3.291   6.548   1.730  0.00  0.00     0.050 A 
ATOM     25  C   UNL d   1      -2.942   5.190   1.843  0.00  0.00     0.035 A 
BRANCH  22  26
ATOM     26  C   UNL d   1      -2.771   7.075  -2.024  0.00  0.00     0.417 C 
ATOM     27  F   UNL d   1      -3.123   8.389  -2.011  0.00  0.00    -0.166 F 
ATOM     28  F   UNL d   1      -1.541   7.021  -2.603  0.00  0.00    -0.166 F 
ATOM     29  F   UNL d   1      -3.625   6.468  -2.893  0.00  0.00    -0.166 F 
ENDBRANCH  22  26
BRANCH  24  30
ATOM     30  C   UNL d   1      -3.762   7.324   2.938  0.00  0.00     0.417 C 
ATOM     31  F   UNL d   1      -3.785   8.672   2.734  0.00  0.00    -0.166 F 
ATOM     32  F   UNL d   1      -5.023   6.982   3.318  0.00  0.00    -0.166 F 
ATOM     33  F   UNL d   1      -2.972   7.128   4.029  0.00  0.00    -0.166 F 
ENDBRANCH  24  30
ENDBRANCH  19  20
ENDBRANCH   1  19
TORSDOF 8
