REMARK  6 active torsions:
REMARK  status: ('A' for Active; 'I' for Inactive)
REMARK    1  A    between atoms: C_7  and  C_1 
REMARK    2  A    between atoms: C_8  and  C_2 
REMARK    3  A    between atoms: O_11  and  C_3 
REMARK    4  A    between atoms: O_12  and  C_4 
REMARK    5  A    between atoms: N_9  and  C_7 
REMARK    6  A    between atoms: N_10  and  C_8 
ROOT
ATOM      1  C   UNL d   1       0.823  -1.155  -0.180  0.00  0.00     0.006 C 
ATOM      2  C   UNL d   1      -0.811   1.159  -0.162  0.00  0.00     0.006 C 
ATOM      3  C   UNL d   1      -1.370  -0.122  -0.238  0.00  0.00     0.074 C 
ATOM      4  C   UNL d   1       1.383   0.124  -0.268  0.00  0.00     0.074 C 
ATOM      5  C   UNL d   1      -0.574  -1.263  -0.235  0.00  0.00     0.048 C 
ATOM      6  C   UNL d   1       0.585   1.266  -0.249  0.00  0.00     0.048 C 
ENDROOT
BRANCH   1   7
ATOM      7  C   UNL d   1       1.641  -2.424  -0.039  0.00  0.00     0.312 C 
BRANCH   7   8
ATOM      8  N   UNL d   1       2.931  -2.251   0.677  0.00  0.00     0.084 N 
ATOM      9  C   UNL d   1       2.721  -1.866   2.086  0.00  0.00     0.309 C 
ATOM     10  C   UNL d   1       3.666  -3.523   0.651  0.00  0.00     0.309 C 
ENDBRANCH   7   8
ENDBRANCH   1   7
BRANCH   4  11
ATOM     11  O   UNL d   1       2.735   0.321  -0.316  0.00  0.00    -0.360 OA
ATOM     12  H   UNL d   1       3.150  -0.548  -0.122  0.00  0.00     0.217 HD
ENDBRANCH   4  11
BRANCH   3  13
ATOM     13  O   UNL d   1      -2.725  -0.319  -0.258  0.00  0.00    -0.360 OA
ATOM     14  H   UNL d   1      -3.136   0.550  -0.055  0.00  0.00     0.217 HD
ENDBRANCH   3  13
BRANCH   2  15
ATOM     15  C   UNL d   1      -1.626   2.426  -0.011  0.00  0.00     0.312 C 
BRANCH  15  16
ATOM     16  N   UNL d   1      -2.899   2.256   0.736  0.00  0.00     0.084 N 
ATOM     17  C   UNL d   1      -2.657   1.879   2.141  0.00  0.00     0.309 C 
ATOM     18  C   UNL d   1      -3.634   3.529   0.722  0.00  0.00     0.309 C 
ENDBRANCH  15  16
ENDBRANCH   2  15
TORSDOF 6
