REMARK  5 active torsions:
REMARK  status: ('A' for Active; 'I' for Inactive)
REMARK    1  A    between atoms: N_3  and  C_1 
REMARK    2  A    between atoms: S_15  and  C_8 
REMARK    3  A    between atoms: C_17  and  S_15 
REMARK    4  A    between atoms: O_16  and  C_18 
REMARK    5  A    between atoms: C_18  and  C_17 
ROOT
ATOM      1  C   UNL d   1      -1.359  -1.535  -0.003  0.00  0.00     0.149 A 
ATOM      2  C   UNL d   1      -0.140  -0.819   0.044  0.00  0.00     0.101 A 
ATOM      3  C   UNL d   1      -0.184   0.690   0.038  0.00  0.00     0.069 A 
ATOM      4  N   UNL d   1       1.115  -1.293   0.107  0.00  0.00    -0.308 N 
ATOM      5  HN  UNL d   1       1.391  -2.275   0.146  1.00  0.00     0.176 HD
ATOM      6  S   UNL d   1       2.132   0.018   0.107  0.00  0.00     0.068 SA
ATOM      7  C   UNL d   1      -2.579  -0.835  -0.047  0.00  0.00     0.036 A 
ATOM      8  N   UNL d   1       1.029   1.258   0.078  0.00  0.00    -0.310 N 
ATOM      9  HN  UNL d   1       1.234   2.257   0.089  1.00  0.00     0.176 HD
ATOM     10  C   UNL d   1      -1.419   1.381  -0.008  0.00  0.00     0.034 A 
ATOM     11  C   UNL d   1      -2.584   0.587  -0.060  0.00  0.00     0.023 A 
ENDROOT
BRANCH   7  12
ATOM     12  S   UNL d   1      -4.174  -1.637  -0.218  0.00  0.00    -0.125 SA
BRANCH  12  13
ATOM     13  C   UNL d   1      -4.683  -1.816   1.539  0.00  0.00     0.105 C 
BRANCH  13  14
ATOM     14  C   UNL d   1      -4.866  -0.504   2.300  0.00  0.00     0.174 C 
BRANCH  14  15
ATOM     15  O   UNL d   1      -5.804   0.347   1.654  0.00  0.00    -0.400 OA
ATOM     16  H   UNL d   1      -5.912   1.138   2.209  0.00  0.00     0.209 HD
ENDBRANCH  14  15
ENDBRANCH  13  14
ENDBRANCH  12  13
ENDBRANCH   7  12
BRANCH   1  17
ATOM     17  N   UNL d   1      -1.280  -2.962   0.009  0.00  0.00    -0.112 N 
ATOM     18  O   UNL d   1      -0.870  -3.518  -1.020  0.00  0.00    -0.532 OA
ATOM     19  O   UNL d   1      -1.638  -3.532   1.048  0.00  0.00    -0.532 OA
ENDBRANCH   1  17
TORSDOF 5
