REMARK  3 active torsions:
REMARK  status: ('A' for Active; 'I' for Inactive)
REMARK    1  A    between atoms: C_8  and  C_1 
REMARK    2  A    between atoms: O_18  and  C_13 
REMARK    3  A    between atoms: O_19  and  C_15 
ROOT
ATOM      1  C   UNL d   1      -2.100  -1.675  -0.021  0.00  0.00     0.090 A 
ATOM      2  C   UNL d   1      -2.694  -0.473  -0.012  0.00  0.00     0.093 A 
ATOM      3  C   UNL d   1       0.091  -0.793  -0.015  0.00  0.00     0.093 A 
ATOM      4  O   UNL d   1      -0.735  -1.890  -0.030  0.00  0.00    -0.309 OA
ATOM      5  C   UNL d   1      -1.850   0.730  -0.000  0.00  0.00     0.187 A 
ATOM      6  C   UNL d   1      -0.392   0.515   0.009  0.00  0.00     0.048 A 
ATOM      7  C   UNL d   1       1.466  -1.032  -0.023  0.00  0.00     0.074 A 
ATOM      8  C   UNL d   1       0.492   1.597   0.038  0.00  0.00     0.021 A 
ATOM      9  O   UNL d   1      -2.345   1.849   0.007  0.00  0.00    -0.287 OA
ATOM     10  C   UNL d   1       2.342   0.049  -0.002  0.00  0.00     0.068 A 
ATOM     11  C   UNL d   1       1.867   1.358   0.034  0.00  0.00     0.037 A 
ENDROOT
BRANCH   1  12
ATOM     12  C   UNL d   1      -2.895  -2.905   0.004  0.00  0.00    -0.002 A 
ATOM     13  C   UNL d   1      -3.351  -3.488  -1.185  0.00  0.00     0.017 A 
ATOM     14  C   UNL d   1      -4.085  -4.680  -1.154  0.00  0.00     0.037 A 
ATOM     15  C   UNL d   1      -4.370  -5.295   0.066  0.00  0.00     0.068 A 
ATOM     16  C   UNL d   1      -3.909  -4.718   1.251  0.00  0.00     0.037 A 
ATOM     17  C   UNL d   1      -3.184  -3.525   1.224  0.00  0.00     0.017 A 
BRANCH  15  18
ATOM     18  O   UNL d   1      -5.040  -6.476   0.220  0.00  0.00    -0.356 OA
ATOM     19  C   UNL d   1      -5.995  -6.782  -0.790  0.00  0.00     0.210 C 
ENDBRANCH  15  18
ENDBRANCH   1  12
BRANCH  10  20
ATOM     20  O   UNL d   1       3.694  -0.131  -0.016  0.00  0.00    -0.361 OA
ATOM     21  H   UNL d   1       3.887  -1.082  -0.074  0.00  0.00     0.217 HD
ENDBRANCH  10  20
TORSDOF 3
