REMARK  2 active torsions:
REMARK  status: ('A' for Active; 'I' for Inactive)
REMARK    1  A    between atoms: C_13  and  C_5 
REMARK    2  A    between atoms: O_16  and  N_14 
ROOT
ATOM      1  C   UNL d   1       5.370  -0.596   0.010  0.00  0.00     0.094 A 
ATOM      2  C   UNL d   1       5.851  -1.948   0.003  0.00  0.00     0.076 A 
ATOM      3  N   UNL d   1       4.084  -0.312  -0.029  0.00  0.00    -0.347 N 
ATOM      4  HN  UNL d   1       3.338  -1.007  -0.062  1.00  0.00     0.167 HD
ATOM      5  C   UNL d   1       3.880   1.067  -0.019  0.00  0.00     0.064 A 
ATOM      6  N   UNL d   1       7.114  -4.044   0.355  0.00  0.00    -0.061 NA
ATOM      7  C   UNL d   1       5.303  -3.085  -0.581  0.00  0.00     0.040 A 
ATOM      8  S   UNL d   1       6.412   0.772   0.035  0.00  0.00    -0.080 SA
ATOM      9  N   UNL d   1       6.033  -4.254  -0.374  0.00  0.00    -0.296 N 
ATOM     10  HN  UNL d   1       5.763  -5.166  -0.742  1.00  0.00     0.183 HD
ATOM     11  S   UNL d   1       7.286  -2.450   0.808  0.00  0.00     0.004 SA
ATOM     12  C   UNL d   1       5.050   1.805   0.001  0.00  0.00     0.083 A 
ATOM     13  C   UNL d   1       4.074  -3.204  -1.406  0.00  0.00     0.071 C 
ENDROOT
BRANCH   5  14
ATOM     14  C   UNL d   1       2.533   1.645  -0.030  0.00  0.00     0.055 C 
ATOM     15  N   UNL d   1       2.452   2.947  -0.023  0.00  0.00    -0.272 N 
ATOM     16  HN  UNL d   1       3.259   3.571  -0.014  1.00  0.00     0.194 HD
ATOM     17  C   UNL d   1       1.325   0.738  -0.042  0.00  0.00     0.072 C 
BRANCH  15  18
ATOM     18  O   UNL d   1       1.121   3.382  -0.027  0.00  0.00    -0.290 OA
ATOM     19  H   UNL d   1       1.216   4.354  -0.006  0.00  0.00     0.244 HD
ENDBRANCH  15  18
ENDBRANCH   5  14
TORSDOF 2
