REMARK  7 active torsions:
REMARK  status: ('A' for Active; 'I' for Inactive)
REMARK    1  A    between atoms: C_2  and  C_1 
REMARK    2  A    between atoms: O_14  and  C_2 
REMARK    3  A    between atoms: C_3  and  C_5 
REMARK    4  A    between atoms: C_4  and  C_6 
REMARK    5  A    between atoms: C_8  and  C_9 
REMARK    6  A    between atoms: N_26  and  C_9 
REMARK    7  A    between atoms: N_10  and  O_14 
ROOT
ATOM      1  C   UNL d   1       3.240   3.940  -0.032  0.00  0.00     0.109 C 
ATOM      2  N   UNL d   1       2.295   3.102   0.268  0.00  0.00    -0.246 N 
ATOM      3  HN  UNL d   1       1.350   3.380   0.534  1.00  0.00     0.196 HD
ENDROOT
BRANCH   1   4
ATOM      4  C   UNL d   1       2.873   5.390  -0.053  0.00  0.00     0.005 A 
ATOM      5  C   UNL d   1       1.850   5.860   0.780  0.00  0.00     0.031 A 
ATOM      6  C   UNL d   1       1.436   7.200   0.720  0.00  0.00     0.049 A 
ATOM      7  C   UNL d   1       2.060   8.061  -0.198  0.00  0.00     0.032 A 
ATOM      8  C   UNL d   1       3.078   7.600  -1.052  0.00  0.00     0.049 A 
ATOM      9  C   UNL d   1       3.489   6.259  -0.960  0.00  0.00     0.031 A 
BRANCH   6  10
ATOM     10  C   UNL d   1       0.318   7.682   1.615  0.00  0.00     0.417 C 
ATOM     11  F   UNL d   1       0.000   8.992   1.419  0.00  0.00    -0.166 F 
ATOM     12  F   UNL d   1      -0.837   6.987   1.431  0.00  0.00    -0.166 F 
ATOM     13  F   UNL d   1       0.625   7.568   2.936  0.00  0.00    -0.166 F 
ENDBRANCH   6  10
BRANCH   8  14
ATOM     14  C   UNL d   1       3.703   8.509  -2.084  0.00  0.00     0.417 C 
ATOM     15  F   UNL d   1       3.158   9.756  -2.111  0.00  0.00    -0.166 F 
ATOM     16  F   UNL d   1       5.037   8.686  -1.878  0.00  0.00    -0.166 F 
ATOM     17  F   UNL d   1       3.579   8.019  -3.348  0.00  0.00    -0.166 F 
ENDBRANCH   8  14
ENDBRANCH   1   4
BRANCH   1  18
ATOM     18  N   UNL d   1       4.529   3.575  -0.340  0.00  0.00    -0.286 NA
ATOM     19  H   UNL d   1       5.255   4.212  -0.030  0.00  0.00     0.125 HD
ATOM     20  H   UNL d   1       4.736   2.612  -0.093  0.00  0.00     0.125 HD
ENDBRANCH   1  18
BRANCH   2  21
ATOM     21  O   UNL d   1       2.726   1.761   0.184  0.00  0.00    -0.193 OA
BRANCH  21  22
ATOM     22  C   UNL d   1       1.659   0.911   0.378  0.00  0.00     0.323 C 
ATOM     23  O   UNL d   1       0.520   1.273   0.666  0.00  0.00    -0.257 OA
BRANCH  22  24
ATOM     24  C   UNL d   1       2.069  -0.474   0.199  0.00  0.00     0.103 A 
ATOM     25  C   UNL d   1       3.276  -1.050  -0.160  0.00  0.00     0.057 A 
ATOM     26  C   UNL d   1       3.208  -2.477  -0.215  0.00  0.00     0.032 A 
ATOM     27 CL   UNL d   1       4.752  -0.254  -0.525  0.00  0.00    -0.083 Cl
ATOM     28  C   UNL d   1       1.958  -2.955   0.100  0.00  0.00     0.052 A 
ATOM     29  S   UNL d   1       0.872  -1.693   0.459  0.00  0.00    -0.094 SA
ENDBRANCH  22  24
ENDBRANCH  21  22
ENDBRANCH   2  21
TORSDOF 7
