REMARK  7 active torsions:
REMARK  status: ('A' for Active; 'I' for Inactive)
REMARK    1  A    between atoms: C_5  and  S_1 
REMARK    2  A    between atoms: C_9  and  S_1 
REMARK    3  A    between atoms: C_2  and  C_5 
REMARK    4  A    between atoms: C_8  and  C_6 
REMARK    5  A    between atoms: C_11  and  C_8 
REMARK    6  A    between atoms: O_20  and  C_11 
REMARK    7  A    between atoms: C_22  and  O_20 
ROOT
ATOM      1  C   UNL d   1       0.871   2.076   1.708  0.00  0.00     0.065 A 
ATOM      2  N   UNL d   1       1.293   1.276   2.667  0.00  0.00    -0.356 N 
ATOM      3  HN  UNL d   1       1.359   0.261   2.592  1.00  0.00     0.166 HD
ATOM      4  C   UNL d   1       1.636   2.012   3.793  0.00  0.00     0.025 A 
ATOM      5  S   UNL d   1       0.758   3.736   2.139  0.00  0.00    -0.086 SA
ATOM      6  C   UNL d   1       1.395   3.369   3.685  0.00  0.00     0.077 A 
ENDROOT
BRANCH   1   7
ATOM      7  C   UNL d   1       0.450   1.609   0.365  0.00  0.00     0.210 C 
BRANCH   7   8
ATOM      8  S   UNL d   1       1.851   1.591  -0.723  0.00  0.00     0.181 S 
ATOM      9  O   UNL d   1       2.492   2.892  -0.727  0.00  0.00    -0.222 OA
ATOM     10  O   UNL d   1       1.402   1.019  -1.988  0.00  0.00    -0.222 OA
BRANCH   8  11
ATOM     11  C   UNL d   1       3.002   0.421  -0.030  0.00  0.00     0.059 A 
ATOM     12  C   UNL d   1       2.929  -0.923  -0.409  0.00  0.00     0.025 A 
ATOM     13  C   UNL d   1       3.850  -1.835   0.109  0.00  0.00     0.025 A 
ATOM     14  C   UNL d   1       4.840  -1.398   0.990  0.00  0.00     0.034 A 
ATOM     15  C   UNL d   1       4.927  -0.051   1.347  0.00  0.00     0.025 A 
ATOM     16 CL   UNL d   1       5.966  -2.526   1.637  0.00  0.00    -0.084 Cl
ATOM     17  C   UNL d   1       4.010   0.866   0.831  0.00  0.00     0.025 A 
ENDBRANCH   8  11
ENDBRANCH   7   8
ENDBRANCH   1   7
BRANCH   4  18
ATOM     18  C   UNL d   1       2.191   1.293   4.978  0.00  0.00     0.168 C 
BRANCH  18  19
ATOM     19  C   UNL d   1       3.627   1.664   5.259  0.00  0.00     0.264 C 
ATOM     20  O   UNL d   1       4.297   2.490   4.655  0.00  0.00    -0.265 OA
BRANCH  19  21
ATOM     21  O   UNL d   1       4.094   0.877   6.276  0.00  0.00    -0.322 OA
BRANCH  21  22
ATOM     22  C   UNL d   1       5.523   0.813   6.391  0.00  0.00     0.174 C 
ATOM     23  C   UNL d   1       6.013  -0.297   5.478  0.00  0.00     0.034 C 
ENDBRANCH  21  22
ENDBRANCH  19  21
ENDBRANCH  18  19
ENDBRANCH   4  18
TORSDOF 7
