REMARK  9 active torsions:
REMARK  status: ('A' for Active; 'I' for Inactive)
REMARK       I    between atoms: N_3  and  C_1 
REMARK       I    between atoms: N_5  and  C_1 
REMARK    1  A    between atoms: C_2  and  N_6 
REMARK    2  A    between atoms: N_8  and  C_2 
REMARK    3  A    between atoms: C_4  and  N_3 
REMARK    4  A    between atoms: N_6  and  N_5 
REMARK    5  A    between atoms: C_12  and  N_8 
REMARK    6  A    between atoms: O_13  and  C_10 
REMARK    7  A    between atoms: C_11  and  C_12 
REMARK    8  A    between atoms: O_14  and  C_11 
REMARK    9  A    between atoms: O_15  and  C_11 
ROOT
ATOM      1  C   UNL d   1       0.826  -0.535  -0.947  0.00  0.00     0.339 C 
ATOM      2  N   UNL d   1       2.190  -0.538  -0.762  0.00  0.00    -0.305 N 
ATOM      3  N   UNL d   1       0.310   0.754  -0.950  0.00  0.00    -0.249 N 
ATOM      4  O   UNL d   1       0.090  -1.516  -1.028  0.00  0.00    -0.245 OA
ATOM      5  H   UNL d   1       2.555   0.317  -0.384  0.00  0.00     0.171 HD
ATOM      6  H   UNL d   1       0.856   1.466  -1.430  0.00  0.00     0.192 HD
ENDROOT
BRANCH   3   7
ATOM      7  N   UNL d   1      -1.085   0.838  -1.193  0.00  0.00    -0.272 N 
ATOM      8  H   UNL d   1      -1.564  -0.040  -0.987  0.00  0.00     0.189 HD
BRANCH   7   9
ATOM      9  C   UNL d   1      -1.547   1.597  -2.257  0.00  0.00     0.186 C 
ATOM     10  S   UNL d   1      -0.679   2.862  -2.929  0.00  0.00    -0.040 SA
BRANCH   9  11
ATOM     11  N   UNL d   1      -2.811   1.201  -2.640  0.00  0.00    -0.361 N 
ATOM     12  H   UNL d   1      -3.148   0.327  -2.256  0.00  0.00     0.162 HD
BRANCH  11  13
ATOM     13  C   UNL d   1      -3.530   1.627  -3.844  0.00  0.00     0.182 C 
BRANCH  13  14
ATOM     14  C   UNL d   1      -3.192   0.753  -5.076  0.00  0.00     0.275 C 
BRANCH  14  15
ATOM     15  O   UNL d   1      -3.665  -0.581  -4.837  0.00  0.00    -0.364 OA
ATOM     16  C   UNL d   1      -3.155  -1.501  -5.794  0.00  0.00     0.204 C 
ENDBRANCH  14  15
BRANCH  14  17
ATOM     17  O   UNL d   1      -3.716   1.301  -6.289  0.00  0.00    -0.364 OA
ATOM     18  C   UNL d   1      -5.135   1.352  -6.341  0.00  0.00     0.204 C 
ENDBRANCH  14  17
ENDBRANCH  13  14
ENDBRANCH  11  13
ENDBRANCH   9  11
ENDBRANCH   7   9
ENDBRANCH   3   7
BRANCH   2  19
ATOM     19  C   UNL d   1       2.972  -1.708  -0.649  0.00  0.00     0.069 A 
ATOM     20  C   UNL d   1       4.089  -1.805   0.199  0.00  0.00     0.095 A 
ATOM     21  C   UNL d   1       4.819  -3.008   0.221  0.00  0.00     0.039 A 
ATOM     22  C   UNL d   1       4.477  -4.091  -0.588  0.00  0.00     0.003 A 
ATOM     23  C   UNL d   1       3.396  -3.984  -1.448  0.00  0.00     0.002 A 
ATOM     24  C   UNL d   1       2.649  -2.806  -1.472  0.00  0.00     0.032 A 
BRANCH  20  25
ATOM     25  O   UNL d   1       4.627  -0.889   1.062  0.00  0.00    -0.354 OA
ATOM     26  C   UNL d   1       3.876   0.215   1.529  0.00  0.00     0.210 C 
ENDBRANCH  20  25
ENDBRANCH   2  19
TORSDOF 9
