REMARK  5 active torsions:
REMARK  status: ('A' for Active; 'I' for Inactive)
REMARK    1  A    between atoms: N_8  and  C_1 
REMARK    2  A    between atoms: O_14  and  C_6 
REMARK    3  A    between atoms: O_13  and  C_7 
REMARK    4  A    between atoms: C_10  and  N_8 
REMARK    5  A    between atoms: O_15  and  N_11 
ROOT
ATOM      1  C   UNL d   1       0.034   1.328   0.004  0.00  0.00     0.687 A 
ATOM      2  N   UNL d   1       1.164   0.618   0.019  0.00  0.00    -0.170 N 
ATOM      3  HN  UNL d   1       2.075   1.077   0.033  1.00  0.00     0.186 HD
ATOM      4  N   UNL d   1      -1.182   0.774  -0.014  0.00  0.00    -0.170 N 
ATOM      5  HN  UNL d   1      -2.029   1.343  -0.025  1.00  0.00     0.186 HD
ATOM      6  C   UNL d   1       1.063  -0.719   0.014  0.00  0.00     0.161 A 
ATOM      7  C   UNL d   1      -1.235  -0.571  -0.017  0.00  0.00     0.161 A 
ATOM      8  C   UNL d   1      -0.131  -1.384  -0.003  0.00  0.00     0.113 A 
ENDROOT
BRANCH   1   9
ATOM      9  N   UNL d   1       0.095   2.705   0.010  0.00  0.00    -0.186 N 
ATOM     10  H   UNL d   1      -0.796   3.171  -0.002  0.00  0.00     0.185 HD
BRANCH   9  11
ATOM     11  C   UNL d   1       1.238   3.436   0.031  0.00  0.00     0.221 C 
ATOM     12  N   UNL d   1       1.286   4.730   0.035  0.00  0.00    -0.264 N 
ATOM     13  HN  UNL d   1       0.482   5.358   0.024  1.00  0.00     0.194 HD
BRANCH  12  14
ATOM     14  O   UNL d   1       2.632   5.121   0.059  0.00  0.00    -0.289 OA
ATOM     15  H   UNL d   1       2.567   6.093   0.059  0.00  0.00     0.244 HD
ENDBRANCH  12  14
ENDBRANCH   9  11
ENDBRANCH   1   9
BRANCH   6  16
ATOM     16  O   UNL d   1       2.216  -1.476   0.029  0.00  0.00    -0.340 OA
ATOM     17  C   UNL d   1       3.398  -0.672   0.045  0.00  0.00     0.211 C 
ENDBRANCH   6  16
BRANCH   7  18
ATOM     18  O   UNL d   1      -2.464  -1.203  -0.033  0.00  0.00    -0.340 OA
ATOM     19  C   UNL d   1      -3.558  -0.289  -0.051  0.00  0.00     0.211 C 
ENDBRANCH   7  18
TORSDOF 5
