REMARK  5 active torsions:
REMARK  status: ('A' for Active; 'I' for Inactive)
REMARK       I    between atoms: N_3  and  C_1 
REMARK       I    between atoms: N_8  and  C_1 
REMARK    1  A    between atoms: C_2  and  C_6 
REMARK    2  A    between atoms: C_11  and  N_3 
REMARK    3  A    between atoms: C_16  and  N_8 
REMARK    4  A    between atoms: C_17  and  C_16 
REMARK    5  A    between atoms: C_18  and  C_17 
ROOT
ATOM      1  C   UNL d   1       1.872   2.157  -4.695  0.00  0.00    -0.035 A 
ATOM      2  C   UNL d   1       2.166   0.873  -4.209  0.00  0.00     0.011 A 
ATOM      3  C   UNL d   1       0.931   2.922  -3.991  0.00  0.00     0.011 A 
ATOM      4  C   UNL d   1       0.664   1.183  -2.313  0.00  0.00     0.036 A 
ATOM      5  C   UNL d   1       0.335   2.440  -2.820  0.00  0.00     0.030 A 
ATOM      6  C   UNL d   1       1.565   0.391  -3.037  0.00  0.00     0.030 A 
ENDROOT
BRANCH   4   7
ATOM      7  N   UNL d   1       0.177   0.679  -1.085  0.00  0.00    -0.309 N 
ATOM      8  C   UNL d   1      -0.548   1.373  -0.138  0.00  0.00     0.320 C 
ATOM      9  O   UNL d   1      -0.986   2.512  -0.242  0.00  0.00    -0.247 OA
ATOM     10  N   UNL d   1      -0.678   0.654   1.033  0.00  0.00    -0.343 N 
ATOM     11  H   UNL d   1      -0.423  -0.320   1.058  0.00  0.00     0.164 HD
ATOM     12  H   UNL d   1       0.513  -0.231  -0.813  0.00  0.00     0.170 HD
BRANCH  10  13
ATOM     13  C   UNL d   1      -1.161   1.280   2.248  0.00  0.00     0.124 C 
BRANCH  13  14
ATOM     14  C   UNL d   1      -2.665   1.116   2.461  0.00  0.00     0.019 C 
BRANCH  14  15
ATOM     15  C   UNL d   1      -3.103   1.856   3.729  0.00  0.00    -0.003 C 
ATOM     16  C   UNL d   1      -4.583   1.679   4.026  0.00  0.00     0.005 C 
ENDBRANCH  14  15
ENDBRANCH  13  14
ENDBRANCH  10  13
ENDBRANCH   4   7
BRANCH   1  17
ATOM     17  C   UNL d   1       2.565   2.756  -5.902  0.00  0.00     0.141 C 
ATOM     18  S   UNL d   1       2.372   1.757  -7.413  0.00  0.00    -0.148 SA
ATOM     19  C   UNL d   1       4.044   2.034  -8.050  0.00  0.00     0.085 C 
ATOM     20  C   UNL d   1       4.990   1.977  -6.869  0.00  0.00     0.085 C 
ATOM     21  S   UNL d   1       4.338   3.068  -5.581  0.00  0.00    -0.148 SA
ENDBRANCH   1  17
TORSDOF 5
