REMARK  3 active torsions:
REMARK  status: ('A' for Active; 'I' for Inactive)
REMARK    1  A    between atoms: C_6  and  N_1 
REMARK    2  A    between atoms: C_11  and  C_6 
REMARK    3  A    between atoms: C_7  and  C_11 
ROOT
ATOM      1  N   UNL d   1       1.642  -0.764  -0.046  0.00  0.00    -0.287 N 
ATOM      2  C   UNL d   1       0.334  -1.152  -0.012  0.00  0.00     0.235 C 
ATOM      3  C   UNL d   1       1.778   0.596   0.009  0.00  0.00     0.227 C 
ATOM      4  C   UNL d   1      -0.552   0.072  -0.035  0.00  0.00     0.050 C 
ATOM      5  C   UNL d   1       0.424   1.243  -0.101  0.00  0.00     0.122 C 
ATOM      6  O   UNL d   1      -0.088  -2.296   0.059  0.00  0.00    -0.272 OA
ATOM      7  O   UNL d   1       2.820   1.222   0.135  0.00  0.00    -0.273 OA
ATOM      8  C   UNL d   1      -1.548   0.033  -1.195  0.00  0.00     0.020 C 
ATOM      9  C   UNL d   1      -1.457   0.098   1.201  0.00  0.00     0.020 C 
ATOM     10  C   UNL d   1      -2.684   0.902   0.790  0.00  0.00     0.001 C 
ATOM     11  C   UNL d   1      -2.730   0.879  -0.735  0.00  0.00     0.001 C 
ENDROOT
BRANCH   1  12
ATOM     12  C   UNL d   1       2.781  -1.662   0.135  0.00  0.00     0.140 C 
BRANCH  12  13
ATOM     13  C   UNL d   1       2.655  -3.016  -0.571  0.00  0.00     0.066 C 
BRANCH  13  14
ATOM     14  C   UNL d   1       3.904  -3.838  -0.444  0.00  0.00    -0.016 A 
ATOM     15  S   UNL d   1       5.141  -3.723  -1.623  0.00  0.00    -0.106 SA
ATOM     16  C   UNL d   1       6.086  -4.911  -0.836  0.00  0.00     0.050 A 
ATOM     17  C   UNL d   1       5.479  -5.384   0.305  0.00  0.00     0.008 A 
ATOM     18  C   UNL d   1       4.218  -4.761   0.535  0.00  0.00     0.015 A 
ENDBRANCH  13  14
ENDBRANCH  12  13
ENDBRANCH   1  12
TORSDOF 3
