REMARK  5 active torsions:
REMARK  status: ('A' for Active; 'I' for Inactive)
REMARK    1  A    between atoms: N_3  and  C_1 
REMARK    2  A    between atoms: C_4  and  C_1 
REMARK    3  A    between atoms: N_2  and  C_11 
REMARK    4  A    between atoms: C_13  and  C_4 
REMARK    5  A    between atoms: C_16  and  C_9 
ROOT
ATOM      1  C   UNL d   1       1.038  -0.057   0.031  0.00  0.00     0.104 C 
ATOM      2  C   UNL d   1       2.382  -0.162  -0.070  0.00  0.00     0.047 C 
ENDROOT
BRANCH   1   3
ATOM      3  N   UNL d   1       0.114  -0.253  -1.022  0.00  0.00    -0.247 N 
ATOM      4  N   UNL d   1      -1.116   0.331  -1.138  0.00  0.00    -0.288 N 
ATOM      5  C   UNL d   1      -1.577  -0.137  -2.296  0.00  0.00     0.199 A 
ATOM      6  HN  UNL d   1      -1.573   0.974  -0.491  1.00  0.00     0.188 HD
ATOM      7  N   UNL d   1      -0.760  -0.997  -2.945  0.00  0.00    -0.346 N 
ATOM      8  C   UNL d   1       0.262  -1.083  -2.130  0.00  0.00     0.208 A 
ATOM      9  HN  UNL d   1      -0.903  -1.461  -3.842  1.00  0.00     0.167 HD
ENDBRANCH   1   3
BRANCH   1  10
ATOM     10  C   UNL d   1       0.451   0.136   1.413  0.00  0.00     0.185 C 
ATOM     11  O   UNL d   1      -0.469  -0.628   1.730  0.00  0.00    -0.290 OA
BRANCH  10  12
ATOM     12  C   UNL d   1       1.020   1.136   2.457  0.00  0.00     0.016 C 
ATOM     13  C   UNL d   1       1.522   2.447   1.843  0.00  0.00     0.023 C 
ATOM     14  C   UNL d   1      -0.122   1.498   3.439  0.00  0.00     0.023 C 
ATOM     15  C   UNL d   1       2.119   0.459   3.293  0.00  0.00     0.023 C 
ENDBRANCH  10  12
ENDBRANCH   1  10
BRANCH   2  16
ATOM     16  C   UNL d   1       3.162  -0.348  -1.300  0.00  0.00    -0.032 A 
ATOM     17  C   UNL d   1       3.381   0.716  -2.183  0.00  0.00     0.047 A 
ATOM     18  C   UNL d   1       4.082   0.487  -3.377  0.00  0.00     0.103 A 
ATOM     19  C   UNL d   1       4.551  -0.794  -3.696  0.00  0.00     0.036 A 
ATOM     20  C   UNL d   1       4.342  -1.843  -2.803  0.00  0.00     0.003 A 
ATOM     21  C   UNL d   1       3.670  -1.618  -1.600  0.00  0.00     0.011 A 
BRANCH  18  22
ATOM     22  N   UNL d   1       4.332   1.601  -4.300  0.00  0.00    -0.116 N 
ATOM     23  O   UNL d   1       3.975   2.733  -3.945  0.00  0.00    -0.532 OA
ATOM     24  O   UNL d   1       4.895   1.345  -5.374  0.00  0.00    -0.532 OA
ENDBRANCH  18  22
ENDBRANCH   2  16
TORSDOF 5
