REMARK  7 active torsions:
REMARK  status: ('A' for Active; 'I' for Inactive)
REMARK    1  A    between atoms: N_4  and  C_1 
REMARK    2  A    between atoms: C_2  and  C_3 
REMARK       I    between atoms: N_6  and  C_2 
REMARK    3  A    between atoms: O_30  and  C_5 
REMARK       I    between atoms: C_7  and  N_6 
REMARK       I    between atoms: N_15  and  C_7 
REMARK    4  A    between atoms: C_8  and  C_10 
REMARK    5  A    between atoms: C_9  and  C_11 
REMARK    6  A    between atoms: C_14  and  N_15 
REMARK    7  A    between atoms: O_31  and  C_16 
ROOT
ATOM      1  C   UNL d   1      -1.964  -2.299   1.442  0.00  0.00     0.265 C 
ATOM      2  N   UNL d   1      -2.942  -1.320   1.543  0.00  0.00    -0.275 N 
ATOM      3  C   UNL d   1      -4.304  -1.417   1.331  0.00  0.00     0.327 C 
ATOM      4  N   UNL d   1      -4.803  -2.690   1.211  0.00  0.00    -0.309 N 
ATOM      5  O   UNL d   1      -2.274  -3.489   1.456  0.00  0.00    -0.267 OA
ATOM      6  O   UNL d   1      -4.948  -0.374   1.240  0.00  0.00    -0.247 OA
ATOM      7  H   UNL d   1      -2.644  -0.352   1.536  0.00  0.00     0.173 HD
ATOM      8  H   UNL d   1      -4.143  -3.429   1.452  0.00  0.00     0.170 HD
ENDROOT
BRANCH   4   9
ATOM      9  C   UNL d   1      -6.083  -3.077   0.757  0.00  0.00     0.037 A 
ATOM     10  C   UNL d   1      -6.991  -2.189   0.174  0.00  0.00     0.045 A 
ATOM     11  C   UNL d   1      -8.211  -2.639  -0.363  0.00  0.00     0.050 A 
ATOM     12  C   UNL d   1      -8.534  -4.000  -0.275  0.00  0.00     0.032 A 
ATOM     13  C   UNL d   1      -7.647  -4.910   0.321  0.00  0.00     0.050 A 
ATOM     14  C   UNL d   1      -6.424  -4.435   0.834  0.00  0.00     0.045 A 
BRANCH  11  15
ATOM     15  C   UNL d   1      -9.122  -1.660  -1.072  0.00  0.00     0.417 C 
ATOM     16  F   UNL d   1     -10.274  -2.232  -1.524  0.00  0.00    -0.166 F 
ATOM     17  F   UNL d   1      -9.507  -0.627  -0.276  0.00  0.00    -0.166 F 
ATOM     18  F   UNL d   1      -8.532  -1.102  -2.163  0.00  0.00    -0.166 F 
ENDBRANCH  11  15
BRANCH  13  19
ATOM     19  C   UNL d   1      -8.023  -6.373   0.408  0.00  0.00     0.417 C 
ATOM     20  F   UNL d   1      -8.639  -6.824  -0.719  0.00  0.00    -0.166 F 
ATOM     21  F   UNL d   1      -6.950  -7.191   0.598  0.00  0.00    -0.166 F 
ATOM     22  F   UNL d   1      -8.876  -6.627   1.437  0.00  0.00    -0.166 F 
ENDBRANCH  13  19
ENDBRANCH   4   9
BRANCH   1  23
ATOM     23  C   UNL d   1      -0.513  -1.845   1.360  0.00  0.00     0.101 A 
ATOM     24  C   UNL d   1      -0.119  -0.482   1.351  0.00  0.00     0.119 A 
ATOM     25  C   UNL d   1       1.235  -0.164   1.103  0.00  0.00     0.137 A 
ATOM     26  C   UNL d   1       2.223  -1.143   0.974  0.00  0.00     0.042 A 
ATOM     27  C   UNL d   1       1.852  -2.475   1.062  0.00  0.00     0.040 A 
ATOM     28  C   UNL d   1       0.507  -2.824   1.265  0.00  0.00     0.086 A 
BRANCH  24  29
ATOM     29  O   UNL d   1      -1.085   0.478   1.538  0.00  0.00    -0.352 OA
ATOM     30  C   UNL d   1      -0.797   1.435   2.568  0.00  0.00     0.210 C 
ENDBRANCH  24  29
BRANCH  25  31
ATOM     31  N   UNL d   1       1.671   1.206   0.907  0.00  0.00    -0.113 N 
ATOM     32  O   UNL d   1       1.139   1.846  -0.008  0.00  0.00    -0.532 OA
ATOM     33  O   UNL d   1       2.550   1.627   1.669  0.00  0.00    -0.532 OA
ENDBRANCH  25  31
BRANCH  28  34
ATOM     34  O   UNL d   1       0.234  -4.168   1.280  0.00  0.00    -0.355 OA
ATOM     35  C   UNL d   1       0.605  -4.751   2.532  0.00  0.00     0.210 C 
ENDBRANCH  28  34
ENDBRANCH   1  23
TORSDOF 7
