REMARK  8 active torsions:
REMARK  status: ('A' for Active; 'I' for Inactive)
REMARK    1  A    between atoms: S_14  and  C_3 
REMARK    2  A    between atoms: C_7  and  C_4 
REMARK    3  A    between atoms: O_19  and  C_7 
REMARK    4  A    between atoms: C_9  and  O_21 
REMARK    5  A    between atoms: C_12  and  C_9 
REMARK    6  A    between atoms: C_27  and  S_14 
REMARK    7  A    between atoms: O_21  and  C_28 
REMARK    8  A    between atoms: C_28  and  C_27 
ROOT
ATOM      1  C   UNL d   1       0.108  -0.743   0.056  0.00  0.00     0.041 A 
ATOM      2  C   UNL d   1       0.447   0.670   0.007  0.00  0.00    -0.018 A 
ATOM      3  C   UNL d   1       1.225  -1.554   0.036  0.00  0.00     0.056 A 
ATOM      4  C   UNL d   1       1.826   0.869  -0.036  0.00  0.00     0.088 A 
ATOM      5  S   UNL d   1       2.659  -0.632  -0.002  0.00  0.00    -0.076 SA
ATOM      6  C   UNL d   1      -1.284  -1.180   0.104  0.00  0.00     0.162 C 
ATOM      7  C   UNL d   1      -0.629   1.748  -0.022  0.00  0.00     0.050 C 
ATOM      8  C   UNL d   1      -2.043   1.205   0.348  0.00  0.00    -0.037 C 
ATOM      9  C   UNL d   1      -2.285  -0.142  -0.370  0.00  0.00     0.093 C 
ATOM     10  O   UNL d   1      -1.647  -2.270   0.533  0.00  0.00    -0.292 OA
ATOM     11  C   UNL d   1      -3.137   2.194  -0.096  0.00  0.00     0.015 C 
ATOM     12  C   UNL d   1      -2.168   1.031   1.878  0.00  0.00     0.015 C 
ENDROOT
BRANCH   3  13
ATOM     13  S   UNL d   1       1.304  -3.314  -0.058  0.00  0.00    -0.119 SA
BRANCH  13  14
ATOM     14  C   UNL d   1       1.433  -3.742   1.704  0.00  0.00     0.107 C 
BRANCH  14  15
ATOM     15  C   UNL d   1       1.605  -5.250   1.900  0.00  0.00     0.189 C 
BRANCH  15  16
ATOM     16  O   UNL d   1       1.550  -5.572   3.307  0.00  0.00    -0.317 OA
BRANCH  16  17
ATOM     17  C   UNL d   1       2.713  -5.420   3.992  0.00  0.00     0.293 C 
ATOM     18  O   UNL d   1       3.781  -5.087   3.514  0.00  0.00    -0.259 OA
BRANCH  17  19
ATOM     19  C   UNL d   1       2.503  -5.645   5.452  0.00  0.00     0.039 A 
ATOM     20  C   UNL d   1       3.585  -5.412   6.315  0.00  0.00     0.019 A 
ATOM     21  C   UNL d   1       3.428  -5.537   7.699  0.00  0.00     0.025 A 
ATOM     22  C   UNL d   1       2.189  -5.897   8.222  0.00  0.00     0.034 A 
ATOM     23  C   UNL d   1       1.111  -6.155   7.377  0.00  0.00     0.025 A 
ATOM     24 CL   UNL d   1       1.982  -6.011   9.928  0.00  0.00    -0.084 Cl
ATOM     25  C   UNL d   1       1.268  -6.033   5.989  0.00  0.00     0.019 A 
ENDBRANCH  17  19
ENDBRANCH  16  17
ENDBRANCH  15  16
ENDBRANCH  14  15
ENDBRANCH  13  14
ENDBRANCH   3  13
BRANCH   4  26
ATOM     26  C   UNL d   1       2.559   2.132  -0.113  0.00  0.00     0.300 C 
ATOM     27  O   UNL d   1       2.044   3.241  -0.167  0.00  0.00    -0.259 OA
BRANCH  26  28
ATOM     28  O   UNL d   1       3.909   1.921  -0.118  0.00  0.00    -0.322 OA
ATOM     29  C   UNL d   1       4.712   3.099  -0.183  0.00  0.00     0.213 C 
ENDBRANCH  26  28
ENDBRANCH   4  26
TORSDOF 8
