REMARK  5 active torsions:
REMARK  status: ('A' for Active; 'I' for Inactive)
REMARK    1  A    between atoms: N_10  and  C_1 
REMARK    2  A    between atoms: S_16  and  C_3 
REMARK       I    between atoms: C_13  and  N_10 
REMARK    3  A    between atoms: C_11  and  N_12 
REMARK       I    between atoms: N_12  and  C_14 
REMARK    4  A    between atoms: C_14  and  C_23 
REMARK    5  A    between atoms: C_23  and  S_16 
ROOT
ATOM      1  C   UNL d   1       2.109  -3.196   0.048  0.00  0.00     0.184 C 
ENDROOT
BRANCH   1   2
ATOM      2  C   UNL d   1       2.079  -4.705  -0.143  0.00  0.00     0.231 C 
ATOM      3  N   UNL d   1       3.299  -5.321   0.092  0.00  0.00    -0.324 N 
ATOM      4  H   UNL d   1       3.958  -4.845   0.702  0.00  0.00     0.169 HD
ATOM      5  O   UNL d   1       1.059  -5.298  -0.491  0.00  0.00    -0.272 OA
BRANCH   3   6
ATOM      6  C   UNL d   1       3.592  -6.676  -0.183  0.00  0.00     0.077 A 
ATOM      7  C   UNL d   1       4.598  -7.294   0.568  0.00  0.00     0.184 A 
ATOM      8  C   UNL d   1       4.928  -8.627   0.359  0.00  0.00     0.195 A 
ATOM      9  F   UNL d   1       5.227  -6.594   1.527  0.00  0.00    -0.200 F 
ATOM     10  F   UNL d   1       5.861  -9.217   1.120  0.00  0.00    -0.199 F 
ATOM     11  C   UNL d   1       4.284  -9.346  -0.639  0.00  0.00     0.158 A 
ATOM     12  C   UNL d   1       3.305  -8.743  -1.423  0.00  0.00     0.048 A 
ATOM     13  F   UNL d   1       4.606 -10.627  -0.861  0.00  0.00    -0.203 F 
ATOM     14  C   UNL d   1       2.950  -7.409  -1.188  0.00  0.00     0.036 A 
ENDBRANCH   3   6
ENDBRANCH   1   2
BRANCH   1  15
ATOM     15  S   UNL d   1       0.894  -2.680   1.288  0.00  0.00    -0.094 SA
BRANCH  15  16
ATOM     16  C   UNL d   1       0.756  -0.977   0.910  0.00  0.00     0.130 A 
ATOM     17  S   UNL d   1      -0.502   0.008   1.519  0.00  0.00    -0.026 SA
ATOM     18  C   UNL d   1       0.132   1.283   0.581  0.00  0.00     0.168 A 
ATOM     19  N   UNL d   1       1.243   0.980  -0.057  0.00  0.00    -0.278 N 
ATOM     20  N   UNL d   1       1.603  -0.344   0.127  0.00  0.00    -0.286 N 
ATOM     21  HN  UNL d   1       1.776   1.643  -0.620  1.00  0.00     0.189 HD
ATOM     22  HN  UNL d   1       2.426  -0.777  -0.294  1.00  0.00     0.188 HD
BRANCH  18  23
ATOM     23  N   UNL d   1      -0.453   2.526   0.489  0.00  0.00    -0.306 N 
ATOM     24  C   UNL d   1      -1.674   2.891   1.005  0.00  0.00     0.219 C 
ATOM     25  O   UNL d   1      -2.437   2.189   1.666  0.00  0.00    -0.274 OA
ATOM     26  C   UNL d   1      -2.067   4.307   0.664  0.00  0.00     0.117 C 
ATOM     27  H   UNL d   1       0.061   3.170  -0.096  0.00  0.00     0.171 HD
ENDBRANCH  18  23
ENDBRANCH  15  16
ENDBRANCH   1  15
TORSDOF 5
