REMARK  3 active torsions:
REMARK  status: ('A' for Active; 'I' for Inactive)
REMARK    1  A    between atoms: C_2  and  S_1 
REMARK    2  A    between atoms: C_5  and  S_1 
REMARK    3  A    between atoms: C_12  and  C_5 
ROOT
ATOM      1  N   UNL d   1      -1.598  -3.177   5.825  0.00  0.00    -0.191 NA
ATOM      2  C   UNL d   1      -0.811  -2.547   5.250  0.00  0.00     0.099 C 
ATOM      3  C   UNL d   1       0.700  -0.256   2.694  0.00  0.00    -0.043 A 
ATOM      4  C   UNL d   1       0.155  -1.767   4.533  0.00  0.00     0.045 A 
ATOM      5  C   UNL d   1      -0.235  -1.022   3.411  0.00  0.00     0.030 A 
ATOM      6  C   UNL d   1       2.421  -0.975   4.259  0.00  0.00     0.002 A 
ATOM      7  C   UNL d   1       2.029  -0.234   3.143  0.00  0.00     0.008 A 
ATOM      8  C   UNL d   1       1.488  -1.743   4.953  0.00  0.00     0.022 A 
ENDROOT
BRANCH   3   9
ATOM      9  C   UNL d   1       0.262   0.571   1.509  0.00  0.00     0.184 C 
BRANCH   9  10
ATOM     10  S   UNL d   1       0.980   0.009  -0.027  0.00  0.00     0.186 S 
ATOM     11  O   UNL d   1       0.326   0.696  -1.124  0.00  0.00    -0.222 OA
ATOM     12  O   UNL d   1       2.429  -0.006   0.073  0.00  0.00    -0.222 OA
BRANCH  10  13
ATOM     13  C   UNL d   1       0.515  -1.699  -0.195  0.00  0.00     0.100 A 
ATOM     14  S   UNL d   1      -1.161  -2.033  -0.292  0.00  0.00    -0.090 SA
ATOM     15  C   UNL d   1      -0.884  -3.716  -0.421  0.00  0.00     0.051 A 
ATOM     16  C   UNL d   1       0.459  -4.021  -0.406  0.00  0.00     0.009 A 
ATOM     17  C   UNL d   1       1.268  -2.855  -0.285  0.00  0.00     0.031 A 
ENDBRANCH  10  13
ENDBRANCH   9  10
ENDBRANCH   3   9
TORSDOF 3
