REMARK  3 active torsions:
REMARK  status: ('A' for Active; 'I' for Inactive)
REMARK    1  A    between atoms: C_5  and  C_3 
REMARK    2  A    between atoms: C_12  and  N_4 
REMARK    3  A    between atoms: N_18  and  C_11 
ROOT
ATOM      1  N   UNL d   1       1.232  -0.685  -0.031  0.00  0.00    -0.288 N 
ATOM      2  HN  UNL d   1       2.101  -1.219  -0.029  1.00  0.00     0.188 HD
ATOM      3  C   UNL d   1       1.248   0.619  -0.126  0.00  0.00     0.125 C 
ATOM      4  N   UNL d   1       0.015  -1.319   0.065  0.00  0.00    -0.267 N 
ATOM      5  C   UNL d   1      -0.029   1.441  -0.021  0.00  0.00     0.203 C 
ATOM      6  C   UNL d   1      -1.295   0.698  -0.035  0.00  0.00     0.076 C 
ATOM      7  C   UNL d   1      -1.179  -0.629   0.022  0.00  0.00     0.120 C 
ATOM      8  O   UNL d   1      -0.032   2.650   0.162  0.00  0.00    -0.286 OA
ENDROOT
BRANCH   3   9
ATOM      9  C   UNL d   1       2.538   1.325  -0.330  0.00  0.00     0.068 A 
ATOM     10  N   UNL d   1       2.488   2.499  -0.988  0.00  0.00    -0.331 N 
ATOM     11  C   UNL d   1       3.647   3.118  -1.190  0.00  0.00     0.155 A 
ATOM     12  HN  UNL d   1       1.606   2.893  -1.315  1.00  0.00     0.168 HD
ATOM     13  N   UNL d   1       4.835   2.659  -0.788  0.00  0.00    -0.343 N 
ATOM     14  C   UNL d   1       4.845   1.470  -0.159  0.00  0.00     0.093 A 
ATOM     15  HN  UNL d   1       5.694   3.185  -0.950  1.00  0.00     0.167 HD
ATOM     16  C   UNL d   1       3.711   0.745   0.100  0.00  0.00     0.049 A 
BRANCH  11  17
ATOM     17  N   UNL d   1       3.611   4.348  -1.812  0.00  0.00    -0.274 NA
ATOM     18  H   UNL d   1       2.704   4.771  -1.659  0.00  0.00     0.127 HD
ATOM     19  H   UNL d   1       4.420   4.889  -1.543  0.00  0.00     0.127 HD
ENDBRANCH  11  17
ENDBRANCH   3   9
BRANCH   4  20
ATOM     20  C   UNL d   1       0.091  -2.744   0.173  0.00  0.00     0.056 A 
ATOM     21  C   UNL d   1       1.197  -3.351   0.799  0.00  0.00     0.033 A 
ATOM     22  C   UNL d   1       1.284  -4.740   0.943  0.00  0.00     0.026 A 
ATOM     23  C   UNL d   1       0.270  -5.549   0.444  0.00  0.00     0.034 A 
ATOM     24  C   UNL d   1      -0.829  -4.982  -0.193  0.00  0.00     0.026 A 
ATOM     25 CL   UNL d   1       0.376  -7.258   0.608  0.00  0.00    -0.084 Cl
ATOM     26  C   UNL d   1      -0.917  -3.590  -0.326  0.00  0.00     0.033 A 
ENDBRANCH   4  20
TORSDOF 3
