REMARK  5 active torsions:
REMARK  status: ('A' for Active; 'I' for Inactive)
REMARK    1  A    between atoms: O_6  and  C_1 
REMARK    2  A    between atoms: C_2  and  C_5 
REMARK    3  A    between atoms: N_12  and  C_2 
REMARK    4  A    between atoms: O_14  and  N_3 
REMARK    5  A    between atoms: C_13  and  O_6 
ROOT
ATOM      1  C   UNL d   1       3.232   6.759   0.332  0.00  0.00     0.004 A 
ATOM      2  C   UNL d   1       3.550   8.089   0.620  0.00  0.00     0.017 A 
ATOM      3  C   UNL d   1       4.234   5.784   0.394  0.00  0.00     0.017 A 
ATOM      4  C   UNL d   1       5.842   7.452   1.109  0.00  0.00     0.078 A 
ATOM      5  C   UNL d   1       4.853   8.432   0.994  0.00  0.00     0.038 A 
ATOM      6  C   UNL d   1       5.540   6.132   0.775  0.00  0.00     0.038 A 
ENDROOT
BRANCH   1   7
ATOM      7  C   UNL d   1       1.823   6.392  -0.008  0.00  0.00     0.108 C 
ATOM      8  N   UNL d   1       0.867   7.210   0.333  0.00  0.00    -0.258 N 
ATOM      9  HN  UNL d   1       1.009   8.090   0.828  1.00  0.00     0.195 HD
BRANCH   8  10
ATOM     10  O   UNL d   1      -0.386   6.720  -0.071  0.00  0.00    -0.289 OA
ATOM     11  H   UNL d   1      -0.994   7.365   0.335  0.00  0.00     0.244 HD
ENDBRANCH   8  10
BRANCH   7  12
ATOM     12  N   UNL d   1       1.570   5.213  -0.671  0.00  0.00    -0.287 NA
ATOM     13  H   UNL d   1       2.195   5.018  -1.443  0.00  0.00     0.125 HD
ATOM     14  H   UNL d   1       0.595   5.205  -0.965  0.00  0.00     0.125 HD
ENDBRANCH   7  12
ENDBRANCH   1   7
BRANCH   4  15
ATOM     15  O   UNL d   1       7.046   7.916   1.551  0.00  0.00    -0.255 OA
BRANCH  15  16
ATOM     16  C   UNL d   1       7.926   6.983   2.155  0.00  0.00     0.530 C 
ATOM     17  F   UNL d   1       7.276   6.104   2.950  0.00  0.00    -0.144 F 
ATOM     18  F   UNL d   1       8.811   7.658   2.922  0.00  0.00    -0.144 F 
ATOM     19  F   UNL d   1       8.613   6.306   1.211  0.00  0.00    -0.144 F 
ENDBRANCH  15  16
ENDBRANCH   4  15
TORSDOF 5
