REMARK  3 active torsions:
REMARK  status: ('A' for Active; 'I' for Inactive)
REMARK    1  A    between atoms: C_3  and  S_1 
REMARK    2  A    between atoms: C_8  and  S_1 
REMARK    3  A    between atoms: N_2  and  C_4 
ROOT
ATOM      1  C   UNL d   1       0.581  -0.747  -1.512  0.00  0.00     0.064 A 
ATOM      2  C   UNL d   1      -0.304  -2.002  -3.834  0.00  0.00     0.102 A 
ATOM      3  C   UNL d   1       0.198   0.027  -2.614  0.00  0.00     0.026 A 
ATOM      4  C   UNL d   1       0.514  -2.145  -1.560  0.00  0.00     0.026 A 
ATOM      5  C   UNL d   1       0.076  -2.777  -2.727  0.00  0.00     0.037 A 
ATOM      6  C   UNL d   1      -0.243  -0.602  -3.781  0.00  0.00     0.037 A 
ENDROOT
BRANCH   1   7
ATOM      7  S   UNL d   1       1.053   0.056   0.008  0.00  0.00     0.206 S 
ATOM      8  O   UNL d   1       0.614  -0.806   1.091  0.00  0.00    -0.217 OA
ATOM      9  O   UNL d   1       0.585   1.428  -0.067  0.00  0.00    -0.217 OA
BRANCH   7  10
ATOM     10  C   UNL d   1       2.829   0.103   0.042  0.00  0.00     0.064 A 
ATOM     11  C   UNL d   1       3.502   1.185  -0.534  0.00  0.00     0.024 A 
ATOM     12  C   UNL d   1       4.893   1.248  -0.454  0.00  0.00     0.002 A 
ATOM     13  C   UNL d   1       5.603   0.241   0.202  0.00  0.00     0.000 A 
ATOM     14  C   UNL d   1       4.926  -0.832   0.784  0.00  0.00     0.002 A 
ATOM     15  C   UNL d   1       3.535  -0.902   0.711  0.00  0.00     0.024 A 
ENDBRANCH   7  10
ENDBRANCH   1   7
BRANCH   2  16
ATOM     16  N   UNL d   1      -0.786  -2.664  -5.055  0.00  0.00    -0.116 N 
ATOM     17  O   UNL d   1      -0.820  -3.902  -5.063  0.00  0.00    -0.532 OA
ATOM     18  O   UNL d   1      -1.127  -1.944  -6.003  0.00  0.00    -0.532 OA
ENDBRANCH   2  16
TORSDOF 3
