REMARK  2 active torsions:
REMARK  status: ('A' for Active; 'I' for Inactive)
REMARK    1  A    between atoms: C_3  and  C_2 
REMARK    2  A    between atoms: O_8  and  C_3 
ROOT
ATOM      1  O   UNL d   1       1.546  -1.090  -0.052  0.00  0.00    -0.334 OA
ATOM      2  C   UNL d   1       2.357   0.088  -0.315  0.00  0.00     0.230 C 
ATOM      3  C   UNL d   1       0.262  -0.609  -0.016  0.00  0.00     0.076 A 
ATOM      4  C   UNL d   1       1.552   1.346   0.025  0.00  0.00     0.085 C 
ATOM      5  C   UNL d   1       0.185   0.774  -0.014  0.00  0.00    -0.022 A 
ATOM      6  C   UNL d   1      -0.862  -1.407  -0.005  0.00  0.00     0.037 A 
ATOM      7  C   UNL d   1      -1.039   1.415  -0.003  0.00  0.00     0.010 A 
ATOM      8  C   UNL d   1      -2.194   0.627  -0.010  0.00  0.00     0.001 A 
ATOM      9  C   UNL d   1      -2.107  -0.775  -0.009  0.00  0.00     0.003 A 
ENDROOT
BRANCH   2  10
ATOM     10  C   UNL d   1       2.799   0.089  -1.779  0.00  0.00     0.170 C 
ATOM     11  O   UNL d   1       3.439   0.990  -2.304  0.00  0.00    -0.648 OA
BRANCH  10  12
ATOM     12  O   UNL d   1       2.433  -1.029  -2.454  0.00  0.00    -0.774 OA
ATOM     13  H   UNL d   1       1.912  -1.620  -1.866  0.00  0.00     0.167 HD
ENDBRANCH  10  12
ENDBRANCH   2  10
TORSDOF 2
