REMARK  6 active torsions:
REMARK  status: ('A' for Active; 'I' for Inactive)
REMARK    1  A    between atoms: C_6  and  C_1 
REMARK    2  A    between atoms: C_5  and  C_2 
REMARK    3  A    between atoms: C_3  and  C_11 
REMARK    4  A    between atoms: C_14  and  C_4 
REMARK    5  A    between atoms: O_20  and  C_6 
REMARK    6  A    between atoms: C_24  and  O_20 
ROOT
ATOM      1  C   UNL d   1      -0.802  -1.072  -0.327  0.00  0.00     0.120 C 
ATOM      2  C   UNL d   1       0.373  -0.857  -0.946  0.00  0.00     0.041 C 
ATOM      3  C   UNL d   1      -1.473  -2.326  -0.351  0.00  0.00     0.105 C 
ATOM      4  N   UNL d   1      -2.008  -3.355  -0.346  0.00  0.00    -0.191 NA
ENDROOT
BRANCH   1   5
ATOM      5  C   UNL d   1      -1.327   0.037   0.509  0.00  0.00     0.303 C 
ATOM      6  O   UNL d   1      -0.773   1.124   0.641  0.00  0.00    -0.258 OA
BRANCH   5   7
ATOM      7  O   UNL d   1      -2.450  -0.354   1.155  0.00  0.00    -0.317 OA
BRANCH   7   8
ATOM      8  C   UNL d   1      -2.845   0.457   2.271  0.00  0.00     0.174 C 
ATOM      9  C   UNL d   1      -2.077  -0.017   3.492  0.00  0.00     0.034 C 
ENDBRANCH   7   8
ENDBRANCH   5   7
ENDBRANCH   1   5
BRANCH   2  10
ATOM     10  C   UNL d   1       1.062  -1.832  -1.799  0.00  0.00    -0.028 A 
ATOM     11  C   UNL d   1       2.032  -2.764  -1.381  0.00  0.00    -0.039 A 
ATOM     12  C   UNL d   1       2.600  -3.579  -2.402  0.00  0.00     0.023 A 
ATOM     13  C   UNL d   1       2.270  -3.482  -3.766  0.00  0.00    -0.002 A 
ATOM     14  C   UNL d   1       1.287  -2.566  -4.128  0.00  0.00     0.015 A 
ATOM     15  C   UNL d   1       0.691  -1.758  -3.159  0.00  0.00     0.013 A 
BRANCH  11  16
ATOM     16  C   UNL d   1       2.564  -3.005   0.056  0.00  0.00    -0.023 C 
ATOM     17  C   UNL d   1       2.137  -2.009   1.157  0.00  0.00     0.019 C 
ATOM     18  C   UNL d   1       2.066  -4.400   0.525  0.00  0.00     0.019 C 
ATOM     19  C   UNL d   1       4.126  -2.980   0.051  0.00  0.00     0.019 C 
ENDBRANCH  11  16
BRANCH  13  20
ATOM     20  C   UNL d   1       3.021  -4.293  -4.742  0.00  0.00     0.084 A 
ATOM     21  N   UNL d   1       4.239  -4.755  -4.524  0.00  0.00    -0.359 N 
ATOM     22  C   UNL d   1       4.700  -5.439  -5.630  0.00  0.00     0.096 A 
ATOM     23  HN  UNL d   1       4.765  -4.626  -3.659  1.00  0.00     0.166 HD
ATOM     24  C   UNL d   1       3.818  -5.522  -6.683  0.00  0.00     0.069 A 
ATOM     25  S   UNL d   1       2.364  -4.713  -6.281  0.00  0.00    -0.082 SA
ENDBRANCH  13  20
ENDBRANCH   2  10
TORSDOF 6
