REMARK  4 active torsions:
REMARK  status: ('A' for Active; 'I' for Inactive)
REMARK    1  A    between atoms: S_4  and  C_1 
REMARK    2  A    between atoms: C_15  and  C_2 
REMARK    3  A    between atoms: N_3  and  C_6 
REMARK    4  A    between atoms: C_5  and  S_4 
ROOT
ATOM      1  C   UNL d   1       1.205  -1.608   0.096  0.00  0.00     0.068 C 
ATOM      2  C   UNL d   1      -0.145  -1.543   0.101  0.00  0.00     0.027 C 
ATOM      3  S   UNL d   1       2.113  -0.117   0.098  0.00  0.00    -0.043 SA
ATOM      4  C   UNL d   1      -0.725  -0.159   0.036  0.00  0.00     0.091 C 
ATOM      5  S   UNL d   1       0.503   1.065  -0.258  0.00  0.00    -0.039 SA
ATOM      6  S   UNL d   1      -2.341   0.282   0.185  0.00  0.00    -0.071 SA
ENDROOT
BRANCH   1   7
ATOM      7  S   UNL d   1       2.108  -3.095   0.242  0.00  0.00    -0.061 SA
BRANCH   7   8
ATOM      8  C   UNL d   1       2.513  -3.463  -1.464  0.00  0.00     0.108 A 
ATOM      9  C   UNL d   1       3.439  -4.431  -1.851  0.00  0.00     0.136 A 
ATOM     10  C   UNL d   1       3.701  -4.674  -3.205  0.00  0.00     0.040 A 
ATOM     11  C   UNL d   1       3.022  -3.928  -4.158  0.00  0.00     0.020 A 
ATOM     12  C   UNL d   1       2.121  -2.976  -3.715  0.00  0.00     0.089 A 
ATOM     13  N   UNL d   1       1.853  -2.737  -2.409  0.00  0.00    -0.358 N 
ATOM     14  HN  UNL d   1       1.171  -2.028  -2.138  1.00  0.00     0.166 HD
BRANCH   9  15
ATOM     15  N   UNL d   1       4.175  -5.215  -0.882  0.00  0.00    -0.113 N 
ATOM     16  O   UNL d   1       3.522  -5.910  -0.094  0.00  0.00    -0.532 OA
ATOM     17  O   UNL d   1       5.408  -5.189  -0.968  0.00  0.00    -0.532 OA
ENDBRANCH   9  15
ENDBRANCH   7   8
ENDBRANCH   1   7
BRANCH   2  18
ATOM     18  C   UNL d   1      -1.040  -2.713   0.170  0.00  0.00    -0.022 A 
ATOM     19  C   UNL d   1      -1.469  -3.205   1.410  0.00  0.00     0.012 A 
ATOM     20  C   UNL d   1      -2.410  -4.235   1.469  0.00  0.00     0.001 A 
ATOM     21  C   UNL d   1      -2.923  -4.781   0.293  0.00  0.00     0.000 A 
ATOM     22  C   UNL d   1      -2.485  -4.310  -0.945  0.00  0.00     0.001 A 
ATOM     23  C   UNL d   1      -1.544  -3.282  -1.008  0.00  0.00     0.012 A 
ENDBRANCH   2  18
TORSDOF 4
