REMARK  4 active torsions:
REMARK  status: ('A' for Active; 'I' for Inactive)
REMARK    1  A    between atoms: C_7  and  C_1 
REMARK    2  A    between atoms: S_9  and  C_3 
REMARK    3  A    between atoms: O_11  and  C_7 
REMARK    4  A    between atoms: C_12  and  O_11 
ROOT
ATOM      1  C   UNL d   1      -0.299   1.208   0.008  0.00  0.00     0.127 A 
ATOM      2  N   UNL d   1       0.987   0.696  -0.067  0.00  0.00    -0.326 N 
ATOM      3  C   UNL d   1       0.880  -0.671  -0.160  0.00  0.00     0.143 A 
ATOM      4  N   UNL d   1      -0.370  -1.059  -0.214  0.00  0.00    -0.344 N 
ATOM      5  HN  UNL d   1      -0.720  -2.012  -0.310  1.00  0.00     0.167 HD
ATOM      6  C   UNL d   1      -1.105   0.088  -0.115  0.00  0.00     0.126 A 
ATOM      7  C   UNL d   1       2.222   1.448  -0.042  0.00  0.00     0.159 C 
ENDROOT
BRANCH   1   8
ATOM      8  C   UNL d   1      -0.696   2.577   0.211  0.00  0.00     0.311 C 
ATOM      9  O   UNL d   1       0.061   3.528   0.364  0.00  0.00    -0.258 OA
BRANCH   8  10
ATOM     10  O   UNL d   1      -2.054   2.656   0.268  0.00  0.00    -0.317 OA
BRANCH  10  11
ATOM     11  C   UNL d   1      -2.591   3.913   0.700  0.00  0.00     0.175 C 
ATOM     12  C   UNL d   1      -2.655   3.927   2.216  0.00  0.00     0.034 C 
ENDBRANCH  10  11
ENDBRANCH   8  10
ENDBRANCH   1   8
BRANCH   3  13
ATOM     13  S   UNL d   1       2.216  -1.775  -0.189  0.00  0.00    -0.107 SA
ATOM     14  H   UNL d   1       3.235  -0.934   0.016  0.00  0.00     0.110 HD
ENDBRANCH   3  13
TORSDOF 4
