REMARK  4 active torsions:
REMARK  status: ('A' for Active; 'I' for Inactive)
REMARK    1  A    between atoms: C_2  and  C_1 
REMARK    2  A    between atoms: O_6  and  C_7 
REMARK    3  A    between atoms: C_10  and  O_6 
REMARK    4  A    between atoms: C_9  and  C_10 
ROOT
ATOM      1  C   UNL d   1       0.108  -1.256  -0.193  0.00  0.00     0.009 A 
ATOM      2  C   UNL d   1       0.549  -2.374   0.525  0.00  0.00     0.018 A 
ATOM      3  C   UNL d   1      -1.027  -1.358  -1.000  0.00  0.00     0.018 A 
ATOM      4  C   UNL d   1      -1.318  -3.668  -0.306  0.00  0.00     0.069 A 
ATOM      5  C   UNL d   1      -0.166  -3.576   0.473  0.00  0.00     0.037 A 
ATOM      6  C   UNL d   1      -1.731  -2.565  -1.057  0.00  0.00     0.037 A 
ENDROOT
BRANCH   4   7
ATOM      7  O   UNL d   1      -2.086  -4.788  -0.456  0.00  0.00    -0.347 OA
BRANCH   7   8
ATOM      8  C   UNL d   1      -2.111  -5.689   0.652  0.00  0.00     0.214 C 
BRANCH   8   9
ATOM      9  C   UNL d   1      -3.051  -6.823   0.314  0.00  0.00    -0.034 A 
ATOM     10  C   UNL d   1      -2.773  -7.660  -0.781  0.00  0.00     0.012 A 
ATOM     11  C   UNL d   1      -3.623  -8.719  -1.098  0.00  0.00     0.043 A 
ATOM     12  C   UNL d   1      -4.753  -8.944  -0.321  0.00  0.00     0.116 A 
ATOM     13  C   UNL d   1      -5.048  -8.129   0.765  0.00  0.00     0.043 A 
ATOM     14  F   UNL d   1      -5.569  -9.962  -0.624  0.00  0.00    -0.206 F 
ATOM     15  C   UNL d   1      -4.199  -7.068   1.085  0.00  0.00     0.012 A 
ENDBRANCH   8   9
ENDBRANCH   7   8
ENDBRANCH   4   7
BRANCH   1  16
ATOM     16  C   UNL d   1       0.883   0.010  -0.077  0.00  0.00     0.155 C 
ATOM     17  O   UNL d   1       2.079  -0.035   0.202  0.00  0.00    -0.293 OA
ATOM     18  C   UNL d   1       0.176   1.325  -0.282  0.00  0.00     0.096 C 
ENDBRANCH   1  16
TORSDOF 4
