REMARK  2 active torsions:
REMARK  status: ('A' for Active; 'I' for Inactive)
REMARK       I    between atoms: C_4  and  N_1 
REMARK       I    between atoms: N_12  and  C_4 
REMARK    1  A    between atoms: C_16  and  C_9 
REMARK    2  A    between atoms: C_17  and  N_12 
ROOT
ATOM      1  N   UNL d   1       0.943  -0.749  -0.098  0.00  0.00    -0.203 N 
ATOM      2  C   UNL d   1      -0.360  -1.206   0.013  0.00  0.00     0.098 C 
ATOM      3  C   UNL d   1      -0.725  -2.541   0.372  0.00  0.00     0.130 A 
ATOM      4  C   UNL d   1       2.130  -1.513  -0.155  0.00  0.00     0.342 C 
ATOM      5  C   UNL d   1      -0.029  -3.465   1.129  0.00  0.00     0.074 A 
ATOM      6  N   UNL d   1      -2.022  -4.367   0.589  0.00  0.00    -0.260 N 
ATOM      7  HN  UNL d   1      -2.814  -5.005   0.510  1.00  0.00     0.195 HD
ATOM      8  O   UNL d   1      -1.936  -3.093   0.067  0.00  0.00    -0.235 OA
ATOM      9  C   UNL d   1      -0.862  -4.602   1.221  0.00  0.00     0.068 A 
ATOM     10  N   UNL d   1       0.998   0.622  -0.072  0.00  0.00    -0.301 N 
ATOM     11  HN  UNL d   1       1.818   1.220   0.036  1.00  0.00     0.186 HD
ATOM     12  N   UNL d   1       3.130  -0.920   0.576  0.00  0.00    -0.337 N 
ATOM     13  C   UNL d   1      -1.166  -0.104  -0.172  0.00  0.00     0.053 C 
ATOM     14  C   UNL d   1      -0.280   0.985  -0.223  0.00  0.00     0.110 C 
ATOM     15  O   UNL d   1       2.138  -2.609  -0.695  0.00  0.00    -0.245 OA
ATOM     16  H   UNL d   1       2.949   0.025   0.912  0.00  0.00     0.164 HD
ENDROOT
BRANCH  12  17
ATOM     17  C   UNL d   1       4.407  -1.554   0.859  0.00  0.00     0.078 C 
ATOM     18  C   UNL d   1       4.265  -2.983   1.394  0.00  0.00     0.032 C 
ATOM     19  C   UNL d   1       5.321  -1.513  -0.359  0.00  0.00     0.032 C 
ENDBRANCH  12  17
BRANCH   9  20
ATOM     20  C   UNL d   1      -0.584  -5.860   1.902  0.00  0.00    -0.007 A 
ATOM     21  C   UNL d   1      -1.633  -6.621   2.437  0.00  0.00     0.014 A 
ATOM     22  C   UNL d   1      -1.379  -7.835   3.079  0.00  0.00     0.001 A 
ATOM     23  C   UNL d   1      -0.072  -8.304   3.193  0.00  0.00     0.000 A 
ATOM     24  C   UNL d   1       0.984  -7.555   2.675  0.00  0.00     0.001 A 
ATOM     25  C   UNL d   1       0.731  -6.335   2.037  0.00  0.00     0.014 A 
ENDBRANCH   9  20
TORSDOF 2
