REMARK  5 active torsions:
REMARK  status: ('A' for Active; 'I' for Inactive)
REMARK    1  A    between atoms: C_5  and  C_1 
REMARK    2  A    between atoms: N_7  and  C_2 
REMARK    3  A    between atoms: O_13  and  C_5 
REMARK       I    between atoms: C_8  and  N_7 
REMARK    4  A    between atoms: C_10  and  C_8 
REMARK    5  A    between atoms: N_9  and  C_10 
ROOT
ATOM      1  N   UNL d   1       1.423   2.306   0.475  0.00  0.00    -0.324 N 
ATOM      2  C   UNL d   1       2.515   2.505  -0.353  0.00  0.00     0.250 C 
ATOM      3  O   UNL d   1       2.875   3.583  -0.825  0.00  0.00    -0.271 OA
ATOM      4  H   UNL d   1       1.447   1.454   1.037  0.00  0.00     0.169 HD
ENDROOT
BRANCH   1   5
ATOM      5  C   UNL d   1       0.504   3.293   0.837  0.00  0.00     0.064 C 
ATOM      6  C   UNL d   1      -0.091   3.294   2.097  0.00  0.00     0.107 C 
ATOM      7  S   UNL d   1      -1.077   4.679   2.320  0.00  0.00    -0.093 SA
ATOM      8  C   UNL d   1      -0.805   5.218   0.734  0.00  0.00     0.059 C 
ATOM      9  C   UNL d   1       0.007   4.367   0.008  0.00  0.00    -0.027 C 
ATOM     10  C   UNL d   1       0.254   4.560  -1.455  0.00  0.00     0.051 C 
BRANCH   6  11
ATOM     11  C   UNL d   1       0.099   2.322   3.161  0.00  0.00     0.302 C 
ATOM     12  O   UNL d   1       0.769   1.297   3.054  0.00  0.00    -0.259 OA
BRANCH  11  13
ATOM     13  O   UNL d   1      -0.557   2.683   4.303  0.00  0.00    -0.322 OA
ATOM     14  C   UNL d   1      -0.393   1.782   5.397  0.00  0.00     0.213 C 
ENDBRANCH  11  13
ENDBRANCH   6  11
ENDBRANCH   1   5
BRANCH   2  15
ATOM     15  C   UNL d   1       3.354   1.238  -0.577  0.00  0.00     0.374 C 
BRANCH  15  16
ATOM     16  N   UNL d   1       2.493   0.065  -0.820  0.00  0.00     0.097 N 
ATOM     17  C   UNL d   1       1.748   0.196  -2.084  0.00  0.00     0.273 C 
ATOM     18  C   UNL d   1       0.697  -0.909  -2.149  0.00  0.00     0.030 C 
ATOM     19  C   UNL d   1       1.331  -2.292  -2.047  0.00  0.00     0.003 C 
ATOM     20  C   UNL d   1       2.340  -2.380  -0.902  0.00  0.00     0.030 C 
ATOM     21  C   UNL d   1       3.282  -1.173  -0.854  0.00  0.00     0.273 C 
ENDBRANCH  15  16
ENDBRANCH   2  15
TORSDOF 5
