REMARK  6 active torsions:
REMARK  status: ('A' for Active; 'I' for Inactive)
REMARK    1  A    between atoms: C_6  and  C_3 
REMARK    2  A    between atoms: O_16  and  C_9 
REMARK       I    between atoms: C_10  and  N_17 
REMARK       I    between atoms: N_18  and  C_10 
REMARK    3  A    between atoms: C_13  and  C_23 
REMARK       I    between atoms: N_19  and  C_13 
REMARK    4  A    between atoms: C_23  and  O_16 
REMARK    5  A    between atoms: N_17  and  N_19 
REMARK    6  A    between atoms: C_25  and  N_18 
ROOT
ATOM      1  C   UNL d   1       1.383  -2.813  -0.133  0.00  0.00    -0.006 C 
ATOM      2  C   UNL d   1       1.433  -5.653  -0.079  0.00  0.00     0.081 C 
ATOM      3  C   UNL d   1       0.848  -4.959  -1.161  0.00  0.00    -0.027 C 
ATOM      4  C   UNL d   1       2.059  -4.915   0.949  0.00  0.00    -0.027 C 
ATOM      5  C   UNL d   1       2.004  -3.501   0.910  0.00  0.00     0.023 C 
ATOM      6  C   UNL d   1       0.894  -3.551  -1.207  0.00  0.00     0.023 C 
ATOM      7  C   UNL d   1       0.087  -5.646  -2.265  0.00  0.00     0.051 C 
ATOM      8  C   UNL d   1       2.764  -5.510   2.136  0.00  0.00     0.051 C 
ENDROOT
BRANCH   2   9
ATOM      9  O   UNL d   1       1.228  -7.015  -0.085  0.00  0.00    -0.341 OA
BRANCH   9  10
ATOM     10  C   UNL d   1       2.329  -7.837   0.267  0.00  0.00     0.280 C 
BRANCH  10  11
ATOM     11  C   UNL d   1       2.148  -9.332  -0.009  0.00  0.00     0.260 C 
ATOM     12  N   UNL d   1       1.048  -9.695  -0.749  0.00  0.00    -0.264 N 
ATOM     13  H   UNL d   1       0.350  -9.037  -1.096  0.00  0.00     0.190 HD
ATOM     14  O   UNL d   1       2.945 -10.168   0.423  0.00  0.00    -0.269 OA
BRANCH  12  15
ATOM     15  N   UNL d   1       0.863 -11.063  -1.020  0.00  0.00    -0.249 N 
ATOM     16  C   UNL d   1      -0.310 -11.460  -1.642  0.00  0.00     0.339 C 
ATOM     17  N   UNL d   1      -0.378 -12.836  -1.757  0.00  0.00    -0.308 N 
ATOM     18  O   UNL d   1      -1.132 -10.639  -2.039  0.00  0.00    -0.245 OA
ATOM     19  H   UNL d   1       0.449 -13.339  -1.477  0.00  0.00     0.170 HD
ATOM     20  H   UNL d   1       1.322 -11.688  -0.363  0.00  0.00     0.192 HD
BRANCH  17  21
ATOM     21  C   UNL d   1      -1.438 -13.611  -2.271  0.00  0.00     0.036 A 
ATOM     22  C   UNL d   1      -2.639 -13.075  -2.739  0.00  0.00     0.029 A 
ATOM     23  C   UNL d   1      -3.665 -13.913  -3.189  0.00  0.00     0.002 A 
ATOM     24  C   UNL d   1      -3.499 -15.296  -3.176  0.00  0.00     0.000 A 
ATOM     25  C   UNL d   1      -2.300 -15.841  -2.730  0.00  0.00     0.002 A 
ATOM     26  C   UNL d   1      -1.273 -15.003  -2.283  0.00  0.00     0.029 A 
ENDBRANCH  17  21
ENDBRANCH  12  15
ENDBRANCH  10  11
ENDBRANCH   9  10
ENDBRANCH   2   9
BRANCH   1  27
ATOM     27  C   UNL d   1       1.275  -1.313  -0.057  0.00  0.00     0.070 C 
ATOM     28  N   UNL d   1       2.270  -0.694   0.512  0.00  0.00    -0.294 N 
ATOM     29  N   UNL d   1       2.273   0.673   0.586  0.00  0.00    -0.261 N 
ATOM     30  HN  UNL d   1       3.047  -1.228   0.901  1.00  0.00     0.187 HD
ATOM     31  C   UNL d   1       1.305   1.494   0.023  0.00  0.00     0.272 C 
ATOM     32  C   UNL d   1       3.413   1.289   1.236  0.00  0.00     0.181 C 
ATOM     33  C   UNL d   1       0.173   0.813  -0.626  0.00  0.00     0.046 A 
ATOM     34  O   UNL d   1       1.339   2.720   0.059  0.00  0.00    -0.266 OA
ATOM     35  C   UNL d   1      -0.840   1.578  -1.227  0.00  0.00     0.018 A 
ATOM     36  C   UNL d   1       0.097  -0.576  -0.601  0.00  0.00     0.009 A 
ATOM     37  C   UNL d   1      -1.946   0.951  -1.796  0.00  0.00     0.001 A 
ATOM     38  C   UNL d   1      -2.071  -0.430  -1.705  0.00  0.00     0.001 A 
ATOM     39  C   UNL d   1      -1.073  -1.185  -1.079  0.00  0.00     0.015 A 
ENDBRANCH   1  27
TORSDOF 6
