REMARK  6 active torsions:
REMARK  status: ('A' for Active; 'I' for Inactive)
REMARK    1  A    between atoms: C_4  and  C_1 
REMARK       I    between atoms: C_2  and  N_5 
REMARK       I    between atoms: N_7  and  C_2 
REMARK    2  A    between atoms: O_6  and  C_3 
REMARK    3  A    between atoms: N_5  and  C_4 
REMARK    4  A    between atoms: C_10  and  O_6 
REMARK    5  A    between atoms: C_12  and  N_7 
REMARK    6  A    between atoms: O_19  and  C_13 
ROOT
ATOM      1  C   UNL d   1       0.090  -1.017  -0.173  0.00  0.00     0.032 A 
ATOM      2  C   UNL d   1      -1.286  -0.750  -0.108  0.00  0.00     0.087 A 
ATOM      3  C   UNL d   1       0.978   0.031   0.114  0.00  0.00     0.127 A 
ATOM      4  F   UNL d   1       2.301  -0.179   0.035  0.00  0.00    -0.205 F 
ATOM      5  C   UNL d   1      -1.724   0.500   0.373  0.00  0.00     0.038 A 
ATOM      6  C   UNL d   1      -0.823   1.522   0.660  0.00  0.00     0.006 A 
ATOM      7  C   UNL d   1       0.536   1.293   0.504  0.00  0.00     0.043 A 
ENDROOT
BRANCH   1   8
ATOM      8  C   UNL d   1       0.656  -2.396  -0.390  0.00  0.00     0.169 C 
BRANCH   8   9
ATOM      9  N   UNL d   1       0.887  -3.031   0.896  0.00  0.00    -0.338 N 
ATOM     10  C   UNL d   1       1.618  -4.115   1.255  0.00  0.00     0.320 C 
ATOM     11  N   UNL d   1       2.205  -4.824   0.245  0.00  0.00    -0.309 N 
ATOM     12  O   UNL d   1       1.667  -4.375   2.451  0.00  0.00    -0.247 OA
ATOM     13  H   UNL d   1       1.928  -4.581  -0.692  0.00  0.00     0.170 HD
ATOM     14  H   UNL d   1       0.460  -2.602   1.707  0.00  0.00     0.164 HD
BRANCH  11  15
ATOM     15  C   UNL d   1       2.976  -6.002   0.387  0.00  0.00     0.036 A 
ATOM     16  C   UNL d   1       3.225  -6.758  -0.766  0.00  0.00     0.029 A 
ATOM     17  C   UNL d   1       3.920  -7.970  -0.690  0.00  0.00     0.002 A 
ATOM     18  C   UNL d   1       4.394  -8.428   0.537  0.00  0.00     0.000 A 
ATOM     19  C   UNL d   1       4.187  -7.666   1.683  0.00  0.00     0.002 A 
ATOM     20  C   UNL d   1       3.484  -6.458   1.607  0.00  0.00     0.029 A 
ENDBRANCH  11  15
ENDBRANCH   8   9
ENDBRANCH   1   8
BRANCH   2  21
ATOM     21  O   UNL d   1      -2.169  -1.743  -0.508  0.00  0.00    -0.310 OA
BRANCH  21  22
ATOM     22  C   UNL d   1      -3.440  -1.335  -0.859  0.00  0.00     0.076 C 
ATOM     23  C   UNL d   1      -3.657  -0.364  -1.845  0.00  0.00     0.040 C 
ATOM     24  C   UNL d   1      -4.924   0.206  -1.987  0.00  0.00     0.039 C 
ATOM     25  C   UNL d   1      -5.976  -0.229  -1.180  0.00  0.00     0.068 C 
ATOM     26  C   UNL d   1      -5.783  -1.302  -0.306  0.00  0.00     0.039 C 
ATOM     27  C   UNL d   1      -4.512  -1.857  -0.140  0.00  0.00     0.040 C 
BRANCH  25  28
ATOM     28  O   UNL d   1      -7.229   0.320  -1.188  0.00  0.00    -0.356 OA
ATOM     29  C   UNL d   1      -7.247   1.739  -1.340  0.00  0.00     0.210 C 
ENDBRANCH  25  28
ENDBRANCH  21  22
ENDBRANCH   2  21
TORSDOF 6
