REMARK  4 active torsions:
REMARK  status: ('A' for Active; 'I' for Inactive)
REMARK    1  A    between atoms: C_4  and  C_1 
REMARK       I    between atoms: C_2  and  N_5 
REMARK    2  A    between atoms: C_3  and  C_2 
REMARK    3  A    between atoms: C_11  and  C_4 
REMARK    4  A    between atoms: N_5  and  C_6 
ROOT
ATOM      1  C   UNL d   1       1.358   1.093  -0.418  0.00  0.00     0.043 A 
ATOM      2  C   UNL d   1       2.273   0.058  -0.149  0.00  0.00     0.049 A 
ATOM      3  C   UNL d   1      -0.025   0.828  -0.328  0.00  0.00     0.041 A 
ATOM      4  C   UNL d   1       1.775  -1.226   0.156  0.00  0.00     0.032 A 
ATOM      5  C   UNL d   1      -0.489  -0.436   0.028  0.00  0.00     0.035 A 
ATOM      6  C   UNL d   1       0.406  -1.469   0.259  0.00  0.00     0.026 A 
ATOM      7 CL   UNL d   1      -2.180  -0.729   0.139  0.00  0.00    -0.084 Cl
ENDROOT
BRANCH   2   8
ATOM      8  N   UNL d   1       3.681   0.136  -0.159  0.00  0.00    -0.322 N 
ATOM      9  C   UNL d   1       4.467   1.218   0.193  0.00  0.00     0.259 C 
ATOM     10  O   UNL d   1       4.040   2.282   0.629  0.00  0.00    -0.267 OA
ATOM     11  H   UNL d   1       4.164  -0.752  -0.243  0.00  0.00     0.169 HD
BRANCH   9  12
ATOM     12  C   UNL d   1       5.951   0.986   0.141  0.00  0.00     0.070 A 
ATOM     13  C   UNL d   1       6.518  -0.273  -0.096  0.00  0.00     0.132 A 
ATOM     14  F   UNL d   1       5.745  -1.350  -0.310  0.00  0.00    -0.205 F 
ATOM     15  C   UNL d   1       7.899  -0.465  -0.092  0.00  0.00     0.043 A 
ATOM     16  C   UNL d   1       8.746   0.613   0.155  0.00  0.00     0.003 A 
ATOM     17  C   UNL d   1       8.205   1.876   0.389  0.00  0.00     0.001 A 
ATOM     18  C   UNL d   1       6.817   2.064   0.382  0.00  0.00     0.020 A 
ENDBRANCH   9  12
ENDBRANCH   2   8
BRANCH   1  19
ATOM     19  C   UNL d   1       1.743   2.387  -1.055  0.00  0.00     0.194 C 
ATOM     20  O   UNL d   1       2.567   2.383  -1.966  0.00  0.00    -0.287 OA
BRANCH  19  21
ATOM     21  C   UNL d   1       0.987   3.640  -0.751  0.00  0.00     0.015 A 
ATOM     22  C   UNL d   1       0.753   4.542  -1.798  0.00  0.00     0.015 A 
ATOM     23  C   UNL d   1      -0.060   5.659  -1.597  0.00  0.00     0.001 A 
ATOM     24  C   UNL d   1      -0.636   5.886  -0.347  0.00  0.00     0.000 A 
ATOM     25  C   UNL d   1      -0.379   5.011   0.709  0.00  0.00     0.001 A 
ATOM     26  C   UNL d   1       0.440   3.894   0.513  0.00  0.00     0.015 A 
ENDBRANCH  19  21
ENDBRANCH   1  19
TORSDOF 4
