REMARK  3 active torsions:
REMARK  status: ('A' for Active; 'I' for Inactive)
REMARK    1  A    between atoms: S_6  and  C_2 
REMARK    2  A    between atoms: C_7  and  C_3 
REMARK    3  A    between atoms: C_10  and  S_6 
ROOT
ATOM      1  S   UNL d   1      -1.016   0.041  -0.091  0.00  0.00    -0.081 SA
ATOM      2  C   UNL d   1       0.169   1.269  -0.063  0.00  0.00     0.047 A 
ATOM      3  C   UNL d   1       0.158  -1.210   0.021  0.00  0.00     0.033 A 
ATOM      4  C   UNL d   1       1.437  -0.677   0.006  0.00  0.00     0.023 A 
ATOM      5  C   UNL d   1       1.442   0.748  -0.011  0.00  0.00     0.028 A 
ENDROOT
BRANCH   2   6
ATOM      6  S   UNL d   1      -0.250   2.976  -0.023  0.00  0.00    -0.083 SA
BRANCH   6   7
ATOM      7  C   UNL d   1      -0.339   3.291  -1.777  0.00  0.00     0.007 A 
ATOM      8  C   UNL d   1       0.806   3.250  -2.579  0.00  0.00     0.042 A 
ATOM      9  C   UNL d   1       0.716   3.555  -3.937  0.00  0.00     0.035 A 
ATOM     10 CL   UNL d   1       2.130   3.503  -4.917  0.00  0.00    -0.084 Cl
ATOM     11  C   UNL d   1      -0.504   3.912  -4.506  0.00  0.00     0.024 A 
ATOM     12  C   UNL d   1      -1.648   3.966  -3.709  0.00  0.00     0.003 A 
ATOM     13  C   UNL d   1      -1.564   3.658  -2.349  0.00  0.00     0.019 A 
ENDBRANCH   6   7
ENDBRANCH   2   6
BRANCH   3  14
ATOM     14  C   UNL d   1      -0.230  -2.623   0.113  0.00  0.00     0.049 A 
ATOM     15  N   UNL d   1       0.665  -3.486  -0.430  0.00  0.00    -0.365 N 
ATOM     16  C   UNL d   1       0.391  -4.806  -0.335  0.00  0.00     0.088 A 
ATOM     17  HN  UNL d   1       1.511  -3.152  -0.891  1.00  0.00     0.165 HD
ATOM     18  C   UNL d   1      -0.729  -5.320   0.297  0.00  0.00     0.017 A 
ATOM     19  C   UNL d   1      -1.630  -4.425   0.859  0.00  0.00     0.004 A 
ATOM     20  C   UNL d   1      -1.383  -3.057   0.765  0.00  0.00     0.031 A 
ENDBRANCH   3  14
TORSDOF 3
