REMARK  8 active torsions:
REMARK  status: ('A' for Active; 'I' for Inactive)
REMARK    1  A    between atoms: N_6  and  S_1 
REMARK    2  A    between atoms: C_15  and  S_1 
REMARK    3  A    between atoms: C_2  and  C_5 
REMARK    4  A    between atoms: N_3  and  C_8 
REMARK    5  A    between atoms: C_5  and  C_4 
REMARK    6  A    between atoms: C_9  and  N_6 
REMARK    7  A    between atoms: C_19  and  O_26 
REMARK    8  A    between atoms: O_26  and  C_29 
ROOT
ATOM      1  C   UNL d   1       0.174   2.419   3.062  0.00  0.00     0.111 C 
ATOM      2  C   UNL d   1       0.748   1.486   2.282  0.00  0.00     0.124 C 
ATOM      3  C   UNL d   1       0.256   2.375   4.477  0.00  0.00     0.105 C 
ATOM      4  N   UNL d   1       0.299   2.383   5.639  0.00  0.00    -0.191 NA
ENDROOT
BRANCH   1   5
ATOM      5  C   UNL d   1      -0.649   3.445   2.363  0.00  0.00     0.206 C 
ATOM      6  O   UNL d   1      -1.108   3.224   1.244  0.00  0.00    -0.286 OA
BRANCH   5   7
ATOM      7  C   UNL d   1      -0.902   4.695   3.072  0.00  0.00     0.047 A 
ATOM      8  C   UNL d   1      -2.025   5.494   2.895  0.00  0.00     0.063 A 
ATOM      9  O   UNL d   1      -1.962   6.593   3.699  0.00  0.00    -0.326 OA
ATOM     10  C   UNL d   1      -3.246   5.408   2.063  0.00  0.00     0.077 C 
ATOM     11  C   UNL d   1      -0.797   6.525   4.383  0.00  0.00     0.143 A 
ATOM     12  C   UNL d   1      -0.100   5.397   4.026  0.00  0.00     0.042 A 
ENDBRANCH   5   7
ENDBRANCH   1   5
BRANCH   2  13
ATOM     13  N   UNL d   1       1.489   0.404   2.871  0.00  0.00    -0.322 N 
ATOM     14  HN  UNL d   1       1.607   0.371   3.883  1.00  0.00     0.175 HD
BRANCH  13  15
ATOM     15  S   UNL d   1       2.110  -0.712   1.998  0.00  0.00     0.052 S 
ATOM     16  O   UNL d   1       2.916  -0.459   0.819  0.00  0.00    -0.245 OA
ATOM     17  C   UNL d   1       0.798  -1.809   1.508  0.00  0.00     0.142 C 
BRANCH  15  18
ATOM     18  C   UNL d   1       3.067  -1.751   3.091  0.00  0.00     0.038 A 
ATOM     19  C   UNL d   1       2.680  -1.886   4.427  0.00  0.00     0.024 A 
ATOM     20  C   UNL d   1       3.398  -2.733   5.273  0.00  0.00     0.039 A 
ATOM     21  C   UNL d   1       4.522  -3.416   4.797  0.00  0.00     0.077 A 
ATOM     22  C   UNL d   1       4.896  -3.284   3.455  0.00  0.00     0.039 A 
ATOM     23  C   UNL d   1       4.176  -2.445   2.599  0.00  0.00     0.024 A 
BRANCH  21  24
ATOM     24  O   UNL d   1       5.255  -4.305   5.550  0.00  0.00    -0.294 OA
BRANCH  24  25
ATOM     25  C   UNL d   1       5.481  -4.018   6.890  0.00  0.00     0.148 A 
ATOM     26  N   UNL d   1       5.501  -2.733   7.317  0.00  0.00    -0.344 N 
ATOM     27  C   UNL d   1       5.718  -2.520   8.638  0.00  0.00     0.126 A 
ATOM     28  HN  UNL d   1       5.359  -1.957   6.670  1.00  0.00     0.167 HD
ATOM     29  C   UNL d   1       5.937  -3.548   9.542  0.00  0.00     0.118 A 
ATOM     30  C   UNL d   1       5.951  -4.866   9.080  0.00  0.00     0.041 A 
ATOM     31  C   UNL d   1       5.723  -5.104   7.724  0.00  0.00     0.059 A 
BRANCH  29  32
ATOM     32  N   UNL d   1       6.138  -3.241  10.951  0.00  0.00    -0.114 N 
ATOM     33  O   UNL d   1       6.092  -2.053  11.295  0.00  0.00    -0.532 OA
ATOM     34  O   UNL d   1       6.336  -4.191  11.721  0.00  0.00    -0.532 OA
ENDBRANCH  29  32
ENDBRANCH  24  25
ENDBRANCH  21  24
ENDBRANCH  15  18
ENDBRANCH  13  15
ENDBRANCH   2  13
TORSDOF 8
