REMARK  2 active torsions:
REMARK  status: ('A' for Active; 'I' for Inactive)
REMARK    1  A    between atoms: N_3  and  N_1 
REMARK    2  A    between atoms: C_5  and  C_8 
ROOT
ATOM      1  N   UNL d   1      -0.771   2.326   0.201  0.00  0.00    -0.302 N 
ATOM      2  HN  UNL d   1      -1.596   2.506   0.773  1.00  0.00     0.186 HD
ATOM      3  C   UNL d   1      -0.097   3.283  -0.358  0.00  0.00     0.122 C 
ENDROOT
BRANCH   1   4
ATOM      4  N   UNL d   1      -0.301   1.046  -0.028  0.00  0.00    -0.238 N 
ATOM      5  C   UNL d   1       1.064   0.666  -0.011  0.00  0.00     0.165 A 
ATOM      6  S   UNL d   1       1.153  -1.124  -0.122  0.00  0.00    -0.062 SA
ATOM      7  N   UNL d   1       2.091   1.439   0.078  0.00  0.00    -0.373 N 
ATOM      8  C   UNL d   1      -0.580  -1.253  -0.086  0.00  0.00     0.080 A 
ATOM      9  C   UNL d   1      -1.180  -0.051  -0.030  0.00  0.00     0.039 A 
ATOM     10  C   UNL d   1      -2.666   0.103   0.021  0.00  0.00     0.071 C 
ATOM     11  C   UNL d   1       3.432   0.884   0.070  0.00  0.00     0.148 C 
ATOM     12  HN  UNL d   1       1.960   2.448   0.154  1.00  0.00     0.161 HD
ENDBRANCH   1   4
BRANCH   3  13
ATOM     13  C   UNL d   1      -0.335   4.729  -0.123  0.00  0.00     0.024 A 
ATOM     14  C   UNL d   1      -1.056   5.224   0.978  0.00  0.00     0.047 A 
ATOM     15 CL   UNL d   1      -1.795   4.235   2.191  0.00  0.00    -0.083 Cl
ATOM     16  C   UNL d   1      -1.185   6.609   1.176  0.00  0.00     0.025 A 
ATOM     17  C   UNL d   1      -0.601   7.514   0.295  0.00  0.00     0.003 A 
ATOM     18  C   UNL d   1       0.113   7.038  -0.798  0.00  0.00     0.025 A 
ATOM     19  C   UNL d   1       0.246   5.659  -1.011  0.00  0.00     0.047 A 
ATOM     20 CL   UNL d   1       1.140   5.201  -2.425  0.00  0.00    -0.083 Cl
ENDBRANCH   3  13
TORSDOF 2
