REMARK  6 active torsions:
REMARK  status: ('A' for Active; 'I' for Inactive)
REMARK    1  A    between atoms: C_2  and  C_1 
REMARK    2  A    between atoms: C_22  and  N_3 
REMARK    3  A    between atoms: S_16  and  C_9 
REMARK    4  A    between atoms: C_13  and  C_15 
REMARK    5  A    between atoms: C_23  and  S_16 
REMARK    6  A    between atoms: C_24  and  C_23 
ROOT
ATOM      1  C   UNL d   1      -0.990  -2.560   0.016  0.00  0.00     0.193 A 
ATOM      2  O   UNL d   1      -1.804  -3.048  -0.979  0.00  0.00    -0.266 OA
ATOM      3  N   UNL d   1      -0.724  -3.479   0.922  0.00  0.00    -0.275 N 
ATOM      4  HN  UNL d   1      -0.143  -3.362   1.753  1.00  0.00     0.189 HD
ATOM      5  C   UNL d   1      -1.998  -4.346  -0.596  0.00  0.00     0.204 A 
ATOM      6  N   UNL d   1      -1.383  -4.630   0.532  0.00  0.00    -0.272 N 
ATOM      7  HN  UNL d   1      -1.390  -5.524   1.022  1.00  0.00     0.189 HD
ENDROOT
BRANCH   5   8
ATOM      8  S   UNL d   1      -2.932  -5.462  -1.544  0.00  0.00    -0.080 SA
BRANCH   8   9
ATOM      9  C   UNL d   1      -3.552  -6.559  -0.241  0.00  0.00     0.121 C 
BRANCH   9  10
ATOM     10  C   UNL d   1      -4.406  -7.673  -0.805  0.00  0.00    -0.048 A 
ATOM     11  C   UNL d   1      -3.843  -8.925  -1.092  0.00  0.00     0.009 A 
ATOM     12  C   UNL d   1      -4.630  -9.959  -1.608  0.00  0.00     0.017 A 
ATOM     13  C   UNL d   1      -5.995  -9.762  -1.858  0.00  0.00     0.047 A 
ATOM     14  C   UNL d   1      -6.556  -8.505  -1.583  0.00  0.00     0.017 A 
ATOM     15  C   UNL d   1      -5.769  -7.471  -1.065  0.00  0.00     0.009 A 
BRANCH  13  16
ATOM     16  C   UNL d   1      -6.859 -10.870  -2.412  0.00  0.00     0.417 C 
ATOM     17  F   UNL d   1      -6.180 -12.030  -2.640  0.00  0.00    -0.166 F 
ATOM     18  F   UNL d   1      -7.884 -11.197  -1.577  0.00  0.00    -0.166 F 
ATOM     19  F   UNL d   1      -7.436 -10.538  -3.600  0.00  0.00    -0.166 F 
ENDBRANCH  13  16
ENDBRANCH   9  10
ENDBRANCH   8   9
ENDBRANCH   5   8
BRANCH   1  20
ATOM     20  C   UNL d   1      -0.533  -1.210   0.041  0.00  0.00     0.105 A 
ATOM     21  N   UNL d   1       0.593  -0.743   0.671  0.00  0.00    -0.288 N 
ATOM     22  N   UNL d   1       0.766   0.591   0.520  0.00  0.00    -0.303 N 
ATOM     23  C   UNL d   1      -0.255   0.976  -0.254  0.00  0.00     0.024 A 
ATOM     24  HN  UNL d   1       1.509   1.173   0.908  1.00  0.00     0.186 HD
ATOM     25  C   UNL d   1      -1.092  -0.111  -0.578  0.00  0.00     0.061 A 
ATOM     26  C   UNL d   1      -0.388   2.389  -0.680  0.00  0.00     0.070 C 
BRANCH  21  27
ATOM     27  C   UNL d   1       1.654  -1.497   1.318  0.00  0.00     0.145 C 
ATOM     28  C   UNL d   1       1.475  -1.617   2.820  0.00  0.00     0.028 C 
ENDBRANCH  21  27
ENDBRANCH   1  20
TORSDOF 6
