REMARK  6 active torsions:
REMARK  status: ('A' for Active; 'I' for Inactive)
REMARK    1  A    between atoms: C_4  and  S_1 
REMARK    2  A    between atoms: N_5  and  S_1 
REMARK    3  A    between atoms: C_3  and  C_2 
REMARK    4  A    between atoms: C_12  and  N_5 
REMARK    5  A    between atoms: O_22  and  C_9 
REMARK    6  A    between atoms: O_23  and  C_13 
ROOT
ATOM      1  S   UNL d   1       1.044   0.041  -0.094  0.00  0.00     0.263 S 
ATOM      2  O   UNL d   1       0.384   1.306  -0.334  0.00  0.00    -0.200 OA
ATOM      3  O   UNL d   1       0.858  -1.086  -0.987  0.00  0.00    -0.200 OA
ENDROOT
BRANCH   1   4
ATOM      4  C   UNL d   1       0.630  -0.480   1.553  0.00  0.00     0.082 A 
ATOM      5  C   UNL d   1       0.646  -1.847   1.857  0.00  0.00     0.065 A 
ATOM      6  C   UNL d   1       0.335  -2.299   3.147  0.00  0.00     0.102 A 
ATOM      7  C   UNL d   1      -0.021  -1.355   4.130  0.00  0.00     0.101 A 
ATOM      8  C   UNL d   1      -0.059   0.011   3.797  0.00  0.00     0.041 A 
ATOM      9  C   UNL d   1       0.263   0.456   2.515  0.00  0.00     0.028 A 
BRANCH   6  10
ATOM     10  O   UNL d   1       0.371  -3.623   3.491  0.00  0.00    -0.353 OA
ATOM     11  C   UNL d   1       0.699  -4.575   2.485  0.00  0.00     0.210 C 
ENDBRANCH   6  10
BRANCH   7  12
ATOM     12  O   UNL d   1      -0.362  -1.571   5.440  0.00  0.00    -0.353 OA
ATOM     13  C   UNL d   1      -0.353  -2.896   5.949  0.00  0.00     0.210 C 
ENDBRANCH   7  12
ENDBRANCH   1   4
BRANCH   1  14
ATOM     14  N   UNL d   1       2.677   0.377   0.019  0.00  0.00    -0.281 N 
ATOM     15  H   UNL d   1       2.968   1.325  -0.210  0.00  0.00     0.179 HD
BRANCH  14  16
ATOM     16  C   UNL d   1       3.632  -0.635   0.256  0.00  0.00     0.043 A 
ATOM     17  C   UNL d   1       4.135  -1.402  -0.794  0.00  0.00     0.047 A 
ATOM     18  C   UNL d   1       5.158  -2.358  -0.581  0.00  0.00     0.067 A 
ATOM     19  C   UNL d   1       5.644  -2.523   0.724  0.00  0.00     0.026 A 
ATOM     20  C   UNL d   1       5.128  -1.750   1.774  0.00  0.00     0.022 A 
ATOM     21 BR   UNL d   1       7.010  -3.750   1.203  0.00  0.00    -0.050 Br
ATOM     22  C   UNL d   1       4.133  -0.802   1.540  0.00  0.00     0.031 A 
BRANCH  18  23
ATOM     23  C   UNL d   1       5.642  -3.115  -1.795  0.00  0.00     0.418 C 
ATOM     24  F   UNL d   1       6.680  -3.969  -1.605  0.00  0.00    -0.166 F 
ATOM     25  F   UNL d   1       4.650  -3.867  -2.351  0.00  0.00    -0.166 F 
ATOM     26  F   UNL d   1       6.053  -2.267  -2.783  0.00  0.00    -0.166 F 
ENDBRANCH  18  23
ENDBRANCH  14  16
ENDBRANCH   1  14
TORSDOF 6
