REMARK  1 active torsions:
REMARK  status: ('A' for Active; 'I' for Inactive)
REMARK       I    between atoms: N_4  and  C_1 
REMARK       I    between atoms: N_9  and  C_1 
REMARK    1  A    between atoms: C_5  and  N_4 
ROOT
ATOM      1  C   UNL d   1       1.133   1.720   4.591  0.00  0.00     0.042 A 
ATOM      2  C   UNL d   1       0.483   1.048   3.550  0.00  0.00     0.054 A 
ATOM      3  C   UNL d   1       0.927   1.186   2.234  0.00  0.00     0.037 A 
ATOM      4  C   UNL d   1       2.237   2.546   4.336  0.00  0.00    -0.040 A 
ATOM      5  C   UNL d   1       2.681   2.676   3.013  0.00  0.00     0.011 A 
ATOM      6 CL   UNL d   1       0.537   1.490   6.198  0.00  0.00    -0.084 Cl
ATOM      7  C   UNL d   1       2.035   1.997   1.974  0.00  0.00     0.030 A 
ATOM      8  C   UNL d   1       2.953   3.278   5.436  0.00  0.00     0.050 C 
ENDROOT
BRANCH   3   9
ATOM      9  N   UNL d   1       0.332   0.523   1.142  0.00  0.00    -0.314 N 
ATOM     10  C   UNL d   1      -0.873  -0.126   1.131  0.00  0.00     0.296 C 
ATOM     11  O   UNL d   1      -1.722  -0.168   2.007  0.00  0.00    -0.254 OA
ATOM     12  N   UNL d   1      -1.086  -0.776  -0.051  0.00  0.00    -0.254 NA
ATOM     13  H   UNL d   1      -0.297  -1.281  -0.429  0.00  0.00     0.128 HD
ATOM     14  H   UNL d   1      -1.940  -1.325  -0.027  0.00  0.00     0.128 HD
ATOM     15  H   UNL d   1       0.738   0.676   0.231  0.00  0.00     0.170 HD
ENDBRANCH   3   9
TORSDOF 1
