REMARK  0 active torsions:
REMARK  status: ('A' for Active; 'I' for Inactive)
ROOT
ATOM      1  C   UNL d   1      -0.091  -0.646   0.069  0.00  0.00     0.033 A 
ATOM      2  C   UNL d   1       1.210  -1.343   0.095  0.00  0.00     0.184 C 
ATOM      3  S   UNL d   1       1.219   1.840   0.175  0.00  0.00    -0.094 SA
ATOM      4  C   UNL d   1       2.460  -0.569  -0.014  0.00  0.00     0.069 C 
ATOM      5  C   UNL d   1      -0.177   0.748   0.074  0.00  0.00     0.019 A 
ATOM      6  C   UNL d   1       2.563   0.766  -0.002  0.00  0.00    -0.017 C 
ATOM      7  C   UNL d   1      -1.256  -1.430   0.018  0.00  0.00     0.040 A 
ATOM      8  O   UNL d   1       1.269  -2.567   0.172  0.00  0.00    -0.288 OA
ATOM      9  C   UNL d   1      -1.446   1.346   0.011  0.00  0.00     0.021 A 
ATOM     10  C   UNL d   1      -2.504  -0.819  -0.046  0.00  0.00     0.035 A 
ATOM     11  C   UNL d   1      -2.605   0.568  -0.054  0.00  0.00     0.025 A 
ATOM     12 CL   UNL d   1      -3.929  -1.779  -0.120  0.00  0.00    -0.084 Cl
ATOM     13  C   UNL d   1       3.925   1.398  -0.132  0.00  0.00     0.056 C 
ENDROOT
TORSDOF 0
