REMARK  6 active torsions:
REMARK  status: ('A' for Active; 'I' for Inactive)
REMARK    1  A    between atoms: C_11  and  C_1 
REMARK    2  A    between atoms: O_15  and  C_13 
REMARK    3  A    between atoms: C_19  and  O_15 
REMARK    4  A    between atoms: C_16  and  C_20 
REMARK    5  A    between atoms: C_21  and  C_19 
REMARK    6  A    between atoms: C_20  and  C_21 
ROOT
ATOM      1  N   UNL d   1       8.908  -1.447  -3.599  0.00  0.00    -0.197 NA
ATOM      2  C   UNL d   1       8.607  -1.304  -2.489  0.00  0.00     0.059 C 
ATOM      3  C   UNL d   1       8.231  -1.114  -1.080  0.00  0.00     0.124 C 
ENDROOT
BRANCH   3   4
ATOM      4  C   UNL d   1       6.829  -0.520  -0.963  0.00  0.00     0.016 C 
BRANCH   4   5
ATOM      5  C   UNL d   1       6.414  -0.320   0.499  0.00  0.00     0.028 C 
BRANCH   5   6
ATOM      6  C   UNL d   1       5.021   0.304   0.607  0.00  0.00     0.175 C 
BRANCH   6   7
ATOM      7  O   UNL d   1       4.065  -0.584   0.024  0.00  0.00    -0.351 OA
BRANCH   7   8
ATOM      8  C   UNL d   1       2.766  -0.152   0.036  0.00  0.00     0.071 A 
ATOM      9  C   UNL d   1       1.795  -1.159   0.025  0.00  0.00     0.075 A 
ATOM     10  C   UNL d   1       0.439  -0.827   0.026  0.00  0.00     0.093 A 
ATOM     11  O   UNL d   1      -0.469  -1.856   0.017  0.00  0.00    -0.309 OA
ATOM     12  C   UNL d   1       0.056   0.511   0.030  0.00  0.00     0.048 A 
ATOM     13  C   UNL d   1      -1.824  -1.546  -0.028  0.00  0.00     0.090 A 
ATOM     14  C   UNL d   1      -2.305  -0.295  -0.020  0.00  0.00     0.093 A 
ATOM     15  C   UNL d   1      -1.372   0.839   0.033  0.00  0.00     0.187 A 
ATOM     16  O   UNL d   1      -1.781   1.992   0.070  0.00  0.00    -0.287 OA
ATOM     17  C   UNL d   1       1.016   1.523   0.016  0.00  0.00     0.021 A 
ATOM     18  C   UNL d   1       2.371   1.189   0.013  0.00  0.00     0.038 A 
BRANCH  13  19
ATOM     19  C   UNL d   1      -2.717  -2.725  -0.114  0.00  0.00    -0.002 A 
ATOM     20  C   UNL d   1      -2.270  -3.897  -0.745  0.00  0.00     0.014 A 
ATOM     21  C   UNL d   1      -3.090  -5.026  -0.828  0.00  0.00     0.001 A 
ATOM     22  C   UNL d   1      -4.368  -5.002  -0.278  0.00  0.00     0.000 A 
ATOM     23  C   UNL d   1      -4.830  -3.850   0.351  0.00  0.00     0.001 A 
ATOM     24  C   UNL d   1      -4.010  -2.721   0.435  0.00  0.00     0.014 A 
ENDBRANCH  13  19
ENDBRANCH   7   8
ENDBRANCH   6   7
ENDBRANCH   5   6
ENDBRANCH   4   5
ENDBRANCH   3   4
TORSDOF 6
