REMARK  4 active torsions:
REMARK  status: ('A' for Active; 'I' for Inactive)
REMARK       I    between atoms: N_4  and  C_1 
REMARK       I    between atoms: N_5  and  C_1 
REMARK    1  A    between atoms: C_11  and  N_4 
REMARK    2  A    between atoms: C_13  and  N_5 
REMARK    3  A    between atoms: O_10  and  C_6 
REMARK    4  A    between atoms: C_15  and  O_10 
ROOT
ATOM      1  N   UNL d   1       1.252  -4.774  -1.131  0.00  0.00    -0.344 N 
ATOM      2  HN  UNL d   1       0.944  -5.504  -1.774  1.00  0.00     0.167 HD
ATOM      3  C   UNL d   1       2.293  -4.963  -0.300  0.00  0.00     0.148 A 
ATOM      4  C   UNL d   1       1.016  -2.524  -0.246  0.00  0.00     0.051 A 
ATOM      5  C   UNL d   1       0.631  -3.575  -1.077  0.00  0.00     0.119 A 
ATOM      6  C   UNL d   1       2.811  -3.961   0.507  0.00  0.00     0.059 A 
ATOM      7  C   UNL d   1       2.163  -2.720   0.526  0.00  0.00     0.035 A 
ENDROOT
BRANCH   4   8
ATOM      8  N   UNL d   1       0.307  -1.302  -0.139  0.00  0.00    -0.307 N 
ATOM      9  C   UNL d   1      -1.003  -1.131  -0.565  0.00  0.00     0.325 C 
ATOM     10  N   UNL d   1      -1.450   0.158  -0.358  0.00  0.00    -0.309 N 
ATOM     11  O   UNL d   1      -1.679  -2.031  -1.045  0.00  0.00    -0.247 OA
ATOM     12  H   UNL d   1      -0.773   0.846  -0.073  0.00  0.00     0.170 HD
ATOM     13  H   UNL d   1       0.687  -0.604   0.481  0.00  0.00     0.170 HD
BRANCH  10  14
ATOM     14  C   UNL d   1      -2.765   0.636  -0.598  0.00  0.00     0.036 A 
ATOM     15  C   UNL d   1      -3.820  -0.165  -1.050  0.00  0.00     0.029 A 
ATOM     16  C   UNL d   1      -5.095   0.369  -1.252  0.00  0.00     0.002 A 
ATOM     17  C   UNL d   1      -5.335   1.715  -1.000  0.00  0.00     0.000 A 
ATOM     18  C   UNL d   1      -4.296   2.526  -0.550  0.00  0.00     0.002 A 
ATOM     19  C   UNL d   1      -3.018   1.992  -0.353  0.00  0.00     0.029 A 
ENDBRANCH  10  14
ENDBRANCH   4   8
BRANCH   3  20
ATOM     20  O   UNL d   1       2.874  -6.221  -0.233  0.00  0.00    -0.293 OA
BRANCH  20  21
ATOM     21  C   UNL d   1       2.054  -7.296  -0.489  0.00  0.00     0.093 A 
ATOM     22  C   UNL d   1       2.571  -8.358  -1.217  0.00  0.00     0.124 A 
ATOM     23  N   UNL d   1       1.879  -9.488  -1.513  0.00  0.00    -0.373 N 
ATOM     24  C   UNL d   1       0.605  -9.549  -1.063  0.00  0.00     0.088 A 
ATOM     25  HN  UNL d   1       2.297 -10.249  -2.047  1.00  0.00     0.164 HD
ATOM     26  C   UNL d   1       0.003  -8.551  -0.317  0.00  0.00     0.020 A 
ATOM     27  C   UNL d   1       0.748  -7.416  -0.009  0.00  0.00     0.040 A 
ENDBRANCH  20  21
ENDBRANCH   3  20
TORSDOF 4
