REMARK  1 active torsions:
REMARK  status: ('A' for Active; 'I' for Inactive)
REMARK    1  A    between atoms: C_7  and  C_2 
ROOT
ATOM      1  C   UNL d   1       3.701   0.452   0.114  0.00  0.00     0.053 C 
ATOM      2  C   UNL d   1       4.401   0.536   1.265  0.00  0.00     0.126 C 
ATOM      3  N   UNL d   1       3.337   0.376   3.615  0.00  0.00    -0.191 NA
ATOM      4  N   UNL d   1       6.947   0.939   1.099  0.00  0.00    -0.191 NA
ATOM      5  C   UNL d   1       3.803   0.445   2.556  0.00  0.00     0.111 C 
ATOM      6  C   UNL d   1       5.808   0.747   1.191  0.00  0.00     0.111 C 
ENDROOT
BRANCH   1   7
ATOM      7  C   UNL d   1       2.284   0.302   0.075  0.00  0.00     0.015 A 
ATOM      8  S   UNL d   1       1.615  -1.297   0.127  0.00  0.00    -0.082 SA
ATOM      9  C   UNL d   1       0.072  -0.673   0.057  0.00  0.00     0.057 A 
ATOM     10  C   UNL d   1       0.019   0.669  -0.004  0.00  0.00     0.002 A 
ATOM     11  S   UNL d   1      -1.419  -1.422   0.045  0.00  0.00    -0.093 SA
ATOM     12  C   UNL d   1       1.296   1.289  -0.075  0.00  0.00    -0.032 A 
ATOM     13  C   UNL d   1      -1.302   1.192   0.013  0.00  0.00    -0.043 A 
ATOM     14  C   UNL d   1       1.621   2.732  -0.287  0.00  0.00     0.050 C 
ATOM     15  C   UNL d   1      -1.784   2.601   0.069  0.00  0.00     0.049 C 
ATOM     16  C   UNL d   1      -2.195   0.118   0.006  0.00  0.00     0.058 A 
ENDBRANCH   1   7
TORSDOF 1
