REMARK  5 active torsions:
REMARK  status: ('A' for Active; 'I' for Inactive)
REMARK    1  A    between atoms: C_7  and  C_1 
REMARK    2  A    between atoms: C_3  and  C_2 
REMARK    3  A    between atoms: O_15  and  C_6 
REMARK    4  A    between atoms: O_16  and  C_7 
REMARK    5  A    between atoms: C_17  and  O_16 
ROOT
ATOM      1  C   UNL d   1      -0.792   1.216  -0.013  0.00  0.00     0.086 A 
ATOM      2  C   UNL d   1      -1.446  -0.005  -0.034  0.00  0.00     0.137 A 
ATOM      3  N   UNL d   1      -0.734  -1.178   0.024  0.00  0.00    -0.317 N 
ATOM      4  HN  UNL d   1      -1.203  -2.084   0.039  1.00  0.00     0.169 HD
ATOM      5  C   UNL d   1       0.591  -1.083   0.061  0.00  0.00     0.221 A 
ATOM      6  N   UNL d   1       1.314   0.029   0.052  0.00  0.00    -0.331 N 
ATOM      7  HN  UNL d   1       2.334   0.023   0.073  1.00  0.00     0.168 HD
ATOM      8  C   UNL d   1       0.594   1.169   0.014  0.00  0.00     0.111 A 
ENDROOT
BRANCH   1   9
ATOM      9  C   UNL d   1      -1.390   2.557  -0.071  0.00  0.00     0.296 C 
ATOM     10  O   UNL d   1      -0.868   3.465  -0.690  0.00  0.00    -0.259 OA
BRANCH   9  11
ATOM     11  O   UNL d   1      -2.482   2.640   0.716  0.00  0.00    -0.318 OA
BRANCH  11  12
ATOM     12  C   UNL d   1      -3.132   3.923   0.725  0.00  0.00     0.174 C 
ATOM     13  C   UNL d   1      -3.890   4.175  -0.568  0.00  0.00     0.034 C 
ENDBRANCH  11  12
ENDBRANCH   9  11
ENDBRANCH   1   9
BRANCH   2  14
ATOM     14  C   UNL d   1      -2.948  -0.158  -0.161  0.00  0.00     0.433 C 
ATOM     15  F   UNL d   1      -3.612   0.942  -0.610  0.00  0.00    -0.165 F 
ATOM     16  F   UNL d   1      -3.293  -1.137  -1.051  0.00  0.00    -0.165 F 
ATOM     17  F   UNL d   1      -3.540  -0.504   1.016  0.00  0.00    -0.165 F 
ENDBRANCH   2  14
BRANCH   5  18
ATOM     18  O   UNL d   1       1.307  -2.237   0.080  0.00  0.00    -0.332 OA
ATOM     19  H   UNL d   1       2.204  -1.868   0.064  0.00  0.00     0.220 HD
ENDBRANCH   5  18
TORSDOF 5
