REMARK  3 active torsions:
REMARK  status: ('A' for Active; 'I' for Inactive)
REMARK    1  A    between atoms: N_2  and  C_1 
REMARK    2  A    between atoms: N_5  and  C_3 
REMARK    3  A    between atoms: O_14  and  C_9 
ROOT
ATOM      1  C   UNL d   1       1.571   1.216   0.076  0.00  0.00     0.131 A 
ATOM      2  C   UNL d   1       0.160   1.323  -0.046  0.00  0.00     0.087 A 
ATOM      3  C   UNL d   1      -0.530   0.080  -0.232  0.00  0.00     0.106 A 
ATOM      4  C   UNL d   1      -1.935   0.098  -0.518  0.00  0.00     0.104 C 
ATOM      5  N   UNL d   1      -3.074   0.102  -0.737  0.00  0.00    -0.191 NA
ATOM      6  C   UNL d   1       2.266   0.002   0.042  0.00  0.00     0.041 A 
ATOM      7  C   UNL d   1       0.159  -1.161  -0.224  0.00  0.00     0.091 A 
ATOM      8  C   UNL d   1       1.553  -1.176  -0.093  0.00  0.00     0.041 A 
ENDROOT
BRANCH   2   9
ATOM      9  N   UNL d   1      -0.473   2.565   0.054  0.00  0.00    -0.373 N 
ATOM     10  C   UNL d   1      -1.806   2.752   0.674  0.00  0.00     0.149 C 
ATOM     11  C   UNL d   1      -1.903   4.157   1.295  0.00  0.00     0.187 C 
ATOM     12  O   UNL d   1      -1.617   5.183   0.330  0.00  0.00    -0.388 OA
ATOM     13  C   UNL d   1      -0.298   5.005  -0.212  0.00  0.00     0.187 C 
ATOM     14  C   UNL d   1      -0.170   3.643  -0.920  0.00  0.00     0.149 C 
ENDBRANCH   2   9
BRANCH   7  15
ATOM     15  O   UNL d   1      -0.313  -2.440  -0.362  0.00  0.00    -0.354 OA
ATOM     16  C   UNL d   1      -1.694  -2.748  -0.257  0.00  0.00     0.210 C 
ENDBRANCH   7  15
BRANCH   1  17
ATOM     17  N   UNL d   1       2.401   2.385   0.308  0.00  0.00    -0.113 N 
ATOM     18  O   UNL d   1       2.284   2.975   1.390  0.00  0.00    -0.532 OA
ATOM     19  O   UNL d   1       3.201   2.684  -0.592  0.00  0.00    -0.532 OA
ENDBRANCH   1  17
TORSDOF 3
