REMARK  4 active torsions:
REMARK  status: ('A' for Active; 'I' for Inactive)
REMARK       I    between atoms: N_2  and  C_1 
REMARK    1  A    between atoms: C_4  and  C_1 
REMARK       I    between atoms: C_5  and  N_2 
REMARK    2  A    between atoms: C_3  and  C_7 
REMARK       I    between atoms: N_10  and  C_5 
REMARK    3  A    between atoms: C_6  and  N_8 
REMARK    4  A    between atoms: N_8  and  N_10 
ROOT
ATOM      1  C   UNL d   1       0.454   4.319   1.323  0.00  0.00     0.261 C 
ATOM      2  N   UNL d   1       0.234   3.242   0.477  0.00  0.00    -0.274 N 
ATOM      3  C   UNL d   1       1.127   2.309   0.021  0.00  0.00     0.337 C 
ATOM      4  N   UNL d   1       2.455   2.602   0.180  0.00  0.00    -0.268 N 
ATOM      5  O   UNL d   1       1.555   4.838   1.500  0.00  0.00    -0.267 OA
ATOM      6  O   UNL d   1       0.719   1.251  -0.463  0.00  0.00    -0.246 OA
ATOM      7  H   UNL d   1      -0.715   2.908   0.368  0.00  0.00     0.173 HD
ATOM      8  H   UNL d   1       2.694   3.591   0.224  0.00  0.00     0.185 HD
ENDROOT
BRANCH   4   9
ATOM      9  N   UNL d   1       3.370   1.762  -0.499  0.00  0.00    -0.200 NA
ATOM     10  H   UNL d   1       2.928   0.861  -0.739  0.00  0.00     0.153 HD
BRANCH   9  11
ATOM     11  C   UNL d   1       4.582   1.545   0.213  0.00  0.00     0.050 A 
ATOM     12  C   UNL d   1       5.174   2.580   0.955  0.00  0.00     0.043 A 
ATOM     13  C   UNL d   1       6.412   2.417   1.597  0.00  0.00     0.049 A 
ATOM     14  C   UNL d   1       7.089   1.198   1.468  0.00  0.00     0.018 A 
ATOM     15  C   UNL d   1       6.542   0.168   0.700  0.00  0.00     0.026 A 
ATOM     16  C   UNL d   1       5.306   0.345   0.070  0.00  0.00     0.056 A 
ATOM     17 CL   UNL d   1       4.682  -0.960  -0.879  0.00  0.00    -0.082 Cl
BRANCH  13  18
ATOM     18  C   UNL d   1       6.999   3.544   2.412  0.00  0.00     0.417 C 
ATOM     19  F   UNL d   1       6.239   4.674   2.409  0.00  0.00    -0.166 F 
ATOM     20  F   UNL d   1       7.162   3.207   3.721  0.00  0.00    -0.166 F 
ATOM     21  F   UNL d   1       8.228   3.922   1.966  0.00  0.00    -0.166 F 
ENDBRANCH  13  18
ENDBRANCH   9  11
ENDBRANCH   4   9
BRANCH   1  22
ATOM     22  C   UNL d   1      -0.784   4.948   1.873  0.00  0.00     0.054 A 
ATOM     23  C   UNL d   1      -1.904   4.216   2.299  0.00  0.00     0.049 A 
ATOM     24 CL   UNL d   1      -1.911   2.493   2.437  0.00  0.00    -0.083 Cl
ATOM     25  C   UNL d   1      -3.082   4.881   2.655  0.00  0.00     0.025 A 
ATOM     26  C   UNL d   1      -3.142   6.273   2.620  0.00  0.00     0.002 A 
ATOM     27  C   UNL d   1      -2.015   7.008   2.260  0.00  0.00     0.001 A 
ATOM     28  C   UNL d   1      -0.837   6.351   1.894  0.00  0.00     0.019 A 
ENDBRANCH   1  22
TORSDOF 4
