REMARK  3 active torsions:
REMARK  status: ('A' for Active; 'I' for Inactive)
REMARK    1  A    between atoms: N_11  and  C_13 
REMARK    2  A    between atoms: N_14  and  C_12 
REMARK    3  A    between atoms: C_17  and  N_14 
ROOT
ATOM      1  C   UNL d   1       0.069  -0.808  -0.153  0.00  0.00     0.135 C 
ATOM      2  C   UNL d   1      -0.002   0.543  -0.067  0.00  0.00     0.128 C 
ATOM      3  N   UNL d   1       1.326  -1.413   0.037  0.00  0.00    -0.288 N 
ATOM      4  N   UNL d   1       2.421   0.668  -0.100  0.00  0.00    -0.270 N 
ATOM      5  N   UNL d   1      -1.099  -1.558  -0.414  0.00  0.00    -0.303 N 
ATOM      6  C   UNL d   1       2.530  -0.700  -0.032  0.00  0.00     0.332 C 
ATOM      7  C   UNL d   1       1.241   1.318   0.177  0.00  0.00     0.269 C 
ATOM      8  C   UNL d   1      -2.447   0.458  -0.570  0.00  0.00     0.094 C 
ATOM      9  C   UNL d   1      -2.378  -1.007  -0.480  0.00  0.00     0.264 C 
ATOM     10  C   UNL d   1      -1.286   1.280  -0.219  0.00  0.00     0.208 C 
ATOM     11  C   UNL d   1      -3.567   1.050  -1.032  0.00  0.00     0.083 C 
ATOM     12  O   UNL d   1       3.625  -1.264   0.011  0.00  0.00    -0.246 OA
ATOM     13  O   UNL d   1       1.215   2.471   0.599  0.00  0.00    -0.267 OA
ATOM     14  O   UNL d   1      -3.402  -1.689  -0.504  0.00  0.00    -0.267 OA
ATOM     15  O   UNL d   1      -1.384   2.498  -0.120  0.00  0.00    -0.286 OA
ATOM     16  C   UNL d   1       1.501  -2.813   0.403  0.00  0.00     0.163 C 
ATOM     17  C   UNL d   1       3.637   1.463  -0.054  0.00  0.00     0.164 C 
ATOM     18  C   UNL d   1      -1.096  -2.974  -0.762  0.00  0.00     0.161 C 
ENDROOT
BRANCH  11  19
ATOM     19  N   UNL d   1      -4.664   0.441  -1.623  0.00  0.00    -0.266 NA
ATOM     20  H   UNL d   1      -4.428  -0.527  -1.907  0.00  0.00     0.133 HD
BRANCH  19  21
ATOM     21  C   UNL d   1      -5.957   0.366  -1.026  0.00  0.00     0.045 A 
ATOM     22  C   UNL d   1      -6.942  -0.528  -1.512  0.00  0.00     0.124 A 
ATOM     23  C   UNL d   1      -8.215  -0.606  -0.922  0.00  0.00     0.038 A 
ATOM     24  C   UNL d   1      -8.532   0.227   0.148  0.00  0.00     0.003 A 
ATOM     25  C   UNL d   1      -7.593   1.145   0.610  0.00  0.00     0.002 A 
ATOM     26  C   UNL d   1      -6.327   1.227   0.019  0.00  0.00     0.026 A 
BRANCH  22  27
ATOM     27  N   UNL d   1      -6.665  -1.426  -2.640  0.00  0.00    -0.114 N 
ATOM     28  O   UNL d   1      -5.493  -1.778  -2.842  0.00  0.00    -0.532 OA
ATOM     29  O   UNL d   1      -7.633  -1.799  -3.324  0.00  0.00    -0.532 OA
ENDBRANCH  22  27
ENDBRANCH  19  21
ENDBRANCH  11  19
TORSDOF 3
