REMARK  8 active torsions:
REMARK  status: ('A' for Active; 'I' for Inactive)
REMARK    1  A    between atoms: C_10  and  O_14 
REMARK    2  A    between atoms: N_13  and  C_24 
REMARK    3  A    between atoms: C_23  and  N_13 
REMARK    4  A    between atoms: O_14  and  C_19 
REMARK    5  A    between atoms: C_24  and  C_16 
REMARK    6  A    between atoms: C_17  and  C_23 
REMARK    7  A    between atoms: C_19  and  C_17 
REMARK    8  A    between atoms: O_22  and  C_17 
ROOT
ATOM      1  C   UNL d   1       7.066  -0.237   0.000  0.00  0.00     0.170 C 
ENDROOT
BRANCH   1   2
ATOM      2  C   UNL d   1       5.872  -1.216  -0.056  0.00  0.00     0.303 C 
BRANCH   2   3
ATOM      3  N   UNL d   1       4.575  -0.544  -0.116  0.00  0.00     0.090 N 
ATOM      4  H   UNL d   1       4.410   0.013   0.720  0.00  0.00     0.316 HD
BRANCH   3   5
ATOM      5  C   UNL d   1       3.470  -1.494  -0.240  0.00  0.00     0.308 C 
BRANCH   5   6
ATOM      6  C   UNL d   1       2.156  -0.746  -0.270  0.00  0.00    -0.028 A 
ATOM      7  C   UNL d   1       1.203  -0.929   0.745  0.00  0.00     0.048 A 
ATOM      8  C   UNL d   1       0.037  -0.195   0.679  0.00  0.00     0.105 A 
ATOM      9  C   UNL d   1      -0.208   0.694  -0.341  0.00  0.00     0.105 A 
ATOM     10  O   UNL d   1      -0.982  -0.242   1.579  0.00  0.00    -0.323 OA
ATOM     11  O   UNL d   1      -1.409   1.317  -0.211  0.00  0.00    -0.323 OA
ATOM     12  C   UNL d   1       0.699   0.899  -1.356  0.00  0.00     0.040 A 
ATOM     13  C   UNL d   1      -1.891   0.725   1.012  0.00  0.00     0.352 A 
ATOM     14  C   UNL d   1       1.890   0.170  -1.317  0.00  0.00     0.012 A 
ENDBRANCH   5   6
ENDBRANCH   3   5
ENDBRANCH   2   3
ENDBRANCH   1   2
BRANCH   1  15
ATOM     15  C   UNL d   1       7.020   0.668   1.245  0.00  0.00     0.209 C 
BRANCH  15  16
ATOM     16  O   UNL d   1       8.117   1.588   1.218  0.00  0.00    -0.349 OA
BRANCH  16  17
ATOM     17  C   UNL d   1       8.233   2.441   2.281  0.00  0.00     0.070 A 
ATOM     18  C   UNL d   1       7.330   2.568   3.338  0.00  0.00     0.062 A 
ATOM     19  C   UNL d   1       7.580   3.475   4.377  0.00  0.00     0.058 A 
ATOM     20 CL   UNL d   1       6.422   3.565   5.657  0.00  0.00    -0.082 Cl
ATOM     21  C   UNL d   1       8.735   4.266   4.357  0.00  0.00     0.056 A 
ATOM     22  C   UNL d   1       9.631   4.151   3.293  0.00  0.00     0.028 A 
ATOM     23 CL   UNL d   1       9.111   5.391   5.611  0.00  0.00    -0.083 Cl
ATOM     24  C   UNL d   1       9.376   3.244   2.260  0.00  0.00     0.038 A 
ENDBRANCH  16  17
ENDBRANCH  15  16
ENDBRANCH   1  15
BRANCH   1  25
ATOM     25  O   UNL d   1       8.279  -1.007  -0.020  0.00  0.00    -0.392 OA
ATOM     26  H   UNL d   1       8.379  -1.446   0.841  0.00  0.00     0.210 HD
ENDBRANCH   1  25
TORSDOF 8
