REMARK  1 active torsions:
REMARK  status: ('A' for Active; 'I' for Inactive)
REMARK    1  A    between atoms: S_7  and  C_2 
ROOT
ATOM      1  C   UNL d   1       0.528   0.056   0.026  0.00  0.00     0.078 A 
ATOM      2  C   UNL d   1      -0.201  -1.134   0.050  0.00  0.00     0.090 A 
ATOM      3  C   UNL d   1       1.960   0.094   0.025  0.00  0.00     0.102 C 
ATOM      4  N   UNL d   1       3.116   0.188   0.022  0.00  0.00    -0.191 NA
ATOM      5  N   UNL d   1      -1.560  -1.145   0.048  0.00  0.00    -0.359 N 
ATOM      6  HN  UNL d   1      -2.077  -2.025   0.069  1.00  0.00     0.166 HD
ATOM      7  C   UNL d   1      -0.177   1.267   0.000  0.00  0.00     0.027 A 
ATOM      8  C   UNL d   1      -2.208   0.038   0.019  0.00  0.00     0.089 A 
ATOM      9  C   UNL d   1      -1.567   1.261  -0.004  0.00  0.00     0.019 A 
ENDROOT
BRANCH   2  10
ATOM     10  S   UNL d   1       0.598  -2.738   0.078  0.00  0.00    -0.115 SA
ATOM     11  C   UNL d   1      -0.847  -3.836   0.114  0.00  0.00     0.097 C 
ENDBRANCH   2  10
TORSDOF 1
