REMARK  9 active torsions:
REMARK  status: ('A' for Active; 'I' for Inactive)
REMARK    1  A    between atoms: C_3  and  C_1 
REMARK    2  A    between atoms: C_18  and  N_2 
REMARK    3  A    between atoms: S_14  and  C_6 
REMARK    4  A    between atoms: C_17  and  S_14 
REMARK    5  A    between atoms: C_15  and  C_17 
REMARK    6  A    between atoms: C_16  and  C_15 
REMARK    7  A    between atoms: C_26  and  C_18 
REMARK    8  A    between atoms: C_29  and  C_26 
REMARK    9  A    between atoms: O_28  and  C_29 
ROOT
ATOM      1  C   UNL d   1      -0.211  -1.240   0.059  0.00  0.00     0.152 A 
ATOM      2  N   UNL d   1       1.085  -0.789  -0.094  0.00  0.00    -0.309 N 
ATOM      3  N   UNL d   1      -1.033  -0.210  -0.050  0.00  0.00    -0.281 N 
ATOM      4  HN  UNL d   1      -2.051  -0.253  -0.004  1.00  0.00     0.188 HD
ATOM      5  C   UNL d   1       0.978   0.573  -0.248  0.00  0.00     0.163 A 
ATOM      6  N   UNL d   1      -0.285   0.926  -0.236  0.00  0.00    -0.278 N 
ATOM      7  HN  UNL d   1      -0.647   1.874  -0.345  1.00  0.00     0.189 HD
ENDROOT
BRANCH   5   8
ATOM      8  S   UNL d   1       2.322   1.650  -0.438  0.00  0.00    -0.085 SA
BRANCH   8   9
ATOM      9  C   UNL d   1       1.483   3.266  -0.441  0.00  0.00     0.166 C 
BRANCH   9  10
ATOM     10  C   UNL d   1       2.448   4.426  -0.654  0.00  0.00     0.169 C 
ATOM     11  O   UNL d   1       3.662   4.290  -0.822  0.00  0.00    -0.291 OA
BRANCH  10  12
ATOM     12  C   UNL d   1       1.889   5.819  -0.653  0.00  0.00     0.011 A 
ATOM     13  C   UNL d   1       0.516   6.073  -0.528  0.00  0.00     0.017 A 
ATOM     14  C   UNL d   1       0.038   7.389  -0.503  0.00  0.00     0.025 A 
ATOM     15  C   UNL d   1       0.927   8.457  -0.605  0.00  0.00     0.034 A 
ATOM     16  C   UNL d   1       2.292   8.223  -0.747  0.00  0.00     0.025 A 
ATOM     17 CL   UNL d   1       0.332  10.070  -0.547  0.00  0.00    -0.084 Cl
ATOM     18  C   UNL d   1       2.771   6.907  -0.772  0.00  0.00     0.017 A 
ENDBRANCH  10  12
ENDBRANCH   9  10
ENDBRANCH   8   9
ENDBRANCH   5   8
BRANCH   2  19
ATOM     19  C   UNL d   1       2.296  -1.578  -0.014  0.00  0.00     0.135 C 
BRANCH  19  20
ATOM     20  C   UNL d   1       2.573  -2.506  -1.195  0.00  0.00     0.046 C 
BRANCH  20  21
ATOM     21  C   UNL d   1       2.618  -1.823  -2.554  0.00  0.00     0.168 C 
BRANCH  21  22
ATOM     22  O   UNL d   1       2.921  -2.836  -3.515  0.00  0.00    -0.396 OA
ATOM     23  C   UNL d   1       2.953  -2.327  -4.840  0.00  0.00     0.201 C 
ENDBRANCH  21  22
ENDBRANCH  20  21
ENDBRANCH  19  20
ENDBRANCH   2  19
BRANCH   1  24
ATOM     24  C   UNL d   1      -0.678  -2.640   0.308  0.00  0.00     0.085 A 
ATOM     25  N   UNL d   1       0.188  -3.710   0.454  0.00  0.00    -0.351 N 
ATOM     26  C   UNL d   1      -0.493  -4.825   0.620  0.00  0.00     0.047 A 
ATOM     27  HN  UNL d   1       1.206  -3.644   0.436  1.00  0.00     0.166 HD
ATOM     28  C   UNL d   1       0.119  -6.175   0.771  0.00  0.00     0.076 C 
ATOM     29  S   UNL d   1      -2.201  -4.644   0.672  0.00  0.00    -0.087 SA
ATOM     30  C   UNL d   1      -2.017  -2.960   0.415  0.00  0.00     0.084 A 
ENDBRANCH   1  24
TORSDOF 9
