REMARK  1 active torsions:
REMARK  status: ('A' for Active; 'I' for Inactive)
REMARK    1  A    between atoms: S_10  and  C_3 
ROOT
ATOM      1  N   UNL d   1      -0.806   1.278  -0.004  0.00  0.00    -0.300 N 
ATOM      2  HN  UNL d   1      -1.319   2.159  -0.006  1.00  0.00     0.171 HD
ATOM      3  C   UNL d   1      -1.415   0.144  -0.005  0.00  0.00     0.097 A 
ATOM      4  N   UNL d   1       0.591  -1.205   0.001  0.00  0.00    -0.299 N 
ATOM      5  HN  UNL d   1       1.127  -2.073   0.004  1.00  0.00     0.186 HD
ATOM      6  C   UNL d   1       0.561   1.245  -0.002  0.00  0.00     0.339 A 
ATOM      7  C   UNL d   1      -0.711  -1.198  -0.000  0.00  0.00     0.055 A 
ATOM      8  N   UNL d   1       1.193   0.018   0.000  0.00  0.00    -0.251 N 
ATOM      9  O   UNL d   1       1.239   2.268   0.000  0.00  0.00    -0.245 OA
ATOM     10  C   UNL d   1      -1.404  -2.538   0.003  0.00  0.00     0.072 C 
ATOM     11  H   UNL d   1       2.207   0.033   0.002  0.00  0.00     0.191 HD
ENDROOT
BRANCH   3  12
ATOM     12  S   UNL d   1      -3.131  -0.033  -0.011  0.00  0.00    -0.115 SA
ATOM     13  C   UNL d   1      -3.661   1.692  -0.017  0.00  0.00     0.097 C 
ENDBRANCH   3  12
TORSDOF 1
