REMARK  8 active torsions:
REMARK  status: ('A' for Active; 'I' for Inactive)
REMARK    1  A    between atoms: S_15  and  C_3 
REMARK    2  A    between atoms: C_8  and  C_4 
REMARK    3  A    between atoms: C_7  and  C_9 
REMARK    4  A    between atoms: O_18  and  C_8 
REMARK    5  A    between atoms: C_9  and  O_19 
REMARK    6  A    between atoms: C_25  and  S_15 
REMARK    7  A    between atoms: O_19  and  C_26 
REMARK    8  A    between atoms: C_26  and  C_25 
ROOT
ATOM      1  C   UNL d   1       0.068  -0.722   0.037  0.00  0.00     0.041 A 
ATOM      2  C   UNL d   1       0.424   0.687  -0.039  0.00  0.00    -0.018 A 
ATOM      3  C   UNL d   1       1.168  -1.553  -0.012  0.00  0.00     0.056 A 
ATOM      4  C   UNL d   1       1.797   0.869  -0.106  0.00  0.00     0.088 A 
ATOM      5  S   UNL d   1       2.615  -0.639  -0.106  0.00  0.00    -0.076 SA
ATOM      6  C   UNL d   1      -1.329  -1.111   0.186  0.00  0.00     0.162 C 
ATOM      7  C   UNL d   1      -0.641   1.776  -0.027  0.00  0.00     0.050 C 
ATOM      8  C   UNL d   1      -2.059   1.247   0.360  0.00  0.00    -0.037 C 
ATOM      9  C   UNL d   1      -2.317  -0.101  -0.341  0.00  0.00     0.093 C 
ATOM     10  O   UNL d   1      -1.712  -2.116   0.774  0.00  0.00    -0.292 OA
ATOM     11  C   UNL d   1      -3.148   2.234  -0.090  0.00  0.00     0.015 C 
ATOM     12  C   UNL d   1      -2.173   1.083   1.893  0.00  0.00     0.015 C 
ENDROOT
BRANCH   3  13
ATOM     13  S   UNL d   1       1.278  -3.313   0.053  0.00  0.00    -0.119 SA
BRANCH  13  14
ATOM     14  C   UNL d   1      -0.060  -3.875  -1.055  0.00  0.00     0.107 C 
BRANCH  14  15
ATOM     15  C   UNL d   1       0.001  -5.382  -1.282  0.00  0.00     0.189 C 
BRANCH  15  16
ATOM     16  O   UNL d   1       1.197  -5.756  -1.973  0.00  0.00    -0.317 OA
BRANCH  16  17
ATOM     17  C   UNL d   1       1.170  -5.642  -3.320  0.00  0.00     0.295 C 
ATOM     18  O   UNL d   1       0.239  -5.230  -3.993  0.00  0.00    -0.259 OA
BRANCH  17  19
ATOM     19  C   UNL d   1       2.521  -5.917  -3.856  0.00  0.00     0.061 A 
ATOM     20  C   UNL d   1       3.371  -6.914  -3.365  0.00  0.00     0.050 A 
ATOM     21 CL   UNL d   1       2.896  -8.097  -2.194  0.00  0.00    -0.083 Cl
ATOM     22  C   UNL d   1       4.673  -7.022  -3.869  0.00  0.00     0.025 A 
ATOM     23  C   UNL d   1       5.112  -6.169  -4.883  0.00  0.00     0.002 A 
ATOM     24  C   UNL d   1       4.250  -5.209  -5.407  0.00  0.00     0.001 A 
ATOM     25  C   UNL d   1       2.957  -5.080  -4.896  0.00  0.00     0.019 A 
ENDBRANCH  17  19
ENDBRANCH  16  17
ENDBRANCH  15  16
ENDBRANCH  14  15
ENDBRANCH  13  14
ENDBRANCH   3  13
BRANCH   4  26
ATOM     26  C   UNL d   1       2.543   2.133  -0.161  0.00  0.00     0.300 C 
ATOM     27  O   UNL d   1       2.032   3.245  -0.201  0.00  0.00    -0.259 OA
BRANCH  26  28
ATOM     28  O   UNL d   1       3.892   1.919  -0.160  0.00  0.00    -0.322 OA
ATOM     29  C   UNL d   1       4.699   3.098  -0.199  0.00  0.00     0.213 C 
ENDBRANCH  26  28
ENDBRANCH   4  26
TORSDOF 8
