REMARK  3 active torsions:
REMARK  status: ('A' for Active; 'I' for Inactive)
REMARK    1  A    between atoms: C_12  and  C_1 
REMARK    2  A    between atoms: N_13  and  C_2 
REMARK    3  A    between atoms: C_14  and  C_8 
ROOT
ATOM      1  C   UNL d   1      -2.374  -0.703   0.006  0.00  0.00     0.079 A 
ATOM      2  C   UNL d   1      -1.287  -1.565   0.009  0.00  0.00     0.061 A 
ATOM      3  C   UNL d   1      -0.214   0.487   0.009  0.00  0.00     0.091 A 
ATOM      4  C   UNL d   1      -0.019  -0.884  -0.008  0.00  0.00     0.048 A 
ATOM      5  S   UNL d   1      -1.855   0.925   0.038  0.00  0.00    -0.066 SA
ATOM      6  N   UNL d   1       0.730   1.443   0.002  0.00  0.00    -0.335 N 
ATOM      7  HN  UNL d   1       0.518   2.441   0.021  1.00  0.00     0.168 HD
ATOM      8  C   UNL d   1       1.975   0.956  -0.034  0.00  0.00     0.116 A 
ATOM      9  N   UNL d   1       2.298  -0.353  -0.048  0.00  0.00    -0.345 N 
ATOM     10  HN  UNL d   1       3.279  -0.634  -0.072  1.00  0.00     0.167 HD
ATOM     11  C   UNL d   1       1.325  -1.299  -0.030  0.00  0.00     0.022 A 
ATOM     12  C   UNL d   1       1.794  -2.720  -0.043  0.00  0.00     0.069 C 
ENDROOT
BRANCH   8  13
ATOM     13  C   UNL d   1       3.098   1.916  -0.083  0.00  0.00     0.008 A 
ATOM     14  C   UNL d   1       2.896   3.305   0.024  0.00  0.00     0.015 A 
ATOM     15  C   UNL d   1       3.967   4.205  -0.041  0.00  0.00     0.001 A 
ATOM     16  C   UNL d   1       5.266   3.734  -0.215  0.00  0.00     0.000 A 
ATOM     17  C   UNL d   1       5.497   2.367  -0.318  0.00  0.00     0.001 A 
ATOM     18  C   UNL d   1       4.425   1.472  -0.251  0.00  0.00     0.015 A 
ENDBRANCH   8  13
BRANCH   1  19
ATOM     19  C   UNL d   1      -3.792  -1.067   0.011  0.00  0.00     0.164 C 
ATOM     20  O   UNL d   1      -4.168  -2.206   0.300  0.00  0.00    -0.292 OA
ATOM     21  C   UNL d   1      -4.845  -0.062  -0.405  0.00  0.00     0.097 C 
ENDBRANCH   1  19
BRANCH   2  22
ATOM     22  N   UNL d   1      -1.431  -2.910   0.004  0.00  0.00    -0.397 N 
ATOM     23  H   UNL d   1      -2.346  -3.329   0.200  0.00  0.00     0.156 HD
ATOM     24  H   UNL d   1      -0.668  -3.572   0.072  0.00  0.00     0.156 HD
ENDBRANCH   2  22
TORSDOF 3
