REMARK  3 active torsions:
REMARK  status: ('A' for Active; 'I' for Inactive)
REMARK    1  A    between atoms: C_7  and  C_1 
REMARK    2  A    between atoms: C_8  and  C_4 
REMARK    3  A    between atoms: N_19  and  C_5 
ROOT
ATOM      1  C   UNL d   1      -0.344   1.307  -0.301  0.00  0.00     0.121 C 
ATOM      2  C   UNL d   1       0.960   1.121  -0.030  0.00  0.00     0.072 C 
ATOM      3  C   UNL d   1       0.463  -1.358  -0.062  0.00  0.00     0.081 C 
ATOM      4  C   UNL d   1       1.468  -0.272   0.282  0.00  0.00     0.116 C 
ATOM      5  C   UNL d   1      -0.816  -1.053  -0.368  0.00  0.00     0.138 C 
ATOM      6  O   UNL d   1      -1.259   0.269  -0.375  0.00  0.00    -0.294 OA
ATOM      7  C   UNL d   1       1.905   2.189  -0.078  0.00  0.00     0.099 C 
ATOM      8  C   UNL d   1       0.936  -2.704  -0.129  0.00  0.00     0.100 C 
ATOM      9  N   UNL d   1       2.711   3.018  -0.168  0.00  0.00    -0.192 NA
ATOM     10  N   UNL d   1       1.337  -3.790  -0.178  0.00  0.00    -0.191 NA
ENDROOT
BRANCH   1  11
ATOM     11  C   UNL d   1      -0.915   2.601  -0.387  0.00  0.00     0.069 A 
ATOM     12  N   UNL d   1      -1.014   3.285  -1.576  0.00  0.00    -0.359 N 
ATOM     13  C   UNL d   1      -1.510   4.545  -1.332  0.00  0.00     0.091 A 
ATOM     14  C   UNL d   1      -0.641   2.836  -2.901  0.00  0.00     0.156 C 
ATOM     15  C   UNL d   1      -1.770   4.656   0.014  0.00  0.00     0.020 A 
ATOM     16  C   UNL d   1      -1.413   3.426   0.608  0.00  0.00     0.034 A 
ENDBRANCH   1  11
BRANCH   4  17
ATOM     17  C   UNL d   1       2.009  -0.386   1.721  0.00  0.00    -0.000 A 
ATOM     18  C   UNL d   1       1.198  -0.204   2.871  0.00  0.00     0.043 A 
ATOM     19 CL   UNL d   1      -0.498   0.117   2.813  0.00  0.00    -0.084 Cl
ATOM     20  C   UNL d   1       1.732  -0.281   4.165  0.00  0.00     0.024 A 
ATOM     21  C   UNL d   1       3.078  -0.549   4.360  0.00  0.00     0.003 A 
ATOM     22  C   UNL d   1       3.898  -0.747   3.254  0.00  0.00     0.024 A 
ATOM     23  C   UNL d   1       3.375  -0.666   1.956  0.00  0.00     0.043 A 
ATOM     24 CL   UNL d   1       4.507  -0.934   0.673  0.00  0.00    -0.084 Cl
ENDBRANCH   4  17
BRANCH   5  25
ATOM     25  N   UNL d   1      -1.805  -1.958  -0.678  0.00  0.00    -0.282 NA
ATOM     26  H   UNL d   1      -1.659  -2.902  -0.328  0.00  0.00     0.126 HD
ATOM     27  H   UNL d   1      -2.728  -1.597  -0.444  0.00  0.00     0.126 HD
ENDBRANCH   5  25
TORSDOF 3
