REMARK  5 active torsions:
REMARK  status: ('A' for Active; 'I' for Inactive)
REMARK    1  A    between atoms: S_5  and  C_2 
REMARK    2  A    between atoms: N_17  and  C_3 
REMARK    3  A    between atoms: C_13  and  S_5 
REMARK    4  A    between atoms: S_18  and  C_10 
REMARK    5  A    between atoms: C_16  and  C_12 
ROOT
ATOM      1  N   UNL d   1      -0.238  -0.665   0.049  0.00  0.00    -0.227 N 
ATOM      2  C   UNL d   1       2.139  -0.869   0.013  0.00  0.00     0.137 A 
ATOM      3  C   UNL d   1       0.923  -1.478   0.020  0.00  0.00     0.127 A 
ATOM      4  C   UNL d   1      -0.158   0.715   0.077  0.00  0.00     0.131 A 
ATOM      5  N   UNL d   1       1.032   1.363   0.133  0.00  0.00    -0.334 N 
ATOM      6  HN  UNL d   1       1.081   2.380   0.189  1.00  0.00     0.168 HD
ATOM      7  N   UNL d   1      -1.528  -1.093   0.000  0.00  0.00    -0.290 N 
ATOM      8  HN  UNL d   1      -1.857  -2.058  -0.032  1.00  0.00     0.187 HD
ATOM      9  C   UNL d   1       2.111   0.632   0.113  0.00  0.00     0.096 A 
ATOM     10  C   UNL d   1      -1.453   1.173   0.046  0.00  0.00     0.082 A 
ATOM     11  C   UNL d   1      -2.276   0.021   0.004  0.00  0.00     0.062 A 
ENDROOT
BRANCH   2  12
ATOM     12  S   UNL d   1       3.558  -1.849  -0.123  0.00  0.00     0.212 S 
ATOM     13  O   UNL d   1       3.235  -3.103  -0.795  0.00  0.00    -0.217 OA
ATOM     14  O   UNL d   1       4.699  -1.105  -0.623  0.00  0.00    -0.217 OA
BRANCH  12  15
ATOM     15  C   UNL d   1       3.926  -2.288   1.574  0.00  0.00     0.064 A 
ATOM     16  C   UNL d   1       3.268  -3.375   2.165  0.00  0.00     0.025 A 
ATOM     17  C   UNL d   1       3.592  -3.759   3.467  0.00  0.00     0.025 A 
ATOM     18  C   UNL d   1       4.584  -3.071   4.166  0.00  0.00     0.034 A 
ATOM     19  C   UNL d   1       5.258  -2.005   3.569  0.00  0.00     0.025 A 
ATOM     20 CL   UNL d   1       4.989  -3.551   5.767  0.00  0.00    -0.084 Cl
ATOM     21  C   UNL d   1       4.935  -1.612   2.268  0.00  0.00     0.025 A 
ENDBRANCH  12  15
ENDBRANCH   2  12
BRANCH   3  22
ATOM     22  N   UNL d   1       0.669  -2.854  -0.025  0.00  0.00    -0.286 NA
ATOM     23  H   UNL d   1       1.337  -3.381  -0.602  0.00  0.00     0.125 HD
ATOM     24  H   UNL d   1      -0.303  -3.044  -0.296  0.00  0.00     0.125 HD
ENDBRANCH   3  22
BRANCH   9  25
ATOM     25  S   UNL d   1       3.622   1.512   0.279  0.00  0.00    -0.115 SA
ATOM     26  C   UNL d   1       3.054   3.231   0.215  0.00  0.00     0.097 C 
ENDBRANCH   9  25
BRANCH  11  27
ATOM     27  C   UNL d   1      -3.743  -0.050  -0.036  0.00  0.00    -0.008 A 
ATOM     28  C   UNL d   1      -4.394  -1.295  -0.019  0.00  0.00     0.015 A 
ATOM     29  C   UNL d   1      -5.789  -1.380  -0.058  0.00  0.00     0.024 A 
ATOM     30  C   UNL d   1      -6.548  -0.216  -0.115  0.00  0.00     0.034 A 
ATOM     31  C   UNL d   1      -5.926   1.029  -0.131  0.00  0.00     0.024 A 
ATOM     32 CL   UNL d   1      -8.265  -0.316  -0.166  0.00  0.00    -0.084 Cl
ATOM     33  C   UNL d   1      -4.529   1.113  -0.092  0.00  0.00     0.015 A 
ENDBRANCH  11  27
TORSDOF 5
