REMARK  5 active torsions:
REMARK  status: ('A' for Active; 'I' for Inactive)
REMARK    1  A    between atoms: S_5  and  C_1 
REMARK    2  A    between atoms: C_7  and  C_3 
REMARK    3  A    between atoms: C_8  and  C_4 
REMARK    4  A    between atoms: O_14  and  C_7 
REMARK    5  A    between atoms: C_16  and  O_14 
ROOT
ATOM      1  C   UNL d   1       0.317  -0.961  -0.021  0.00  0.00     0.111 A 
ATOM      2  S   UNL d   1      -1.257  -0.298   0.012  0.00  0.00    -0.071 SA
ATOM      3  C   UNL d   1      -0.702   1.313  -0.000  0.00  0.00     0.088 A 
ATOM      4  C   UNL d   1       1.275   0.043  -0.078  0.00  0.00    -0.001 A 
ATOM      5  C   UNL d   1       0.688   1.369  -0.036  0.00  0.00    -0.026 A 
ATOM      6  C   UNL d   1       1.454   2.664  -0.004  0.00  0.00     0.050 C 
ENDROOT
BRANCH   3   7
ATOM      7  C   UNL d   1      -1.623   2.442   0.061  0.00  0.00     0.300 C 
ATOM      8  O   UNL d   1      -1.286   3.623   0.038  0.00  0.00    -0.259 OA
BRANCH   7   9
ATOM      9  O   UNL d   1      -2.914   2.030   0.234  0.00  0.00    -0.317 OA
BRANCH   9  10
ATOM     10  C   UNL d   1      -3.820   3.046   0.685  0.00  0.00     0.174 C 
ATOM     11  C   UNL d   1      -3.812   3.038   2.203  0.00  0.00     0.034 C 
ENDBRANCH   9  10
ENDBRANCH   7   9
ENDBRANCH   3   7
BRANCH   1  12
ATOM     12  S   UNL d   1       0.406  -2.748  -0.010  0.00  0.00     0.179 S 
ATOM     13  O   UNL d   1       1.057  -3.101  -1.256  0.00  0.00    -0.222 OA
ATOM     14  O   UNL d   1       0.982  -3.090   1.280  0.00  0.00    -0.222 OA
ATOM     15  C   UNL d   1      -1.237  -3.410  -0.039  0.00  0.00     0.167 C 
ENDBRANCH   1  12
BRANCH   4  16
ATOM     16  C   UNL d   1       2.693  -0.157  -0.198  0.00  0.00     0.004 C 
ATOM     17  C   UNL d   1       3.451  -1.090   0.390  0.00  0.00     0.012 C 
ENDBRANCH   4  16
TORSDOF 5
