REMARK  10 active torsions:
REMARK  status: ('A' for Active; 'I' for Inactive)
REMARK    1  A    between atoms: C_10  and  N_1 
REMARK    2  A    between atoms: C_12  and  C_2 
REMARK    3  A    between atoms: S_9  and  C_5 
REMARK    4  A    between atoms: C_8  and  C_11 
REMARK    5  A    between atoms: C_16  and  S_9 
REMARK    6  A    between atoms: C_21  and  C_10 
REMARK    7  A    between atoms: C_14  and  C_15 
REMARK    8  A    between atoms: C_15  and  C_16 
REMARK    9  A    between atoms: O_28  and  C_21 
REMARK   10  A    between atoms: O_29  and  C_21 
ROOT
ATOM      1  N   UNL d   1      -0.223  -1.111  -0.177  0.00  0.00    -0.306 N 
ATOM      2  C   UNL d   1       0.990  -0.443  -0.367  0.00  0.00     0.134 A 
ATOM      3  N   UNL d   1       0.746   0.857  -0.321  0.00  0.00    -0.283 N 
ATOM      4  HN  UNL d   1       1.429   1.595  -0.496  1.00  0.00     0.188 HD
ATOM      5  C   UNL d   1      -1.133  -0.124   0.113  0.00  0.00     0.163 A 
ATOM      6  N   UNL d   1      -0.572   1.054   0.001  0.00  0.00    -0.278 N 
ATOM      7  HN  UNL d   1      -1.032   1.955   0.129  1.00  0.00     0.189 HD
ENDROOT
BRANCH   5   8
ATOM      8  S   UNL d   1      -2.761  -0.402   0.605  0.00  0.00    -0.085 SA
BRANCH   8   9
ATOM      9  C   UNL d   1      -3.292   1.197   1.281  0.00  0.00     0.166 C 
BRANCH   9  10
ATOM     10  C   UNL d   1      -4.749   1.112   1.744  0.00  0.00     0.169 C 
ATOM     11  O   UNL d   1      -5.484   0.160   1.496  0.00  0.00    -0.291 OA
BRANCH  10  12
ATOM     12  C   UNL d   1      -5.327   2.249   2.535  0.00  0.00     0.011 A 
ATOM     13  C   UNL d   1      -4.589   3.385   2.894  0.00  0.00     0.031 A 
ATOM     14  C   UNL d   1      -5.177   4.404   3.673  0.00  0.00     0.048 A 
ATOM     15  C   UNL d   1      -6.517   4.278   4.071  0.00  0.00     0.016 A 
ATOM     16  C   UNL d   1      -7.259   3.159   3.706  0.00  0.00     0.002 A 
ATOM     17  C   UNL d   1      -6.666   2.149   2.949  0.00  0.00     0.015 A 
BRANCH  14  18
ATOM     18  C   UNL d   1      -4.386   5.615   4.106  0.00  0.00     0.417 C 
ATOM     19  F   UNL d   1      -3.102   5.613   3.652  0.00  0.00    -0.166 F 
ATOM     20  F   UNL d   1      -4.936   6.782   3.672  0.00  0.00    -0.166 F 
ATOM     21  F   UNL d   1      -4.300   5.722   5.460  0.00  0.00    -0.166 F 
ENDBRANCH  14  18
ENDBRANCH  10  12
ENDBRANCH   9  10
ENDBRANCH   8   9
ENDBRANCH   5   8
BRANCH   1  22
ATOM     22  C   UNL d   1      -0.369  -2.552  -0.124  0.00  0.00     0.193 C 
BRANCH  22  23
ATOM     23  C   UNL d   1      -1.674  -3.257  -0.538  0.00  0.00     0.276 C 
BRANCH  23  24
ATOM     24  O   UNL d   1      -1.882  -3.029  -1.934  0.00  0.00    -0.364 OA
ATOM     25  C   UNL d   1      -3.150  -3.511  -2.365  0.00  0.00     0.204 C 
ENDBRANCH  23  24
BRANCH  23  26
ATOM     26  O   UNL d   1      -1.550  -4.672  -0.309  0.00  0.00    -0.364 OA
ATOM     27  C   UNL d   1      -1.501  -5.028   1.067  0.00  0.00     0.204 C 
ENDBRANCH  23  26
ENDBRANCH  22  23
ENDBRANCH   1  22
BRANCH   2  28
ATOM     28  C   UNL d   1       2.325  -1.027  -0.613  0.00  0.00     0.010 A 
ATOM     29  C   UNL d   1       3.219  -0.356  -1.465  0.00  0.00     0.017 A 
ATOM     30  C   UNL d   1       4.469  -0.905  -1.783  0.00  0.00     0.025 A 
ATOM     31  C   UNL d   1       4.843  -2.132  -1.247  0.00  0.00     0.034 A 
ATOM     32  C   UNL d   1       4.003  -2.785  -0.352  0.00  0.00     0.025 A 
ATOM     33 CL   UNL d   1       6.343  -2.848  -1.688  0.00  0.00    -0.084 Cl
ATOM     34  C   UNL d   1       2.766  -2.220  -0.017  0.00  0.00     0.017 A 
ENDBRANCH   2  28
TORSDOF 10
