REMARK  6 active torsions:
REMARK  status: ('A' for Active; 'I' for Inactive)
REMARK    1  A    between atoms: C_4  and  S_1 
REMARK    2  A    between atoms: O_5  and  S_1 
REMARK    3  A    between atoms: S_2  and  C_3 
REMARK    4  A    between atoms: O_6  and  S_2 
REMARK    5  A    between atoms: C_14  and  O_5 
REMARK    6  A    between atoms: C_15  and  O_6 
ROOT
ATOM      1  C   UNL d   1      -0.883  -3.090   1.763  0.00  0.00     0.088 A 
ATOM      2  C   UNL d   1       0.491  -1.641   0.421  0.00  0.00     0.088 A 
ATOM      3  C   UNL d   1      -0.526  -1.798   1.366  0.00  0.00     0.051 A 
ATOM      4  C   UNL d   1      -0.232  -4.210   1.231  0.00  0.00     0.026 A 
ATOM      5  C   UNL d   1       1.138  -2.754  -0.129  0.00  0.00     0.026 A 
ATOM      6  C   UNL d   1       0.776  -4.038   0.281  0.00  0.00     0.003 A 
ENDROOT
BRANCH   1   7
ATOM      7  S   UNL d   1      -2.083  -3.312   3.061  0.00  0.00     0.303 S 
ATOM      8  O   UNL d   1      -1.762  -4.572   3.705  0.00  0.00    -0.193 OA
ATOM      9  O   UNL d   1      -2.095  -2.077   3.824  0.00  0.00    -0.193 OA
BRANCH   7  10
ATOM     10  O   UNL d   1      -3.503  -3.465   2.268  0.00  0.00    -0.229 OA
BRANCH  10  11
ATOM     11  C   UNL d   1      -4.688  -3.639   2.945  0.00  0.00     0.090 A 
ATOM     12  C   UNL d   1      -4.801  -3.774   4.330  0.00  0.00     0.046 A 
ATOM     13  C   UNL d   1      -6.052  -3.950   4.947  0.00  0.00    -0.038 A 
ATOM     14  C   UNL d   1      -6.111  -4.093   6.443  0.00  0.00     0.050 C 
ATOM     15  C   UNL d   1      -7.199  -3.976   4.145  0.00  0.00     0.040 A 
ATOM     16  C   UNL d   1      -7.093  -3.847   2.757  0.00  0.00     0.027 A 
ATOM     17 CL   UNL d   1      -8.774  -4.164   4.827  0.00  0.00    -0.084 Cl
ATOM     18  C   UNL d   1      -5.840  -3.683   2.159  0.00  0.00     0.040 A 
ENDBRANCH  10  11
ENDBRANCH   7  10
ENDBRANCH   1   7
BRANCH   2  19
ATOM     19  S   UNL d   1       0.902  -0.009  -0.168  0.00  0.00     0.303 S 
ATOM     20  O   UNL d   1      -0.272   0.814   0.046  0.00  0.00    -0.193 OA
ATOM     21  O   UNL d   1       1.451  -0.181  -1.502  0.00  0.00    -0.193 OA
BRANCH  19  22
ATOM     22  O   UNL d   1       2.088   0.478   0.841  0.00  0.00    -0.229 OA
BRANCH  22  23
ATOM     23  C   UNL d   1       2.729   1.683   0.682  0.00  0.00     0.090 A 
ATOM     24  C   UNL d   1       2.439   2.622  -0.312  0.00  0.00     0.046 A 
ATOM     25  C   UNL d   1       3.162   3.825  -0.409  0.00  0.00    -0.038 A 
ATOM     26  C   UNL d   1       2.825   4.794  -1.509  0.00  0.00     0.050 C 
ATOM     27  C   UNL d   1       4.181   4.077   0.520  0.00  0.00     0.040 A 
ATOM     28  C   UNL d   1       4.469   3.145   1.522  0.00  0.00     0.027 A 
ATOM     29 CL   UNL d   1       5.112   5.530   0.469  0.00  0.00    -0.084 Cl
ATOM     30  C   UNL d   1       3.746   1.953   1.601  0.00  0.00     0.040 A 
ENDBRANCH  22  23
ENDBRANCH  19  22
ENDBRANCH   2  19
TORSDOF 6
