REMARK  4 active torsions:
REMARK  status: ('A' for Active; 'I' for Inactive)
REMARK    1  A    between atoms: C_3  and  C_1 
REMARK    2  A    between atoms: C_4  and  C_2 
REMARK       I    between atoms: N_13  and  C_3 
REMARK    3  A    between atoms: O_14  and  C_4 
REMARK    4  A    between atoms: C_15  and  O_14 
ROOT
ATOM      1  C   UNL d   1      -1.304   0.004   0.009  0.00  0.00     0.041 C 
ATOM      2  C   UNL d   1       1.325   0.014  -0.009  0.00  0.00     0.048 C 
ATOM      3  C   UNL d   1       0.788   1.423  -0.309  0.00  0.00     0.021 C 
ATOM      4  C   UNL d   1      -0.750   1.417  -0.301  0.00  0.00     0.020 C 
ATOM      5  C   UNL d   1      -0.748  -0.436   1.381  0.00  0.00     0.020 C 
ATOM      6  C   UNL d   1      -0.765  -0.961  -1.067  0.00  0.00     0.020 C 
ATOM      7  C   UNL d   1       0.786  -0.433   1.370  0.00  0.00     0.021 C 
ATOM      8  C   UNL d   1       0.766  -0.956  -1.074  0.00  0.00     0.021 C 
ENDROOT
BRANCH   1   9
ATOM      9  C   UNL d   1      -2.835   0.009   0.009  0.00  0.00     0.224 C 
ATOM     10  O   UNL d   1      -3.516   1.001  -0.222  0.00  0.00    -0.273 OA
ATOM     11  N   UNL d   1      -3.443  -1.183   0.279  0.00  0.00    -0.369 N 
ATOM     12  H   UNL d   1      -2.946  -2.046   0.440  0.00  0.00     0.159 HD
ATOM     13  H   UNL d   1      -4.455  -1.203   0.259  0.00  0.00     0.159 HD
ENDBRANCH   1   9
BRANCH   2  14
ATOM     14  C   UNL d   1       2.848  -0.041  -0.019  0.00  0.00     0.267 C 
ATOM     15  O   UNL d   1       3.506  -0.780  -0.745  0.00  0.00    -0.264 OA
BRANCH  14  16
ATOM     16  O   UNL d   1       3.371   0.741   0.964  0.00  0.00    -0.321 OA
BRANCH  16  17
ATOM     17  C   UNL d   1       4.686   0.363   1.394  0.00  0.00     0.174 C 
ATOM     18  C   UNL d   1       4.532  -0.702   2.466  0.00  0.00     0.034 C 
ENDBRANCH  16  17
ENDBRANCH  14  16
ENDBRANCH   2  14
TORSDOF 4
