REMARK  8 active torsions:
REMARK  status: ('A' for Active; 'I' for Inactive)
REMARK    1  A    between atoms: C_12  and  C_1 
REMARK    2  A    between atoms: C_13  and  C_2 
REMARK    3  A    between atoms: C_3  and  C_11 
REMARK    4  A    between atoms: C_11  and  C_4 
REMARK    5  A    between atoms: O_17  and  C_12 
REMARK    6  A    between atoms: O_16  and  C_13 
REMARK    7  A    between atoms: C_22  and  O_16 
REMARK    8  A    between atoms: C_23  and  O_17 
ROOT
ATOM      1  C   UNL d   1      -1.492   2.457   0.074  0.00  0.00     0.115 C 
ENDROOT
BRANCH   1   2
ATOM      2  C   UNL d   1      -2.988   2.498  -0.005  0.00  0.00     0.022 A 
ATOM      3  N   UNL d   1      -3.631   2.655  -1.204  0.00  0.00    -0.353 N 
ATOM      4  C   UNL d   1      -4.990   2.751  -1.016  0.00  0.00     0.115 A 
ATOM      5  H   UNL d   1      -3.182   2.749  -2.107  0.00  0.00     0.166 HD
ATOM      6  C   UNL d   1      -5.230   2.579   0.347  0.00  0.00    -0.021 A 
ATOM      7  C   UNL d   1      -3.952   2.416   0.986  0.00  0.00    -0.031 A 
ATOM      8  C   UNL d   1      -6.564   2.609   1.017  0.00  0.00     0.051 C 
ATOM      9  C   UNL d   1      -3.671   2.229   2.439  0.00  0.00     0.051 C 
BRANCH   4  10
ATOM     10  C   UNL d   1      -5.859   3.049  -2.134  0.00  0.00     0.310 C 
ATOM     11  O   UNL d   1      -5.466   3.224  -3.280  0.00  0.00    -0.258 OA
BRANCH  10  12
ATOM     12  O   UNL d   1      -7.141   3.206  -1.712  0.00  0.00    -0.317 OA
BRANCH  12  13
ATOM     13  C   UNL d   1      -7.997   3.941  -2.591  0.00  0.00     0.175 C 
ATOM     14  C   UNL d   1      -7.850   5.418  -2.269  0.00  0.00     0.034 C 
ENDBRANCH  12  13
ENDBRANCH  10  12
ENDBRANCH   4  10
ENDBRANCH   1   2
BRANCH   1  15
ATOM     15  C   UNL d   1      -0.914   1.076   0.068  0.00  0.00     0.022 A 
ATOM     16  N   UNL d   1      -1.685  -0.054   0.013  0.00  0.00    -0.353 N 
ATOM     17  C   UNL d   1      -0.906  -1.187  -0.028  0.00  0.00     0.115 A 
ATOM     18  H   UNL d   1      -2.697  -0.070  -0.035  0.00  0.00     0.166 HD
ATOM     19  C   UNL d   1       0.417  -0.768   0.069  0.00  0.00    -0.021 A 
ATOM     20  C   UNL d   1       0.409   0.668   0.110  0.00  0.00    -0.031 A 
ATOM     21  C   UNL d   1       1.640  -1.623   0.086  0.00  0.00     0.051 C 
ATOM     22  C   UNL d   1       1.593   1.571   0.169  0.00  0.00     0.051 C 
BRANCH  17  23
ATOM     23  C   UNL d   1      -1.467  -2.510  -0.199  0.00  0.00     0.310 C 
ATOM     24  O   UNL d   1      -0.846  -3.560  -0.285  0.00  0.00    -0.258 OA
BRANCH  23  25
ATOM     25  O   UNL d   1      -2.818  -2.391  -0.358  0.00  0.00    -0.317 OA
BRANCH  25  26
ATOM     26  C   UNL d   1      -3.466  -3.513  -0.970  0.00  0.00     0.175 C 
ATOM     27  C   UNL d   1      -3.395  -3.336  -2.476  0.00  0.00     0.034 C 
ENDBRANCH  25  26
ENDBRANCH  23  25
ENDBRANCH  17  23
ENDBRANCH   1  15
TORSDOF 8
