REMARK  5 active torsions:
REMARK  status: ('A' for Active; 'I' for Inactive)
REMARK    1  A    between atoms: C_6  and  C_1 
REMARK    2  A    between atoms: C_19  and  N_2 
REMARK    3  A    between atoms: S_9  and  C_6 
REMARK    4  A    between atoms: C_8  and  C_10 
REMARK    5  A    between atoms: C_18  and  S_9 
ROOT
ATOM      1  C   UNL d   1      -0.427  -2.644   0.146  0.00  0.00     0.243 C 
ATOM      2  O   UNL d   1       0.314  -3.527  -0.264  0.00  0.00    -0.278 OA
ENDROOT
BRANCH   1   3
ATOM      3  C   UNL d   1      -0.098  -1.228   0.108  0.00  0.00     0.127 C 
ATOM      4  N   UNL d   1       1.148  -0.756  -0.279  0.00  0.00    -0.287 N 
ATOM      5  N   UNL d   1       1.169   0.565  -0.549  0.00  0.00    -0.301 N 
ATOM      6  C   UNL d   1       0.018   1.018  -0.059  0.00  0.00     0.042 C 
ATOM      7  HN  UNL d   1       1.901   1.096  -1.022  1.00  0.00     0.187 HD
ATOM      8  C   UNL d   1      -0.778  -0.052   0.410  0.00  0.00     0.067 C 
ATOM      9  C   UNL d   1      -0.240   2.480  -0.049  0.00  0.00     0.071 C 
ATOM     10 BR   UNL d   1      -2.437   0.256   1.243  0.00  0.00    -0.046 Br
BRANCH   4  11
ATOM     11  C   UNL d   1       2.439  -1.429  -0.257  0.00  0.00     0.145 C 
ATOM     12  C   UNL d   1       3.327  -0.872   0.851  0.00  0.00     0.028 C 
ENDBRANCH   4  11
ENDBRANCH   1   3
BRANCH   1  13
ATOM     13  S   UNL d   1      -2.001  -3.070   0.811  0.00  0.00    -0.046 SA
BRANCH  13  14
ATOM     14  C   UNL d   1      -2.370  -4.628   0.037  0.00  0.00     0.008 A 
ATOM     15  C   UNL d   1      -1.940  -5.824   0.619  0.00  0.00     0.020 A 
ATOM     16  C   UNL d   1      -2.341  -7.056   0.090  0.00  0.00     0.017 A 
ATOM     17  C   UNL d   1      -3.187  -7.114  -1.026  0.00  0.00     0.048 A 
ATOM     18  C   UNL d   1      -3.600  -5.911  -1.622  0.00  0.00     0.017 A 
ATOM     19  C   UNL d   1      -3.199  -4.679  -1.089  0.00  0.00     0.020 A 
BRANCH  17  20
ATOM     20  C   UNL d   1      -3.669  -8.436  -1.577  0.00  0.00     0.417 C 
ATOM     21  F   UNL d   1      -3.275  -9.510  -0.838  0.00  0.00    -0.166 F 
ATOM     22  F   UNL d   1      -5.028  -8.505  -1.639  0.00  0.00    -0.166 F 
ATOM     23  F   UNL d   1      -3.224  -8.668  -2.842  0.00  0.00    -0.166 F 
ENDBRANCH  17  20
ENDBRANCH  13  14
ENDBRANCH   1  13
TORSDOF 5
