REMARK  4 active torsions:
REMARK  status: ('A' for Active; 'I' for Inactive)
REMARK    1  A    between atoms: C_9  and  C_4 
REMARK    2  A    between atoms: S_16  and  C_6 
REMARK       I    between atoms: N_14  and  C_9 
REMARK    3  A    between atoms: C_11  and  C_15 
REMARK    4  A    between atoms: C_18  and  N_14 
ROOT
ATOM      1  S   UNL d   1      -1.347  -2.333   0.493  0.00  0.00     0.267 S 
ATOM      2  C   UNL d   1      -1.983  -0.741   0.303  0.00  0.00     0.116 C 
ATOM      3  C   UNL d   1      -1.042   0.357   0.340  0.00  0.00     0.024 C 
ATOM      4  C   UNL d   1      -1.640   1.545  -0.096  0.00  0.00     0.086 C 
ATOM      5  N   UNL d   1       0.229  -2.205  -0.086  0.00  0.00    -0.275 N 
ATOM      6  C   UNL d   1      -3.287  -0.363   0.105  0.00  0.00     0.066 C 
ATOM      7  S   UNL d   1      -3.344   1.309  -0.279  0.00  0.00    -0.075 SA
ATOM      8  C   UNL d   1       0.380   0.142   0.701  0.00  0.00     0.005 A 
ATOM      9  C   UNL d   1       1.003  -1.108   0.430  0.00  0.00     0.056 A 
ATOM     10  O   UNL d   1      -2.114  -3.165  -0.407  0.00  0.00    -0.200 OA
ATOM     11  O   UNL d   1      -1.338  -2.530   1.925  0.00  0.00    -0.200 OA
ATOM     12  C   UNL d   1       0.751  -3.200  -1.018  0.00  0.00     0.170 C 
ATOM     13  C   UNL d   1       1.096   1.081   1.453  0.00  0.00     0.014 A 
ATOM     14  C   UNL d   1       2.346  -1.317   0.771  0.00  0.00     0.031 A 
ATOM     15  C   UNL d   1       2.426   0.849   1.818  0.00  0.00     0.001 A 
ATOM     16  C   UNL d   1       3.058  -0.334   1.453  0.00  0.00     0.002 A 
ENDROOT
BRANCH   4  17
ATOM     17  C   UNL d   1      -1.068   2.877  -0.406  0.00  0.00     0.264 C 
ATOM     18  N   UNL d   1      -1.971   3.847  -0.840  0.00  0.00    -0.322 N 
ATOM     19  H   UNL d   1      -2.930   3.536  -0.944  0.00  0.00     0.169 HD
ATOM     20  O   UNL d   1       0.136   3.105  -0.292  0.00  0.00    -0.267 OA
BRANCH  18  21
ATOM     21  C   UNL d   1      -1.734   5.227  -1.076  0.00  0.00     0.035 A 
ATOM     22  C   UNL d   1      -0.484   5.841  -0.954  0.00  0.00     0.045 A 
ATOM     23  C   UNL d   1      -0.337   7.237  -1.081  0.00  0.00     0.050 A 
ATOM     24  C   UNL d   1      -1.459   8.020  -1.382  0.00  0.00     0.016 A 
ATOM     25  C   UNL d   1      -2.702   7.415  -1.554  0.00  0.00     0.003 A 
ATOM     26  C   UNL d   1      -2.837   6.030  -1.401  0.00  0.00     0.029 A 
BRANCH  23  27
ATOM     27  C   UNL d   1       1.004   7.898  -0.860  0.00  0.00     0.417 C 
ATOM     28  F   UNL d   1       2.000   7.031  -0.526  0.00  0.00    -0.166 F 
ATOM     29  F   UNL d   1       1.446   8.570  -1.959  0.00  0.00    -0.166 F 
ATOM     30  F   UNL d   1       0.963   8.818   0.145  0.00  0.00    -0.166 F 
ENDBRANCH  23  27
ENDBRANCH  18  21
ENDBRANCH   4  17
BRANCH   6  31
ATOM     31  S   UNL d   1      -4.795  -1.272   0.080  0.00  0.00    -0.126 SA
ATOM     32  C   UNL d   1      -4.654  -2.433   1.458  0.00  0.00     0.096 C 
ENDBRANCH   6  31
TORSDOF 4
