REMARK  2 active torsions:
REMARK  status: ('A' for Active; 'I' for Inactive)
REMARK    1  A    between atoms: N_6  and  C_1 
REMARK    2  A    between atoms: C_7  and  N_6 
ROOT
ATOM      1  C   UNL d   1       0.818  -1.788   0.013  0.00  0.00     0.244 A 
ATOM      2  O   UNL d   1       1.902  -0.851  -0.122  0.00  0.00    -0.291 OA
ATOM      3  C   UNL d   1       1.469   0.440  -0.095  0.00  0.00     0.295 A 
ATOM      4  C   UNL d   1      -0.384  -0.918   0.060  0.00  0.00     0.002 A 
ATOM      5  C   UNL d   1       0.019   0.399   0.002  0.00  0.00     0.049 A 
ATOM      6  O   UNL d   1       2.155   1.439  -0.177  0.00  0.00    -0.259 OA
ATOM      7  C   UNL d   1      -0.873   1.458  -0.004  0.00  0.00     0.018 A 
ATOM      8  C   UNL d   1      -1.734  -1.234   0.100  0.00  0.00     0.012 A 
ATOM      9  C   UNL d   1      -2.661  -0.185   0.088  0.00  0.00     0.001 A 
ATOM     10  C   UNL d   1      -2.234   1.153   0.040  0.00  0.00     0.001 A 
ENDROOT
BRANCH   1  11
ATOM     11  N   UNL d   1       0.949  -2.543   1.252  0.00  0.00    -0.259 NA
ATOM     12  H   UNL d   1       0.153  -3.163   1.374  0.00  0.00     0.130 HD
BRANCH  11  13
ATOM     13  C   UNL d   1       2.134  -3.290   1.426  0.00  0.00     0.049 A 
ATOM     14  C   UNL d   1       2.865  -3.902   0.391  0.00  0.00     0.140 A 
ATOM     15  C   UNL d   1       3.999  -4.668   0.645  0.00  0.00     0.086 A 
ATOM     16  F   UNL d   1       2.470  -3.788  -0.887  0.00  0.00    -0.204 F 
ATOM     17  C   UNL d   1       4.402  -4.857   1.956  0.00  0.00     0.119 A 
ATOM     18  C   UNL d   1       3.683  -4.309   3.010  0.00  0.00     0.044 A 
ATOM     19  F   UNL d   1       5.494  -5.590   2.211  0.00  0.00    -0.206 F 
ATOM     20  C   UNL d   1       2.543  -3.543   2.744  0.00  0.00     0.030 A 
ENDBRANCH  11  13
ENDBRANCH   1  11
TORSDOF 2
