REMARK  0 active torsions:
REMARK  status: ('A' for Active; 'I' for Inactive)
ROOT
ATOM      1  C   UNL d   1       0.430  -1.362  -0.019  0.00  0.00     0.079 A 
ATOM      2  C   UNL d   1      -0.442   1.356  -0.028  0.00  0.00     0.084 A 
ATOM      3  C   UNL d   1       0.871   1.122  -0.017  0.00  0.00     0.087 A 
ATOM      4  C   UNL d   1      -0.889  -1.139  -0.034  0.00  0.00     0.064 A 
ATOM      5  C   UNL d   1       1.410  -0.261   0.013  0.00  0.00     0.195 A 
ATOM      6  C   UNL d   1      -1.421   0.253  -0.013  0.00  0.00     0.191 A 
ATOM      7  O   UNL d   1       2.607  -0.518   0.059  0.00  0.00    -0.287 OA
ATOM      8  O   UNL d   1      -2.617   0.515   0.014  0.00  0.00    -0.287 OA
ATOM      9 BR   UNL d   1      -2.111  -2.551  -0.080  0.00  0.00    -0.047 Br
ATOM     10 CL   UNL d   1       1.995   2.426  -0.038  0.00  0.00    -0.080 Cl
ENDROOT
TORSDOF 0
