REMARK  4 active torsions:
REMARK  status: ('A' for Active; 'I' for Inactive)
REMARK    1  A    between atoms: N_2  and  S_1 
REMARK    2  A    between atoms: C_7  and  S_1 
REMARK    3  A    between atoms: N_5  and  S_3 
REMARK       I    between atoms: C_4  and  N_5 
REMARK       I    between atoms: N_12  and  C_4 
REMARK    4  A    between atoms: C_18  and  N_12 
ROOT
ATOM      1  N   UNL d   1       0.794   1.151   0.900  0.00  0.00    -0.305 N 
ATOM      2  S   UNL d   1      -0.510   3.197  -1.098  0.00  0.00    -0.120 SA
ATOM      3  C   UNL d   1      -0.677   1.179   0.957  0.00  0.00     0.146 C 
ATOM      4  C   UNL d   1       1.335   2.517   0.991  0.00  0.00     0.146 C 
ATOM      5  C   UNL d   1       1.081   3.357  -0.239  0.00  0.00     0.105 C 
ATOM      6  C   UNL d   1      -1.314   1.780  -0.283  0.00  0.00     0.105 C 
ENDROOT
BRANCH   2   7
ATOM      7  N   UNL d   1      -1.264   4.297  -0.386  0.00  0.00    -0.292 N 
ATOM      8  C   UNL d   1      -2.449   4.749  -0.851  0.00  0.00     0.330 C 
ATOM      9  N   UNL d   1      -2.780   4.401  -2.158  0.00  0.00    -0.308 N 
ATOM     10  O   UNL d   1      -3.189   5.447  -0.154  0.00  0.00    -0.246 OA
ATOM     11  H   UNL d   1      -2.104   3.789  -2.590  0.00  0.00     0.170 HD
ATOM     12  HN  UNL d   1      -0.871   4.705   0.462  1.00  0.00     0.178 HD
BRANCH   9  13
ATOM     13  C   UNL d   1      -3.863   4.809  -2.952  0.00  0.00     0.036 A 
ATOM     14  C   UNL d   1      -4.789   5.778  -2.565  0.00  0.00     0.031 A 
ATOM     15  C   UNL d   1      -5.804   6.182  -3.440  0.00  0.00     0.026 A 
ATOM     16  C   UNL d   1      -5.901   5.605  -4.703  0.00  0.00     0.034 A 
ATOM     17  C   UNL d   1      -4.999   4.620  -5.097  0.00  0.00     0.026 A 
ATOM     18 CL   UNL d   1      -7.133   6.121  -5.789  0.00  0.00    -0.084 Cl
ATOM     19  C   UNL d   1      -3.982   4.227  -4.223  0.00  0.00     0.031 A 
ENDBRANCH   9  13
ENDBRANCH   2   7
BRANCH   1  20
ATOM     20  S   UNL d   1       1.609  -0.062   0.076  0.00  0.00     0.260 S 
ATOM     21  O   UNL d   1       1.187  -1.325   0.655  0.00  0.00    -0.200 OA
ATOM     22  O   UNL d   1       3.020   0.267   0.032  0.00  0.00    -0.200 OA
BRANCH  20  23
ATOM     23  C   UNL d   1       1.024  -0.084  -1.612  0.00  0.00     0.079 A 
ATOM     24  C   UNL d   1       1.634   0.706  -2.590  0.00  0.00     0.027 A 
ATOM     25  C   UNL d   1       1.171   0.656  -3.911  0.00  0.00     0.025 A 
ATOM     26  C   UNL d   1       0.128  -0.205  -4.252  0.00  0.00     0.034 A 
ATOM     27  C   UNL d   1      -0.448  -1.034  -3.291  0.00  0.00     0.025 A 
ATOM     28 CL   UNL d   1      -0.442  -0.260  -5.877  0.00  0.00    -0.084 Cl
ATOM     29  C   UNL d   1       0.009  -0.985  -1.971  0.00  0.00     0.027 A 
ENDBRANCH  20  23
ENDBRANCH   1  20
TORSDOF 4
