REMARK  4 active torsions:
REMARK  status: ('A' for Active; 'I' for Inactive)
REMARK    1  A    between atoms: N_5  and  C_1 
REMARK    2  A    between atoms: N_8  and  C_1 
REMARK    3  A    between atoms: N_2  and  N_5 
REMARK    4  A    between atoms: C_10  and  C_9 
ROOT
ATOM      1  N   UNL d   1      -1.289   0.592  -0.998  0.00  0.00    -0.309 N 
ATOM      2  HN  UNL d   1      -1.829   0.486  -0.139  1.00  0.00     0.186 HD
ATOM      3  C   UNL d   1      -1.858   0.818  -2.138  0.00  0.00     0.120 C 
ENDROOT
BRANCH   1   4
ATOM      4  N   UNL d   1       0.072   0.504  -1.006  0.00  0.00    -0.277 N 
ATOM      5  H   UNL d   1       0.602   0.577  -1.868  0.00  0.00     0.189 HD
BRANCH   4   6
ATOM      6  C   UNL d   1       0.752   0.274   0.176  0.00  0.00     0.186 C 
ATOM      7  S   UNL d   1       2.409   0.124   0.170  0.00  0.00    -0.040 SA
BRANCH   6   8
ATOM      8  N   UNL d   1      -0.085   0.198   1.257  0.00  0.00    -0.370 N 
ATOM      9  C   UNL d   1       0.221  -0.031   2.648  0.00  0.00     0.148 C 
ATOM     10  H   UNL d   1      -1.056   0.308   0.978  0.00  0.00     0.161 HD
ENDBRANCH   6   8
ENDBRANCH   4   6
ENDBRANCH   1   4
BRANCH   3  11
ATOM     11  C   UNL d   1      -3.324   0.905  -2.218  0.00  0.00    -0.004 A 
ATOM     12  C   UNL d   1      -3.946   1.157  -3.431  0.00  0.00     0.100 A 
ATOM     13  N   UNL d   1      -5.291   1.232  -3.577  0.00  0.00    -0.374 N 
ATOM     14  C   UNL d   1      -6.038   1.049  -2.463  0.00  0.00     0.087 A 
ATOM     15  HN  UNL d   1      -5.720   1.419  -4.483  1.00  0.00     0.164 HD
ATOM     16  C   UNL d   1      -5.505   0.797  -1.209  0.00  0.00     0.018 A 
ATOM     17  C   UNL d   1      -4.122   0.726  -1.086  0.00  0.00     0.015 A 
ENDBRANCH   3  11
TORSDOF 4
