REMARK  5 active torsions:
REMARK  status: ('A' for Active; 'I' for Inactive)
REMARK    1  A    between atoms: C_5  and  C_1 
REMARK    2  A    between atoms: N_11  and  C_2 
REMARK    3  A    between atoms: O_15  and  C_5 
REMARK    4  A    between atoms: N_8  and  N_11 
REMARK    5  A    between atoms: C_16  and  C_13 
ROOT
ATOM      1  N   UNL d   1      10.274   3.794  -0.847  0.00  0.00    -0.191 NA
ATOM      2  C   UNL d   1       9.115   3.720  -0.826  0.00  0.00     0.099 C 
ATOM      3  C   UNL d   1       7.683   3.640  -0.798  0.00  0.00     0.044 A 
ATOM      4  C   UNL d   1       4.888   3.507  -0.729  0.00  0.00    -0.019 A 
ATOM      5  C   UNL d   1       6.925   4.200  -1.835  0.00  0.00     0.023 A 
ATOM      6  C   UNL d   1       7.037   3.003   0.267  0.00  0.00     0.023 A 
ATOM      7  C   UNL d   1       5.526   4.141  -1.799  0.00  0.00     0.014 A 
ATOM      8  C   UNL d   1       5.642   2.929   0.298  0.00  0.00     0.014 A 
ENDROOT
BRANCH   4   9
ATOM      9  C   UNL d   1       3.413   3.425  -0.709  0.00  0.00     0.118 C 
ATOM     10  N   UNL d   1       2.817   2.491  -0.041  0.00  0.00    -0.311 N 
ATOM     11  HN  UNL d   1       3.329   1.811   0.521  1.00  0.00     0.186 HD
BRANCH  10  12
ATOM     12  N   UNL d   1       1.464   2.478  -0.139  0.00  0.00    -0.299 N 
ATOM     13  H   UNL d   1       0.985   3.385  -0.065  0.00  0.00     0.187 HD
BRANCH  12  14
ATOM     14  C   UNL d   1       0.703   1.344  -0.050  0.00  0.00     0.077 A 
ATOM     15  C   UNL d   1      -0.680   1.406   0.086  0.00  0.00     0.108 A 
ATOM     16  S   UNL d   1      -1.380  -0.157   0.106  0.00  0.00    -0.093 SA
ATOM     17  C   UNL d   1       0.132  -0.912  -0.053  0.00  0.00     0.059 A 
ATOM     18  C   UNL d   1       1.187  -0.019  -0.114  0.00  0.00    -0.026 A 
ATOM     19  C   UNL d   1       2.595  -0.508  -0.248  0.00  0.00     0.051 C 
BRANCH  15  20
ATOM     20  C   UNL d   1      -1.500   2.602   0.200  0.00  0.00     0.302 C 
ATOM     21  O   UNL d   1      -1.063   3.750   0.176  0.00  0.00    -0.259 OA
BRANCH  20  22
ATOM     22  O   UNL d   1      -2.825   2.300   0.342  0.00  0.00    -0.322 OA
ATOM     23  C   UNL d   1      -3.689   3.428   0.476  0.00  0.00     0.213 C 
ENDBRANCH  20  22
ENDBRANCH  15  20
ENDBRANCH  12  14
ENDBRANCH  10  12
ENDBRANCH   4   9
TORSDOF 5
