REMARK  5 active torsions:
REMARK  status: ('A' for Active; 'I' for Inactive)
REMARK    1  A    between atoms: C_6  and  C_2 
REMARK    2  A    between atoms: C_3  and  C_8 
REMARK    3  A    between atoms: C_4  and  C_7 
REMARK    4  A    between atoms: C_14  and  C_5 
REMARK       I    between atoms: N_11  and  C_6 
REMARK    5  A    between atoms: C_12  and  N_11 
ROOT
ATOM      1  C   UNL d   1      -0.074   2.656  -0.415  0.00  0.00     0.263 C 
ATOM      2  N   UNL d   1      -1.341   3.019   0.022  0.00  0.00    -0.322 N 
ATOM      3  O   UNL d   1       0.754   3.454  -0.850  0.00  0.00    -0.267 OA
ATOM      4  H   UNL d   1      -1.923   2.259   0.347  0.00  0.00     0.169 HD
ENDROOT
BRANCH   2   5
ATOM      5  C   UNL d   1      -1.837   4.332   0.188  0.00  0.00     0.036 A 
ATOM      6  C   UNL d   1      -1.136   5.478  -0.196  0.00  0.00     0.045 A 
ATOM      7  C   UNL d   1      -1.617   6.766   0.093  0.00  0.00     0.050 A 
ATOM      8  C   UNL d   1      -2.845   6.900   0.754  0.00  0.00     0.032 A 
ATOM      9  C   UNL d   1      -3.583   5.766   1.125  0.00  0.00     0.050 A 
ATOM     10  C   UNL d   1      -3.074   4.487   0.825  0.00  0.00     0.045 A 
BRANCH   7  11
ATOM     11  C   UNL d   1      -0.792   7.967  -0.301  0.00  0.00     0.417 C 
ATOM     12  F   UNL d   1      -1.294   9.145   0.171  0.00  0.00    -0.166 F 
ATOM     13  F   UNL d   1       0.486   7.900   0.163  0.00  0.00    -0.166 F 
ATOM     14  F   UNL d   1      -0.697   8.118  -1.651  0.00  0.00    -0.166 F 
ENDBRANCH   7  11
BRANCH   9  15
ATOM     15  C   UNL d   1      -4.897   5.904   1.858  0.00  0.00     0.417 C 
ATOM     16  F   UNL d   1      -5.181   7.181   2.231  0.00  0.00    -0.166 F 
ATOM     17  F   UNL d   1      -5.954   5.485   1.111  0.00  0.00    -0.166 F 
ATOM     18  F   UNL d   1      -4.931   5.165   3.002  0.00  0.00    -0.166 F 
ENDBRANCH   9  15
ENDBRANCH   2   5
BRANCH   1  19
ATOM     19  C   UNL d   1       0.269   1.241  -0.291  0.00  0.00     0.073 A 
ATOM     20  S   UNL d   1      -0.817   0.042   0.267  0.00  0.00    -0.083 SA
ATOM     21  C   UNL d   1       0.367  -1.203   0.178  0.00  0.00     0.032 A 
ATOM     22  C   UNL d   1       1.559  -0.697  -0.316  0.00  0.00     0.023 A 
ATOM     23  C   UNL d   1       1.504   0.695  -0.577  0.00  0.00     0.026 A 
BRANCH  21  24
ATOM     24  C   UNL d   1       0.097  -2.594   0.580  0.00  0.00     0.049 A 
ATOM     25  N   UNL d   1       1.018  -3.481   0.120  0.00  0.00    -0.365 N 
ATOM     26  C   UNL d   1       0.882  -4.774   0.481  0.00  0.00     0.088 A 
ATOM     27  HN  UNL d   1       1.786  -3.179  -0.479  1.00  0.00     0.165 HD
ATOM     28  C   UNL d   1      -0.133  -5.241   1.295  0.00  0.00     0.017 A 
ATOM     29  C   UNL d   1      -1.069  -4.327   1.760  0.00  0.00     0.004 A 
ATOM     30  C   UNL d   1      -0.959  -2.983   1.398  0.00  0.00     0.031 A 
ENDBRANCH  21  24
ENDBRANCH   1  19
TORSDOF 5
