REMARK  4 active torsions:
REMARK  status: ('A' for Active; 'I' for Inactive)
REMARK    1  A    between atoms: S_8  and  C_1 
REMARK    2  A    between atoms: C_9  and  N_2 
REMARK    3  A    between atoms: O_10  and  C_5 
REMARK    4  A    between atoms: C_11  and  S_8 
ROOT
ATOM      1  C   UNL d   1      -0.121  -1.288   0.075  0.00  0.00     0.165 A 
ATOM      2  N   UNL d   1       1.047  -0.576  -0.087  0.00  0.00    -0.287 N 
ATOM      3  N   UNL d   1      -1.145  -0.466   0.054  0.00  0.00    -0.277 N 
ATOM      4  HN  UNL d   1      -2.126  -0.733   0.136  1.00  0.00     0.189 HD
ATOM      5  C   UNL d   1       0.636   0.741  -0.150  0.00  0.00     0.240 A 
ATOM      6  N   UNL d   1      -0.671   0.809  -0.095  0.00  0.00    -0.263 N 
ATOM      7  HN  UNL d   1      -1.233   1.658  -0.154  1.00  0.00     0.190 HD
ENDROOT
BRANCH   1   8
ATOM      8  S   UNL d   1      -0.219  -2.998   0.293  0.00  0.00    -0.088 SA
BRANCH   8   9
ATOM      9  C   UNL d   1      -1.998  -3.364   0.516  0.00  0.00     0.047 C 
ATOM     10  C   UNL d   1      -2.567  -2.752   1.793  0.00  0.00     0.021 C 
ATOM     11  C   UNL d   1      -2.850  -3.043  -0.710  0.00  0.00     0.021 C 
ENDBRANCH   8   9
ENDBRANCH   1   8
BRANCH   2  12
ATOM     12  C   UNL d   1       2.436  -1.008  -0.161  0.00  0.00     0.087 C 
ATOM     13  C   UNL d   1       3.092  -1.006   1.222  0.00  0.00     0.032 C 
ATOM     14  C   UNL d   1       2.720  -2.314  -0.906  0.00  0.00     0.032 C 
ENDBRANCH   2  12
BRANCH   5  15
ATOM     15  O   UNL d   1       1.408   1.813  -0.238  0.00  0.00    -0.331 OA
ATOM     16  H   UNL d   1       2.324   1.582  -0.032  0.00  0.00     0.221 HD
ENDBRANCH   5  15
TORSDOF 4
