REMARK  3 active torsions:
REMARK  status: ('A' for Active; 'I' for Inactive)
REMARK    1  A    between atoms: C_2  and  N_1 
REMARK    2  A    between atoms: N_4  and  C_3 
REMARK    3  A    between atoms: O_11  and  C_5 
ROOT
ATOM      1  C   UNL d   1       0.350  -0.872  -0.849  0.00  0.00     0.105 A 
ATOM      2  C   UNL d   1      -0.951  -2.795  -2.466  0.00  0.00     0.064 A 
ATOM      3  C   UNL d   1       0.151  -3.163  -1.650  0.00  0.00     0.097 A 
ATOM      4  C   UNL d   1       0.789  -2.201  -0.848  0.00  0.00     0.075 A 
ATOM      5  C   UNL d   1      -1.351  -1.439  -2.444  0.00  0.00     0.034 A 
ATOM      6  C   UNL d   1      -0.720  -0.482  -1.649  0.00  0.00     0.038 A 
ENDROOT
BRANCH   2   7
ATOM      7  N   UNL d   1      -1.677  -3.640  -3.296  0.00  0.00    -0.379 N 
ATOM      8  C   UNL d   1      -1.881  -5.071  -3.081  0.00  0.00     0.123 C 
ATOM      9  C   UNL d   1      -1.590  -5.701  -4.438  0.00  0.00     0.021 C 
ATOM     10  C   UNL d   1      -2.049  -4.636  -5.418  0.00  0.00     0.021 C 
ATOM     11  C   UNL d   1      -1.667  -3.327  -4.731  0.00  0.00     0.123 C 
ENDBRANCH   2   7
BRANCH   3  12
ATOM     12  O   UNL d   1       0.596  -4.463  -1.728  0.00  0.00    -0.354 OA
ATOM     13  C   UNL d   1       1.669  -4.862  -0.885  0.00  0.00     0.210 C 
ENDBRANCH   3  12
BRANCH   1  14
ATOM     14  N   UNL d   1       1.027   0.124  -0.008  0.00  0.00    -0.116 N 
ATOM     15  O   UNL d   1       1.984  -0.262   0.681  0.00  0.00    -0.532 OA
ATOM     16  O   UNL d   1       0.606   1.287  -0.037  0.00  0.00    -0.532 OA
ENDBRANCH   1  14
TORSDOF 3
