REMARK  4 active torsions:
REMARK  status: ('A' for Active; 'I' for Inactive)
REMARK       I    between atoms: N_2  and  C_1 
REMARK    1  A    between atoms: O_5  and  C_1 
REMARK    2  A    between atoms: C_4  and  N_2 
REMARK    3  A    between atoms: C_3  and  C_4 
REMARK       I    between atoms: N_9  and  C_3 
REMARK    4  A    between atoms: C_8  and  O_5 
ROOT
ATOM      1  C   UNL d   1       0.983   0.061  -0.004  0.00  0.00     0.362 C 
ATOM      2  N   UNL d   1       0.352   1.230  -0.307  0.00  0.00    -0.324 N 
ATOM      3  O   UNL d   1       2.201  -0.017  -0.103  0.00  0.00    -0.238 OA
ATOM      4  H   UNL d   1       0.997   1.893  -0.713  0.00  0.00     0.165 HD
ENDROOT
BRANCH   2   5
ATOM      5  C   UNL d   1      -0.696   1.812   0.529  0.00  0.00     0.174 C 
ATOM      6  C   UNL d   1      -2.089   1.327   0.163  0.00  0.00     0.042 C 
BRANCH   5   7
ATOM      7  C   UNL d   1      -0.612   3.354   0.424  0.00  0.00     0.237 C 
ATOM      8  O   UNL d   1      -1.558   4.112   0.610  0.00  0.00    -0.271 OA
ATOM      9  N   UNL d   1       0.645   3.874   0.238  0.00  0.00    -0.368 N 
ATOM     10  H   UNL d   1       1.467   3.367   0.543  0.00  0.00     0.159 HD
ATOM     11  H   UNL d   1       0.702   4.885   0.286  0.00  0.00     0.159 HD
ENDBRANCH   5   7
ENDBRANCH   2   5
BRANCH   1  12
ATOM     12  O   UNL d   1       0.137  -0.937   0.326  0.00  0.00    -0.294 OA
BRANCH  12  13
ATOM     13  C   UNL d   1       0.623  -2.295   0.519  0.00  0.00     0.061 C 
ATOM     14  C   UNL d   1       1.217  -2.428   1.922  0.00  0.00     0.046 C 
ATOM     15  C   UNL d   1      -0.624  -3.188   0.410  0.00  0.00     0.046 C 
ATOM     16  C   UNL d   1       1.617  -2.758  -0.558  0.00  0.00     0.046 C 
ENDBRANCH  12  13
ENDBRANCH   1  12
TORSDOF 4
