REMARK  4 active torsions:
REMARK  status: ('A' for Active; 'I' for Inactive)
REMARK    1  A    between atoms: C_2  and  C_1 
REMARK    2  A    between atoms: C_5  and  C_2 
REMARK    3  A    between atoms: N_10  and  N_3 
REMARK    4  A    between atoms: C_12  and  N_10 
ROOT
ATOM      1  C   UNL d   1       0.867   0.053  -0.021  0.00  0.00     0.175 C 
ATOM      2  N   UNL d   1       0.222   0.582   0.982  0.00  0.00    -0.287 N 
ATOM      3  HN  UNL d   1       0.736   1.025   1.744  1.00  0.00     0.188 HD
ATOM      4  C   UNL d   1       0.116  -0.532  -1.105  0.00  0.00     0.123 C 
ATOM      5  N   UNL d   1      -0.530  -1.003  -1.952  0.00  0.00    -0.190 NA
ENDROOT
BRANCH   1   6
ATOM      6  C   UNL d   1       2.368   0.042  -0.038  0.00  0.00     0.192 C 
ATOM      7  O   UNL d   1       2.967  -0.858  -0.609  0.00  0.00    -0.290 OA
BRANCH   6   8
ATOM      8  C   UNL d   1       3.059   1.165   0.651  0.00  0.00     0.063 A 
ATOM      9  C   UNL d   1       4.362   1.698   0.098  0.00  0.00     0.013 A 
ATOM     10  C   UNL d   1       4.363   0.909   1.374  0.00  0.00     0.013 A 
ENDBRANCH   6   8
ENDBRANCH   1   6
BRANCH   2  11
ATOM     11  N   UNL d   1      -1.148   0.542   1.007  0.00  0.00    -0.300 N 
ATOM     12  H   UNL d   1      -1.632  -0.299   0.682  0.00  0.00     0.187 HD
BRANCH  11  13
ATOM     13  C   UNL d   1      -1.777   1.120   2.134  0.00  0.00     0.048 A 
ATOM     14  C   UNL d   1      -1.206   2.202   2.819  0.00  0.00     0.032 A 
ATOM     15  C   UNL d   1      -1.855   2.788   3.909  0.00  0.00     0.026 A 
ATOM     16  C   UNL d   1      -3.088   2.295   4.324  0.00  0.00     0.034 A 
ATOM     17  C   UNL d   1      -3.682   1.232   3.649  0.00  0.00     0.026 A 
ATOM     18 CL   UNL d   1      -3.885   3.008   5.671  0.00  0.00    -0.084 Cl
ATOM     19  C   UNL d   1      -3.034   0.656   2.550  0.00  0.00     0.032 A 
ENDBRANCH  11  13
ENDBRANCH   2  11
TORSDOF 4
