REMARK  6 active torsions:
REMARK  status: ('A' for Active; 'I' for Inactive)
REMARK    1  A    between atoms: N_2  and  C_1 
REMARK    2  A    between atoms: N_4  and  C_1 
REMARK    3  A    between atoms: C_6  and  N_2 
REMARK    4  A    between atoms: C_3  and  C_5 
REMARK    5  A    between atoms: O_12  and  C_3 
REMARK    6  A    between atoms: C_9  and  N_4 
ROOT
ATOM      1  N   UNL d   1       0.202  -1.051  -0.021  0.00  0.00    -0.333 N 
ATOM      2  H   UNL d   1       0.666  -1.783   0.506  0.00  0.00     0.168 HD
ENDROOT
BRANCH   1   3
ATOM      3  C   UNL d   1       1.004   0.082  -0.196  0.00  0.00     0.176 C 
ATOM      4  S   UNL d   1       0.495   1.681  -0.071  0.00  0.00    -0.041 SA
BRANCH   3   5
ATOM      5  N   UNL d   1       2.308  -0.312  -0.491  0.00  0.00    -0.332 N 
ATOM      6  H   UNL d   1       2.368  -0.991  -1.246  0.00  0.00     0.168 HD
BRANCH   5   7
ATOM      7  C   UNL d   1       3.494   0.425  -0.246  0.00  0.00     0.056 A 
ATOM      8  C   UNL d   1       4.584   0.339  -1.126  0.00  0.00     0.060 A 
ATOM      9 CL   UNL d   1       4.485  -0.585  -2.585  0.00  0.00    -0.082 Cl
ATOM     10  C   UNL d   1       5.768   1.034  -0.858  0.00  0.00     0.026 A 
ATOM     11  C   UNL d   1       5.878   1.807   0.298  0.00  0.00     0.002 A 
ATOM     12  C   UNL d   1       4.810   1.881   1.188  0.00  0.00     0.002 A 
ATOM     13  C   UNL d   1       3.631   1.186   0.922  0.00  0.00     0.031 A 
ENDBRANCH   5   7
ENDBRANCH   3   5
ENDBRANCH   1   3
BRANCH   1  14
ATOM     14  C   UNL d   1      -1.209  -1.089  -0.034  0.00  0.00     0.035 A 
ATOM     15  C   UNL d   1      -1.935  -0.341  -0.962  0.00  0.00     0.047 A 
ATOM     16  C   UNL d   1      -3.335  -0.321  -0.930  0.00  0.00     0.041 A 
ATOM     17  C   UNL d   1      -4.008  -1.104   0.012  0.00  0.00     0.018 A 
ATOM     18  C   UNL d   1      -3.287  -1.907   0.899  0.00  0.00     0.003 A 
ATOM     19  C   UNL d   1      -1.888  -1.910   0.868  0.00  0.00     0.029 A 
BRANCH  16  20
ATOM     20  C   UNL d   1      -4.114   0.538  -1.860  0.00  0.00     0.293 C 
ATOM     21  O   UNL d   1      -5.335   0.574  -1.887  0.00  0.00    -0.259 OA
BRANCH  20  22
ATOM     22  O   UNL d   1      -3.277   1.271  -2.635  0.00  0.00    -0.323 OA
ATOM     23  C   UNL d   1      -3.921   2.189  -3.516  0.00  0.00     0.213 C 
ENDBRANCH  20  22
ENDBRANCH  16  20
ENDBRANCH   1  14
TORSDOF 6
