REMARK  5 active torsions:
REMARK  status: ('A' for Active; 'I' for Inactive)
REMARK    1  A    between atoms: S_18  and  C_2 
REMARK    2  A    between atoms: C_7  and  C_4 
REMARK    3  A    between atoms: C_6  and  C_12 
REMARK    4  A    between atoms: S_15  and  C_10 
REMARK    5  A    between atoms: C_12  and  S_15 
ROOT
ATOM      1  C   UNL d   1       1.217  -3.071  -0.052  0.00  0.00     0.053 A 
ATOM      2  N   UNL d   1       1.677  -3.654   1.075  0.00  0.00    -0.336 N 
ATOM      3  HN  UNL d   1       2.058  -3.098   1.841  1.00  0.00     0.168 HD
ATOM      4  C   UNL d   1       1.613  -4.991   1.150  0.00  0.00     0.144 A 
ATOM      5  N   UNL d   1       1.140  -5.783   0.176  0.00  0.00    -0.347 N 
ATOM      6  HN  UNL d   1       1.114  -6.798   0.274  1.00  0.00     0.167 HD
ATOM      7  C   UNL d   1       0.715  -3.802  -1.108  0.00  0.00     0.048 A 
ATOM      8  C   UNL d   1       0.702  -5.164  -0.936  0.00  0.00     0.092 A 
ENDROOT
BRANCH   1   9
ATOM      9  C   UNL d   1       1.207  -1.596  -0.013  0.00  0.00     0.040 A 
ATOM     10  C   UNL d   1       1.066  -0.754   1.083  0.00  0.00    -0.023 A 
ATOM     11  C   UNL d   1       1.062   0.649   0.717  0.00  0.00     0.041 A 
ATOM     12  C   UNL d   1       0.921  -1.188   2.518  0.00  0.00     0.041 C 
ATOM     13  C   UNL d   1       1.242   0.817  -0.643  0.00  0.00     0.056 A 
ATOM     14  C   UNL d   1       0.882   1.700   1.726  0.00  0.00     0.162 C 
ATOM     15  S   UNL d   1       1.394  -0.683  -1.452  0.00  0.00    -0.080 SA
ATOM     16  O   UNL d   1       0.725   2.889   1.453  0.00  0.00    -0.292 OA
ATOM     17  C   UNL d   1       0.930   1.249   3.180  0.00  0.00     0.084 C 
ATOM     18  C   UNL d   1       0.255  -0.106   3.367  0.00  0.00     0.012 C 
BRANCH  13  19
ATOM     19  S   UNL d   1       1.383   2.314  -1.562  0.00  0.00    -0.126 SA
ATOM     20  C   UNL d   1      -0.357   2.627  -1.939  0.00  0.00     0.096 C 
ENDBRANCH  13  19
ENDBRANCH   1   9
BRANCH   4  21
ATOM     21  S   UNL d   1       2.127  -5.711   2.691  0.00  0.00    -0.089 SA
BRANCH  21  22
ATOM     22  C   UNL d   1       1.689  -7.454   2.400  0.00  0.00     0.124 C 
BRANCH  22  23
ATOM     23  C   UNL d   1       1.851  -8.289   3.655  0.00  0.00    -0.005 A 
ATOM     24  C   UNL d   1       0.782  -8.472   4.556  0.00  0.00     0.042 A 
ATOM     25 CL   UNL d   1      -0.776  -7.765   4.295  0.00  0.00    -0.084 Cl
ATOM     26  C   UNL d   1       0.933  -9.244   5.716  0.00  0.00     0.024 A 
ATOM     27  C   UNL d   1       2.152  -9.844   6.011  0.00  0.00     0.003 A 
ATOM     28  C   UNL d   1       3.227  -9.666   5.142  0.00  0.00     0.024 A 
ATOM     29  C   UNL d   1       3.080  -8.897   3.979  0.00  0.00     0.042 A 
ATOM     30 CL   UNL d   1       4.478  -8.742   2.972  0.00  0.00    -0.084 Cl
ENDBRANCH  22  23
ENDBRANCH  21  22
ENDBRANCH   4  21
TORSDOF 5
