REMARK  2 active torsions:
REMARK  status: ('A' for Active; 'I' for Inactive)
REMARK    1  A    between atoms: C_13  and  C_5 
REMARK    2  A    between atoms: C_14  and  C_6 
ROOT
ATOM      1  C   UNL d   1      -0.705   0.292  -0.050  0.00  0.00     0.071 A 
ATOM      2  C   UNL d   1       0.706   0.294   0.014  0.00  0.00     0.071 A 
ATOM      3  C   UNL d   1      -1.422  -0.931  -0.077  0.00  0.00     0.004 A 
ATOM      4  C   UNL d   1       1.429  -0.925   0.061  0.00  0.00     0.004 A 
ATOM      5  C   UNL d   1      -2.853  -0.892  -0.163  0.00  0.00    -0.012 A 
ATOM      6  C   UNL d   1       2.857  -0.879   0.141  0.00  0.00    -0.012 A 
ATOM      7  C   UNL d   1      -0.691  -2.128  -0.012  0.00  0.00     0.015 A 
ATOM      8  C   UNL d   1       0.699  -2.125   0.025  0.00  0.00     0.015 A 
ATOM      9  N   UNL d   1      -1.367   1.473  -0.081  0.00  0.00    -0.363 N 
ATOM     10  HN  UNL d   1      -0.846   2.349  -0.056  1.00  0.00     0.165 HD
ATOM     11  N   UNL d   1       1.365   1.478   0.023  0.00  0.00    -0.363 N 
ATOM     12  HN  UNL d   1       0.840   2.352  -0.016  1.00  0.00     0.165 HD
ATOM     13  C   UNL d   1      -2.708   1.494  -0.145  0.00  0.00     0.089 A 
ATOM     14  C   UNL d   1       2.705   1.505   0.082  0.00  0.00     0.089 A 
ATOM     15  C   UNL d   1      -3.480   0.359  -0.193  0.00  0.00     0.030 A 
ATOM     16  C   UNL d   1       3.482   0.374   0.146  0.00  0.00     0.030 A 
ENDROOT
BRANCH   5  17
ATOM     17  C   UNL d   1      -3.712  -2.098  -0.241  0.00  0.00    -0.025 A 
ATOM     18  C   UNL d   1      -4.788  -2.276   0.647  0.00  0.00     0.012 A 
ATOM     19  C   UNL d   1      -5.622  -3.396   0.565  0.00  0.00     0.001 A 
ATOM     20  C   UNL d   1      -5.385  -4.370  -0.401  0.00  0.00     0.000 A 
ATOM     21  C   UNL d   1      -4.331  -4.215  -1.295  0.00  0.00     0.001 A 
ATOM     22  C   UNL d   1      -3.517  -3.080  -1.229  0.00  0.00     0.012 A 
ENDBRANCH   5  17
BRANCH   6  23
ATOM     23  C   UNL d   1       3.724  -2.081   0.228  0.00  0.00    -0.025 A 
ATOM     24  C   UNL d   1       4.784  -2.272  -0.677  0.00  0.00     0.012 A 
ATOM     25  C   UNL d   1       5.622  -3.388  -0.590  0.00  0.00     0.001 A 
ATOM     26  C   UNL d   1       5.404  -4.346   0.396  0.00  0.00     0.000 A 
ATOM     27  C   UNL d   1       4.365  -4.178   1.307  0.00  0.00     0.001 A 
ATOM     28  C   UNL d   1       3.547  -3.046   1.235  0.00  0.00     0.012 A 
ENDBRANCH   6  23
TORSDOF 2
