REMARK  5 active torsions:
REMARK  status: ('A' for Active; 'I' for Inactive)
REMARK       I    between atoms: N_5  and  C_1 
REMARK    1  A    between atoms: O_7  and  C_1 
REMARK    2  A    between atoms: N_2  and  O_7 
REMARK    3  A    between atoms: C_4  and  C_9 
REMARK    4  A    between atoms: C_11  and  N_5 
REMARK    5  A    between atoms: C_10  and  C_6 
ROOT
ATOM      1  N   UNL d   1      -0.963  -1.104   0.373  0.00  0.00    -0.261 N 
ATOM      2  HN  UNL d   1       0.056  -1.048   0.368  1.00  0.00     0.194 HD
ATOM      3  C   UNL d   1      -1.656  -2.145   0.743  0.00  0.00     0.029 C 
ATOM      4  C   UNL d   1      -3.173  -2.169   0.756  0.00  0.00     0.070 C 
ENDROOT
BRANCH   1   5
ATOM      5  O   UNL d   1      -1.839  -0.062  -0.020  0.00  0.00    -0.181 OA
BRANCH   5   6
ATOM      6  C   UNL d   1      -1.197   1.107  -0.370  0.00  0.00     0.383 C 
ATOM      7  N   UNL d   1       0.170   1.085  -0.257  0.00  0.00    -0.332 N 
ATOM      8  H   UNL d   1       0.550   0.173  -0.026  0.00  0.00     0.165 HD
ATOM      9  O   UNL d   1      -1.833   2.086  -0.750  0.00  0.00    -0.236 OA
BRANCH   7  10
ATOM     10  C   UNL d   1       0.999   2.211  -0.646  0.00  0.00     0.078 C 
ATOM     11  C   UNL d   1       2.299   2.231   0.150  0.00  0.00     0.032 C 
ATOM     12  C   UNL d   1       1.284   2.203  -2.147  0.00  0.00     0.032 C 
ENDBRANCH   7  10
ENDBRANCH   5   6
ENDBRANCH   1   5
BRANCH   3  13
ATOM     13  C   UNL d   1      -0.991  -3.403   1.194  0.00  0.00     0.027 C 
ATOM     14  C   UNL d   1       0.178  -3.779   0.659  0.00  0.00     0.013 C 
BRANCH  14  15
ATOM     15  C   UNL d   1       0.863  -5.047   0.954  0.00  0.00    -0.036 A 
ATOM     16  C   UNL d   1       0.174  -6.230   1.256  0.00  0.00     0.011 A 
ATOM     17  C   UNL d   1       0.866  -7.430   1.448  0.00  0.00     0.001 A 
ATOM     18  C   UNL d   1       2.253  -7.463   1.331  0.00  0.00     0.000 A 
ATOM     19  C   UNL d   1       2.950  -6.296   1.028  0.00  0.00     0.001 A 
ATOM     20  C   UNL d   1       2.259  -5.097   0.837  0.00  0.00     0.011 A 
ENDBRANCH  14  15
ENDBRANCH   3  13
TORSDOF 5
