REMARK  3 active torsions:
REMARK  status: ('A' for Active; 'I' for Inactive)
REMARK    1  A    between atoms: C_6  and  C_1 
REMARK    2  A    between atoms: C_5  and  C_4 
REMARK       I    between atoms: N_11  and  C_6 
REMARK    3  A    between atoms: C_16  and  N_11 
ROOT
ATOM      1  C   UNL d   1       1.707   1.021   0.268  0.00  0.00     0.104 A 
ATOM      2  N   UNL d   1       2.190  -0.686   0.798  0.00  0.00    -0.369 N 
ATOM      3  HN  UNL d   1       3.005  -0.878   1.379  1.00  0.00     0.161 HD
ATOM      4  C   UNL d   1       1.189  -1.856   0.247  0.00  0.00     0.180 A 
ATOM      5  S   UNL d   1      -0.532  -0.968  -1.229  0.00  0.00    -0.111 SA
ATOM      6  C   UNL d   1       0.350   1.112  -0.799  0.00  0.00     0.082 A 
ENDROOT
BRANCH   1   7
ATOM      7  C   UNL d   1       2.545   2.147   0.652  0.00  0.00     0.273 C 
ATOM      8  N   UNL d   1       3.826   1.716   0.938  0.00  0.00    -0.322 N 
ATOM      9  H   UNL d   1       3.978   0.719   0.798  0.00  0.00     0.169 HD
ATOM     10  O   UNL d   1       2.141   3.300   0.595  0.00  0.00    -0.266 OA
BRANCH   8  11
ATOM     11  C   UNL d   1       4.942   2.521   1.219  0.00  0.00     0.035 A 
ATOM     12  C   UNL d   1       4.839   3.853   1.626  0.00  0.00     0.029 A 
ATOM     13  C   UNL d   1       5.988   4.603   1.892  0.00  0.00     0.002 A 
ATOM     14  C   UNL d   1       7.248   4.032   1.738  0.00  0.00     0.000 A 
ATOM     15  C   UNL d   1       7.362   2.704   1.330  0.00  0.00     0.002 A 
ATOM     16  C   UNL d   1       6.212   1.947   1.085  0.00  0.00     0.029 A 
ENDBRANCH   8  11
ENDBRANCH   1   7
BRANCH   4  17
ATOM     17  C   UNL d   1       0.773  -3.130   0.419  0.00  0.00     0.186 C 
ATOM     18  O   UNL d   1       1.058  -3.344  -1.051  0.00  0.00    -0.338 OA
ATOM     19  C   UNL d   1       1.800  -2.277  -1.733  0.00  0.00     0.102 A 
ATOM     20  C   UNL d   1       2.612  -2.659  -2.780  0.00  0.00     0.039 A 
ATOM     21  C   UNL d   1       1.690  -0.729  -1.253  0.00  0.00     0.102 A 
ATOM     22  C   UNL d   1       3.345  -1.652  -3.416  0.00  0.00     0.003 A 
ATOM     23  C   UNL d   1       3.246  -0.279  -3.067  0.00  0.00     0.003 A 
ATOM     24  C   UNL d   1       2.430   0.218  -2.029  0.00  0.00     0.039 A 
ATOM     25  O   UNL d   1       0.476  -0.348   0.300  0.00  0.00    -0.346 OA
ATOM     26  C   UNL d   1      -0.110  -1.866   1.109  0.00  0.00     0.211 C 
ENDBRANCH   4  17
TORSDOF 3
