REMARK  5 active torsions:
REMARK  status: ('A' for Active; 'I' for Inactive)
REMARK    1  A    between atoms: N_5  and  C_1 
REMARK    2  A    between atoms: C_3  and  C_2 
REMARK       I    between atoms: N_6  and  C_3 
REMARK    3  A    between atoms: O_22  and  C_4 
REMARK       I    between atoms: C_8  and  N_6 
REMARK       I    between atoms: N_12  and  C_8 
REMARK    4  A    between atoms: O_24  and  C_9 
REMARK    5  A    between atoms: C_10  and  N_12 
ROOT
ATOM      1  C   UNL d   1       2.639   2.947   0.421  0.00  0.00     0.265 C 
ATOM      2  N   UNL d   1       3.718   3.136  -0.434  0.00  0.00    -0.275 N 
ATOM      3  C   UNL d   1       4.896   2.404  -0.580  0.00  0.00     0.327 C 
ATOM      4  N   UNL d   1       4.974   1.200   0.090  0.00  0.00    -0.308 N 
ATOM      5  O   UNL d   1       2.430   1.855   0.949  0.00  0.00    -0.267 OA
ATOM      6  O   UNL d   1       5.801   2.935  -1.232  0.00  0.00    -0.247 OA
ATOM      7  H   UNL d   1       3.777   4.025  -0.908  0.00  0.00     0.173 HD
ATOM      8  H   UNL d   1       4.206   1.059   0.741  0.00  0.00     0.170 HD
ENDROOT
BRANCH   1   9
ATOM      9  C   UNL d   1       1.658   4.094   0.648  0.00  0.00     0.103 C 
ATOM     10  C   UNL d   1       1.000   4.122   1.901  0.00  0.00     0.119 C 
ATOM     11  C   UNL d   1      -0.159   4.885   2.084  0.00  0.00     0.139 C 
ATOM     12  C   UNL d   1      -0.533   5.807   1.110  0.00  0.00     0.065 C 
ATOM     13  C   UNL d   1       0.227   5.937  -0.065  0.00  0.00     0.070 C 
ATOM     14  C   UNL d   1       1.317   5.072  -0.332  0.00  0.00     0.108 C 
ATOM     15 CL   UNL d   1      -0.355   7.222  -1.076  0.00  0.00    -0.081 Cl
BRANCH  10  16
ATOM     16  O   UNL d   1       1.614   3.506   2.969  0.00  0.00    -0.352 OA
ATOM     17  C   UNL d   1       2.206   4.489   3.834  0.00  0.00     0.210 C 
ENDBRANCH  10  16
BRANCH  11  18
ATOM     18  N   UNL d   1      -1.022   4.736   3.263  0.00  0.00    -0.113 N 
ATOM     19  O   UNL d   1      -0.932   3.700   3.934  0.00  0.00    -0.532 OA
ATOM     20  O   UNL d   1      -1.818   5.655   3.503  0.00  0.00    -0.532 OA
ENDBRANCH  11  18
BRANCH  14  21
ATOM     21  O   UNL d   1       2.122   5.067  -1.441  0.00  0.00    -0.353 OA
ATOM     22  C   UNL d   1       2.026   6.110  -2.410  0.00  0.00     0.210 C 
ENDBRANCH  14  21
ENDBRANCH   1   9
BRANCH   4  23
ATOM     23  C   UNL d   1       6.206   0.516   0.368  0.00  0.00     0.048 C 
ATOM     24  C   UNL d   1       6.422   0.025   1.678  0.00  0.00    -0.034 C 
ATOM     25  C   UNL d   1       7.718  -0.382   2.074  0.00  0.00     0.015 C 
ATOM     26  C   UNL d   1       5.362   0.007   2.745  0.00  0.00     0.050 C 
ATOM     27  C   UNL d   1       8.790  -0.387   1.184  0.00  0.00    -0.061 C 
ATOM     28  C   UNL d   1       8.532  -0.064  -0.147  0.00  0.00     0.015 C 
ATOM     29  C   UNL d   1      10.182  -0.691   1.661  0.00  0.00     0.048 C 
ATOM     30  C   UNL d   1       7.245   0.344  -0.575  0.00  0.00    -0.034 C 
ATOM     31  C   UNL d   1       7.068   0.457  -2.066  0.00  0.00     0.050 C 
ENDBRANCH   4  23
TORSDOF 5
