REMARK  4 active torsions:
REMARK  status: ('A' for Active; 'I' for Inactive)
REMARK    1  A    between atoms: N_2  and  S_1 
REMARK    2  A    between atoms: C_6  and  S_1 
REMARK    3  A    between atoms: C_3  and  N_2 
REMARK    4  A    between atoms: N_10  and  C_7 
REMARK       I    between atoms: C_11  and  N_10 
ROOT
ATOM      1  C   UNL d   1       0.888  -2.175  -1.688  0.00  0.00     0.035 A 
ATOM      2  C   UNL d   1      -0.130  -2.633  -2.550  0.00  0.00    -0.037 A 
ATOM      3  C   UNL d   1       2.224  -2.200  -2.121  0.00  0.00    -0.037 A 
ATOM      4  C   UNL d   1       1.529  -3.043  -4.314  0.00  0.00     0.035 A 
ATOM      5  C   UNL d   1       2.519  -2.621  -3.433  0.00  0.00     0.038 A 
ATOM      6  C   UNL d   1       0.207  -3.060  -3.857  0.00  0.00     0.038 A 
ATOM      7  C   UNL d   1       3.403  -1.758  -1.298  0.00  0.00     0.050 C 
ATOM      8  C   UNL d   1      -1.586  -2.674  -2.166  0.00  0.00     0.050 C 
ENDROOT
BRANCH   1   9
ATOM      9  N   UNL d   1       0.562  -1.674  -0.376  0.00  0.00    -0.180 NA
ATOM     10  H   UNL d   1       1.148  -0.883  -0.109  0.00  0.00     0.146 HD
BRANCH   9  11
ATOM     11  S   UNL d   1       0.550  -2.824   0.887  0.00  0.00     0.245 S 
ATOM     12  O   UNL d   1       1.896  -3.315   1.072  0.00  0.00    -0.206 OA
ATOM     13  O   UNL d   1      -0.568  -3.721   0.703  0.00  0.00    -0.206 OA
BRANCH  11  14
ATOM     14  C   UNL d   1       0.157  -1.792   2.288  0.00  0.00     0.074 A 
ATOM     15  C   UNL d   1      -1.073  -1.132   2.331  0.00  0.00     0.025 A 
ATOM     16  C   UNL d   1      -1.405  -0.360   3.448  0.00  0.00     0.008 A 
ATOM     17  C   UNL d   1      -0.518  -0.246   4.528  0.00  0.00    -0.062 A 
ATOM     18  C   UNL d   1       0.718  -0.904   4.468  0.00  0.00     0.008 A 
ATOM     19  C   UNL d   1      -0.909   0.558   5.735  0.00  0.00     0.048 C 
ATOM     20  C   UNL d   1       1.060  -1.675   3.352  0.00  0.00     0.025 A 
ENDBRANCH  11  14
ENDBRANCH   9  11
ENDBRANCH   1   9
BRANCH   4  21
ATOM     21  N   UNL d   1       1.796  -3.454  -5.642  0.00  0.00    -0.327 N 
ATOM     22  C   UNL d   1       3.032  -3.480  -6.269  0.00  0.00     0.218 C 
ATOM     23  O   UNL d   1       4.109  -3.137  -5.789  0.00  0.00    -0.274 OA
ATOM     24  C   UNL d   1       2.989  -3.992  -7.687  0.00  0.00     0.117 C 
ATOM     25  H   UNL d   1       0.995  -3.748  -6.186  0.00  0.00     0.169 HD
ENDBRANCH   4  21
TORSDOF 4
