REMARK  5 active torsions:
REMARK  status: ('A' for Active; 'I' for Inactive)
REMARK    1  A    between atoms: N_6  and  C_1 
REMARK    2  A    between atoms: C_11  and  N_4 
REMARK    3  A    between atoms: C_7  and  N_6 
REMARK    4  A    between atoms: N_8  and  C_7 
REMARK    5  A    between atoms: C_10  and  N_8 
ROOT
ATOM      1  C   UNL d   1      -0.400  -0.968  -0.450  0.00  0.00     0.129 A 
ATOM      2  C   UNL d   1       0.914  -0.335  -0.747  0.00  0.00     0.295 A 
ATOM      3  N   UNL d   1      -0.565   1.269  -0.051  0.00  0.00    -0.289 N 
ATOM      4  N   UNL d   1       0.747   1.040  -0.556  0.00  0.00    -0.217 N 
ATOM      5  C   UNL d   1      -1.227   0.028  -0.088  0.00  0.00     0.057 A 
ATOM      6  O   UNL d   1       1.907  -0.990  -1.039  0.00  0.00    -0.264 OA
ATOM      7  C   UNL d   1      -1.212   2.531  -0.407  0.00  0.00     0.178 C 
ATOM      8  C   UNL d   1      -2.638  -0.129   0.390  0.00  0.00     0.072 C 
ENDROOT
BRANCH   1   9
ATOM      9  N   UNL d   1      -0.537  -2.332  -0.417  0.00  0.00    -0.327 N 
ATOM     10  H   UNL d   1       0.353  -2.823  -0.472  0.00  0.00     0.168 HD
BRANCH   9  11
ATOM     11  C   UNL d   1      -1.565  -3.087  -0.904  0.00  0.00     0.177 C 
ATOM     12  S   UNL d   1      -2.331  -2.811  -2.371  0.00  0.00    -0.041 SA
BRANCH  11  13
ATOM     13  N   UNL d   1      -1.828  -4.255  -0.243  0.00  0.00    -0.332 N 
ATOM     14  H   UNL d   1      -2.317  -4.954  -0.800  0.00  0.00     0.168 HD
BRANCH  13  15
ATOM     15  C   UNL d   1      -1.848  -4.511   1.157  0.00  0.00     0.056 A 
ATOM     16  C   UNL d   1      -2.240  -5.790   1.598  0.00  0.00     0.060 A 
ATOM     17 CL   UNL d   1      -2.538  -7.072   0.474  0.00  0.00    -0.082 Cl
ATOM     18  C   UNL d   1      -2.420  -6.058   2.959  0.00  0.00     0.026 A 
ATOM     19  C   UNL d   1      -2.215  -5.051   3.900  0.00  0.00     0.002 A 
ATOM     20  C   UNL d   1      -1.808  -3.789   3.480  0.00  0.00     0.002 A 
ATOM     21  C   UNL d   1      -1.618  -3.524   2.119  0.00  0.00     0.031 A 
ENDBRANCH  13  15
ENDBRANCH  11  13
ENDBRANCH   9  11
ENDBRANCH   1   9
BRANCH   4  22
ATOM     22  C   UNL d   1       1.816   1.961  -0.457  0.00  0.00     0.060 A 
ATOM     23  C   UNL d   1       2.931   1.815  -1.297  0.00  0.00     0.031 A 
ATOM     24  C   UNL d   1       4.007   2.702  -1.228  0.00  0.00     0.002 A 
ATOM     25  C   UNL d   1       3.989   3.742  -0.305  0.00  0.00     0.000 A 
ATOM     26  C   UNL d   1       2.894   3.897   0.541  0.00  0.00     0.002 A 
ATOM     27  C   UNL d   1       1.810   3.015   0.463  0.00  0.00     0.031 A 
ENDBRANCH   4  22
TORSDOF 5
