REMARK  7 active torsions:
REMARK  status: ('A' for Active; 'I' for Inactive)
REMARK    1  A    between atoms: C_9  and  C_1 
REMARK    2  A    between atoms: S_20  and  C_2 
REMARK    3  A    between atoms: C_6  and  C_3 
REMARK    4  A    between atoms: S_19  and  C_13 
REMARK    5  A    between atoms: C_18  and  C_21 
REMARK    6  A    between atoms: C_24  and  C_18 
REMARK    7  A    between atoms: C_21  and  S_19 
ROOT
ATOM      1  C   UNL d   1       1.435   2.576  -0.046  0.00  0.00     0.048 A 
ATOM      2  N   UNL d   1       1.435   3.308   1.083  0.00  0.00    -0.336 N 
ATOM      3  HN  UNL d   1       0.979   2.971   1.931  1.00  0.00     0.168 HD
ATOM      4  C   UNL d   1       2.053   4.495   1.054  0.00  0.00     0.144 A 
ATOM      5  N   UNL d   1       2.791   4.948   0.029  0.00  0.00    -0.347 N 
ATOM      6  HN  UNL d   1       3.301   5.830   0.077  1.00  0.00     0.167 HD
ATOM      7  C   UNL d   1       2.125   2.984  -1.169  0.00  0.00     0.047 A 
ATOM      8  C   UNL d   1       2.815   4.169  -1.064  0.00  0.00     0.092 A 
ENDROOT
BRANCH   1   9
ATOM      9  C   UNL d   1       0.666   1.314  -0.017  0.00  0.00     0.022 A 
ATOM     10  C   UNL d   1      -0.559   1.207   0.635  0.00  0.00     0.054 A 
ATOM     11  S   UNL d   1      -1.231  -0.355   0.500  0.00  0.00    -0.079 SA
ATOM     12  C   UNL d   1       0.066  -0.943  -0.440  0.00  0.00     0.046 A 
ATOM     13  C   UNL d   1       1.034   0.040  -0.647  0.00  0.00    -0.028 A 
ATOM     14  C   UNL d   1       2.304  -0.194  -1.415  0.00  0.00     0.050 C 
BRANCH  10  15
ATOM     15  S   UNL d   1      -1.503   2.443   1.481  0.00  0.00    -0.126 SA
ATOM     16  C   UNL d   1      -0.827   2.274   3.153  0.00  0.00     0.096 C 
ENDBRANCH  10  15
BRANCH  12  17
ATOM     17  C   UNL d   1       0.067  -2.306  -0.939  0.00  0.00     0.092 A 
ATOM     18  N   UNL d   1       0.612  -2.627  -2.097  0.00  0.00    -0.353 N 
ATOM     19  C   UNL d   1       0.539  -3.995  -2.310  0.00  0.00     0.012 A 
ATOM     20  HN  UNL d   1       1.030  -1.961  -2.746  1.00  0.00     0.166 HD
ATOM     21  C   UNL d   1       1.126  -4.562  -3.550  0.00  0.00     0.068 C 
ATOM     22  C   UNL d   1      -0.082  -4.702  -1.301  0.00  0.00     0.076 A 
ATOM     23  S   UNL d   1      -0.580  -3.639  -0.057  0.00  0.00    -0.081 SA
ENDBRANCH  12  17
ENDBRANCH   1   9
BRANCH   4  24
ATOM     24  S   UNL d   1       1.849   5.541   2.474  0.00  0.00    -0.086 SA
BRANCH  24  25
ATOM     25  C   UNL d   1       2.037   7.166   1.672  0.00  0.00     0.166 C 
BRANCH  25  26
ATOM     26  C   UNL d   1       0.993   7.420   0.596  0.00  0.00     0.169 C 
ATOM     27  O   UNL d   1      -0.153   6.972   0.658  0.00  0.00    -0.291 OA
BRANCH  26  28
ATOM     28  C   UNL d   1       1.346   8.302  -0.566  0.00  0.00     0.010 A 
ATOM     29  C   UNL d   1       2.543   9.027  -0.635  0.00  0.00     0.015 A 
ATOM     30  C   UNL d   1       2.819   9.834  -1.744  0.00  0.00     0.001 A 
ATOM     31  C   UNL d   1       1.900   9.931  -2.788  0.00  0.00     0.000 A 
ATOM     32  C   UNL d   1       0.702   9.225  -2.723  0.00  0.00     0.001 A 
ATOM     33  C   UNL d   1       0.426   8.412  -1.623  0.00  0.00     0.015 A 
ENDBRANCH  26  28
ENDBRANCH  25  26
ENDBRANCH  24  25
ENDBRANCH   4  24
TORSDOF 7
