REMARK  6 active torsions:
REMARK  status: ('A' for Active; 'I' for Inactive)
REMARK    1  A    between atoms: N_2  and  C_1 
REMARK    2  A    between atoms: O_16  and  C_3 
REMARK    3  A    between atoms: C_5  and  C_4 
REMARK       I    between atoms: N_7  and  C_5 
REMARK    4  A    between atoms: C_17  and  N_7 
REMARK    5  A    between atoms: O_18  and  C_8 
REMARK    6  A    between atoms: C_11  and  C_17 
ROOT
ATOM      1  C   UNL d   1       1.364  -0.227   0.125  0.00  0.00     0.137 C 
ATOM      2  C   UNL d   1       0.530  -1.357   0.192  0.00  0.00     0.119 C 
ATOM      3  C   UNL d   1      -0.855  -1.153  -0.004  0.00  0.00     0.101 C 
ATOM      4  C   UNL d   1       0.872   1.056  -0.153  0.00  0.00     0.042 C 
ATOM      5  C   UNL d   1      -1.334   0.119  -0.386  0.00  0.00     0.086 C 
ATOM      6  C   UNL d   1      -0.480   1.223  -0.418  0.00  0.00     0.040 C 
ENDROOT
BRANCH   3   7
ATOM      7  C   UNL d   1      -1.854  -2.210   0.314  0.00  0.00     0.257 C 
ATOM      8  N   UNL d   1      -1.633  -3.471  -0.196  0.00  0.00    -0.356 N 
ATOM      9  H   UNL d   1      -0.719  -3.685  -0.571  0.00  0.00     0.162 HD
ATOM     10  O   UNL d   1      -2.836  -1.924   0.992  0.00  0.00    -0.267 OA
BRANCH   8  11
ATOM     11  C   UNL d   1      -2.500  -4.570   0.166  0.00  0.00     0.127 C 
BRANCH  11  12
ATOM     12  C   UNL d   1      -2.745  -5.445  -1.022  0.00  0.00     0.003 A 
ATOM     13  C   UNL d   1      -3.508  -4.938  -2.222  0.00  0.00     0.007 A 
ATOM     14  C   UNL d   1      -4.144  -5.940  -1.302  0.00  0.00     0.007 A 
ENDBRANCH  11  12
ENDBRANCH   8  11
ENDBRANCH   3   7
BRANCH   2  15
ATOM     15  O   UNL d   1       0.929  -2.628   0.513  0.00  0.00    -0.352 OA
ATOM     16  C   UNL d   1       2.091  -3.135  -0.144  0.00  0.00     0.210 C 
ENDBRANCH   2  15
BRANCH   5  17
ATOM     17  O   UNL d   1      -2.630   0.394  -0.742  0.00  0.00    -0.355 OA
ATOM     18  C   UNL d   1      -3.061  -0.375  -1.869  0.00  0.00     0.210 C 
ENDBRANCH   5  17
BRANCH   1  19
ATOM     19  N   UNL d   1       2.786  -0.306   0.397  0.00  0.00    -0.113 N 
ATOM     20  O   UNL d   1       3.135  -0.642   1.532  0.00  0.00    -0.532 OA
ATOM     21  O   UNL d   1       3.543  -0.017  -0.541  0.00  0.00    -0.532 OA
ENDBRANCH   1  19
TORSDOF 6
