REMARK  2 active torsions:
REMARK  status: ('A' for Active; 'I' for Inactive)
REMARK    1  A    between atoms: C_8  and  N_1 
REMARK    2  A    between atoms: O_10  and  C_5 
ROOT
ATOM      1  N   UNL d   1       1.254  -1.426   0.041  0.00  0.00    -0.273 N 
ATOM      2  C   UNL d   1       2.444  -0.709   0.096  0.00  0.00     0.304 A 
ATOM      3  N   UNL d   1       1.185   1.440  -0.062  0.00  0.00    -0.331 N 
ATOM      4  HN  UNL d   1       1.160   2.458  -0.122  1.00  0.00     0.168 HD
ATOM      5  C   UNL d   1       2.298   0.797   0.013  0.00  0.00     0.211 A 
ATOM      6  C   UNL d   1      -0.002  -0.736  -0.007  0.00  0.00     0.069 A 
ATOM      7  C   UNL d   1       0.007   0.676  -0.058  0.00  0.00     0.061 A 
ATOM      8  O   UNL d   1       3.595  -1.142   0.154  0.00  0.00    -0.263 OA
ATOM      9  C   UNL d   1      -1.244  -1.394   0.062  0.00  0.00     0.032 A 
ATOM     10  C   UNL d   1      -1.202   1.381  -0.095  0.00  0.00     0.032 A 
ATOM     11  C   UNL d   1      -2.443  -0.676   0.017  0.00  0.00     0.002 A 
ATOM     12  C   UNL d   1      -2.422   0.711  -0.070  0.00  0.00     0.002 A 
ENDROOT
BRANCH   1  13
ATOM     13  C   UNL d   1       1.302  -2.845  -0.009  0.00  0.00     0.043 A 
ATOM     14  C   UNL d   1       1.990  -3.559   0.982  0.00  0.00     0.032 A 
ATOM     15  C   UNL d   1       2.069  -4.953   0.925  0.00  0.00     0.026 A 
ATOM     16  C   UNL d   1       1.489  -5.636  -0.142  0.00  0.00     0.034 A 
ATOM     17  C   UNL d   1       0.829  -4.939  -1.151  0.00  0.00     0.026 A 
ATOM     18 CL   UNL d   1       1.598  -7.351  -0.219  0.00  0.00    -0.084 Cl
ATOM     19  C   UNL d   1       0.735  -3.546  -1.085  0.00  0.00     0.032 A 
ENDBRANCH   1  13
BRANCH   5  20
ATOM     20  O   UNL d   1       3.480   1.435   0.001  0.00  0.00    -0.342 OA
ATOM     21  H   UNL d   1       4.208   0.783   0.033  0.00  0.00     0.219 HD
ENDBRANCH   5  20
TORSDOF 2
