REMARK  5 active torsions:
REMARK  status: ('A' for Active; 'I' for Inactive)
REMARK    1  A    between atoms: C_8  and  C_1 
REMARK    2  A    between atoms: N_7  and  C_2 
REMARK    3  A    between atoms: S_10  and  C_8 
REMARK    4  A    between atoms: C_9  and  C_12 
REMARK    5  A    between atoms: C_20  and  S_10 
ROOT
ATOM      1  C   UNL d   1       1.649  -2.342   0.173  0.00  0.00     0.244 C 
ATOM      2  O   UNL d   1       1.362  -3.529   0.104  0.00  0.00    -0.278 OA
ENDROOT
BRANCH   1   3
ATOM      3  C   UNL d   1       0.668  -1.278   0.083  0.00  0.00     0.143 C 
ATOM      4  C   UNL d   1       0.627   0.009   0.618  0.00  0.00     0.159 C 
ATOM      5  C   UNL d   1      -0.557   0.612   0.140  0.00  0.00     0.057 C 
ATOM      6  C   UNL d   1      -1.109   1.968   0.393  0.00  0.00     0.072 C 
ATOM      7  N   UNL d   1      -1.246  -0.241  -0.621  0.00  0.00    -0.300 N 
ATOM      8  N   UNL d   1      -0.540  -1.390  -0.577  0.00  0.00    -0.290 N 
ATOM      9  HN  UNL d   1      -2.115  -0.064  -1.125  1.00  0.00     0.187 HD
ATOM     10  C   UNL d   1      -1.133  -2.531  -1.241  0.00  0.00     0.178 C 
BRANCH   4  11
ATOM     11  N   UNL d   1       1.554   0.600   1.528  0.00  0.00    -0.111 N 
ATOM     12  O   UNL d   1       1.838  -0.064   2.533  0.00  0.00    -0.532 OA
ATOM     13  O   UNL d   1       1.967   1.730   1.250  0.00  0.00    -0.532 OA
ENDBRANCH   4  11
ENDBRANCH   1   3
BRANCH   1  14
ATOM     14  S   UNL d   1       3.336  -1.814   0.246  0.00  0.00    -0.046 SA
BRANCH  14  15
ATOM     15  C   UNL d   1       4.205  -3.365   0.418  0.00  0.00     0.008 A 
ATOM     16  C   UNL d   1       4.304  -4.242  -0.664  0.00  0.00     0.020 A 
ATOM     17  C   UNL d   1       4.952  -5.473  -0.527  0.00  0.00     0.017 A 
ATOM     18  C   UNL d   1       5.526  -5.842   0.698  0.00  0.00     0.048 A 
ATOM     19  C   UNL d   1       5.464  -4.940   1.770  0.00  0.00     0.017 A 
ATOM     20  C   UNL d   1       4.811  -3.708   1.631  0.00  0.00     0.020 A 
BRANCH  18  21
ATOM     21  C   UNL d   1       6.188  -7.190   0.872  0.00  0.00     0.417 C 
ATOM     22  F   UNL d   1       6.106  -7.984  -0.232  0.00  0.00    -0.166 F 
ATOM     23  F   UNL d   1       7.514  -7.088   1.160  0.00  0.00    -0.166 F 
ATOM     24  F   UNL d   1       5.638  -7.911   1.889  0.00  0.00    -0.166 F 
ENDBRANCH  18  21
ENDBRANCH  14  15
ENDBRANCH   1  14
TORSDOF 5
