REMARK  10 active torsions:
REMARK  status: ('A' for Active; 'I' for Inactive)
REMARK    1  A    between atoms: N_2  and  S_1 
REMARK    2  A    between atoms: C_3  and  S_1 
REMARK    3  A    between atoms: C_6  and  N_2 
REMARK    4  A    between atoms: C_4  and  C_7 
REMARK    5  A    between atoms: C_5  and  C_8 
REMARK    6  A    between atoms: C_9  and  C_6 
REMARK    7  A    between atoms: C_22  and  C_6 
REMARK    8  A    between atoms: O_23  and  C_9 
REMARK    9  A    between atoms: C_25  and  C_22 
REMARK   10  A    between atoms: S_24  and  C_25 
ROOT
ATOM      1  C   UNL d   1      -0.119  -0.393  -1.339  0.00  0.00     0.076 A 
ATOM      2  C   UNL d   1      -2.159   0.162  -2.534  0.00  0.00     0.050 A 
ATOM      3  C   UNL d   1      -0.768  -1.727  -3.258  0.00  0.00     0.050 A 
ATOM      4  C   UNL d   1      -1.248   0.420  -1.498  0.00  0.00     0.041 A 
ATOM      5  C   UNL d   1       0.123  -1.457  -2.211  0.00  0.00     0.041 A 
ATOM      6  C   UNL d   1      -1.913  -0.920  -3.401  0.00  0.00     0.032 A 
ENDROOT
BRANCH   1   7
ATOM      7  S   UNL d   1       1.116   0.033  -0.127  0.00  0.00     0.242 S 
ATOM      8  O   UNL d   1       2.383  -0.455  -0.619  0.00  0.00    -0.206 OA
ATOM      9  O   UNL d   1       0.903   1.428   0.203  0.00  0.00    -0.206 OA
BRANCH   7  10
ATOM     10  N   UNL d   1       0.619  -0.869   1.216  0.00  0.00    -0.202 NA
ATOM     11  H   UNL d   1      -0.397  -0.835   1.288  0.00  0.00     0.141 HD
BRANCH  10  12
ATOM     12  C   UNL d   1       1.170  -2.252   1.343  0.00  0.00     0.171 C 
BRANCH  12  13
ATOM     13  C   UNL d   1       2.695  -2.320   1.422  0.00  0.00     0.277 C 
ATOM     14  O   UNL d   1       3.346  -3.268   0.996  0.00  0.00    -0.263 OA
BRANCH  13  15
ATOM     15  O   UNL d   1       3.211  -1.236   2.066  0.00  0.00    -0.325 OA
ATOM     16  C   UNL d   1       4.636  -1.131   2.057  0.00  0.00     0.213 C 
ENDBRANCH  13  15
ENDBRANCH  12  13
BRANCH  12  17
ATOM     17  C   UNL d   1       0.610  -2.918   2.616  0.00  0.00     0.041 C 
BRANCH  17  18
ATOM     18  C   UNL d   1      -0.913  -3.061   2.672  0.00  0.00     0.075 C 
BRANCH  18  19
ATOM     19  S   UNL d   1      -1.551  -4.006   1.252  0.00  0.00    -0.173 SA
ATOM     20  C   UNL d   1      -3.320  -3.905   1.608  0.00  0.00     0.089 C 
ENDBRANCH  18  19
ENDBRANCH  17  18
ENDBRANCH  12  17
ENDBRANCH  10  12
ENDBRANCH   7  10
ENDBRANCH   1   7
BRANCH   2  21
ATOM     21  C   UNL d   1      -3.366   1.049  -2.754  0.00  0.00     0.417 C 
ATOM     22  F   UNL d   1      -3.445   2.087  -1.877  0.00  0.00    -0.166 F 
ATOM     23  F   UNL d   1      -3.383   1.603  -3.996  0.00  0.00    -0.166 F 
ATOM     24  F   UNL d   1      -4.537   0.365  -2.630  0.00  0.00    -0.166 F 
ENDBRANCH   2  21
BRANCH   3  25
ATOM     25  C   UNL d   1      -0.475  -2.831  -4.250  0.00  0.00     0.417 C 
ATOM     26  F   UNL d   1       0.701  -3.472  -4.012  0.00  0.00    -0.166 F 
ATOM     27  F   UNL d   1      -1.436  -3.793  -4.254  0.00  0.00    -0.166 F 
ATOM     28  F   UNL d   1      -0.398  -2.367  -5.526  0.00  0.00    -0.166 F 
ENDBRANCH   3  25
TORSDOF 10
