REMARK  8 active torsions:
REMARK  status: ('A' for Active; 'I' for Inactive)
REMARK    1  A    between atoms: C_8  and  C_1 
REMARK    2  A    between atoms: C_9  and  C_1 
REMARK    3  A    between atoms: C_2  and  C_3 
REMARK    4  A    between atoms: C_6  and  N_10 
REMARK    5  A    between atoms: N_10  and  C_7 
REMARK    6  A    between atoms: O_22  and  C_8 
REMARK    7  A    between atoms: N_11  and  C_9 
REMARK    8  A    between atoms: C_23  and  O_22 
ROOT
ATOM      1  N   UNL d   1       0.807  -0.174   2.345  0.00  0.00    -0.349 N 
ATOM      2  H   UNL d   1       1.817  -0.196   2.465  0.00  0.00     0.167 HD
ENDROOT
BRANCH   1   3
ATOM      3  C   UNL d   1       0.108  -0.600   3.494  0.00  0.00     0.127 A 
ATOM      4  N   UNL d   1      -1.093  -1.212   3.352  0.00  0.00    -0.350 N 
ATOM      5  C   UNL d   1      -1.772  -1.561   4.471  0.00  0.00     0.106 A 
ATOM      6  HN  UNL d   1      -1.475  -1.404   2.427  1.00  0.00     0.166 HD
ATOM      7  C   UNL d   1      -1.328  -1.311   5.761  0.00  0.00     0.065 A 
ATOM      8  C   UNL d   1      -0.094  -0.673   5.904  0.00  0.00     0.045 A 
ATOM      9  C   UNL d   1       0.630  -0.318   4.766  0.00  0.00     0.079 A 
ATOM     10 CL   UNL d   1       2.153   0.472   4.968  0.00  0.00    -0.080 Cl
BRANCH   7  11
ATOM     11  C   UNL d   1      -2.173  -1.713   6.930  0.00  0.00     0.418 C 
ATOM     12  F   UNL d   1      -1.622  -1.387   8.131  0.00  0.00    -0.166 F 
ATOM     13  F   UNL d   1      -3.400  -1.127   6.909  0.00  0.00    -0.166 F 
ATOM     14  F   UNL d   1      -2.397  -3.054   6.972  0.00  0.00    -0.166 F 
ENDBRANCH   7  11
ENDBRANCH   1   3
BRANCH   1  15
ATOM     15  C   UNL d   1       0.302  -0.128   1.062  0.00  0.00     0.117 C 
ATOM     16  C   UNL d   1       0.974  -0.005  -0.096  0.00  0.00     0.117 C 
BRANCH  16  17
ATOM     17  C   UNL d   1       0.247   0.060  -1.377  0.00  0.00     0.304 C 
ATOM     18  O   UNL d   1      -0.964  -0.065  -1.498  0.00  0.00    -0.258 OA
BRANCH  17  19
ATOM     19  O   UNL d   1       1.134   0.219  -2.390  0.00  0.00    -0.317 OA
BRANCH  19  20
ATOM     20  C   UNL d   1       0.638  -0.065  -3.704  0.00  0.00     0.174 C 
ATOM     21  C   UNL d   1       0.783  -1.556  -3.945  0.00  0.00     0.034 C 
ENDBRANCH  19  20
ENDBRANCH  17  19
ENDBRANCH  16  17
BRANCH  16  22
ATOM     22  C   UNL d   1       2.494  -0.005  -0.096  0.00  0.00    -0.029 C 
BRANCH  22  23
ATOM     23  N   UNL d   1       3.755  -0.005  -0.096  0.00  0.00    -0.365 N 
ATOM     24  HN2 UNL d   1       2.735  -0.005  -0.096  1.00  0.00     0.165 HD
ATOM     25  HN1 UNL d   1       4.775  -0.005  -0.096  1.00  0.00     0.165 HD
ENDBRANCH  22  23
ENDBRANCH  16  22
ENDBRANCH   1  15
TORSDOF 8
