REMARK  7 active torsions:
REMARK  status: ('A' for Active; 'I' for Inactive)
REMARK    1  A    between atoms: O_5  and  C_1 
REMARK    2  A    between atoms: N_3  and  C_2 
REMARK    3  A    between atoms: C_11  and  O_5 
REMARK    4  A    between atoms: O_8  and  C_6 
REMARK    5  A    between atoms: C_12  and  O_8 
REMARK    6  A    between atoms: O_18  and  C_16 
REMARK    7  A    between atoms: O_19  and  C_17 
ROOT
ATOM      1  C   UNL d   1       0.347   1.212   0.009  0.00  0.00     0.132 A 
ATOM      2  C   UNL d   1       1.746   1.128   0.113  0.00  0.00     0.138 A 
ATOM      3  C   UNL d   1      -0.387   0.006  -0.071  0.00  0.00     0.114 A 
ATOM      4  C   UNL d   1       0.286  -1.234  -0.117  0.00  0.00     0.100 A 
ATOM      5  C   UNL d   1      -1.826   0.037  -0.088  0.00  0.00     0.105 C 
ATOM      6  N   UNL d   1      -2.984   0.066  -0.098  0.00  0.00    -0.191 NA
ATOM      7  C   UNL d   1       2.418  -0.096  -0.015  0.00  0.00     0.042 A 
ATOM      8  C   UNL d   1       1.687  -1.269  -0.161  0.00  0.00     0.041 A 
ENDROOT
BRANCH   1   9
ATOM      9  O   UNL d   1      -0.376   2.396   0.029  0.00  0.00    -0.304 OA
BRANCH   9  10
ATOM     10  C   UNL d   1       0.052   3.469  -0.732  0.00  0.00     0.109 A 
ATOM     11  C   UNL d   1      -0.083   4.780  -0.241  0.00  0.00     0.102 A 
ATOM     12  C   UNL d   1       0.476   5.839  -0.973  0.00  0.00     0.039 A 
ATOM     13  C   UNL d   1       1.141   5.618  -2.178  0.00  0.00     0.003 A 
ATOM     14  C   UNL d   1       1.214   4.332  -2.694  0.00  0.00     0.003 A 
ATOM     15  C   UNL d   1       0.647   3.267  -1.992  0.00  0.00     0.040 A 
BRANCH  11  16
ATOM     16  O   UNL d   1      -0.663   5.216   0.918  0.00  0.00    -0.353 OA
ATOM     17  C   UNL d   1      -1.465   4.325   1.673  0.00  0.00     0.210 C 
ENDBRANCH  11  16
ENDBRANCH   9  10
ENDBRANCH   1   9
BRANCH   4  18
ATOM     18  O   UNL d   1      -0.445  -2.413  -0.146  0.00  0.00    -0.306 OA
BRANCH  18  19
ATOM     19  C   UNL d   1       0.015  -3.471   0.622  0.00  0.00     0.109 A 
ATOM     20  C   UNL d   1       0.088  -4.773   0.103  0.00  0.00     0.102 A 
ATOM     21  C   UNL d   1       0.598  -5.800   0.916  0.00  0.00     0.039 A 
ATOM     22  C   UNL d   1       1.027  -5.553   2.220  0.00  0.00     0.003 A 
ATOM     23  C   UNL d   1       0.931  -4.270   2.741  0.00  0.00     0.003 A 
ATOM     24  C   UNL d   1       0.407  -3.241   1.956  0.00  0.00     0.040 A 
BRANCH  20  25
ATOM     25  O   UNL d   1      -0.224  -5.226  -1.149  0.00  0.00    -0.353 OA
ATOM     26  C   UNL d   1      -1.016  -4.416  -2.000  0.00  0.00     0.210 C 
ENDBRANCH  20  25
ENDBRANCH  18  19
ENDBRANCH   4  18
BRANCH   2  27
ATOM     27  N   UNL d   1       2.570   2.286   0.421  0.00  0.00    -0.113 N 
ATOM     28  O   UNL d   1       2.264   2.947   1.421  0.00  0.00    -0.532 OA
ATOM     29  O   UNL d   1       3.561   2.475  -0.297  0.00  0.00    -0.532 OA
ENDBRANCH   2  27
TORSDOF 7
