REMARK  8 active torsions:
REMARK  status: ('A' for Active; 'I' for Inactive)
REMARK    1  A    between atoms: C_2  and  S_1 
REMARK    2  A    between atoms: N_3  and  S_1 
REMARK    3  A    between atoms: N_5  and  N_3 
REMARK    4  A    between atoms: C_4  and  S_11 
REMARK       I    between atoms: C_6  and  N_5 
REMARK    5  A    between atoms: C_18  and  C_6 
REMARK    6  A    between atoms: S_11  and  C_20 
REMARK    7  A    between atoms: O_19  and  C_18 
REMARK    8  A    between atoms: C_21  and  O_19 
ROOT
ATOM      1  N   UNL d   1       0.867  -1.426   2.352  0.00  0.00    -0.259 N 
ATOM      2  C   UNL d   1       0.309  -1.619   3.604  0.00  0.00     0.260 C 
ATOM      3  O   UNL d   1      -0.621  -0.943   4.038  0.00  0.00    -0.269 OA
ATOM      4  H   UNL d   1       1.665  -1.961   2.019  0.00  0.00     0.190 HD
ENDROOT
BRANCH   1   5
ATOM      5  N   UNL d   1       0.345  -0.381   1.508  0.00  0.00    -0.220 N 
ATOM      6  H   UNL d   1      -0.468   0.169   1.810  0.00  0.00     0.200 HD
BRANCH   5   7
ATOM      7  S   UNL d   1       0.970  -0.107  -0.028  0.00  0.00     0.278 S 
ATOM      8  O   UNL d   1       0.209   0.933  -0.674  0.00  0.00    -0.199 OA
ATOM      9  O   UNL d   1       2.410  -0.007   0.135  0.00  0.00    -0.199 OA
BRANCH   7  10
ATOM     10  C   UNL d   1       0.648  -1.641  -0.855  0.00  0.00     0.104 A 
ATOM     11  C   UNL d   1       1.751  -2.383  -1.312  0.00  0.00     0.050 A 
ATOM     12  C   UNL d   1       1.551  -3.618  -1.923  0.00  0.00     0.035 A 
ATOM     13 CL   UNL d   1       2.904  -4.535  -2.456  0.00  0.00    -0.084 Cl
ATOM     14  C   UNL d   1       0.264  -4.119  -2.090  0.00  0.00     0.025 A 
ATOM     15  C   UNL d   1      -0.832  -3.375  -1.644  0.00  0.00     0.027 A 
ATOM     16  C   UNL d   1      -0.648  -2.132  -1.022  0.00  0.00     0.057 A 
ATOM     17 CL   UNL d   1      -2.068  -1.314  -0.485  0.00  0.00    -0.083 Cl
ENDBRANCH   7  10
ENDBRANCH   5   7
ENDBRANCH   1   5
BRANCH   2  18
ATOM     18  C   UNL d   1       0.962  -2.754   4.382  0.00  0.00     0.280 C 
BRANCH  18  19
ATOM     19  O   UNL d   1       0.272  -3.966   4.092  0.00  0.00    -0.342 OA
BRANCH  19  20
ATOM     20  C   UNL d   1       0.718  -5.068   4.770  0.00  0.00     0.069 A 
ATOM     21  C   UNL d   1      -0.238  -6.049   5.037  0.00  0.00     0.038 A 
ATOM     22  C   UNL d   1       0.120  -7.228   5.700  0.00  0.00     0.021 A 
ATOM     23  C   UNL d   1       1.442  -7.441   6.098  0.00  0.00     0.009 A 
ATOM     24  C   UNL d   1       2.405  -6.474   5.795  0.00  0.00     0.021 A 
ATOM     25  C   UNL d   1       2.044  -5.291   5.140  0.00  0.00     0.038 A 
BRANCH  23  26
ATOM     26  S   UNL d   1       1.880  -8.974   6.888  0.00  0.00    -0.016 SA
BRANCH  26  27
ATOM     27  C   UNL d   1       2.516  -8.398   8.471  0.00  0.00     0.448 C 
ATOM     28  F   UNL d   1       2.520  -7.051   8.605  0.00  0.00    -0.160 F 
ATOM     29  F   UNL d   1       1.782  -8.898   9.494  0.00  0.00    -0.160 F 
ATOM     30  F   UNL d   1       3.793  -8.818   8.653  0.00  0.00    -0.160 F 
ENDBRANCH  26  27
ENDBRANCH  23  26
ENDBRANCH  19  20
ENDBRANCH  18  19
ENDBRANCH   2  18
TORSDOF 8
