REMARK  4 active torsions:
REMARK  status: ('A' for Active; 'I' for Inactive)
REMARK    1  A    between atoms: C_8  and  C_1 
REMARK    2  A    between atoms: S_12  and  C_5 
REMARK    3  A    between atoms: O_13  and  C_8 
REMARK    4  A    between atoms: C_16  and  O_13 
ROOT
ATOM      1  C   UNL d   1      -1.247  -1.321  -0.044  0.00  0.00     0.063 A 
ATOM      2  C   UNL d   1       0.901  -0.168  -0.074  0.00  0.00     0.079 A 
ATOM      3  N   UNL d   1      -1.141   1.088  -0.072  0.00  0.00    -0.352 N 
ATOM      4  HN  UNL d   1      -1.621   1.988  -0.085  1.00  0.00     0.166 HD
ATOM      5  C   UNL d   1       0.214   1.041  -0.073  0.00  0.00     0.090 A 
ATOM      6  C   UNL d   1       0.157  -1.355  -0.066  0.00  0.00     0.045 A 
ATOM      7  C   UNL d   1      -1.861  -0.069  -0.053  0.00  0.00     0.022 A 
ATOM      8  C   UNL d   1       2.330  -0.246  -0.064  0.00  0.00     0.102 C 
ATOM      9  N   UNL d   1       3.486  -0.365  -0.052  0.00  0.00    -0.191 NA
ATOM     10  C   UNL d   1      -3.349   0.128  -0.020  0.00  0.00     0.069 C 
ENDROOT
BRANCH   5  11
ATOM     11  S   UNL d   1       1.056   2.618  -0.054  0.00  0.00    -0.115 SA
ATOM     12  C   UNL d   1      -0.356   3.756  -0.050  0.00  0.00     0.097 C 
ENDBRANCH   5  11
BRANCH   1  13
ATOM     13  C   UNL d   1      -2.045  -2.577   0.058  0.00  0.00     0.295 C 
ATOM     14  O   UNL d   1      -3.262  -2.628   0.081  0.00  0.00    -0.259 OA
BRANCH  13  15
ATOM     15  O   UNL d   1      -1.212  -3.634   0.226  0.00  0.00    -0.318 OA
BRANCH  15  16
ATOM     16  C   UNL d   1      -1.823  -4.834   0.723  0.00  0.00     0.174 C 
ATOM     17  C   UNL d   1      -1.744  -4.804   2.238  0.00  0.00     0.034 C 
ENDBRANCH  15  16
ENDBRANCH  13  15
ENDBRANCH   1  13
TORSDOF 4
