REMARK  6 active torsions:
REMARK  status: ('A' for Active; 'I' for Inactive)
REMARK    1  A    between atoms: C_9  and  C_3 
REMARK    2  A    between atoms: C_10  and  C_4 
REMARK    3  A    between atoms: O_16  and  C_9 
REMARK    4  A    between atoms: O_15  and  C_10 
REMARK    5  A    between atoms: C_18  and  O_15 
REMARK    6  A    between atoms: C_17  and  O_16 
ROOT
ATOM      1  C   UNL d   1      -0.001  -0.616  -0.010  0.00  0.00     0.058 A 
ATOM      2  C   UNL d   1       0.009   0.731  -0.002  0.00  0.00     0.003 A 
ATOM      3  C   UNL d   1       2.261   0.220   0.004  0.00  0.00     0.088 A 
ATOM      4  C   UNL d   1      -2.250   0.250  -0.026  0.00  0.00     0.088 A 
ATOM      5  C   UNL d   1       1.326   1.279  -0.013  0.00  0.00    -0.026 A 
ATOM      6  C   UNL d   1      -1.303   1.296   0.004  0.00  0.00    -0.026 A 
ATOM      7  S   UNL d   1       1.491  -1.330   0.040  0.00  0.00    -0.075 SA
ATOM      8  S   UNL d   1      -1.501  -1.310  -0.065  0.00  0.00    -0.075 SA
ATOM      9  C   UNL d   1       1.763   2.708  -0.063  0.00  0.00     0.050 C 
ATOM     10  C   UNL d   1      -1.720   2.730   0.067  0.00  0.00     0.050 C 
ENDROOT
BRANCH   3  11
ATOM     11  C   UNL d   1       3.717   0.294  -0.072  0.00  0.00     0.300 C 
ATOM     12  O   UNL d   1       4.370   1.322  -0.215  0.00  0.00    -0.259 OA
BRANCH  11  13
ATOM     13  O   UNL d   1       4.263  -0.956  -0.063  0.00  0.00    -0.317 OA
BRANCH  13  14
ATOM     14  C   UNL d   1       5.569  -1.084  -0.632  0.00  0.00     0.174 C 
ATOM     15  C   UNL d   1       5.415  -1.246  -2.135  0.00  0.00     0.034 C 
ENDBRANCH  13  14
ENDBRANCH  11  13
ENDBRANCH   3  11
BRANCH   4  16
ATOM     16  C   UNL d   1      -3.706   0.344   0.037  0.00  0.00     0.300 C 
ATOM     17  O   UNL d   1      -4.346   1.380   0.165  0.00  0.00    -0.259 OA
BRANCH  16  18
ATOM     18  O   UNL d   1      -4.269  -0.900   0.028  0.00  0.00    -0.317 OA
BRANCH  18  19
ATOM     19  C   UNL d   1      -5.583  -1.004   0.583  0.00  0.00     0.174 C 
ATOM     20  C   UNL d   1      -5.449  -1.164   2.087  0.00  0.00     0.034 C 
ENDBRANCH  18  19
ENDBRANCH  16  18
ENDBRANCH   4  16
TORSDOF 6
