REMARK  8 active torsions:
REMARK  status: ('A' for Active; 'I' for Inactive)
REMARK    1  A    between atoms: C_2  and  N_1 
REMARK    2  A    between atoms: C_3  and  C_7 
REMARK    3  A    between atoms: C_4  and  C_8 
REMARK    4  A    between atoms: C_7  and  O_23 
REMARK    5  A    between atoms: O_25  and  C_11 
REMARK    6  A    between atoms: O_23  and  C_26 
REMARK    7  A    between atoms: C_27  and  O_25 
REMARK    8  A    between atoms: C_26  and  C_27 
ROOT
ATOM      1  O   UNL d   1      -1.212  -1.845   0.134  0.00  0.00    -0.346 OA
ENDROOT
BRANCH   1   2
ATOM      2  C   UNL d   1      -0.750  -0.856   0.960  0.00  0.00     0.101 A 
ATOM      3  C   UNL d   1      -1.667  -0.087   1.688  0.00  0.00     0.137 A 
ATOM      4  C   UNL d   1      -1.260   0.991   2.496  0.00  0.00     0.055 A 
ATOM      5  C   UNL d   1       0.103   1.291   2.616  0.00  0.00     0.050 A 
ATOM      6  C   UNL d   1       1.030   0.481   1.948  0.00  0.00     0.019 A 
ATOM      7  C   UNL d   1       0.610  -0.577   1.137  0.00  0.00     0.040 A 
BRANCH   3   8
ATOM      8  N   UNL d   1      -3.087  -0.382   1.628  0.00  0.00    -0.113 N 
ATOM      9  O   UNL d   1      -3.834   0.542   1.278  0.00  0.00    -0.532 OA
ATOM     10  O   UNL d   1      -3.456  -1.503   2.004  0.00  0.00    -0.532 OA
ENDBRANCH   3   8
BRANCH   5  11
ATOM     11  C   UNL d   1       0.601   2.452   3.442  0.00  0.00     0.417 C 
ATOM     12  F   UNL d   1      -0.395   3.169   4.028  0.00  0.00    -0.166 F 
ATOM     13  F   UNL d   1       1.424   2.053   4.449  0.00  0.00    -0.166 F 
ATOM     14  F   UNL d   1       1.319   3.339   2.700  0.00  0.00    -0.166 F 
ENDBRANCH   5  11
ENDBRANCH   1   2
BRANCH   1  15
ATOM     15  C   UNL d   1      -0.380  -2.170  -0.991  0.00  0.00     0.202 C 
BRANCH  15  16
ATOM     16  C   UNL d   1      -0.919  -3.410  -1.701  0.00  0.00     0.205 C 
BRANCH  16  17
ATOM     17  O   UNL d   1      -1.042  -4.525  -0.800  0.00  0.00    -0.315 OA
BRANCH  17  18
ATOM     18  C   UNL d   1       0.106  -5.107  -0.386  0.00  0.00     0.295 C 
ATOM     19  O   UNL d   1       1.240  -4.751  -0.656  0.00  0.00    -0.259 OA
BRANCH  18  20
ATOM     20  C   UNL d   1      -0.201  -6.178   0.587  0.00  0.00     0.061 A 
ATOM     21  C   UNL d   1      -1.227  -7.119   0.414  0.00  0.00     0.051 A 
ATOM     22  C   UNL d   1      -1.464  -8.079   1.404  0.00  0.00     0.048 A 
ATOM     23 CL   UNL d   1      -2.197  -7.219  -1.014  0.00  0.00    -0.083 Cl
ATOM     24  C   UNL d   1      -0.665  -8.118   2.546  0.00  0.00     0.035 A 
ATOM     25  C   UNL d   1       0.378  -7.210   2.711  0.00  0.00     0.025 A 
ATOM     26 CL   UNL d   1      -0.959  -9.308   3.752  0.00  0.00    -0.084 Cl
ATOM     27  C   UNL d   1       0.611  -6.241   1.732  0.00  0.00     0.021 A 
ENDBRANCH  18  20
ENDBRANCH  17  18
ENDBRANCH  16  17
ENDBRANCH  15  16
ENDBRANCH   1  15
TORSDOF 8
