REMARK  6 active torsions:
REMARK  status: ('A' for Active; 'I' for Inactive)
REMARK    1  A    between atoms: C_2  and  C_1 
REMARK    2  A    between atoms: S_15  and  C_4 
REMARK    3  A    between atoms: C_11  and  N_16 
REMARK    4  A    between atoms: C_19  and  S_15 
REMARK    5  A    between atoms: N_16  and  C_20 
REMARK    6  A    between atoms: C_20  and  C_19 
ROOT
ATOM      1  C   UNL d   1      -0.183   6.614   0.268  0.00  0.00     0.139 C 
ATOM      2  C   UNL d   1       0.729   6.306   1.316  0.00  0.00     0.112 C 
ATOM      3  C   UNL d   1      -0.680   7.941   0.159  0.00  0.00     0.112 C 
ATOM      4  N   UNL d   1       1.474   6.033   2.161  0.00  0.00    -0.191 NA
ATOM      5  N   UNL d   1      -1.092   9.022   0.056  0.00  0.00    -0.191 NA
ATOM      6  C   UNL d   1      -0.593   5.674  -0.606  0.00  0.00     0.117 C 
ENDROOT
BRANCH   6   7
ATOM      7  N   UNL d   1      -0.242   4.345  -0.679  0.00  0.00    -0.396 N 
ATOM      8  H   UNL d   1       0.513   4.028  -0.068  0.00  0.00     0.158 HD
BRANCH   7   9
ATOM      9  C   UNL d   1      -0.700   3.385  -1.685  0.00  0.00     0.129 C 
BRANCH   9  10
ATOM     10  C   UNL d   1      -0.179   1.992  -1.322  0.00  0.00     0.100 C 
BRANCH  10  11
ATOM     11  S   UNL d   1      -0.750   0.686  -2.463  0.00  0.00    -0.110 SA
BRANCH  11  12
ATOM     12  C   UNL d   1       0.114  -0.716  -1.766  0.00  0.00     0.084 A 
ATOM     13  C   UNL d   1      -0.266  -2.043  -1.934  0.00  0.00     0.081 A 
ATOM     14  C   UNL d   1       0.532  -3.030  -1.313  0.00  0.00     0.020 A 
ATOM     15  C   UNL d   1       1.656  -2.682  -0.576  0.00  0.00     0.018 A 
ATOM     16  C   UNL d   1       1.962  -1.345  -0.478  0.00  0.00     0.089 A 
ATOM     17  N   UNL d   1       1.220  -0.376  -1.051  0.00  0.00    -0.360 N 
ATOM     18  HN  UNL d   1       1.487   0.603  -0.949  1.00  0.00     0.166 HD
BRANCH  13  19
ATOM     19  C   UNL d   1      -1.453  -2.518  -2.718  0.00  0.00     0.420 C 
ATOM     20  F   UNL d   1      -2.243  -1.573  -3.285  0.00  0.00    -0.166 F 
ATOM     21  F   UNL d   1      -2.292  -3.272  -1.946  0.00  0.00    -0.166 F 
ATOM     22  F   UNL d   1      -1.080  -3.342  -3.741  0.00  0.00    -0.166 F 
ENDBRANCH  13  19
ENDBRANCH  11  12
ENDBRANCH  10  11
ENDBRANCH   9  10
ENDBRANCH   7   9
ENDBRANCH   6   7
TORSDOF 6
