REMARK  4 active torsions:
REMARK  status: ('A' for Active; 'I' for Inactive)
REMARK    1  A    between atoms: C_2  and  N_1 
REMARK    2  A    between atoms: S_5  and  C_8 
REMARK    3  A    between atoms: C_10  and  S_5 
REMARK    4  A    between atoms: C_8  and  C_9 
ROOT
ATOM      1  C   UNL d   1       0.366   0.069   1.244  0.00  0.00     0.102 A 
ATOM      2  C   UNL d   1      -1.021  -0.114   1.292  0.00  0.00     0.036 A 
ATOM      3  C   UNL d   1       1.091   0.315   2.415  0.00  0.00     0.036 A 
ATOM      4  C   UNL d   1      -0.977   0.218   3.706  0.00  0.00    -0.048 A 
ATOM      5  C   UNL d   1      -1.686  -0.039   2.521  0.00  0.00     0.010 A 
ATOM      6  C   UNL d   1       0.419   0.377   3.638  0.00  0.00     0.010 A 
ENDROOT
BRANCH   4   7
ATOM      7  C   UNL d   1      -1.700   0.254   5.037  0.00  0.00     0.117 C 
BRANCH   7   8
ATOM      8  S   UNL d   1      -1.358   1.780   5.979  0.00  0.00    -0.125 SA
BRANCH   8   9
ATOM      9  C   UNL d   1      -2.201   1.528   7.536  0.00  0.00     0.000 A 
ATOM     10  C   UNL d   1      -2.840   0.348   7.929  0.00  0.00     0.018 A 
ATOM     11  C   UNL d   1      -3.470   0.260   9.177  0.00  0.00     0.001 A 
ATOM     12  C   UNL d   1      -3.467   1.349  10.045  0.00  0.00     0.000 A 
ATOM     13  C   UNL d   1      -2.829   2.527   9.670  0.00  0.00     0.001 A 
ATOM     14  C   UNL d   1      -2.199   2.613   8.426  0.00  0.00     0.018 A 
ENDBRANCH   8   9
ENDBRANCH   7   8
ENDBRANCH   4   7
BRANCH   1  15
ATOM     15  N   UNL d   1       1.069  -0.005  -0.042  0.00  0.00    -0.116 N 
ATOM     16  O   UNL d   1       0.400  -0.280  -1.049  0.00  0.00    -0.532 OA
ATOM     17  O   UNL d   1       2.289   0.209  -0.047  0.00  0.00    -0.532 OA
ENDBRANCH   1  15
TORSDOF 4
