REMARK  2 active torsions:
REMARK  status: ('A' for Active; 'I' for Inactive)
REMARK    1  A    between atoms: S_12  and  C_3 
REMARK    2  A    between atoms: C_4  and  C_5 
ROOT
ATOM      1  N   UNL d   1       1.169  -0.721   0.060  0.00  0.00    -0.336 N 
ATOM      2  HN  UNL d   1       2.049  -1.233   0.118  1.00  0.00     0.168 HD
ATOM      3  C   UNL d   1       1.135   0.614  -0.072  0.00  0.00     0.141 A 
ATOM      4  C   UNL d   1      -0.024  -1.349   0.110  0.00  0.00     0.052 A 
ATOM      5  N   UNL d   1       0.023   1.360  -0.136  0.00  0.00    -0.347 N 
ATOM      6  HN  UNL d   1       0.059   2.375  -0.228  1.00  0.00     0.167 HD
ATOM      7  C   UNL d   1      -1.227  -0.671   0.047  0.00  0.00     0.048 A 
ATOM      8  C   UNL d   1      -1.142   0.694  -0.071  0.00  0.00     0.092 A 
ENDROOT
BRANCH   4   9
ATOM      9  C   UNL d   1       0.065  -2.804   0.290  0.00  0.00     0.031 A 
ATOM     10  S   UNL d   1      -1.114  -3.861  -0.378  0.00  0.00    -0.100 SA
ATOM     11  C   UNL d   1      -0.353  -5.246   0.271  0.00  0.00     0.050 A 
ATOM     12  C   UNL d   1       0.792  -4.927   0.965  0.00  0.00     0.008 A 
ATOM     13  C   UNL d   1       1.043  -3.524   0.958  0.00  0.00     0.021 A 
ENDBRANCH   4   9
BRANCH   3  14
ATOM     14  S   UNL d   1       2.689   1.448  -0.176  0.00  0.00    -0.107 SA
ATOM     15  H   UNL d   1       3.395   0.311  -0.222  0.00  0.00     0.110 HD
ENDBRANCH   3  14
TORSDOF 2
