REMARK  0 active torsions:
REMARK  status: ('A' for Active; 'I' for Inactive)
ROOT
ATOM      1  S   UNL d   1       2.348   0.798   0.423  0.00  0.00     0.239 S 
ATOM      2  N   UNL d   1       0.905   1.476  -0.170  0.00  0.00    -0.278 N 
ATOM      3  C   UNL d   1      -0.260   0.688  -0.097  0.00  0.00     0.065 A 
ATOM      4  C   UNL d   1      -0.211  -0.684   0.025  0.00  0.00     0.079 A 
ATOM      5  C   UNL d   1       2.277  -0.800  -0.324  0.00  0.00     0.247 C 
ATOM      6  C   UNL d   1       0.996  -1.488   0.044  0.00  0.00     0.184 C 
ATOM      7  S   UNL d   1      -1.758  -1.389   0.125  0.00  0.00    -0.096 SA
ATOM      8  C   UNL d   1      -1.604   1.160  -0.146  0.00  0.00     0.039 A 
ATOM      9  O   UNL d   1       2.234   0.658   1.858  0.00  0.00    -0.205 OA
ATOM     10  O   UNL d   1       3.466   1.502  -0.174  0.00  0.00    -0.205 OA
ATOM     11  C   UNL d   1      -2.520   0.134  -0.030  0.00  0.00     0.053 A 
ATOM     12  O   UNL d   1       1.003  -2.711   0.212  0.00  0.00    -0.291 OA
ATOM     13  C   UNL d   1       0.878   2.924  -0.420  0.00  0.00     0.169 C 
ENDROOT
TORSDOF 0
