REMARK  4 active torsions:
REMARK  status: ('A' for Active; 'I' for Inactive)
REMARK    1  A    between atoms: N_6  and  C_1 
REMARK    2  A    between atoms: C_8  and  C_2 
REMARK    3  A    between atoms: C_11  and  C_5 
REMARK       I    between atoms: C_7  and  N_6 
REMARK    4  A    between atoms: C_10  and  C_7 
ROOT
ATOM      1  C   UNL d   1       1.573  -0.640   0.008  0.00  0.00     0.049 A 
ATOM      2  C   UNL d   1       0.163   1.260   0.017  0.00  0.00    -0.007 A 
ATOM      3  S   UNL d   1      -0.935  -0.051  -0.032  0.00  0.00    -0.096 SA
ATOM      4  C   UNL d   1       1.459   0.783  -0.000  0.00  0.00     0.045 A 
ATOM      5  C   UNL d   1       0.319  -1.229  -0.018  0.00  0.00     0.009 A 
ENDROOT
BRANCH   1   6
ATOM      6  N   UNL d   1       2.767  -1.366   0.024  0.00  0.00    -0.322 N 
ATOM      7  C   UNL d   1       4.026  -0.787   0.052  0.00  0.00     0.256 C 
ATOM      8  O   UNL d   1       4.276   0.415   0.093  0.00  0.00    -0.267 OA
ATOM      9  H   UNL d   1       2.681  -2.370   0.078  0.00  0.00     0.169 HD
BRANCH   7  10
ATOM     10  C   UNL d   1       5.196  -1.712   0.056  0.00  0.00     0.032 A 
ATOM     11  C   UNL d   1       5.163  -2.991  -0.510  0.00  0.00     0.017 A 
ATOM     12  C   UNL d   1       6.319  -3.779  -0.518  0.00  0.00     0.001 A 
ATOM     13  C   UNL d   1       7.509  -3.292   0.028  0.00  0.00     0.000 A 
ATOM     14  C   UNL d   1       7.551  -2.017   0.583  0.00  0.00     0.001 A 
ATOM     15  C   UNL d   1       6.401  -1.230   0.596  0.00  0.00     0.017 A 
ENDBRANCH   7  10
ENDBRANCH   1   6
BRANCH   5  16
ATOM     16  C   UNL d   1      -0.072  -2.681  -0.064  0.00  0.00     0.044 C 
ATOM     17  C   UNL d   1      -0.294  -3.264   1.323  0.00  0.00     0.010 C 
ENDBRANCH   5  16
BRANCH   2  18
ATOM     18  C   UNL d   1      -0.284   2.726   0.010  0.00  0.00    -0.018 C 
ATOM     19  C   UNL d   1      -0.439   3.197  -1.448  0.00  0.00     0.020 C 
ATOM     20  C   UNL d   1      -1.611   2.943   0.761  0.00  0.00     0.020 C 
ATOM     21  C   UNL d   1       0.776   3.618   0.700  0.00  0.00     0.020 C 
ENDBRANCH   2  18
TORSDOF 4
