REMARK  4 active torsions:
REMARK  status: ('A' for Active; 'I' for Inactive)
REMARK    1  A    between atoms: C_3  and  S_1 
REMARK    2  A    between atoms: N_12  and  S_1 
REMARK    3  A    between atoms: C_2  and  N_13 
REMARK    4  A    between atoms: C_6  and  C_11 
ROOT
ATOM      1  N   UNL d   1       0.544   0.935  -1.367  0.00  0.00    -0.204 NA
ATOM      2  N   UNL d   1       0.946   2.833  -3.711  0.00  0.00    -0.360 N 
ATOM      3  C   UNL d   1       1.054   2.355  -1.266  0.00  0.00     0.127 C 
ATOM      4  C   UNL d   1       0.521   3.273  -2.378  0.00  0.00     0.140 C 
ATOM      5  C   UNL d   1       0.231   0.454  -3.839  0.00  0.00     0.035 C 
ATOM      6  C   UNL d   1       1.086   0.252  -2.598  0.00  0.00     0.109 C 
ATOM      7  C   UNL d   1       0.069   1.876  -4.365  0.00  0.00     0.126 C 
ENDROOT
BRANCH   1   8
ATOM      8  S   UNL d   1       0.955  -0.014   0.029  0.00  0.00     0.250 S 
ATOM      9  O   UNL d   1       0.148  -1.214   0.006  0.00  0.00    -0.205 OA
ATOM     10  O   UNL d   1       2.404  -0.094   0.066  0.00  0.00    -0.205 OA
BRANCH   8  11
ATOM     11  C   UNL d   1       0.542   0.831   1.537  0.00  0.00     0.116 A 
ATOM     12  S   UNL d   1      -1.113   1.102   1.858  0.00  0.00    -0.075 SA
ATOM     13  C   UNL d   1      -0.771   1.871   3.349  0.00  0.00     0.033 A 
ATOM     14  C   UNL d   1       0.584   1.923   3.600  0.00  0.00     0.023 A 
ATOM     15  C   UNL d   1       1.341   1.318   2.556  0.00  0.00     0.034 A 
BRANCH  13  16
ATOM     16  C   UNL d   1      -1.798   2.441   4.285  0.00  0.00     0.056 A 
ATOM     17  N   UNL d   1      -1.423   3.129   5.430  0.00  0.00    -0.353 N 
ATOM     18  C   UNL d   1      -2.492   3.566   6.062  0.00  0.00     0.047 A 
ATOM     19  HN  UNL d   1      -0.461   3.274   5.737  1.00  0.00     0.166 HD
ATOM     20  C   UNL d   1      -2.471   4.386   7.304  0.00  0.00     0.076 C 
ATOM     21  S   UNL d   1      -3.998   3.146   5.347  0.00  0.00    -0.087 SA
ATOM     22  C   UNL d   1      -3.160   2.347   4.084  0.00  0.00     0.082 A 
ENDBRANCH  13  16
ENDBRANCH   8  11
ENDBRANCH   1   8
BRANCH   2  23
ATOM     23  C   UNL d   1       2.022   3.428  -4.311  0.00  0.00     0.147 A 
ATOM     24  N   UNL d   1       2.688   4.425  -3.768  0.00  0.00    -0.336 N 
ATOM     25  C   UNL d   1       3.670   4.903  -4.621  0.00  0.00     0.051 A 
ATOM     26  HN  UNL d   1       2.505   4.798  -2.837  1.00  0.00     0.168 HD
ATOM     27  C   UNL d   1       4.520   6.004  -4.379  0.00  0.00     0.032 A 
ATOM     28  C   UNL d   1       3.796   4.215  -5.825  0.00  0.00     0.036 A 
ATOM     29  C   UNL d   1       5.459   6.388  -5.346  0.00  0.00     0.026 A 
ATOM     30  C   UNL d   1       5.558   5.682  -6.540  0.00  0.00     0.035 A 
ATOM     31  C   UNL d   1       4.737   4.583  -6.803  0.00  0.00     0.045 A 
ATOM     32 CL   UNL d   1       6.712   6.173  -7.722  0.00  0.00    -0.084 Cl
ATOM     33  S   UNL d   1       2.652   2.938  -5.850  0.00  0.00    -0.052 SA
ENDBRANCH   2  23
TORSDOF 4
