REMARK  9 active torsions:
REMARK  status: ('A' for Active; 'I' for Inactive)
REMARK    1  A    between atoms: C_2  and  S_1 
REMARK    2  A    between atoms: C_5  and  S_1 
REMARK    3  A    between atoms: C_3  and  C_2 
REMARK    4  A    between atoms: N_13  and  C_3 
REMARK    5  A    between atoms: C_4  and  O_10 
REMARK       I    between atoms: N_12  and  C_4 
REMARK    6  A    between atoms: O_10  and  N_6 
REMARK    7  A    between atoms: C_17  and  N_12 
REMARK    8  A    between atoms: C_18  and  C_17 
REMARK    9  A    between atoms: C_19  and  C_18 
ROOT
ATOM      1  C   UNL d   1       1.024  -2.158  -1.714  0.00  0.00     0.089 C 
ATOM      2  N   UNL d   1       1.649  -1.436  -2.593  0.00  0.00    -0.248 N 
ATOM      3  HN  UNL d   1       1.772  -1.703  -3.570  1.00  0.00     0.196 HD
ENDROOT
BRANCH   1   4
ATOM      4  C   UNL d   1       0.647  -3.550  -2.153  0.00  0.00     0.212 C 
BRANCH   4   5
ATOM      5  S   UNL d   1      -1.112  -3.735  -2.255  0.00  0.00     0.158 S 
ATOM      6  O   UNL d   1      -1.606  -2.878  -3.316  0.00  0.00    -0.227 OA
ATOM      7  O   UNL d   1      -1.626  -3.580  -0.902  0.00  0.00    -0.227 OA
BRANCH   5   8
ATOM      8  C   UNL d   1      -1.381  -5.474  -2.773  0.00  0.00     0.053 C 
ATOM      9  C   UNL d   1      -0.822  -6.438  -1.718  0.00  0.00     0.031 C 
ATOM     10  C   UNL d   1      -2.895  -5.704  -2.912  0.00  0.00     0.031 C 
ATOM     11  C   UNL d   1      -0.711  -5.740  -4.128  0.00  0.00     0.031 C 
ENDBRANCH   5   8
ENDBRANCH   4   5
ENDBRANCH   1   4
BRANCH   1  12
ATOM     12  N   UNL d   1       0.750  -1.769  -0.421  0.00  0.00    -0.290 NA
ATOM     13  H   UNL d   1      -0.102  -2.167  -0.019  0.00  0.00     0.125 HD
ATOM     14  H   UNL d   1       0.772  -0.760  -0.304  0.00  0.00     0.125 HD
ENDBRANCH   1  12
BRANCH   2  15
ATOM     15  O   UNL d   1       2.136  -0.241  -2.035  0.00  0.00    -0.180 OA
BRANCH  15  16
ATOM     16  C   UNL d   1       2.203   0.724  -3.007  0.00  0.00     0.382 C 
ATOM     17  O   UNL d   1       1.322   0.977  -3.815  0.00  0.00    -0.236 OA
ATOM     18  N   UNL d   1       3.399   1.383  -2.918  0.00  0.00    -0.335 N 
ATOM     19  H   UNL d   1       4.059   1.025  -2.244  0.00  0.00     0.164 HD
BRANCH  18  20
ATOM     20  C   UNL d   1       3.731   2.540  -3.717  0.00  0.00     0.125 C 
BRANCH  20  21
ATOM     21  C   UNL d   1       3.521   3.834  -2.932  0.00  0.00     0.019 C 
BRANCH  21  22
ATOM     22  C   UNL d   1       4.442   3.925  -1.711  0.00  0.00    -0.003 C 
ATOM     23  C   UNL d   1       4.207   5.205  -0.926  0.00  0.00     0.005 C 
ENDBRANCH  21  22
ENDBRANCH  20  21
ENDBRANCH  18  20
ENDBRANCH  15  16
ENDBRANCH   2  15
TORSDOF 9
