REMARK  3 active torsions:
REMARK  status: ('A' for Active; 'I' for Inactive)
REMARK    1  A    between atoms: C_4  and  C_1 
REMARK    2  A    between atoms: C_9  and  C_11 
REMARK    3  A    between atoms: C_18  and  C_12 
ROOT
ATOM      1  C   UNL d   1      -1.281  -1.499   0.085  0.00  0.00     0.110 C 
ATOM      2  C   UNL d   1      -0.010  -0.677  -0.076  0.00  0.00     0.024 C 
ATOM      3  C   UNL d   1      -2.554  -0.656  -0.076  0.00  0.00     0.058 C 
ATOM      4  C   UNL d   1      -0.037   0.671  -0.108  0.00  0.00     0.020 C 
ATOM      5  N   UNL d   1      -1.252   1.334  -0.083  0.00  0.00    -0.362 N 
ATOM      6  C   UNL d   1      -2.483   0.697  -0.105  0.00  0.00     0.023 C 
ATOM      7  C   UNL d   1      -3.802  -1.343  -0.111  0.00  0.00     0.098 C 
ATOM      8  C   UNL d   1       1.283  -1.409  -0.182  0.00  0.00     0.158 C 
ATOM      9  N   UNL d   1      -4.822  -1.901  -0.143  0.00  0.00    -0.192 NA
ATOM     10  O   UNL d   1       1.314  -2.638  -0.168  0.00  0.00    -0.293 OA
ATOM     11  C   UNL d   1       1.217   1.512  -0.126  0.00  0.00     0.058 C 
ATOM     12  C   UNL d   1      -3.716   1.566  -0.117  0.00  0.00     0.069 C 
ATOM     13  C   UNL d   1       2.537  -0.601  -0.417  0.00  0.00     0.084 C 
ATOM     14  C   UNL d   1       2.454   0.728   0.312  0.00  0.00     0.014 C 
ATOM     15  H   UNL d   1      -1.240   2.351  -0.095  0.00  0.00     0.165 HD
ENDROOT
BRANCH   1  16
ATOM     16  C   UNL d   1      -1.304  -2.253   1.408  0.00  0.00    -0.002 A 
ATOM     17  S   UNL d   1      -1.264  -1.384   2.889  0.00  0.00    -0.085 SA
ATOM     18  C   UNL d   1      -1.358  -2.813   3.801  0.00  0.00     0.059 A 
ATOM     19  C   UNL d   1      -1.398  -3.938   3.011  0.00  0.00     0.029 A 
ATOM     20  C   UNL d   1      -1.365  -3.616   1.623  0.00  0.00     0.017 A 
BRANCH  18  21
ATOM     21  C   UNL d   1      -1.397  -2.796   5.217  0.00  0.00    -0.054 C 
ATOM     22  C   UNL d   1      -1.445  -2.739   6.414  0.00  0.00    -0.061 C 
BRANCH  22  23
ATOM     23  C   UNL d   1      -1.517  -2.673   7.834  0.00  0.00     0.018 A 
ATOM     24  C   UNL d   1      -1.524  -1.435   8.482  0.00  0.00     0.020 A 
ATOM     25  C   UNL d   1      -1.599  -1.384   9.874  0.00  0.00     0.001 A 
ATOM     26  C   UNL d   1      -1.670  -2.566  10.611  0.00  0.00     0.000 A 
ATOM     27  C   UNL d   1      -1.663  -3.801   9.961  0.00  0.00     0.001 A 
ATOM     28  C   UNL d   1      -1.587  -3.855   8.572  0.00  0.00     0.020 A 
ENDBRANCH  22  23
ENDBRANCH  18  21
ENDBRANCH   1  16
TORSDOF 3
