REMARK  8 active torsions:
REMARK  status: ('A' for Active; 'I' for Inactive)
REMARK    1  A    between atoms: N_4  and  S_1 
REMARK    2  A    between atoms: C_12  and  S_1 
REMARK    3  A    between atoms: S_2  and  C_5 
REMARK    4  A    between atoms: C_7  and  S_2 
REMARK    5  A    between atoms: C_3  and  C_8 
REMARK    6  A    between atoms: N_13  and  N_4 
REMARK    7  A    between atoms: C_5  and  C_9 
REMARK    8  A    between atoms: C_6  and  C_14 
REMARK       I    between atoms: C_9  and  N_13 
ROOT
ATOM      1  C   UNL d   1       0.460  -3.000   2.506  0.00  0.00     0.250 C 
ATOM      2  N   UNL d   1       0.661  -2.236   1.368  0.00  0.00    -0.260 N 
ATOM      3  O   UNL d   1       0.971  -4.110   2.637  0.00  0.00    -0.271 OA
ATOM      4  H   UNL d   1       0.263  -1.308   1.224  0.00  0.00     0.190 HD
ENDROOT
BRANCH   1   5
ATOM      5  C   UNL d   1      -0.353  -2.306   3.555  0.00  0.00     0.251 C 
BRANCH   5   6
ATOM      6  S   UNL d   1      -1.362  -3.441   4.442  0.00  0.00     0.199 S 
ATOM      7  O   UNL d   1      -2.062  -2.693   5.475  0.00  0.00    -0.221 OA
ATOM      8  O   UNL d   1      -2.139  -4.196   3.470  0.00  0.00    -0.221 OA
BRANCH   6   9
ATOM      9  C   UNL d   1      -0.244  -4.556   5.260  0.00  0.00     0.128 A 
ATOM     10  N   UNL d   1       0.686  -3.938   6.037  0.00  0.00    -0.356 N 
ATOM     11  C   UNL d   1       1.556  -4.755   6.676  0.00  0.00     0.105 A 
ATOM     12  HN  UNL d   1       0.726  -2.924   6.131  1.00  0.00     0.166 HD
ATOM     13  C   UNL d   1       1.555  -6.141   6.558  0.00  0.00     0.063 A 
ATOM     14  C   UNL d   1       0.582  -6.727   5.735  0.00  0.00     0.020 A 
ATOM     15  C   UNL d   1      -0.344  -5.925   5.076  0.00  0.00     0.042 A 
BRANCH  13  16
ATOM     16  C   UNL d   1       2.573  -6.977   7.273  0.00  0.00     0.418 C 
ATOM     17  F   UNL d   1       3.393  -6.258   8.089  0.00  0.00    -0.166 F 
ATOM     18  F   UNL d   1       2.005  -7.930   8.062  0.00  0.00    -0.166 F 
ATOM     19  F   UNL d   1       3.393  -7.643   6.414  0.00  0.00    -0.166 F 
ENDBRANCH  13  16
ENDBRANCH   6   9
ENDBRANCH   5   6
ENDBRANCH   1   5
BRANCH   2  20
ATOM     20  N   UNL d   1       1.505  -2.767   0.317  0.00  0.00    -0.220 N 
ATOM     21  H   UNL d   1       1.933  -3.691   0.434  0.00  0.00     0.200 HD
BRANCH  20  22
ATOM     22  S   UNL d   1       1.818  -1.827  -1.045  0.00  0.00     0.276 S 
ATOM     23  O   UNL d   1       2.568  -0.669  -0.603  0.00  0.00    -0.199 OA
ATOM     24  O   UNL d   1       0.570  -1.671  -1.760  0.00  0.00    -0.199 OA
BRANCH  22  25
ATOM     25  C   UNL d   1       2.896  -2.861  -2.002  0.00  0.00     0.081 A 
ATOM     26  C   UNL d   1       4.284  -2.740  -1.861  0.00  0.00     0.041 A 
ATOM     27  C   UNL d   1       5.142  -3.507  -2.667  0.00  0.00     0.049 A 
ATOM     28  C   UNL d   1       4.581  -4.384  -3.612  0.00  0.00     0.016 A 
ATOM     29  C   UNL d   1       3.196  -4.491  -3.755  0.00  0.00     0.002 A 
ATOM     30  C   UNL d   1       2.349  -3.726  -2.954  0.00  0.00     0.025 A 
BRANCH  27  31
ATOM     31  C   UNL d   1       6.644  -3.402  -2.544  0.00  0.00     0.417 C 
ATOM     32  F   UNL d   1       7.051  -2.486  -1.622  0.00  0.00    -0.166 F 
ATOM     33  F   UNL d   1       7.215  -4.581  -2.176  0.00  0.00    -0.166 F 
ATOM     34  F   UNL d   1       7.240  -3.046  -3.715  0.00  0.00    -0.166 F 
ENDBRANCH  27  31
ENDBRANCH  22  25
ENDBRANCH  20  22
ENDBRANCH   2  20
TORSDOF 8
