REMARK  2 active torsions:
REMARK  status: ('A' for Active; 'I' for Inactive)
REMARK       I    between atoms: N_2  and  C_1 
REMARK    1  A    between atoms: C_3  and  C_1 
REMARK    2  A    between atoms: C_9  and  N_2 
ROOT
ATOM      1  C   UNL d   1       1.107   0.110  -0.024  0.00  0.00     0.256 C 
ATOM      2  N   UNL d   1       0.467  -0.938   0.614  0.00  0.00    -0.322 N 
ATOM      3  O   UNL d   1       2.302   0.377   0.058  0.00  0.00    -0.267 OA
ATOM      4  H   UNL d   1      -0.471  -1.171   0.320  0.00  0.00     0.169 HD
ENDROOT
BRANCH   1   5
ATOM      5  C   UNL d   1       0.274   0.943  -0.934  0.00  0.00     0.032 A 
ATOM      6  C   UNL d   1      -1.079   1.205  -0.685  0.00  0.00     0.018 A 
ATOM      7  C   UNL d   1      -1.794   2.040  -1.552  0.00  0.00     0.025 A 
ATOM      8  C   UNL d   1      -1.160   2.611  -2.658  0.00  0.00     0.034 A 
ATOM      9  C   UNL d   1       0.186   2.357  -2.908  0.00  0.00     0.025 A 
ATOM     10 CL   UNL d   1      -2.041   3.650  -3.708  0.00  0.00    -0.084 Cl
ATOM     11  C   UNL d   1       0.902   1.527  -2.045  0.00  0.00     0.018 A 
ENDBRANCH   1   5
BRANCH   2  12
ATOM     12  C   UNL d   1       1.082  -1.825   1.529  0.00  0.00     0.050 A 
ATOM     13  C   UNL d   1       2.332  -1.621   2.112  0.00  0.00     0.117 A 
ATOM     14  N   UNL d   1       2.927  -2.488   2.972  0.00  0.00    -0.373 N 
ATOM     15  C   UNL d   1       2.250  -3.615   3.262  0.00  0.00     0.088 A 
ATOM     16  HN  UNL d   1       3.842  -2.294   3.378  1.00  0.00     0.164 HD
ATOM     17  C   UNL d   1       0.997  -3.907   2.752  0.00  0.00     0.019 A 
ATOM     18  C   UNL d   1       0.402  -2.992   1.882  0.00  0.00     0.032 A 
ENDBRANCH   2  12
TORSDOF 2
