REMARK  2 active torsions:
REMARK  status: ('A' for Active; 'I' for Inactive)
REMARK    1  A    between atoms: C_11  and  N_2 
REMARK    2  A    between atoms: C_12  and  C_10 
ROOT
ATOM      1  C   UNL d   1      -0.312   0.593   0.180  0.00  0.00     0.139 A 
ATOM      2  N   UNL d   1       2.011   1.047   0.009  0.00  0.00    -0.218 N 
ATOM      3  C   UNL d   1       0.724   1.605   0.195  0.00  0.00     0.296 A 
ATOM      4  C   UNL d   1      -0.007  -0.774   0.080  0.00  0.00     0.053 A 
ATOM      5  N   UNL d   1       2.307  -0.321  -0.055  0.00  0.00    -0.294 N 
ATOM      6  HN  UNL d   1       3.277  -0.624  -0.142  1.00  0.00     0.187 HD
ATOM      7  N   UNL d   1      -1.631   0.805   0.238  0.00  0.00    -0.255 N 
ATOM      8  HN  UNL d   1      -2.112   1.702   0.314  1.00  0.00     0.195 HD
ATOM      9  C   UNL d   1       1.356  -1.212  -0.005  0.00  0.00     0.037 A 
ATOM     10  O   UNL d   1      -2.204  -0.456   0.173  0.00  0.00    -0.241 OA
ATOM     11  C   UNL d   1      -1.226  -1.406   0.086  0.00  0.00     0.087 A 
ATOM     12  O   UNL d   1       0.488   2.808   0.319  0.00  0.00    -0.264 OA
ATOM     13  C   UNL d   1       1.722  -2.668  -0.028  0.00  0.00     0.070 C 
ATOM     14  C   UNL d   1      -1.714  -2.795   0.016  0.00  0.00     0.080 C 
ENDROOT
BRANCH   2  15
ATOM     15  C   UNL d   1       3.169   1.862  -0.041  0.00  0.00     0.075 A 
ATOM     16  C   UNL d   1       4.078   1.789  -1.111  0.00  0.00     0.076 A 
ATOM     17  C   UNL d   1       5.256   2.566  -1.052  0.00  0.00     0.018 A 
ATOM     18  C   UNL d   1       5.516   3.402   0.032  0.00  0.00     0.001 A 
ATOM     19  C   UNL d   1       4.599   3.490   1.072  0.00  0.00     0.002 A 
ATOM     20  C   UNL d   1       3.428   2.732   1.032  0.00  0.00     0.032 A 
BRANCH  16  21
ATOM     21  C   UNL d   1       3.832   0.995  -2.371  0.00  0.00     0.419 C 
ATOM     22  F   UNL d   1       2.581   0.479  -2.533  0.00  0.00    -0.166 F 
ATOM     23  F   UNL d   1       4.027   1.762  -3.488  0.00  0.00    -0.166 F 
ATOM     24  F   UNL d   1       4.693  -0.053  -2.505  0.00  0.00    -0.166 F 
ENDBRANCH  16  21
ENDBRANCH   2  15
TORSDOF 2
