REMARK  3 active torsions:
REMARK  status: ('A' for Active; 'I' for Inactive)
REMARK    1  A    between atoms: C_7  and  C_1 
REMARK    2  A    between atoms: C_9  and  C_5 
REMARK       I    between atoms: N_8  and  C_7 
REMARK    3  A    between atoms: C_11  and  N_8 
ROOT
ATOM      1  C   UNL d   1      -0.206  -1.075  -0.245  0.00  0.00     0.097 A 
ATOM      2  S   UNL d   1       1.301  -0.290  -0.467  0.00  0.00    -0.064 SA
ATOM      3  N   UNL d   1      -0.741   1.185   0.022  0.00  0.00    -0.352 N 
ATOM      4  HN  UNL d   1      -1.333   1.996   0.203  1.00  0.00     0.166 HD
ATOM      5  C   UNL d   1       0.555   1.241  -0.202  0.00  0.00     0.085 A 
ATOM      6  C   UNL d   1      -1.191  -0.121  -0.021  0.00  0.00     0.029 A 
ATOM      7  C   UNL d   1      -2.645  -0.368   0.185  0.00  0.00     0.070 C 
ENDROOT
BRANCH   1   8
ATOM      8  C   UNL d   1      -0.384  -2.523  -0.268  0.00  0.00     0.265 C 
ATOM      9  N   UNL d   1       0.741  -3.272  -0.592  0.00  0.00    -0.322 N 
ATOM     10  H   UNL d   1       1.598  -2.751  -0.730  0.00  0.00     0.169 HD
ATOM     11  O   UNL d   1      -1.467  -3.023   0.019  0.00  0.00    -0.267 OA
BRANCH   9  12
ATOM     12  C   UNL d   1       0.836  -4.682  -0.610  0.00  0.00     0.035 A 
ATOM     13  C   UNL d   1      -0.267  -5.538  -0.517  0.00  0.00     0.031 A 
ATOM     14  C   UNL d   1      -0.098  -6.926  -0.458  0.00  0.00     0.026 A 
ATOM     15  C   UNL d   1       1.180  -7.469  -0.503  0.00  0.00     0.034 A 
ATOM     16  C   UNL d   1       2.288  -6.636  -0.639  0.00  0.00     0.026 A 
ATOM     17 CL   UNL d   1       1.391  -9.171  -0.381  0.00  0.00    -0.084 Cl
ATOM     18  C   UNL d   1       2.115  -5.247  -0.703  0.00  0.00     0.031 A 
ENDBRANCH   9  12
ENDBRANCH   1   8
BRANCH   5  19
ATOM     19  C   UNL d   1       1.330   2.489  -0.172  0.00  0.00    -0.002 A 
ATOM     20  C   UNL d   1       2.357   2.764  -1.086  0.00  0.00     0.014 A 
ATOM     21  C   UNL d   1       3.042   3.983  -1.042  0.00  0.00     0.001 A 
ATOM     22  C   UNL d   1       2.709   4.940  -0.083  0.00  0.00     0.000 A 
ATOM     23  C   UNL d   1       1.689   4.685   0.828  0.00  0.00     0.001 A 
ATOM     24  C   UNL d   1       1.000   3.470   0.779  0.00  0.00     0.014 A 
ENDBRANCH   5  19
TORSDOF 3
