REMARK  2 active torsions:
REMARK  status: ('A' for Active; 'I' for Inactive)
REMARK    1  A    between atoms: S_12  and  C_3 
REMARK    2  A    between atoms: O_14  and  N_10 
ROOT
ATOM      1  C   UNL d   1      -2.212  -0.603  -0.292  0.00  0.00     0.020 C 
ATOM      2  C   UNL d   1      -1.999   0.643  -1.016  0.00  0.00    -0.019 C 
ATOM      3  C   UNL d   1      -3.490  -0.684   0.244  0.00  0.00     0.054 C 
ATOM      4  S   UNL d   1      -4.468   0.621  -0.316  0.00  0.00    -0.074 SA
ATOM      5  C   UNL d   1      -3.176   1.343  -1.128  0.00  0.00     0.060 C 
ATOM      6  C   UNL d   1      -1.086  -1.523  -0.171  0.00  0.00     0.045 C 
ATOM      7  C   UNL d   1      -0.639   1.061  -1.538  0.00  0.00     0.050 C 
ATOM      8  C   UNL d   1       0.459  -0.039  -1.419  0.00  0.00    -0.038 C 
ATOM      9  C   UNL d   1       0.272  -0.850  -0.109  0.00  0.00     0.069 C 
ATOM     10  N   UNL d   1      -1.119  -2.815  -0.309  0.00  0.00    -0.273 N 
ATOM     11  HN  UNL d   1      -0.311  -3.420  -0.156  1.00  0.00     0.194 HD
ATOM     12 BR   UNL d   1      -3.373   2.959  -2.064  0.00  0.00    -0.042 Br
ATOM     13  C   UNL d   1       1.849   0.620  -1.405  0.00  0.00     0.015 C 
ATOM     14  C   UNL d   1       0.396  -0.977  -2.646  0.00  0.00     0.015 C 
ENDROOT
BRANCH  10  15
ATOM     15  O   UNL d   1      -2.377  -3.287  -0.689  0.00  0.00    -0.290 OA
ATOM     16  H   UNL d   1      -2.231  -4.248  -0.770  0.00  0.00     0.244 HD
ENDBRANCH  10  15
BRANCH   3  17
ATOM     17  S   UNL d   1      -4.247  -1.842   1.342  0.00  0.00    -0.126 SA
ATOM     18  C   UNL d   1      -2.913  -2.351   2.441  0.00  0.00     0.096 C 
ENDBRANCH   3  17
TORSDOF 2
