REMARK  6 active torsions:
REMARK  status: ('A' for Active; 'I' for Inactive)
REMARK    1  A    between atoms: C_16  and  C_3 
REMARK    2  A    between atoms: C_18  and  N_6 
REMARK    3  A    between atoms: C_8  and  C_17 
REMARK    4  A    between atoms: C_9  and  C_19 
REMARK    5  A    between atoms: C_12  and  C_18 
REMARK    6  A    between atoms: C_25  and  C_15 
ROOT
ATOM      1  C   UNL d   1      -2.502  -0.164  -0.375  0.00  0.00     0.206 C 
ENDROOT
BRANCH   1   2
ATOM      2  C   UNL d   1      -3.150  -1.520  -0.128  0.00  0.00    -0.029 A 
ATOM      3  C   UNL d   1      -2.859  -2.317   1.025  0.00  0.00    -0.043 A 
ATOM      4  C   UNL d   1      -3.537  -3.561   1.125  0.00  0.00     0.009 A 
ATOM      5  C   UNL d   1      -4.450  -4.016   0.174  0.00  0.00     0.016 A 
ATOM      6  C   UNL d   1      -4.762  -3.235  -0.927  0.00  0.00     0.010 A 
ATOM      7  C   UNL d   1      -4.102  -2.005  -1.072  0.00  0.00     0.024 A 
BRANCH   3   8
ATOM      8  C   UNL d   1      -1.965  -1.923   2.245  0.00  0.00    -0.024 C 
ATOM      9  C   UNL d   1      -2.874  -1.224   3.281  0.00  0.00     0.019 C 
ATOM     10  C   UNL d   1      -1.335  -3.172   2.936  0.00  0.00     0.019 C 
ATOM     11  C   UNL d   1      -0.759  -0.999   1.974  0.00  0.00     0.019 C 
ENDBRANCH   3   8
BRANCH   6  12
ATOM     12  C   UNL d   1      -5.779  -3.664  -1.883  0.00  0.00     0.137 A 
ATOM     13  N   UNL d   1      -6.191  -2.872  -2.934  0.00  0.00    -0.329 N 
ATOM     14  C   UNL d   1      -7.128  -3.605  -3.484  0.00  0.00     0.261 A 
ATOM     15  HN  UNL d   1      -5.853  -1.951  -3.213  1.00  0.00     0.168 HD
ATOM     16  O   UNL d   1      -7.328  -4.794  -2.867  0.00  0.00    -0.231 OA
ATOM     17  N   UNL d   1      -6.432  -4.839  -1.802  0.00  0.00    -0.243 N 
ATOM     18  HN  UNL d   1      -6.301  -5.587  -1.120  1.00  0.00     0.196 HD
ENDBRANCH   6  12
ENDBRANCH   1   2
BRANCH   1  19
ATOM     19  N   UNL d   1      -2.873   0.541  -1.606  0.00  0.00    -0.212 N 
ATOM     20  N   UNL d   1      -2.148   0.436  -2.743  0.00  0.00    -0.268 N 
ATOM     21  C   UNL d   1      -2.724   1.397  -3.493  0.00  0.00     0.144 A 
ATOM     22  HN  UNL d   1      -1.379  -0.195  -2.969  1.00  0.00     0.190 HD
ATOM     23  N   UNL d   1      -3.733   2.048  -2.821  0.00  0.00    -0.266 N 
ATOM     24  N   UNL d   1      -3.812   1.505  -1.613  0.00  0.00    -0.002 NA
ATOM     25  HN  UNL d   1      -4.312   2.805  -3.184  1.00  0.00     0.186 HD
BRANCH  21  26
ATOM     26  C   UNL d   1      -2.321   1.740  -4.854  0.00  0.00     0.011 A 
ATOM     27  C   UNL d   1      -1.376   0.962  -5.543  0.00  0.00     0.031 A 
ATOM     28  C   UNL d   1      -0.989   1.276  -6.859  0.00  0.00     0.048 A 
ATOM     29  C   UNL d   1      -1.556   2.400  -7.482  0.00  0.00     0.016 A 
ATOM     30  C   UNL d   1      -2.490   3.185  -6.806  0.00  0.00     0.002 A 
ATOM     31  C   UNL d   1      -2.872   2.855  -5.503  0.00  0.00     0.015 A 
BRANCH  28  32
ATOM     32  C   UNL d   1       0.005   0.423  -7.606  0.00  0.00     0.417 C 
ATOM     33  F   UNL d   1       0.478  -0.629  -6.882  0.00  0.00    -0.166 F 
ATOM     34  F   UNL d   1      -0.522  -0.113  -8.742  0.00  0.00    -0.166 F 
ATOM     35  F   UNL d   1       1.103   1.127  -8.001  0.00  0.00    -0.166 F 
ENDBRANCH  28  32
ENDBRANCH  21  26
ENDBRANCH   1  19
TORSDOF 6
