REMARK  8 active torsions:
REMARK  status: ('A' for Active; 'I' for Inactive)
REMARK    1  A    between atoms: C_2  and  N_1 
REMARK    2  A    between atoms: C_20  and  N_5 
REMARK    3  A    between atoms: C_15  and  C_7 
REMARK    4  A    between atoms: C_13  and  C_10 
REMARK    5  A    between atoms: S_19  and  C_15 
REMARK    6  A    between atoms: C_16  and  S_19 
REMARK    7  A    between atoms: C_26  and  C_20 
REMARK    8  A    between atoms: C_27  and  C_26 
ROOT
ATOM      1  N   UNL d   1      -0.318  -1.141   0.257  0.00  0.00    -0.251 N 
ATOM      2  C   UNL d   1       1.021  -0.707   0.325  0.00  0.00     0.335 A 
ATOM      3  N   UNL d   1       0.933   0.711   0.227  0.00  0.00    -0.301 N 
ATOM      4  C   UNL d   1      -1.150  -0.052   0.117  0.00  0.00     0.130 A 
ATOM      5  C   UNL d   1      -0.408   1.074   0.077  0.00  0.00     0.042 A 
ATOM      6  O   UNL d   1       2.059  -1.347   0.421  0.00  0.00    -0.246 OA
ENDROOT
BRANCH   1   7
ATOM      7  C   UNL d   1      -0.773  -2.437   0.241  0.00  0.00     0.175 A 
ATOM      8  S   UNL d   1       0.341  -3.723   0.432  0.00  0.00    -0.036 SA
ATOM      9  C   UNL d   1      -0.973  -4.826   0.323  0.00  0.00     0.077 A 
ATOM     10  N   UNL d   1      -2.133  -4.227   0.128  0.00  0.00    -0.295 N 
ATOM     11  N   UNL d   1      -2.017  -2.842   0.091  0.00  0.00    -0.278 N 
ATOM     12  HN  UNL d   1      -3.016  -4.725   0.017  1.00  0.00     0.187 HD
ATOM     13  HN  UNL d   1      -2.808  -2.211  -0.038  1.00  0.00     0.189 HD
BRANCH   9  14
ATOM     14  C   UNL d   1      -0.754  -6.323   0.495  0.00  0.00    -0.001 C 
ATOM     15  C   UNL d   1      -0.257  -6.618   1.924  0.00  0.00     0.021 C 
ATOM     16  C   UNL d   1      -2.076  -7.087   0.280  0.00  0.00     0.021 C 
ATOM     17  C   UNL d   1       0.273  -6.859  -0.523  0.00  0.00     0.021 C 
ENDBRANCH   9  14
ENDBRANCH   1   7
BRANCH   3  18
ATOM     18  C   UNL d   1       2.124   1.522   0.110  0.00  0.00     0.134 C 
BRANCH  18  19
ATOM     19  C   UNL d   1       2.309   2.573   1.202  0.00  0.00     0.020 C 
BRANCH  19  20
ATOM     20  C   UNL d   1       2.411   1.969   2.601  0.00  0.00    -0.003 C 
ATOM     21  C   UNL d   1       2.560   3.064   3.645  0.00  0.00     0.005 C 
ENDBRANCH  19  20
ENDBRANCH  18  19
ENDBRANCH   3  18
BRANCH   5  22
ATOM     22  C   UNL d   1      -0.906   2.479  -0.111  0.00  0.00     0.139 C 
BRANCH  22  23
ATOM     23  S   UNL d   1      -0.376   3.091  -1.745  0.00  0.00    -0.106 SA
BRANCH  23  24
ATOM     24  C   UNL d   1      -0.805   4.818  -1.663  0.00  0.00     0.069 A 
ATOM     25  N   UNL d   1      -1.563   5.274  -0.644  0.00  0.00    -0.361 N 
ATOM     26  C   UNL d   1      -1.915   6.583  -0.685  0.00  0.00     0.089 A 
ATOM     27  HN  UNL d   1      -1.858   4.664   0.118  1.00  0.00     0.165 HD
ATOM     28  C   UNL d   1      -1.547   7.459  -1.695  0.00  0.00     0.017 A 
ATOM     29  C   UNL d   1      -0.754   6.972  -2.723  0.00  0.00     0.004 A 
ATOM     30  C   UNL d   1      -0.373   5.634  -2.706  0.00  0.00     0.037 A 
ENDBRANCH  23  24
ENDBRANCH  22  23
ENDBRANCH   5  22
TORSDOF 8
