REMARK  10 active torsions:
REMARK  status: ('A' for Active; 'I' for Inactive)
REMARK    1  A    between atoms: C_3  and  C_1 
REMARK    2  A    between atoms: C_4  and  C_1 
REMARK    3  A    between atoms: N_8  and  C_2 
REMARK    4  A    between atoms: O_17  and  C_3 
REMARK    5  A    between atoms: O_16  and  C_4 
REMARK    6  A    between atoms: O_13  and  C_7 
REMARK    7  A    between atoms: C_14  and  N_8 
REMARK    8  A    between atoms: C_19  and  O_13 
REMARK    9  A    between atoms: C_24  and  O_16 
REMARK   10  A    between atoms: C_23  and  O_17 
ROOT
ATOM      1  N   UNL d   1      -1.665   4.583  -1.866  0.00  0.00    -0.344 N 
ATOM      2  HN  UNL d   1      -2.526   4.914  -1.432  1.00  0.00     0.167 HD
ATOM      3  C   UNL d   1      -1.173   5.152  -2.987  0.00  0.00     0.148 A 
ATOM      4  C   UNL d   1       0.245   3.074  -1.859  0.00  0.00     0.047 A 
ATOM      5  C   UNL d   1      -0.959   3.555  -1.348  0.00  0.00     0.119 A 
ATOM      6  C   UNL d   1       0.025   4.777  -3.571  0.00  0.00     0.059 A 
ATOM      7  C   UNL d   1       0.734   3.719  -2.999  0.00  0.00     0.035 A 
ENDROOT
BRANCH   4   8
ATOM      8  N   UNL d   1       0.912   1.956  -1.348  0.00  0.00    -0.364 N 
ATOM      9  H   UNL d   1       1.902   1.864  -1.589  0.00  0.00     0.165 HD
BRANCH   8  10
ATOM     10  C   UNL d   1       0.385   0.937  -0.582  0.00  0.00     0.112 C 
ATOM     11  C   UNL d   1       1.033  -0.085   0.018  0.00  0.00     0.129 C 
BRANCH  11  12
ATOM     12  C   UNL d   1       0.268  -1.199   0.630  0.00  0.00     0.300 C 
ATOM     13  O   UNL d   1       0.716  -2.326   0.783  0.00  0.00    -0.259 OA
BRANCH  12  14
ATOM     14  O   UNL d   1      -1.023  -0.843   0.866  0.00  0.00    -0.318 OA
BRANCH  14  15
ATOM     15  C   UNL d   1      -1.940  -1.937   1.017  0.00  0.00     0.174 C 
ATOM     16  C   UNL d   1      -2.415  -2.359  -0.364  0.00  0.00     0.034 C 
ENDBRANCH  14  15
ENDBRANCH  12  14
ENDBRANCH  11  12
BRANCH  11  17
ATOM     17  C   UNL d   1       2.498  -0.153  -0.122  0.00  0.00     0.300 C 
ATOM     18  O   UNL d   1       3.131   0.417  -1.002  0.00  0.00    -0.259 OA
BRANCH  17  19
ATOM     19  O   UNL d   1       3.039  -0.943   0.837  0.00  0.00    -0.318 OA
BRANCH  19  20
ATOM     20  C   UNL d   1       4.354  -1.437   0.551  0.00  0.00     0.174 C 
ATOM     21  C   UNL d   1       4.213  -2.679  -0.310  0.00  0.00     0.034 C 
ENDBRANCH  19  20
ENDBRANCH  17  19
ENDBRANCH  11  17
ENDBRANCH   8  10
ENDBRANCH   4   8
BRANCH   3  22
ATOM     22  O   UNL d   1      -1.892   6.165  -3.606  0.00  0.00    -0.293 OA
BRANCH  22  23
ATOM     23  C   UNL d   1      -3.253   6.166  -3.425  0.00  0.00     0.093 A 
ATOM     24  C   UNL d   1      -3.889   7.386  -3.251  0.00  0.00     0.124 A 
ATOM     25  N   UNL d   1      -5.228   7.527  -3.082  0.00  0.00    -0.373 N 
ATOM     26  C   UNL d   1      -5.957   6.391  -3.086  0.00  0.00     0.088 A 
ATOM     27  HN  UNL d   1      -5.660   8.443  -2.960  1.00  0.00     0.164 HD
ATOM     28  C   UNL d   1      -5.420   5.127  -3.275  0.00  0.00     0.020 A 
ATOM     29  C   UNL d   1      -4.047   5.020  -3.470  0.00  0.00     0.040 A 
ENDBRANCH  22  23
ENDBRANCH   3  22
TORSDOF 10
