REMARK  5 active torsions:
REMARK  status: ('A' for Active; 'I' for Inactive)
REMARK    1  A    between atoms: C_5  and  C_1 
REMARK    2  A    between atoms: C_2  and  C_4 
REMARK    3  A    between atoms: N_17  and  C_4 
REMARK    4  A    between atoms: O_11  and  C_5 
REMARK    5  A    between atoms: N_6  and  O_11 
ROOT
ATOM      1  C   UNL d   1      -1.445  -5.601  -0.184  0.00  0.00     0.127 C 
ATOM      2  N   UNL d   1      -1.339  -4.306  -0.329  0.00  0.00    -0.243 N 
ATOM      3  HN  UNL d   1      -0.450  -3.820  -0.445  1.00  0.00     0.196 HD
ENDROOT
BRANCH   1   4
ATOM      4  C   UNL d   1      -2.792  -6.328   0.029  0.00  0.00     0.222 C 
ATOM      5  O   UNL d   1      -2.826  -7.643  -0.528  0.00  0.00    -0.333 OA
ATOM      6  C   UNL d   1      -2.733  -8.659   0.379  0.00  0.00     0.103 A 
ATOM      7  C   UNL d   1      -2.838  -9.955  -0.124  0.00  0.00     0.040 A 
ATOM      8  C   UNL d   1      -2.522  -8.460   1.742  0.00  0.00     0.102 A 
ATOM      9  C   UNL d   1      -2.717 -11.049   0.734  0.00  0.00     0.003 A 
ATOM     10  C   UNL d   1      -2.474 -10.847   2.093  0.00  0.00     0.003 A 
ATOM     11  C   UNL d   1      -2.370  -9.550   2.598  0.00  0.00     0.039 A 
ATOM     12  O   UNL d   1      -2.438  -7.213   2.296  0.00  0.00    -0.345 OA
ATOM     13  C   UNL d   1      -3.179  -6.275   1.507  0.00  0.00     0.216 C 
ENDBRANCH   1   4
BRANCH   1  14
ATOM     14  N   UNL d   1      -0.288  -6.343  -0.199  0.00  0.00    -0.385 N 
ATOM     15  H   UNL d   1      -0.313  -7.265   0.220  0.00  0.00     0.157 HD
ATOM     16  H   UNL d   1       0.560  -5.812  -0.036  0.00  0.00     0.157 HD
ENDBRANCH   1  14
BRANCH   2  17
ATOM     17  O   UNL d   1      -2.591  -3.657  -0.309  0.00  0.00    -0.193 OA
BRANCH  17  18
ATOM     18  C   UNL d   1      -2.497  -2.424  -0.878  0.00  0.00     0.316 C 
ATOM     19  O   UNL d   1      -1.490  -1.932  -1.382  0.00  0.00    -0.257 OA
BRANCH  18  20
ATOM     20  C   UNL d   1      -3.799  -1.683  -0.893  0.00  0.00     0.063 A 
ATOM     21  C   UNL d   1      -5.000  -2.063  -0.271  0.00  0.00     0.052 A 
ATOM     22  C   UNL d   1      -6.143  -1.253  -0.381  0.00  0.00     0.048 A 
ATOM     23 CL   UNL d   1      -5.220  -3.492   0.674  0.00  0.00    -0.083 Cl
ATOM     24  C   UNL d   1      -6.102  -0.061  -1.098  0.00  0.00     0.035 A 
ATOM     25  C   UNL d   1      -4.926   0.336  -1.718  0.00  0.00     0.025 A 
ATOM     26 CL   UNL d   1      -7.508   0.920  -1.216  0.00  0.00    -0.084 Cl
ATOM     27  C   UNL d   1      -3.785  -0.468  -1.615  0.00  0.00     0.021 A 
ENDBRANCH  18  20
ENDBRANCH  17  18
ENDBRANCH   2  17
TORSDOF 5
