REMARK  3 active torsions:
REMARK  status: ('A' for Active; 'I' for Inactive)
REMARK    1  A    between atoms: C_2  and  C_1 
REMARK    2  A    between atoms: O_7  and  C_2 
REMARK    3  A    between atoms: C_6  and  O_7 
ROOT
ATOM      1  O   UNL d   1      -0.769   3.385  -0.009  0.00  0.00    -0.273 OA
ENDROOT
BRANCH   1   2
ATOM      2  C   UNL d   1       0.642   3.444  -0.078  0.00  0.00     0.082 A 
ATOM      3  C   UNL d   1       1.399   2.748  -1.020  0.00  0.00     0.061 A 
ATOM      4  C   UNL d   1       2.790   2.855  -0.988  0.00  0.00     0.038 A 
ATOM      5 CL   UNL d   1       3.738   1.962  -2.115  0.00  0.00    -0.084 Cl
ATOM      6  C   UNL d   1       3.424   3.671  -0.053  0.00  0.00     0.048 A 
ATOM      7  C   UNL d   1       2.651   4.394   0.853  0.00  0.00     0.038 A 
ATOM      8  C   UNL d   1       1.260   4.289   0.846  0.00  0.00     0.061 A 
ATOM      9 CL   UNL d   1       3.423   5.424   1.995  0.00  0.00    -0.084 Cl
ENDBRANCH   1   2
BRANCH   1  10
ATOM     10  C   UNL d   1      -1.466   2.208  -0.301  0.00  0.00     0.324 C 
ATOM     11  O   UNL d   1      -0.959   1.163  -0.692  0.00  0.00    -0.257 OA
BRANCH  10  12
ATOM     12  C   UNL d   1      -2.872   2.374  -0.054  0.00  0.00     0.175 A 
ATOM     13  O   UNL d   1      -3.348   3.542   0.466  0.00  0.00    -0.232 OA
ATOM     14  N   UNL d   1      -4.719   3.442   0.648  0.00  0.00    -0.272 N 
ATOM     15  C   UNL d   1      -5.045   2.217   0.231  0.00  0.00     0.117 A 
ATOM     16  HN  UNL d   1      -5.346   4.155   1.023  1.00  0.00     0.194 HD
ATOM     17  C   UNL d   1      -3.928   1.506  -0.231  0.00  0.00     0.065 A 
ENDBRANCH  10  12
ENDBRANCH   1  10
TORSDOF 3
