REMARK  7 active torsions:
REMARK  status: ('A' for Active; 'I' for Inactive)
REMARK    1  A    between atoms: C_3  and  S_1 
REMARK    2  A    between atoms: C_6  and  S_1 
REMARK    3  A    between atoms: C_2  and  C_11 
REMARK       I    between atoms: N_8  and  C_2 
REMARK    4  A    between atoms: C_12  and  C_3 
REMARK    5  A    between atoms: N_9  and  N_8 
REMARK    6  A    between atoms: S_10  and  C_12 
REMARK    7  A    between atoms: C_11  and  S_10 
ROOT
ATOM      1  C   UNL d   1       0.484  -0.754  -1.476  0.00  0.00     0.156 C 
ENDROOT
BRANCH   1   2
ATOM      2  S   UNL d   1       1.047   0.138  -0.043  0.00  0.00     0.176 S 
ATOM      3  O   UNL d   1       0.464   1.466  -0.081  0.00  0.00    -0.223 OA
ATOM      4  O   UNL d   1       2.481  -0.041   0.070  0.00  0.00    -0.223 OA
BRANCH   2   5
ATOM      5  C   UNL d   1       0.291  -0.738   1.310  0.00  0.00     0.059 A 
ATOM      6  C   UNL d   1       0.958  -1.818   1.893  0.00  0.00     0.023 A 
ATOM      7  C   UNL d   1       0.379  -2.479   2.978  0.00  0.00     0.002 A 
ATOM      8  C   UNL d   1      -0.852  -2.053   3.481  0.00  0.00     0.000 A 
ATOM      9  C   UNL d   1      -1.509  -0.966   2.903  0.00  0.00     0.002 A 
ATOM     10  C   UNL d   1      -0.937  -0.301   1.816  0.00  0.00     0.023 A 
ENDBRANCH   2   5
ENDBRANCH   1   2
BRANCH   1  11
ATOM     11  C   UNL d   1       0.962  -0.078  -2.752  0.00  0.00     0.089 C 
BRANCH  11  12
ATOM     12  S   UNL d   1       0.406  -1.080  -4.181  0.00  0.00    -0.159 SA
BRANCH  12  13
ATOM     13  C   UNL d   1       0.995  -0.027  -5.550  0.00  0.00     0.177 C 
BRANCH  13  14
ATOM     14  C   UNL d   1       2.507   0.061  -5.599  0.00  0.00     0.240 C 
ATOM     15  O   UNL d   1       3.108   1.135  -5.640  0.00  0.00    -0.271 OA
ATOM     16  N   UNL d   1       3.152  -1.169  -5.669  0.00  0.00    -0.293 N 
ATOM     17  H   UNL d   1       2.631  -2.000  -5.384  0.00  0.00     0.183 HD
BRANCH  16  18
ATOM     18  N   UNL d   1       4.563  -1.209  -5.627  0.00  0.00    -0.247 NA
ATOM     19  H   UNL d   1       4.887  -0.252  -5.423  0.00  0.00     0.143 HD
ATOM     20  H   UNL d   1       4.901  -1.383  -6.578  0.00  0.00     0.143 HD
ENDBRANCH  16  18
ENDBRANCH  13  14
ENDBRANCH  12  13
ENDBRANCH  11  12
ENDBRANCH   1  11
TORSDOF 7
