REMARK  3 active torsions:
REMARK  status: ('A' for Active; 'I' for Inactive)
REMARK    1  A    between atoms: S_2  and  N_1 
REMARK    2  A    between atoms: C_10  and  S_2 
REMARK    3  A    between atoms: C_4  and  C_3 
ROOT
ATOM      1  N   UNL d   1       0.900  -0.674   0.035  0.00  0.00    -0.175 N 
ATOM      2  C   UNL d   1      -0.445  -1.060   0.058  0.00  0.00     0.098 A 
ATOM      3  N   UNL d   1       1.044   0.690  -0.038  0.00  0.00    -0.295 N 
ATOM      4  HN  UNL d   1       1.912   1.223  -0.092  1.00  0.00     0.187 HD
ATOM      5  C   UNL d   1      -1.148   0.136  -0.015  0.00  0.00     0.053 A 
ATOM      6  C   UNL d   1      -0.196   1.160  -0.023  0.00  0.00     0.111 A 
ENDROOT
BRANCH   1   7
ATOM      7  S   UNL d   1       2.281  -1.739   0.104  0.00  0.00     0.282 S 
ATOM      8  O   UNL d   1       3.439  -0.877   0.272  0.00  0.00    -0.198 OA
ATOM      9  O   UNL d   1       1.959  -2.749   1.104  0.00  0.00    -0.198 OA
BRANCH   7  10
ATOM     10  C   UNL d   1       2.467  -2.501  -1.488  0.00  0.00     0.081 A 
ATOM     11  C   UNL d   1       1.925  -1.937  -2.646  0.00  0.00     0.025 A 
ATOM     12  C   UNL d   1       2.090  -2.594  -3.870  0.00  0.00     0.002 A 
ATOM     13  C   UNL d   1       2.810  -3.788  -3.937  0.00  0.00     0.000 A 
ATOM     14  C   UNL d   1       3.371  -4.335  -2.783  0.00  0.00     0.002 A 
ATOM     15  C   UNL d   1       3.200  -3.694  -1.555  0.00  0.00     0.025 A 
ENDBRANCH   7  10
ENDBRANCH   1   7
BRANCH   2  16
ATOM     16  C   UNL d   1      -0.962  -2.428   0.088  0.00  0.00     0.084 A 
ATOM     17  N   UNL d   1      -0.237  -3.274  -0.677  0.00  0.00    -0.361 N 
ATOM     18  C   UNL d   1      -0.659  -4.557  -0.738  0.00  0.00     0.105 A 
ATOM     19  HN  UNL d   1       0.591  -2.959  -1.183  1.00  0.00     0.165 HD
ATOM     20  C   UNL d   1      -1.805  -4.985  -0.105  0.00  0.00     0.105 A 
ATOM     21  N   UNL d   1      -2.566  -4.150   0.629  0.00  0.00    -0.366 N 
ATOM     22  C   UNL d   1      -2.132  -2.860   0.736  0.00  0.00     0.034 A 
ATOM     23  HN  UNL d   1      -3.424  -4.465   1.082  1.00  0.00     0.165 HD
ATOM     24  C   UNL d   1      -3.031  -1.996   1.564  0.00  0.00     0.070 C 
ENDBRANCH   2  16
TORSDOF 3
