REMARK  5 active torsions:
REMARK  status: ('A' for Active; 'I' for Inactive)
REMARK    1  A    between atoms: C_5  and  C_1 
REMARK    2  A    between atoms: C_7  and  C_2 
REMARK       I    between atoms: N_10  and  C_7 
REMARK    3  A    between atoms: C_19  and  N_9 
REMARK    4  A    between atoms: C_15  and  N_10 
REMARK    5  A    between atoms: C_13  and  C_15 
ROOT
ATOM      1  C   UNL d   1       2.479  -1.740  -1.378  0.00  0.00     0.086 A 
ATOM      2  C   UNL d   1       1.161  -2.255  -1.683  0.00  0.00     0.092 A 
ATOM      3  N   UNL d   1       3.266  -1.835  -2.459  0.00  0.00    -0.259 N 
ATOM      4  HN  UNL d   1       4.256  -1.594  -2.511  1.00  0.00     0.195 HD
ATOM      5  O   UNL d   1       2.491  -2.316  -3.480  0.00  0.00    -0.241 OA
ATOM      6  C   UNL d   1       1.243  -2.583  -3.031  0.00  0.00     0.090 A 
ATOM      7  C   UNL d   1       0.306  -3.075  -4.056  0.00  0.00     0.080 C 
ENDROOT
BRANCH   2   8
ATOM      8  C   UNL d   1      -0.020  -2.334  -0.848  0.00  0.00     0.256 C 
ATOM      9  N   UNL d   1      -0.823  -3.459  -1.004  0.00  0.00    -0.355 N 
ATOM     10  H   UNL d   1      -0.429  -4.279  -1.449  0.00  0.00     0.162 HD
ATOM     11  O   UNL d   1      -0.273  -1.456  -0.022  0.00  0.00    -0.267 OA
BRANCH   9  12
ATOM     12  C   UNL d   1      -1.946  -3.663  -0.101  0.00  0.00     0.158 C 
BRANCH  12  13
ATOM     13  C   UNL d   1      -2.965  -4.753  -0.514  0.00  0.00     0.240 C 
ATOM     14  N   UNL d   1      -2.591  -6.199  -0.569  0.00  0.00     0.094 N 
ATOM     15  C   UNL d   1      -3.913  -6.875  -0.641  0.00  0.00     0.273 C 
ATOM     16  C   UNL d   1      -4.906  -6.022   0.141  0.00  0.00     0.032 C 
ATOM     17  C   UNL d   1      -4.170  -4.727   0.429  0.00  0.00     0.039 C 
BRANCH  14  18
ATOM     18  C   UNL d   1      -1.828  -6.668   0.601  0.00  0.00     0.268 C 
ATOM     19  C   UNL d   1      -1.350  -8.118   0.470  0.00  0.00     0.037 C 
ENDBRANCH  14  18
ENDBRANCH  12  13
ENDBRANCH   9  12
ENDBRANCH   2   8
BRANCH   1  20
ATOM     20  C   UNL d   1       3.040  -1.218  -0.115  0.00  0.00     0.037 A 
ATOM     21  C   UNL d   1       2.869  -1.895   1.109  0.00  0.00     0.048 A 
ATOM     22 CL   UNL d   1       2.135  -3.464   1.234  0.00  0.00    -0.083 Cl
ATOM     23  C   UNL d   1       3.383  -1.378   2.312  0.00  0.00     0.025 A 
ATOM     24  C   UNL d   1       4.139  -0.212   2.319  0.00  0.00     0.003 A 
ATOM     25  C   UNL d   1       4.383   0.441   1.118  0.00  0.00     0.025 A 
ATOM     26  C   UNL d   1       3.834  -0.042  -0.084  0.00  0.00     0.048 A 
ATOM     27 CL   UNL d   1       4.208   0.908  -1.488  0.00  0.00    -0.083 Cl
ENDBRANCH   1  20
TORSDOF 5
