REMARK  5 active torsions:
REMARK  status: ('A' for Active; 'I' for Inactive)
REMARK    1  A    between atoms: O_4  and  S_1 
REMARK    2  A    between atoms: C_6  and  S_1 
REMARK    3  A    between atoms: C_3  and  O_10 
REMARK    4  A    between atoms: C_14  and  O_4 
REMARK    5  A    between atoms: O_10  and  C_15 
ROOT
ATOM      1  C   UNL d   1      -1.756   1.810  -7.240  0.00  0.00     0.100 A 
ATOM      2  C   UNL d   1      -0.784   1.558  -6.257  0.00  0.00     0.098 A 
ATOM      3  C   UNL d   1      -2.771   2.799  -7.014  0.00  0.00     0.104 C 
ATOM      4  N   UNL d   1      -3.584   3.607  -6.834  0.00  0.00    -0.191 NA
ATOM      5  C   UNL d   1      -1.707   1.090  -8.443  0.00  0.00     0.057 A 
ATOM      6 CL   UNL d   1      -2.869   1.321  -9.704  0.00  0.00    -0.083 Cl
ATOM      7  C   UNL d   1       0.261   0.659  -6.518  0.00  0.00     0.039 A 
ATOM      8  C   UNL d   1       0.288  -0.064  -7.707  0.00  0.00     0.005 A 
ATOM      9  C   UNL d   1      -0.699   0.145  -8.666  0.00  0.00     0.025 A 
ENDROOT
BRANCH   2  10
ATOM     10  O   UNL d   1      -0.868   2.268  -5.073  0.00  0.00    -0.309 OA
BRANCH  10  11
ATOM     11  C   UNL d   1      -0.429   1.686  -3.904  0.00  0.00     0.076 A 
ATOM     12  C   UNL d   1       0.204   2.535  -2.991  0.00  0.00     0.039 A 
ATOM     13  C   UNL d   1       0.694   2.028  -1.785  0.00  0.00     0.028 A 
ATOM     14  C   UNL d   1       0.548   0.667  -1.502  0.00  0.00     0.087 A 
ATOM     15  C   UNL d   1      -0.127  -0.178  -2.388  0.00  0.00     0.028 A 
ATOM     16  C   UNL d   1      -0.634   0.340  -3.581  0.00  0.00     0.039 A 
BRANCH  14  17
ATOM     17  S   UNL d   1       1.140   0.018   0.050  0.00  0.00     0.303 S 
ATOM     18  O   UNL d   1       1.103   1.113   1.001  0.00  0.00    -0.193 OA
ATOM     19  O   UNL d   1       0.405  -1.207   0.300  0.00  0.00    -0.193 OA
BRANCH  17  20
ATOM     20  O   UNL d   1       2.698  -0.353  -0.272  0.00  0.00    -0.229 OA
BRANCH  20  21
ATOM     21  C   UNL d   1       3.514  -0.949   0.660  0.00  0.00     0.089 A 
ATOM     22  C   UNL d   1       3.149  -1.244   1.977  0.00  0.00     0.041 A 
ATOM     23  C   UNL d   1       4.061  -1.862   2.836  0.00  0.00     0.045 A 
ATOM     24  C   UNL d   1       5.333  -2.178   2.379  0.00  0.00     0.116 A 
ATOM     25  C   UNL d   1       5.715  -1.885   1.075  0.00  0.00     0.045 A 
ATOM     26  F   UNL d   1       6.203  -2.772   3.205  0.00  0.00    -0.206 F 
ATOM     27  C   UNL d   1       4.803  -1.268   0.214  0.00  0.00     0.041 A 
ENDBRANCH  20  21
ENDBRANCH  17  20
ENDBRANCH  14  17
ENDBRANCH  10  11
ENDBRANCH   2  10
TORSDOF 5
