REMARK  6 active torsions:
REMARK  status: ('A' for Active; 'I' for Inactive)
REMARK    1  A    between atoms: S_3  and  C_1 
REMARK    2  A    between atoms: C_2  and  S_3 
REMARK    3  A    between atoms: C_15  and  C_7 
REMARK    4  A    between atoms: S_17  and  C_10 
REMARK    5  A    between atoms: C_21  and  S_17 
REMARK    6  A    between atoms: C_23  and  C_21 
ROOT
ATOM      1  C   UNL d   1       2.206   2.831   0.113  0.00  0.00     0.051 A 
ATOM      2  N   UNL d   1       4.292   2.504  -1.039  0.00  0.00    -0.335 N 
ATOM      3  HN  UNL d   1       4.813   2.197  -1.860  1.00  0.00     0.168 HD
ATOM      4  C   UNL d   1       2.933   2.406  -0.999  0.00  0.00     0.063 A 
ATOM      5  C   UNL d   1       4.931   3.013   0.026  0.00  0.00     0.144 A 
ATOM      6  N   UNL d   1       4.324   3.459   1.130  0.00  0.00    -0.345 N 
ATOM      7  HN  UNL d   1       4.844   3.856   1.912  1.00  0.00     0.167 HD
ATOM      8  C   UNL d   1       2.977   3.351   1.142  0.00  0.00     0.111 A 
ENDROOT
BRANCH   5   9
ATOM      9  S   UNL d   1       6.697   3.121  -0.088  0.00  0.00    -0.089 SA
BRANCH   9  10
ATOM     10  C   UNL d   1       7.137   2.850   1.656  0.00  0.00     0.121 C 
BRANCH  10  11
ATOM     11  C   UNL d   1       8.639   2.775   1.833  0.00  0.00    -0.048 A 
ATOM     12  C   UNL d   1       9.388   3.940   2.060  0.00  0.00     0.009 A 
ATOM     13  C   UNL d   1      10.779   3.878   2.194  0.00  0.00     0.024 A 
ATOM     14  C   UNL d   1      11.429   2.649   2.099  0.00  0.00     0.034 A 
ATOM     15  C   UNL d   1      10.702   1.483   1.873  0.00  0.00     0.024 A 
ATOM     16 CL   UNL d   1      13.142   2.573   2.256  0.00  0.00    -0.084 Cl
ATOM     17  C   UNL d   1       9.311   1.546   1.739  0.00  0.00     0.009 A 
ENDBRANCH  10  11
ENDBRANCH   9  10
ENDBRANCH   5   9
BRANCH   4  18
ATOM     18  C   UNL d   1       2.367   1.764  -2.219  0.00  0.00    -0.008 A 
ATOM     19  C   UNL d   1       3.072   0.716  -2.848  0.00  0.00     0.015 A 
ATOM     20  C   UNL d   1       2.560   0.041  -3.963  0.00  0.00     0.024 A 
ATOM     21  C   UNL d   1       1.320   0.402  -4.473  0.00  0.00     0.034 A 
ATOM     22  C   UNL d   1       0.617   1.461  -3.909  0.00  0.00     0.024 A 
ATOM     23 CL   UNL d   1       0.653  -0.459  -5.803  0.00  0.00    -0.084 Cl
ATOM     24  C   UNL d   1       1.151   2.150  -2.812  0.00  0.00     0.015 A 
ENDBRANCH   4  18
BRANCH   1  25
ATOM     25  S   UNL d   1       0.440   2.765   0.335  0.00  0.00    -0.050 SA
BRANCH  25  26
ATOM     26  C   UNL d   1       0.305   1.181   1.025  0.00  0.00     0.151 A 
ATOM     27  N   UNL d   1      -0.819   0.401   0.919  0.00  0.00    -0.341 N 
ATOM     28  C   UNL d   1      -0.579  -0.743   1.641  0.00  0.00     0.109 A 
ATOM     29  C   UNL d   1      -2.045   0.650   0.205  0.00  0.00     0.158 C 
ATOM     30  C   UNL d   1       0.691  -0.598   2.140  0.00  0.00     0.107 A 
ATOM     31  N   UNL d   1       1.231   0.599   1.753  0.00  0.00    -0.345 N 
ATOM     32  HN  UNL d   1       2.156   0.962   1.982  1.00  0.00     0.167 HD
ENDBRANCH  25  26
ENDBRANCH   1  25
TORSDOF 6
