REMARK  7 active torsions:
REMARK  status: ('A' for Active; 'I' for Inactive)
REMARK    1  A    between atoms: C_8  and  N_1 
REMARK    2  A    between atoms: C_12  and  C_2 
REMARK    3  A    between atoms: S_11  and  C_5 
REMARK    4  A    between atoms: C_22  and  S_11 
REMARK    5  A    between atoms: C_13  and  C_22 
REMARK    6  A    between atoms: C_17  and  C_13 
REMARK    7  A    between atoms: C_18  and  C_19 
ROOT
ATOM      1  N   UNL d   1      -0.311  -1.304   0.013  0.00  0.00    -0.275 N 
ATOM      2  C   UNL d   1       0.938  -0.658   0.004  0.00  0.00     0.139 A 
ATOM      3  N   UNL d   1       0.736   0.651   0.051  0.00  0.00    -0.282 N 
ATOM      4  HN  UNL d   1       1.468   1.359   0.110  1.00  0.00     0.188 HD
ATOM      5  C   UNL d   1      -1.231  -0.249  -0.026  0.00  0.00     0.168 A 
ATOM      6  N   UNL d   1      -0.608   0.904   0.009  0.00  0.00    -0.278 N 
ATOM      7  HN  UNL d   1      -1.047   1.824   0.006  1.00  0.00     0.189 HD
ENDROOT
BRANCH   2   8
ATOM      8  C   UNL d   1       2.280  -1.265  -0.096  0.00  0.00     0.010 A 
ATOM      9  C   UNL d   1       2.558  -2.369  -0.909  0.00  0.00     0.016 A 
ATOM     10  C   UNL d   1       3.825  -2.972  -0.905  0.00  0.00     0.009 A 
ATOM     11  C   UNL d   1       4.885  -2.456  -0.139  0.00  0.00    -0.051 A 
ATOM     12  C   UNL d   1       4.621  -1.297   0.607  0.00  0.00     0.009 A 
ATOM     13  C   UNL d   1       3.341  -0.715   0.631  0.00  0.00     0.016 A 
BRANCH  11  14
ATOM     14  C   UNL d   1       6.255  -3.161  -0.133  0.00  0.00    -0.024 C 
ATOM     15  C   UNL d   1       7.324  -2.428   0.709  0.00  0.00     0.019 C 
ATOM     16  C   UNL d   1       6.102  -4.581   0.457  0.00  0.00     0.019 C 
ATOM     17  C   UNL d   1       6.807  -3.274  -1.570  0.00  0.00     0.019 C 
ENDBRANCH  11  14
ENDBRANCH   2   8
BRANCH   1  18
ATOM     18  C   UNL d   1      -0.556  -2.719   0.048  0.00  0.00     0.046 A 
ATOM     19  C   UNL d   1       0.291  -3.573   0.783  0.00  0.00     0.069 A 
ATOM     20  C   UNL d   1       0.093  -4.937   0.687  0.00  0.00     0.107 A 
ATOM     21  O   UNL d   1       0.861  -5.898   1.272  0.00  0.00    -0.323 OA
ATOM     22  C   UNL d   1      -0.927  -5.470  -0.063  0.00  0.00     0.105 A 
ATOM     23  C   UNL d   1       0.189  -7.096   0.826  0.00  0.00     0.352 A 
ATOM     24  O   UNL d   1      -0.935  -6.831  -0.041  0.00  0.00    -0.323 OA
ATOM     25  C   UNL d   1      -1.799  -4.672  -0.759  0.00  0.00     0.042 A 
ATOM     26  C   UNL d   1      -1.606  -3.283  -0.711  0.00  0.00     0.033 A 
ENDBRANCH   1  18
BRANCH   5  27
ATOM     27  S   UNL d   1      -2.952  -0.426   0.091  0.00  0.00    -0.085 SA
BRANCH  27  28
ATOM     28  C   UNL d   1      -3.654   1.253  -0.139  0.00  0.00     0.161 C 
BRANCH  28  29
ATOM     29  C   UNL d   1      -5.189   1.144  -0.245  0.00  0.00     0.144 C 
ATOM     30  O   UNL d   1      -5.753   0.043  -0.348  0.00  0.00    -0.296 OA
BRANCH  29  31
ATOM     31  C   UNL d   1      -6.061   2.419  -0.346  0.00  0.00     0.010 C 
ATOM     32  C   UNL d   1      -6.289   2.725  -1.834  0.00  0.00     0.022 C 
ATOM     33  C   UNL d   1      -7.428   2.109   0.308  0.00  0.00     0.022 C 
ATOM     34  C   UNL d   1      -5.479   3.653   0.347  0.00  0.00     0.022 C 
ENDBRANCH  29  31
ENDBRANCH  28  29
ENDBRANCH  27  28
ENDBRANCH   5  27
TORSDOF 7
