REMARK  4 active torsions:
REMARK  status: ('A' for Active; 'I' for Inactive)
REMARK    1  A    between atoms: C_8  and  C_1 
REMARK    2  A    between atoms: N_7  and  C_2 
REMARK    3  A    between atoms: S_9  and  C_8 
REMARK    4  A    between atoms: C_13  and  S_9 
ROOT
ATOM      1  C   UNL d   1      -1.664  -0.568  -0.081  0.00  0.00     0.141 C 
ATOM      2  C   UNL d   1      -1.043   0.693  -0.299  0.00  0.00     0.159 C 
ATOM      3  N   UNL d   1      -0.731  -1.502   0.193  0.00  0.00    -0.292 N 
ATOM      4  HN  UNL d   1      -0.876  -2.499   0.356  1.00  0.00     0.187 HD
ATOM      5  C   UNL d   1       0.284   0.529   0.069  0.00  0.00     0.059 C 
ATOM      6  N   UNL d   1       0.432  -0.828   0.205  0.00  0.00    -0.298 N 
ATOM      7  C   UNL d   1       1.402   1.490   0.267  0.00  0.00     0.072 C 
ATOM      8  C   UNL d   1       1.677  -1.558   0.316  0.00  0.00     0.177 C 
ENDROOT
BRANCH   1   9
ATOM      9  C   UNL d   1      -3.110  -0.822  -0.028  0.00  0.00     0.244 C 
ATOM     10  O   UNL d   1      -3.896   0.030   0.368  0.00  0.00    -0.278 OA
BRANCH   9  11
ATOM     11  S   UNL d   1      -3.619  -2.410  -0.600  0.00  0.00    -0.046 SA
BRANCH  11  12
ATOM     12  C   UNL d   1      -5.050  -2.819   0.390  0.00  0.00     0.008 A 
ATOM     13  C   UNL d   1      -6.079  -1.917   0.676  0.00  0.00     0.019 A 
ATOM     14  C   UNL d   1      -7.178  -2.300   1.455  0.00  0.00     0.008 A 
ATOM     15  C   UNL d   1      -7.285  -3.605   1.944  0.00  0.00    -0.062 A 
ATOM     16  C   UNL d   1      -6.293  -4.530   1.608  0.00  0.00     0.008 A 
ATOM     17  C   UNL d   1      -8.475  -4.013   2.761  0.00  0.00     0.048 C 
ATOM     18  C   UNL d   1      -5.185  -4.139   0.845  0.00  0.00     0.019 A 
ENDBRANCH  11  12
ENDBRANCH   9  11
ENDBRANCH   1   9
BRANCH   2  19
ATOM     19  N   UNL d   1      -1.664   1.887  -0.811  0.00  0.00    -0.111 N 
ATOM     20  O   UNL d   1      -2.663   1.729  -1.524  0.00  0.00    -0.532 OA
ATOM     21  O   UNL d   1      -1.100   2.962  -0.592  0.00  0.00    -0.532 OA
ENDBRANCH   2  19
TORSDOF 4
