REMARK  3 active torsions:
REMARK  status: ('A' for Active; 'I' for Inactive)
REMARK    1  A    between atoms: C_2  and  C_1 
REMARK    2  A    between atoms: O_4  and  C_1 
REMARK    3  A    between atoms: C_11  and  O_4 
ROOT
ATOM      1  C   UNL d   1       1.075  -0.077  -0.203  0.00  0.00     0.298 C 
ATOM      2  O   UNL d   1       2.026  -0.043   0.562  0.00  0.00    -0.259 OA
ENDROOT
BRANCH   1   3
ATOM      3  C   UNL d   1       0.247  -1.303  -0.398  0.00  0.00     0.040 A 
ATOM      4  C   UNL d   1      -0.866  -1.349  -1.256  0.00  0.00     0.027 A 
ATOM      5  C   UNL d   1      -1.583  -2.535  -1.336  0.00  0.00    -0.022 A 
ATOM      6  C   UNL d   1      -2.772  -2.873  -2.152  0.00  0.00     0.068 C 
ATOM      7  C   UNL d   1      -1.193  -3.657  -0.621  0.00  0.00     0.075 A 
ATOM      8  C   UNL d   1      -3.156  -4.198  -1.488  0.00  0.00     0.180 C 
ATOM      9  O   UNL d   1      -1.996  -4.748  -0.822  0.00  0.00    -0.350 OA
ATOM     10  C   UNL d   1      -0.089  -3.652   0.203  0.00  0.00     0.038 A 
ATOM     11  C   UNL d   1       0.628  -2.459   0.322  0.00  0.00     0.020 A 
ENDBRANCH   1   3
BRANCH   1  12
ATOM     12  O   UNL d   1       0.612   0.951  -1.014  0.00  0.00    -0.275 OA
BRANCH  12  13
ATOM     13  C   UNL d   1       1.240   2.216  -1.159  0.00  0.00     0.079 A 
ATOM     14  C   UNL d   1       0.774   2.977  -2.236  0.00  0.00     0.039 A 
ATOM     15  C   UNL d   1       1.341   4.226  -2.500  0.00  0.00     0.026 A 
ATOM     16  C   UNL d   1       2.359   4.711  -1.679  0.00  0.00     0.034 A 
ATOM     17  C   UNL d   1       2.812   3.957  -0.598  0.00  0.00     0.026 A 
ATOM     18 CL   UNL d   1       3.062   6.246  -2.007  0.00  0.00    -0.084 Cl
ATOM     19  C   UNL d   1       2.247   2.707  -0.331  0.00  0.00     0.039 A 
ENDBRANCH  12  13
ENDBRANCH   1  12
TORSDOF 3
