REMARK  9 active torsions:
REMARK  status: ('A' for Active; 'I' for Inactive)
REMARK    1  A    between atoms: C_3  and  C_1 
REMARK       I    between atoms: C_2  and  N_7 
REMARK    2  A    between atoms: C_16  and  C_2 
REMARK    3  A    between atoms: N_7  and  N_4 
REMARK    4  A    between atoms: C_10  and  C_6 
REMARK    5  A    between atoms: C_8  and  O_9 
REMARK    6  A    between atoms: O_9  and  C_16 
REMARK    7  A    between atoms: S_12  and  C_10 
REMARK    8  A    between atoms: C_20  and  S_12 
REMARK    9  A    between atoms: C_19  and  C_21 
ROOT
ATOM      1  C   UNL d   1       1.238  -8.478   6.885  0.00  0.00     0.260 C 
ATOM      2  N   UNL d   1       0.481  -9.639   6.901  0.00  0.00    -0.269 N 
ATOM      3  O   UNL d   1       2.324  -8.358   6.314  0.00  0.00    -0.269 OA
ATOM      4  H   UNL d   1      -0.424  -9.655   7.362  0.00  0.00     0.190 HD
ENDROOT
BRANCH   1   5
ATOM      5  C   UNL d   1       0.676  -7.328   7.738  0.00  0.00     0.280 C 
BRANCH   5   6
ATOM      6  O   UNL d   1      -0.664  -7.373   8.198  0.00  0.00    -0.341 OA
BRANCH   6   7
ATOM      7  C   UNL d   1      -0.984  -8.107   9.307  0.00  0.00     0.076 A 
ATOM      8  C   UNL d   1      -2.284  -7.938   9.828  0.00  0.00    -0.015 A 
ATOM      9  C   UNL d   1      -2.667  -8.741  10.925  0.00  0.00     0.011 A 
ATOM     10  C   UNL d   1      -1.810  -9.699  11.466  0.00  0.00     0.001 A 
ATOM     11  C   UNL d   1      -0.533  -9.850  10.948  0.00  0.00     0.003 A 
ATOM     12  C   UNL d   1      -0.116  -9.045   9.889  0.00  0.00     0.037 A 
BRANCH   8  13
ATOM     13  C   UNL d   1      -3.255  -6.849   9.403  0.00  0.00     0.120 C 
BRANCH  13  14
ATOM     14  S   UNL d   1      -3.577  -6.640   7.624  0.00  0.00    -0.125 SA
BRANCH  14  15
ATOM     15  C   UNL d   1      -4.749  -5.288   7.703  0.00  0.00     0.001 A 
ATOM     16  C   UNL d   1      -4.413  -4.028   7.187  0.00  0.00     0.020 A 
ATOM     17  C   UNL d   1      -5.334  -2.971   7.257  0.00  0.00     0.025 A 
ATOM     18  C   UNL d   1      -6.587  -3.174   7.830  0.00  0.00     0.034 A 
ATOM     19  C   UNL d   1      -6.929  -4.425   8.335  0.00  0.00     0.025 A 
ATOM     20 CL   UNL d   1      -7.710  -1.874   7.928  0.00  0.00    -0.084 Cl
ATOM     21  C   UNL d   1      -6.017  -5.483   8.265  0.00  0.00     0.020 A 
ENDBRANCH  14  15
ENDBRANCH  13  14
ENDBRANCH   8  13
ENDBRANCH   6   7
ENDBRANCH   5   6
ENDBRANCH   1   5
BRANCH   2  22
ATOM     22  N   UNL d   1       1.001 -10.787   6.387  0.00  0.00    -0.308 N 
ATOM     23  C   UNL d   1       0.398 -11.888   6.700  0.00  0.00     0.118 C 
ATOM     24  HN  UNL d   1       1.825 -10.779   5.786  1.00  0.00     0.186 HD
BRANCH  23  25
ATOM     25  C   UNL d   1       0.868 -13.182   6.156  0.00  0.00    -0.019 A 
ATOM     26  C   UNL d   1       1.946 -13.211   5.268  0.00  0.00     0.013 A 
ATOM     27  C   UNL d   1       2.364 -14.421   4.715  0.00  0.00     0.017 A 
ATOM     28  C   UNL d   1       1.713 -15.619   5.046  0.00  0.00     0.048 A 
ATOM     29  C   UNL d   1       0.641 -15.581   5.956  0.00  0.00     0.017 A 
ATOM     30  C   UNL d   1       0.219 -14.367   6.512  0.00  0.00     0.013 A 
BRANCH  28  31
ATOM     31  C   UNL d   1       2.169 -16.912   4.412  0.00  0.00     0.417 C 
ATOM     32  F   UNL d   1       1.474 -18.003   4.839  0.00  0.00    -0.166 F 
ATOM     33  F   UNL d   1       3.480 -17.181   4.662  0.00  0.00    -0.166 F 
ATOM     34  F   UNL d   1       2.042 -16.897   3.056  0.00  0.00    -0.166 F 
ENDBRANCH  28  31
ENDBRANCH  23  25
ENDBRANCH   2  22
TORSDOF 9
