REMARK  9 active torsions:
REMARK  status: ('A' for Active; 'I' for Inactive)
REMARK    1  A    between atoms: C_5  and  O_7 
REMARK    2  A    between atoms: C_12  and  C_5 
REMARK    3  A    between atoms: O_7  and  C_13 
REMARK    4  A    between atoms: C_23  and  C_19 
REMARK    5  A    between atoms: C_24  and  C_22 
REMARK    6  A    between atoms: C_26  and  C_23 
REMARK    7  A    between atoms: C_25  and  C_24 
REMARK    8  A    between atoms: C_28  and  C_26 
REMARK    9  A    between atoms: C_27  and  C_28 
ROOT
ATOM      1  C   UNL d   1       1.175   0.871   0.003  0.00  0.00    -0.040 A 
ATOM      2  C   UNL d   1      -1.193   0.948   0.023  0.00  0.00    -0.042 A 
ATOM      3  C   UNL d   1       0.664  -0.445   0.010  0.00  0.00    -0.019 A 
ATOM      4  C   UNL d   1      -0.781  -0.396   0.015  0.00  0.00    -0.019 A 
ATOM      5  C   UNL d   1       0.021   1.865  -0.001  0.00  0.00     0.078 A 
ATOM      6  C   UNL d   1       1.512  -1.534   0.008  0.00  0.00     0.015 A 
ATOM      7  C   UNL d   1      -1.707  -1.427   0.014  0.00  0.00     0.013 A 
ATOM      8  C   UNL d   1       2.547   1.109  -0.006  0.00  0.00     0.045 A 
ATOM      9  C   UNL d   1      -2.542   1.280   0.041  0.00  0.00     0.015 A 
ATOM     10  C   UNL d   1       3.408  -0.003  -0.008  0.00  0.00     0.079 A 
ATOM     11  C   UNL d   1       2.893  -1.310  -0.006  0.00  0.00     0.038 A 
ATOM     12  C   UNL d   1      -3.065  -1.099   0.021  0.00  0.00     0.008 A 
ATOM     13  C   UNL d   1      -3.496   0.246   0.034  0.00  0.00    -0.058 A 
ENDROOT
BRANCH  10  14
ATOM     14  O   UNL d   1       4.804   0.285  -0.074  0.00  0.00    -0.279 OA
BRANCH  14  15
ATOM     15  C   UNL d   1       5.828  -0.657   0.092  0.00  0.00     0.268 C 
ATOM     16  O   UNL d   1       5.672  -1.838   0.383  0.00  0.00    -0.264 OA
BRANCH  15  17
ATOM     17  C   UNL d   1       7.204  -0.079  -0.235  0.00  0.00     0.086 C 
ATOM     18  C   UNL d   1       7.324   1.445  -0.151  0.00  0.00     0.015 C 
ATOM     19  C   UNL d   1       8.736   1.904  -0.534  0.00  0.00     0.005 C 
ATOM     20  C   UNL d   1       9.850   1.244   0.301  0.00  0.00    -0.014 C 
ATOM     21  C   UNL d   1       9.678  -0.283   0.279  0.00  0.00     0.005 C 
ATOM     22  C   UNL d   1       8.269  -0.732   0.663  0.00  0.00     0.015 C 
BRANCH  20  23
ATOM     23  C   UNL d   1       9.912   1.843   1.723  0.00  0.00     0.004 C 
BRANCH  23  24
ATOM     24  C   UNL d   1      11.133   1.376   2.525  0.00  0.00    -0.004 C 
ATOM     25  C   UNL d   1      11.183   2.022   3.902  0.00  0.00     0.005 C 
ENDBRANCH  23  24
ENDBRANCH  20  23
ENDBRANCH  15  17
ENDBRANCH  14  15
ENDBRANCH  10  14
BRANCH  13  26
ATOM     26  C   UNL d   1      -4.976   0.551   0.037  0.00  0.00     0.038 C 
BRANCH  26  27
ATOM     27  C   UNL d   1      -5.408   1.305  -1.221  0.00  0.00     0.005 C 
BRANCH  27  28
ATOM     28  C   UNL d   1      -6.915   1.566  -1.238  0.00  0.00    -0.000 C 
BRANCH  28  29
ATOM     29  C   UNL d   1      -7.305   2.361  -2.484  0.00  0.00    -0.005 C 
ATOM     30  C   UNL d   1      -8.795   2.650  -2.525  0.00  0.00     0.005 C 
ENDBRANCH  28  29
ENDBRANCH  27  28
ENDBRANCH  26  27
ENDBRANCH  13  26
TORSDOF 9
