REMARK  2 active torsions:
REMARK  status: ('A' for Active; 'I' for Inactive)
REMARK    1  A    between atoms: C_5  and  C_3 
REMARK    2  A    between atoms: N_12  and  C_10 
ROOT
ATOM      1  N   UNL d   1       0.800   0.598  -1.185  0.00  0.00    -0.345 N 
ATOM      2  HN  UNL d   1       1.026   1.063  -2.064  1.00  0.00     0.167 HD
ATOM      3  C   UNL d   1       1.118   1.156   0.006  0.00  0.00     0.045 A 
ATOM      4  C   UNL d   1       0.176  -0.595  -1.168  0.00  0.00     0.077 A 
ATOM      5  N   UNL d   1      -0.150  -1.274  -0.053  0.00  0.00    -0.356 N 
ATOM      6  HN  UNL d   1      -0.627  -2.175  -0.090  1.00  0.00     0.166 HD
ATOM      7  C   UNL d   1       0.827   0.517   1.199  0.00  0.00     0.047 A 
ATOM      8  C   UNL d   1       0.189  -0.697   1.109  0.00  0.00     0.091 A 
ATOM      9  C   UNL d   1      -0.172  -1.227  -2.478  0.00  0.00     0.089 C 
ENDROOT
BRANCH   3  10
ATOM     10  C   UNL d   1       1.810   2.463  -0.049  0.00  0.00    -0.008 A 
ATOM     11  C   UNL d   1       1.686   3.418   0.981  0.00  0.00     0.037 A 
ATOM     12  C   UNL d   1       2.355   4.648   0.944  0.00  0.00     0.006 A 
ATOM     13  C   UNL d   1       3.238   4.898  -0.105  0.00  0.00     0.023 A 
ATOM     14  C   UNL d   1       3.363   3.990  -1.155  0.00  0.00     0.003 A 
ATOM     15  C   UNL d   1       2.647   2.791  -1.130  0.00  0.00     0.014 A 
BRANCH  12  16
ATOM     16  N   UNL d   1       2.320   5.499   2.056  0.00  0.00    -0.303 NA
ATOM     17  H   UNL d   1       1.460   5.438   2.592  0.00  0.00     0.124 HD
ATOM     18  H   UNL d   1       2.568   6.460   1.842  0.00  0.00     0.124 HD
ENDBRANCH  12  16
ENDBRANCH   3  10
TORSDOF 2
