REMARK  3 active torsions:
REMARK  status: ('A' for Active; 'I' for Inactive)
REMARK    1  A    between atoms: N_2  and  S_1 
REMARK    2  A    between atoms: C_7  and  S_1 
REMARK       I    between atoms: C_4  and  N_2 
REMARK    3  A    between atoms: C_5  and  C_4 
ROOT
ATOM      1  N   UNL d   1       0.953   1.341   0.285  0.00  0.00    -0.279 N 
ATOM      2  HN  UNL d   1       0.843   1.940  -0.533  1.00  0.00     0.179 HD
ATOM      3  C   UNL d   1       1.012   1.923   1.556  0.00  0.00     0.264 C 
ATOM      4  O   UNL d   1       1.760   1.503   2.434  0.00  0.00    -0.267 OA
ENDROOT
BRANCH   1   5
ATOM      5  S   UNL d   1       1.048  -0.180   0.092  0.00  0.00     0.055 S 
ATOM      6  O   UNL d   1       0.495  -1.167   1.000  0.00  0.00    -0.245 OA
ATOM      7  C   UNL d   1       2.749  -0.603  -0.191  0.00  0.00     0.142 C 
BRANCH   5   8
ATOM      8  C   UNL d   1       0.304  -0.508  -1.506  0.00  0.00     0.038 A 
ATOM      9  C   UNL d   1       0.414   0.436  -2.533  0.00  0.00     0.023 A 
ATOM     10  C   UNL d   1      -0.212   0.198  -3.758  0.00  0.00     0.025 A 
ATOM     11  C   UNL d   1      -0.941  -0.977  -3.950  0.00  0.00     0.034 A 
ATOM     12  C   UNL d   1      -1.043  -1.923  -2.930  0.00  0.00     0.025 A 
ATOM     13 CL   UNL d   1      -1.730  -1.254  -5.454  0.00  0.00    -0.084 Cl
ATOM     14  C   UNL d   1      -0.422  -1.689  -1.700  0.00  0.00     0.023 A 
ENDBRANCH   5   8
ENDBRANCH   1   5
BRANCH   3  15
ATOM     15  C   UNL d   1       0.331   3.232   1.813  0.00  0.00     0.054 A 
ATOM     16  C   UNL d   1      -0.895   3.590   1.230  0.00  0.00     0.051 A 
ATOM     17  C   UNL d   1      -1.393   4.890   1.387  0.00  0.00     0.048 A 
ATOM     18 CL   UNL d   1      -1.906   2.485   0.364  0.00  0.00    -0.083 Cl
ATOM     19  C   UNL d   1      -0.694   5.820   2.153  0.00  0.00     0.035 A 
ATOM     20  C   UNL d   1       0.488   5.459   2.793  0.00  0.00     0.025 A 
ATOM     21 CL   UNL d   1      -1.296   7.423   2.309  0.00  0.00    -0.084 Cl
ATOM     22  C   UNL d   1       1.000   4.170   2.624  0.00  0.00     0.020 A 
ENDBRANCH   3  15
TORSDOF 3
