REMARK  6 active torsions:
REMARK  status: ('A' for Active; 'I' for Inactive)
REMARK    1  A    between atoms: C_14  and  C_1 
REMARK       I    between atoms: C_2  and  N_13 
REMARK       I    between atoms: N_4  and  C_2 
REMARK    2  A    between atoms: C_3  and  N_4 
REMARK    3  A    between atoms: N_13  and  C_23 
REMARK    4  A    between atoms: S_19  and  C_14 
REMARK    5  A    between atoms: C_24  and  S_19 
REMARK    6  A    between atoms: C_23  and  C_24 
ROOT
ATOM      1  C   UNL d   1      -2.434   8.162  -0.720  0.00  0.00     0.320 C 
ATOM      2  N   UNL d   1      -2.509   9.471  -0.292  0.00  0.00    -0.309 N 
ATOM      3  O   UNL d   1      -2.538   7.768  -1.874  0.00  0.00    -0.247 OA
ATOM      4  N   UNL d   1      -2.292   7.293   0.338  0.00  0.00    -0.342 N 
ATOM      5  H   UNL d   1      -2.223   9.641   0.660  0.00  0.00     0.170 HD
ATOM      6  H   UNL d   1      -1.919   7.632   1.212  0.00  0.00     0.164 HD
ENDROOT
BRANCH   4   7
ATOM      7  C   UNL d   1      -2.268   5.853   0.139  0.00  0.00     0.134 C 
BRANCH   7   8
ATOM      8  C   UNL d   1      -0.851   5.286   0.040  0.00  0.00     0.094 C 
BRANCH   8   9
ATOM      9  S   UNL d   1       0.047   5.554   1.610  0.00  0.00    -0.163 SA
BRANCH   9  10
ATOM     10  C   UNL d   1       1.556   4.604   1.229  0.00  0.00     0.117 C 
BRANCH  10  11
ATOM     11  C   UNL d   1       2.566   4.732   2.338  0.00  0.00     0.011 A 
ATOM     12  C   UNL d   1       2.606   3.756   3.341  0.00  0.00     0.125 A 
ATOM     13  F   UNL d   1       1.776   2.704   3.283  0.00  0.00    -0.205 F 
ATOM     14  C   UNL d   1       3.491   3.837   4.415  0.00  0.00     0.043 A 
ATOM     15  C   UNL d   1       4.365   4.915   4.507  0.00  0.00     0.005 A 
ATOM     16  C   UNL d   1       4.346   5.902   3.522  0.00  0.00     0.024 A 
ATOM     17  C   UNL d   1       3.454   5.813   2.446  0.00  0.00     0.044 A 
ATOM     18 CL   UNL d   1       3.497   7.081   1.272  0.00  0.00    -0.084 Cl
ENDBRANCH  10  11
ENDBRANCH   9  10
ENDBRANCH   8   9
ENDBRANCH   7   8
ENDBRANCH   4   7
BRANCH   2  19
ATOM     19  C   UNL d   1      -2.931  10.590  -1.045  0.00  0.00     0.039 A 
ATOM     20  C   UNL d   1      -3.470  10.492  -2.332  0.00  0.00     0.053 A 
ATOM     21  C   UNL d   1      -3.930  11.634  -2.991  0.00  0.00     0.037 A 
ATOM     22 CL   UNL d   1      -4.615  11.493  -4.565  0.00  0.00    -0.084 Cl
ATOM     23  C   UNL d   1      -3.858  12.884  -2.386  0.00  0.00     0.048 A 
ATOM     24  C   UNL d   1      -3.315  12.983  -1.109  0.00  0.00     0.037 A 
ATOM     25  C   UNL d   1      -2.856  11.848  -0.437  0.00  0.00     0.053 A 
ATOM     26 CL   UNL d   1      -3.221  14.522  -0.343  0.00  0.00    -0.084 Cl
ENDBRANCH   2  19
TORSDOF 6
