REMARK  9 active torsions:
REMARK  status: ('A' for Active; 'I' for Inactive)
REMARK    1  A    between atoms: N_2  and  C_1 
REMARK    2  A    between atoms: O_12  and  C_4 
REMARK    3  A    between atoms: O_10  and  N_5 
REMARK    4  A    between atoms: C_7  and  C_9 
REMARK    5  A    between atoms: N_18  and  C_7 
REMARK    6  A    between atoms: C_8  and  O_10 
REMARK    7  A    between atoms: C_13  and  C_8 
REMARK    8  A    between atoms: C_19  and  O_12 
REMARK    9  A    between atoms: O_25  and  C_20 
ROOT
ATOM      1  C   UNL d   1       0.787  -4.900  -0.203  0.00  0.00     0.137 A 
ATOM      2  C   UNL d   1       0.209  -3.616  -0.192  0.00  0.00     0.053 A 
ATOM      3  C   UNL d   1       0.033  -6.048   0.078  0.00  0.00     0.109 A 
ATOM      4  C   UNL d   1      -1.162  -3.472   0.040  0.00  0.00     0.006 A 
ATOM      5  C   UNL d   1      -1.349  -5.888   0.259  0.00  0.00     0.041 A 
ATOM      6  C   UNL d   1      -1.943  -4.617   0.237  0.00  0.00     0.018 A 
ENDROOT
BRANCH   4   7
ATOM      7  C   UNL d   1      -1.779  -2.100   0.053  0.00  0.00     0.109 C 
ATOM      8  N   UNL d   1      -1.161  -1.152  -0.579  0.00  0.00    -0.246 N 
ATOM      9  HN  UNL d   1      -0.289  -1.285  -1.090  1.00  0.00     0.196 HD
BRANCH   8  10
ATOM     10  O   UNL d   1      -1.833   0.088  -0.479  0.00  0.00    -0.198 OA
BRANCH  10  11
ATOM     11  C   UNL d   1      -1.220   1.023  -1.271  0.00  0.00     0.288 C 
ATOM     12  O   UNL d   1      -0.252   0.829  -2.000  0.00  0.00    -0.262 OA
BRANCH  11  13
ATOM     13  C   UNL d   1      -1.856   2.420  -1.123  0.00  0.00     0.039 C 
ATOM     14  C   UNL d   1      -3.145   2.418  -0.289  0.00  0.00     0.025 C 
ATOM     15  C   UNL d   1      -0.825   3.343  -0.453  0.00  0.00     0.025 C 
ATOM     16  C   UNL d   1      -2.182   2.966  -2.524  0.00  0.00     0.025 C 
ENDBRANCH  11  13
ENDBRANCH  10  11
ENDBRANCH   8  10
BRANCH   7  17
ATOM     17  N   UNL d   1      -2.957  -1.919   0.745  0.00  0.00    -0.286 NA
ATOM     18  H   UNL d   1      -3.163  -0.939   0.902  0.00  0.00     0.125 HD
ATOM     19  H   UNL d   1      -3.069  -2.473   1.586  0.00  0.00     0.125 HD
ENDBRANCH   7  17
ENDBRANCH   4   7
BRANCH   1  20
ATOM     20  N   UNL d   1       2.181  -4.967  -0.590  0.00  0.00    -0.113 N 
ATOM     21  O   UNL d   1       2.981  -4.315   0.100  0.00  0.00    -0.532 OA
ATOM     22  O   UNL d   1       2.465  -5.631  -1.594  0.00  0.00    -0.532 OA
ENDBRANCH   1  20
BRANCH   3  23
ATOM     23  O   UNL d   1       0.445  -7.361   0.131  0.00  0.00    -0.308 OA
BRANCH  23  24
ATOM     24  C   UNL d   1       1.677  -7.706   0.634  0.00  0.00     0.076 C 
ATOM     25  C   UNL d   1       2.333  -7.037   1.666  0.00  0.00     0.040 C 
ATOM     26  C   UNL d   1       3.653  -7.369   1.986  0.00  0.00     0.039 C 
ATOM     27  C   UNL d   1       4.293  -8.419   1.326  0.00  0.00     0.068 C 
ATOM     28  C   UNL d   1       3.582  -9.184   0.402  0.00  0.00     0.039 C 
ATOM     29  C   UNL d   1       2.279  -8.822   0.049  0.00  0.00     0.040 C 
BRANCH  27  30
ATOM     30  O   UNL d   1       5.589  -8.799   1.547  0.00  0.00    -0.356 OA
ATOM     31  C   UNL d   1       6.490  -7.715   1.762  0.00  0.00     0.210 C 
ENDBRANCH  27  30
ENDBRANCH  23  24
ENDBRANCH   3  23
TORSDOF 9
