REMARK  4 active torsions:
REMARK  status: ('A' for Active; 'I' for Inactive)
REMARK    1  A    between atoms: C_7  and  C_2 
REMARK    2  A    between atoms: S_15  and  C_10 
REMARK    3  A    between atoms: C_19  and  S_15 
REMARK    4  A    between atoms: C_20  and  C_19 
ROOT
ATOM      1  C   UNL d   1       3.759   0.416   0.071  0.00  0.00     0.053 A 
ATOM      2  N   UNL d   1       4.431  -0.032  -1.009  0.00  0.00    -0.336 N 
ATOM      3  HN  UNL d   1       3.949  -0.483  -1.786  1.00  0.00     0.168 HD
ATOM      4  C   UNL d   1       5.761   0.141  -1.018  0.00  0.00     0.144 A 
ATOM      5  N   UNL d   1       6.461   0.725  -0.035  0.00  0.00    -0.347 N 
ATOM      6  HN  UNL d   1       7.474   0.836  -0.089  1.00  0.00     0.167 HD
ATOM      7  C   UNL d   1       4.397   1.021   1.136  0.00  0.00     0.048 A 
ATOM      8  C   UNL d   1       5.759   1.157   1.024  0.00  0.00     0.092 A 
ENDROOT
BRANCH   1   9
ATOM      9  C   UNL d   1       2.293   0.235  -0.007  0.00  0.00     0.039 A 
ATOM     10  S   UNL d   1       1.268   1.407   0.767  0.00  0.00    -0.079 SA
ATOM     11  C   UNL d   1      -0.091   0.644   0.194  0.00  0.00     0.057 A 
ATOM     12  C   UNL d   1       0.152  -0.448  -0.551  0.00  0.00     0.002 A 
ATOM     13  S   UNL d   1      -1.705   1.018   0.384  0.00  0.00    -0.093 SA
ATOM     14  C   UNL d   1       1.538  -0.759  -0.669  0.00  0.00    -0.030 A 
ATOM     15  C   UNL d   1      -1.030  -1.050  -1.069  0.00  0.00    -0.043 A 
ATOM     16  C   UNL d   1       2.175  -1.922  -1.360  0.00  0.00     0.050 C 
ATOM     17  C   UNL d   1      -1.224  -2.220  -1.971  0.00  0.00     0.049 C 
ATOM     18  C   UNL d   1      -2.130  -0.327  -0.600  0.00  0.00     0.058 A 
ENDBRANCH   1   9
BRANCH   4  19
ATOM     19  S   UNL d   1       6.688  -0.472  -2.400  0.00  0.00    -0.089 SA
BRANCH  19  20
ATOM     20  C   UNL d   1       5.421  -0.333  -3.692  0.00  0.00     0.121 C 
BRANCH  20  21
ATOM     21  C   UNL d   1       5.948  -0.772  -5.036  0.00  0.00    -0.049 A 
ATOM     22  C   UNL d   1       5.839  -2.109  -5.441  0.00  0.00     0.008 A 
ATOM     23  C   UNL d   1       6.340  -2.521  -6.676  0.00  0.00     0.001 A 
ATOM     24  C   UNL d   1       6.949  -1.601  -7.521  0.00  0.00     0.000 A 
ATOM     25  C   UNL d   1       7.071  -0.266  -7.131  0.00  0.00     0.001 A 
ATOM     26  C   UNL d   1       6.574   0.145  -5.892  0.00  0.00     0.008 A 
ENDBRANCH  20  21
ENDBRANCH  19  20
ENDBRANCH   4  19
TORSDOF 4
