REMARK  4 active torsions:
REMARK  status: ('A' for Active; 'I' for Inactive)
REMARK    1  A    between atoms: C_2  and  C_1 
REMARK       I    between atoms: N_3  and  C_2 
REMARK    2  A    between atoms: N_6  and  N_3 
REMARK    3  A    between atoms: C_11  and  N_6 
REMARK    4  A    between atoms: C_14  and  C_8 
ROOT
ATOM      1  C   UNL d   1       0.417   1.460   0.563  0.00  0.00     0.271 C 
ATOM      2  N   UNL d   1       1.447   2.396   0.604  0.00  0.00    -0.282 N 
ATOM      3  O   UNL d   1       0.417   0.554  -0.268  0.00  0.00    -0.266 OA
ATOM      4  H   UNL d   1       1.278   3.325   0.982  0.00  0.00     0.184 HD
ENDROOT
BRANCH   2   5
ATOM      5  N   UNL d   1       2.367   2.335  -0.461  0.00  0.00    -0.203 NA
ATOM      6  H   UNL d   1       2.271   1.434  -0.949  0.00  0.00     0.153 HD
BRANCH   5   7
ATOM      7  C   UNL d   1       3.717   2.589  -0.107  0.00  0.00     0.027 A 
ATOM      8  C   UNL d   1       4.729   1.994  -0.871  0.00  0.00     0.026 A 
ATOM      9  C   UNL d   1       6.077   2.326  -0.681  0.00  0.00     0.009 A 
ATOM     10  C   UNL d   1       6.453   3.292   0.257  0.00  0.00    -0.055 A 
ATOM     11  C   UNL d   1       5.446   3.890   1.027  0.00  0.00     0.009 A 
ATOM     12  C   UNL d   1       4.096   3.548   0.841  0.00  0.00     0.026 A 
BRANCH  10  13
ATOM     13  C   UNL d   1       7.904   3.724   0.408  0.00  0.00     0.010 C 
ATOM     14  C   UNL d   1       8.799   2.573   0.874  0.00  0.00     0.015 C 
ATOM     15  C   UNL d   1       8.441   4.327  -0.896  0.00  0.00     0.015 C 
ENDBRANCH  10  13
ENDBRANCH   5   7
ENDBRANCH   2   5
BRANCH   1  16
ATOM     16  C   UNL d   1      -0.681   1.610   1.565  0.00  0.00     0.093 A 
ATOM     17  C   UNL d   1      -1.509   0.540   1.943  0.00  0.00     0.052 A 
ATOM     18 CL   UNL d   1      -1.354  -1.073   1.338  0.00  0.00    -0.083 Cl
ATOM     19  C   UNL d   1      -2.522   0.728   2.902  0.00  0.00     0.025 A 
ATOM     20  C   UNL d   1      -2.717   1.972   3.498  0.00  0.00     0.005 A 
ATOM     21  C   UNL d   1      -1.911   3.039   3.127  0.00  0.00     0.043 A 
ATOM     22  C   UNL d   1      -0.908   2.854   2.172  0.00  0.00     0.133 A 
ATOM     23  F   UNL d   1      -0.164   3.923   1.850  0.00  0.00    -0.205 F 
ENDBRANCH   1  16
TORSDOF 4
