REMARK  4 active torsions:
REMARK  status: ('A' for Active; 'I' for Inactive)
REMARK    1  A    between atoms: C_5  and  C_1 
REMARK    2  A    between atoms: C_6  and  C_2 
REMARK    3  A    between atoms: O_9  and  C_5 
REMARK    4  A    between atoms: C_12  and  O_9 
ROOT
ATOM      1  C   UNL d   1      -0.056  -1.110   0.241  0.00  0.00     0.100 A 
ATOM      2  C   UNL d   1      -1.315  -0.428   0.394  0.00  0.00     0.085 A 
ATOM      3  N   UNL d   1      -1.111   0.901   0.398  0.00  0.00    -0.259 N 
ATOM      4  HN  UNL d   1      -1.822   1.621   0.528  1.00  0.00     0.195 HD
ATOM      5  O   UNL d   1       0.224   1.109   0.195  0.00  0.00    -0.241 OA
ATOM      6  C   UNL d   1       0.862  -0.078   0.116  0.00  0.00     0.091 A 
ATOM      7  C   UNL d   1       2.323   0.005  -0.078  0.00  0.00     0.080 C 
ENDROOT
BRANCH   1   8
ATOM      8  C   UNL d   1       0.268  -2.522   0.234  0.00  0.00     0.303 C 
ATOM      9  O   UNL d   1      -0.547  -3.408   0.015  0.00  0.00    -0.259 OA
BRANCH   8  10
ATOM     10  O   UNL d   1       1.610  -2.738   0.570  0.00  0.00    -0.275 OA
BRANCH  10  11
ATOM     11  C   UNL d   1       2.206  -4.008   0.737  0.00  0.00     0.079 A 
ATOM     12  C   UNL d   1       1.913  -5.104  -0.066  0.00  0.00     0.037 A 
ATOM     13  C   UNL d   1       2.603  -6.301   0.142  0.00  0.00     0.003 A 
ATOM     14  C   UNL d   1       3.579  -6.391   1.137  0.00  0.00     0.000 A 
ATOM     15  C   UNL d   1       3.876  -5.280   1.927  0.00  0.00     0.003 A 
ATOM     16  C   UNL d   1       3.193  -4.082   1.723  0.00  0.00     0.037 A 
ENDBRANCH  10  11
ENDBRANCH   8  10
ENDBRANCH   1   8
BRANCH   2  17
ATOM     17  C   UNL d   1      -2.679  -0.939   0.647  0.00  0.00     0.015 A 
ATOM     18  C   UNL d   1      -3.843  -0.294   0.169  0.00  0.00     0.046 A 
ATOM     19 CL   UNL d   1      -3.822   1.043  -0.935  0.00  0.00    -0.083 Cl
ATOM     20  C   UNL d   1      -5.118  -0.738   0.553  0.00  0.00     0.025 A 
ATOM     21  C   UNL d   1      -5.261  -1.845   1.385  0.00  0.00     0.002 A 
ATOM     22  C   UNL d   1      -4.130  -2.513   1.836  0.00  0.00     0.001 A 
ATOM     23  C   UNL d   1      -2.855  -2.056   1.484  0.00  0.00     0.015 A 
ENDBRANCH   2  17
TORSDOF 4
