REMARK  4 active torsions:
REMARK  status: ('A' for Active; 'I' for Inactive)
REMARK    1  A    between atoms: C_8  and  N_1 
REMARK    2  A    between atoms: C_10  and  C_4 
REMARK    3  A    between atoms: C_11  and  C_10 
REMARK    4  A    between atoms: N_18  and  C_14 
ROOT
ATOM      1  C   UNL d   1      -0.393  -2.610   0.011  0.00  0.00     0.079 A 
ATOM      2  C   UNL d   1       0.487  -3.457   0.720  0.00  0.00     0.075 A 
ATOM      3  C   UNL d   1       1.528  -2.982   1.592  0.00  0.00     0.102 C 
ATOM      4  N   UNL d   1       2.357  -2.666   2.342  0.00  0.00    -0.191 NA
ATOM      5  C   UNL d   1      -1.429  -3.187  -0.744  0.00  0.00     0.035 A 
ATOM      6  C   UNL d   1       0.305  -4.851   0.674  0.00  0.00     0.048 A 
ATOM      7  C   UNL d   1      -0.731  -5.402  -0.071  0.00  0.00     0.035 A 
ATOM      8  C   UNL d   1      -1.595  -4.577  -0.782  0.00  0.00     0.026 A 
ATOM      9 CL   UNL d   1      -0.945  -7.107  -0.110  0.00  0.00    -0.084 Cl
ENDROOT
BRANCH   1  10
ATOM     10  N   UNL d   1      -0.215  -1.194   0.017  0.00  0.00    -0.243 N 
ATOM     11  N   UNL d   1       1.032  -0.676   0.073  0.00  0.00    -0.235 N 
ATOM     12  N   UNL d   1       0.957   0.640   0.009  0.00  0.00    -0.280 N 
ATOM     13  HN  UNL d   1       1.893  -1.216   0.151  1.00  0.00     0.209 HD
ATOM     14  C   UNL d   1      -0.361   1.002  -0.052  0.00  0.00     0.123 A 
ATOM     15  HN  UNL d   1       1.750   1.281   0.006  1.00  0.00     0.188 HD
ATOM     16  C   UNL d   1      -1.139  -0.157  -0.061  0.00  0.00     0.064 A 
ATOM     17  C   UNL d   1      -2.614  -0.335  -0.019  0.00  0.00     0.073 C 
BRANCH  14  18
ATOM     18  C   UNL d   1      -0.803   2.398  -0.064  0.00  0.00     0.203 C 
ATOM     19  O   UNL d   1      -1.985   2.727  -0.120  0.00  0.00    -0.286 OA
BRANCH  18  20
ATOM     20  C   UNL d   1       0.302   3.407  -0.000  0.00  0.00     0.074 C 
ATOM     21  C   UNL d   1       0.016   4.718  -0.003  0.00  0.00     0.088 C 
BRANCH  21  22
ATOM     22  N   UNL d   1       0.846   5.833   0.043  0.00  0.00    -0.398 N 
ATOM     23  C   UNL d   1       2.307   5.795   0.101  0.00  0.00     0.148 C 
ATOM     24  C   UNL d   1       0.299   7.194   0.007  0.00  0.00     0.148 C 
ENDBRANCH  21  22
ENDBRANCH  18  20
ENDBRANCH  14  18
ENDBRANCH   1  10
TORSDOF 4
