REMARK  8 active torsions:
REMARK  status: ('A' for Active; 'I' for Inactive)
REMARK    1  A    between atoms: C_4  and  C_1 
REMARK       I    between atoms: N_7  and  C_1 
REMARK    2  A    between atoms: C_2  and  C_3 
REMARK       I    between atoms: C_3  and  N_8 
REMARK    3  A    between atoms: N_6  and  C_4 
REMARK    4  A    between atoms: C_18  and  C_4 
REMARK       I    between atoms: C_5  and  N_6 
REMARK    5  A    between atoms: C_19  and  C_5 
REMARK    6  A    between atoms: N_8  and  N_7 
REMARK    7  A    between atoms: C_10  and  C_19 
REMARK    8  A    between atoms: C_22  and  C_18 
ROOT
ATOM      1  C   UNL d   1       1.070  -0.031   0.201  0.00  0.00     0.259 C 
ATOM      2  N   UNL d   1       2.322   0.376  -0.211  0.00  0.00    -0.265 N 
ATOM      3  O   UNL d   1       0.572   0.320   1.274  0.00  0.00    -0.269 OA
ATOM      4  H   UNL d   1       2.519   0.446  -1.215  0.00  0.00     0.190 HD
ENDROOT
BRANCH   1   5
ATOM      5  C   UNL d   1       0.289  -0.874  -0.832  0.00  0.00     0.178 C 
BRANCH   5   6
ATOM      6  N   UNL d   1      -0.495  -0.005  -1.714  0.00  0.00    -0.347 N 
ATOM      7  C   UNL d   1       0.082   0.869  -2.609  0.00  0.00     0.222 C 
ATOM      8  O   UNL d   1       1.302   0.991  -2.723  0.00  0.00    -0.273 OA
ATOM      9  H   UNL d   1      -1.499   0.017  -1.584  0.00  0.00     0.163 HD
BRANCH   7  10
ATOM     10  C   UNL d   1      -0.894   1.685  -3.438  0.00  0.00     0.141 C 
BRANCH  10  11
ATOM     11  C   UNL d   1      -1.266   2.979  -2.774  0.00  0.00    -0.043 A 
ATOM     12  C   UNL d   1      -2.561   3.378  -2.495  0.00  0.00     0.057 A 
ATOM     13  S   UNL d   1      -2.640   4.925  -1.769  0.00  0.00    -0.113 SA
ATOM     14  C   UNL d   1      -0.942   5.094  -1.818  0.00  0.00     0.050 A 
ATOM     15  C   UNL d   1      -0.330   3.993  -2.376  0.00  0.00     0.015 A 
ENDBRANCH  10  11
ENDBRANCH   7  10
ENDBRANCH   5   6
BRANCH   5  16
ATOM     16  C   UNL d   1       1.133  -1.897  -1.615  0.00  0.00     0.038 C 
BRANCH  16  17
ATOM     17  C   UNL d   1       1.956  -2.876  -0.752  0.00  0.00    -0.020 C 
ATOM     18  C   UNL d   1       1.075  -3.782   0.107  0.00  0.00     0.009 C 
ATOM     19  C   UNL d   1       2.854  -3.720  -1.661  0.00  0.00     0.009 C 
ENDBRANCH  16  17
ENDBRANCH   5  16
ENDBRANCH   1   5
BRANCH   2  20
ATOM     20  N   UNL d   1       3.050   1.237   0.610  0.00  0.00    -0.263 N 
ATOM     21  C   UNL d   1       4.341   1.556   0.244  0.00  0.00     0.271 C 
ATOM     22  O   UNL d   1       4.870   1.131  -0.780  0.00  0.00    -0.266 OA
ATOM     23  H   UNL d   1       2.606   1.534   1.477  0.00  0.00     0.190 HD
BRANCH  21  24
ATOM     24  C   UNL d   1       5.067   2.532   1.101  0.00  0.00     0.055 A 
ATOM     25  C   UNL d   1       4.886   2.688   2.482  0.00  0.00     0.049 A 
ATOM     26 CL   UNL d   1       3.881   1.658   3.440  0.00  0.00    -0.083 Cl
ATOM     27  C   UNL d   1       5.574   3.700   3.165  0.00  0.00     0.025 A 
ATOM     28  C   UNL d   1       6.455   4.544   2.488  0.00  0.00     0.002 A 
ATOM     29  C   UNL d   1       6.672   4.368   1.126  0.00  0.00     0.001 A 
ATOM     30  C   UNL d   1       5.986   3.367   0.437  0.00  0.00     0.019 A 
ENDBRANCH  21  24
ENDBRANCH   2  20
TORSDOF 8
