REMARK  4 active torsions:
REMARK  status: ('A' for Active; 'I' for Inactive)
REMARK    1  A    between atoms: C_7  and  C_1 
REMARK    2  A    between atoms: C_9  and  C_6 
REMARK    3  A    between atoms: O_14  and  C_7 
REMARK    4  A    between atoms: C_17  and  O_14 
ROOT
ATOM      1  C   UNL d   1      -0.577  -1.308  -0.060  0.00  0.00     0.067 C 
ATOM      2  C   UNL d   1       0.376   1.355   0.082  0.00  0.00     0.325 C 
ATOM      3  N   UNL d   1       1.273   0.319  -0.034  0.00  0.00    -0.325 N 
ATOM      4  C   UNL d   1      -1.468  -0.291  -0.017  0.00  0.00     0.026 C 
ATOM      5  N   UNL d   1      -0.981   1.017   0.105  0.00  0.00    -0.307 N 
ATOM      6  C   UNL d   1       0.905  -1.091   0.063  0.00  0.00     0.163 C 
ATOM      7  O   UNL d   1       0.746   2.531   0.123  0.00  0.00    -0.247 OA
ATOM      8  C   UNL d   1       2.692   0.631  -0.151  0.00  0.00     0.155 C 
ATOM      9  C   UNL d   1      -1.871   2.178   0.099  0.00  0.00     0.161 C 
ATOM     10  C   UNL d   1      -2.970  -0.444  -0.130  0.00  0.00     0.069 C 
ENDROOT
BRANCH   6  11
ATOM     11  C   UNL d   1       1.472  -1.735   1.330  0.00  0.00    -0.030 A 
ATOM     12  C   UNL d   1       1.146  -1.250   2.606  0.00  0.00     0.009 A 
ATOM     13  C   UNL d   1       1.657  -1.868   3.750  0.00  0.00     0.001 A 
ATOM     14  C   UNL d   1       2.497  -2.971   3.633  0.00  0.00     0.000 A 
ATOM     15  C   UNL d   1       2.834  -3.462   2.374  0.00  0.00     0.001 A 
ATOM     16  C   UNL d   1       2.324  -2.848   1.228  0.00  0.00     0.009 A 
ENDBRANCH   6  11
BRANCH   1  17
ATOM     17  C   UNL d   1      -0.898  -2.736  -0.340  0.00  0.00     0.293 C 
ATOM     18  O   UNL d   1      -0.182  -3.446  -1.032  0.00  0.00    -0.259 OA
BRANCH  17  19
ATOM     19  O   UNL d   1      -2.063  -3.127   0.226  0.00  0.00    -0.318 OA
BRANCH  19  20
ATOM     20  C   UNL d   1      -2.629  -4.335  -0.305  0.00  0.00     0.174 C 
ATOM     21  C   UNL d   1      -3.231  -4.069  -1.678  0.00  0.00     0.034 C 
ENDBRANCH  19  20
ENDBRANCH  17  19
ENDBRANCH   1  17
TORSDOF 4
