REMARK  2 active torsions:
REMARK  status: ('A' for Active; 'I' for Inactive)
REMARK    1  A    between atoms: C_8  and  C_1 
REMARK    2  A    between atoms: C_13  and  C_10 
ROOT
ATOM      1  N   UNL d   1      -2.419  -2.689  -0.883  0.00  0.00    -0.341 N 
ATOM      2  HN  UNL d   1      -2.545  -2.025  -1.647  1.00  0.00     0.167 HD
ATOM      3  C   UNL d   1      -1.545  -2.452   0.118  0.00  0.00     0.054 A 
ATOM      4  C   UNL d   1      -3.118  -3.838  -0.832  0.00  0.00     0.116 A 
ATOM      5  N   UNL d   1      -3.004  -4.748   0.155  0.00  0.00    -0.352 N 
ATOM      6  HN  UNL d   1      -3.558  -5.605   0.159  1.00  0.00     0.166 HD
ATOM      7  C   UNL d   1      -1.362  -3.334   1.163  0.00  0.00     0.048 A 
ATOM      8  C   UNL d   1      -2.126  -4.473   1.132  0.00  0.00     0.092 A 
ENDROOT
BRANCH   3   9
ATOM      9  C   UNL d   1      -0.848  -1.163   0.030  0.00  0.00     0.055 A 
ATOM     10  C   UNL d   1      -1.264   0.045  -0.519  0.00  0.00     0.025 A 
ATOM     11  N   UNL d   1      -0.363   1.095  -0.391  0.00  0.00    -0.357 N 
ATOM     12  C   UNL d   1      -2.567   0.330  -1.179  0.00  0.00     0.070 C 
ATOM     13  C   UNL d   1       0.722   0.690   0.227  0.00  0.00     0.048 A 
ATOM     14  HN  UNL d   1      -0.522   2.044  -0.729  1.00  0.00     0.166 HD
ATOM     15  S   UNL d   1       0.743  -0.965   0.663  0.00  0.00    -0.073 SA
ATOM     16  C   UNL d   1       1.871   1.577   0.556  0.00  0.00     0.076 C 
ENDBRANCH   3   9
BRANCH   4  17
ATOM     17  C   UNL d   1      -4.079  -4.122  -1.920  0.00  0.00     0.008 A 
ATOM     18  C   UNL d   1      -4.239  -3.245  -3.012  0.00  0.00     0.017 A 
ATOM     19  C   UNL d   1      -5.149  -3.517  -4.043  0.00  0.00     0.025 A 
ATOM     20  C   UNL d   1      -5.916  -4.676  -3.998  0.00  0.00     0.034 A 
ATOM     21  C   UNL d   1      -5.785  -5.561  -2.935  0.00  0.00     0.025 A 
ATOM     22 CL   UNL d   1      -7.030  -5.016  -5.265  0.00  0.00    -0.084 Cl
ATOM     23  C   UNL d   1      -4.876  -5.284  -1.908  0.00  0.00     0.017 A 
ENDBRANCH   4  17
TORSDOF 2
