REMARK  2 active torsions:
REMARK  status: ('A' for Active; 'I' for Inactive)
REMARK    1  A    between atoms: C_4  and  N_1 
REMARK    2  A    between atoms: C_5  and  C_7 
ROOT
ATOM      1  N   UNL d   1       0.979  -4.554  -2.113  0.00  0.00    -0.345 N 
ATOM      2  HN  UNL d   1       1.103  -4.213  -1.159  1.00  0.00     0.167 HD
ATOM      3  C   UNL d   1       0.454  -3.764  -3.075  0.00  0.00     0.045 A 
ATOM      4  C   UNL d   1       1.333  -5.806  -2.458  0.00  0.00     0.077 A 
ATOM      5  N   UNL d   1       1.205  -6.323  -3.691  0.00  0.00    -0.356 N 
ATOM      6  HN  UNL d   1       1.481  -7.282  -3.905  1.00  0.00     0.166 HD
ATOM      7  C   UNL d   1       0.302  -4.212  -4.375  0.00  0.00     0.047 A 
ATOM      8  C   UNL d   1       0.694  -5.507  -4.626  0.00  0.00     0.091 A 
ATOM      9  C   UNL d   1       1.891  -6.695  -1.391  0.00  0.00     0.089 C 
ENDROOT
BRANCH   3  10
ATOM     10  C   UNL d   1       0.043  -2.414  -2.633  0.00  0.00    -0.007 A 
ATOM     11  C   UNL d   1       0.720  -1.764  -1.581  0.00  0.00     0.049 A 
ATOM     12  C   UNL d   1       0.310  -0.496  -1.138  0.00  0.00     0.103 A 
ATOM     13  C   UNL d   1      -0.777   0.151  -1.734  0.00  0.00     0.036 A 
ATOM     14  C   UNL d   1      -1.456  -0.477  -2.775  0.00  0.00     0.003 A 
ATOM     15  C   UNL d   1      -1.051  -1.742  -3.214  0.00  0.00     0.014 A 
BRANCH  12  16
ATOM     16  N   UNL d   1       1.024   0.158  -0.034  0.00  0.00    -0.116 N 
ATOM     17  O   UNL d   1       1.989  -0.438   0.464  0.00  0.00    -0.532 OA
ATOM     18  O   UNL d   1       0.619   1.271   0.334  0.00  0.00    -0.532 OA
ENDBRANCH  12  16
ENDBRANCH   3  10
TORSDOF 2
