REMARK  5 active torsions:
REMARK  status: ('A' for Active; 'I' for Inactive)
REMARK    1  A    between atoms: C_4  and  C_1 
REMARK    2  A    between atoms: N_15  and  C_4 
REMARK    3  A    between atoms: O_11  and  N_6 
REMARK    4  A    between atoms: C_9  and  O_11 
REMARK    5  A    between atoms: C_12  and  C_9 
ROOT
ATOM      1  C   UNL d   1      -2.661  -1.422   0.083  0.00  0.00     0.127 C 
ATOM      2  N   UNL d   1      -3.860  -0.953  -0.037  0.00  0.00    -0.244 N 
ATOM      3  HN  UNL d   1      -4.689  -1.530  -0.183  1.00  0.00     0.196 HD
ENDROOT
BRANCH   2   4
ATOM      4  O   UNL d   1      -3.880   0.462   0.058  0.00  0.00    -0.193 OA
BRANCH   4   5
ATOM      5  C   UNL d   1      -5.173   0.899  -0.068  0.00  0.00     0.315 C 
ATOM      6  O   UNL d   1      -6.163   0.209  -0.269  0.00  0.00    -0.257 OA
BRANCH   5   7
ATOM      7  C   UNL d   1      -5.271   2.384   0.057  0.00  0.00     0.043 A 
ATOM      8  C   UNL d   1      -4.181   3.218   0.333  0.00  0.00     0.041 A 
ATOM      9  C   UNL d   1      -4.379   4.600   0.435  0.00  0.00     0.035 A 
ATOM     10 CL   UNL d   1      -3.041   5.631   0.775  0.00  0.00    -0.084 Cl
ATOM     11  C   UNL d   1      -5.644   5.162   0.266  0.00  0.00     0.024 A 
ATOM     12  C   UNL d   1      -6.732   4.337  -0.006  0.00  0.00     0.003 A 
ATOM     13  C   UNL d   1      -6.544   2.957  -0.111  0.00  0.00     0.018 A 
ENDBRANCH   5   7
ENDBRANCH   4   5
ENDBRANCH   2   4
BRANCH   1  14
ATOM     14  C   UNL d   1      -2.462  -2.875   0.016  0.00  0.00     0.097 A 
ATOM     15  N   UNL d   1      -1.227  -3.410   0.081  0.00  0.00    -0.258 N 
ATOM     16  O   UNL d   1      -1.395  -4.780  -0.004  0.00  0.00    -0.242 OA
ATOM     17  HN  UNL d   1      -0.345  -2.906   0.175  1.00  0.00     0.195 HD
ATOM     18  C   UNL d   1      -2.716  -5.071  -0.138  0.00  0.00     0.074 A 
ATOM     19  C   UNL d   1      -3.434  -3.901  -0.138  0.00  0.00     0.069 A 
ATOM     20  C   UNL d   1      -3.059  -6.501  -0.247  0.00  0.00     0.079 C 
ENDBRANCH   1  14
BRANCH   1  21
ATOM     21  N   UNL d   1      -1.499  -0.714   0.246  0.00  0.00    -0.285 NA
ATOM     22  H   UNL d   1      -0.659  -1.226  -0.016  0.00  0.00     0.125 HD
ATOM     23  H   UNL d   1      -1.538   0.235  -0.098  0.00  0.00     0.125 HD
ENDBRANCH   1  21
TORSDOF 5
