REMARK  3 active torsions:
REMARK  status: ('A' for Active; 'I' for Inactive)
REMARK    1  A    between atoms: C_8  and  C_3 
REMARK    2  A    between atoms: C_13  and  C_4 
REMARK    3  A    between atoms: N_6  and  C_9 
ROOT
ATOM      1  N   UNL d   1       1.250  -0.568   0.529  0.00  0.00    -0.349 N 
ATOM      2  HN  UNL d   1       2.007  -1.063   0.999  1.00  0.00     0.166 HD
ATOM      3  C   UNL d   1       0.195  -1.147  -0.016  0.00  0.00     0.085 A 
ATOM      4  C   UNL d   1       1.182   0.811   0.370  0.00  0.00     0.050 A 
ATOM      5  S   UNL d   1      -0.952  -0.051  -0.703  0.00  0.00    -0.081 SA
ATOM      6  C   UNL d   1       0.059   1.260  -0.295  0.00  0.00     0.082 A 
ENDROOT
BRANCH   3   7
ATOM      7  C   UNL d   1      -0.060  -2.599  -0.038  0.00  0.00    -0.000 A 
ATOM      8  C   UNL d   1       0.413  -3.411   1.011  0.00  0.00     0.044 A 
ATOM      9  C   UNL d   1       0.177  -4.799   1.022  0.00  0.00     0.039 A 
ATOM     10  C   UNL d   1      -0.536  -5.372  -0.041  0.00  0.00     0.030 A 
ATOM     11  C   UNL d   1      -0.997  -4.581  -1.092  0.00  0.00     0.003 A 
ATOM     12  C   UNL d   1      -0.758  -3.210  -1.093  0.00  0.00     0.014 A 
BRANCH   9  13
ATOM     13  N   UNL d   1       0.663  -5.622   2.088  0.00  0.00    -0.333 N 
ATOM     14  C   UNL d   1       0.528  -6.996   2.197  0.00  0.00     0.096 A 
ATOM     15  C   UNL d   1       1.167  -7.435   3.336  0.00  0.00     0.019 A 
ATOM     16  C   UNL d   1       1.696  -6.300   3.976  0.00  0.00     0.019 A 
ATOM     17  C   UNL d   1       1.365  -5.205   3.206  0.00  0.00     0.096 A 
ENDBRANCH   9  13
ENDBRANCH   3   7
BRANCH   4  18
ATOM     18  C   UNL d   1       2.244   1.703   0.824  0.00  0.00    -0.009 A 
ATOM     19  C   UNL d   1       3.570   1.251   0.864  0.00  0.00     0.014 A 
ATOM     20  C   UNL d   1       4.605   2.119   1.228  0.00  0.00     0.001 A 
ATOM     21  C   UNL d   1       4.324   3.442   1.566  0.00  0.00     0.000 A 
ATOM     22  C   UNL d   1       3.007   3.896   1.558  0.00  0.00     0.001 A 
ATOM     23  C   UNL d   1       1.974   3.030   1.193  0.00  0.00     0.014 A 
ENDBRANCH   4  18
TORSDOF 3
