REMARK  6 active torsions:
REMARK  status: ('A' for Active; 'I' for Inactive)
REMARK    1  A    between atoms: C_8  and  C_1 
REMARK    2  A    between atoms: C_5  and  N_9 
REMARK    3  A    between atoms: S_12  and  C_5 
REMARK    4  A    between atoms: O_10  and  C_6 
REMARK    5  A    between atoms: N_9  and  C_8 
REMARK    6  A    between atoms: C_13  and  O_10 
ROOT
ATOM      1  N   UNL d   1      -2.828   3.984  -1.828  0.00  0.00    -0.274 N 
ATOM      2  HN  UNL d   1      -3.362   4.508  -2.521  1.00  0.00     0.180 HD
ATOM      3  C   UNL d   1      -3.384   3.693  -0.659  0.00  0.00     0.183 C 
ATOM      4  C   UNL d   1      -1.630   3.616  -2.100  0.00  0.00     0.149 C 
ATOM      5  N   UNL d   1      -3.877   3.471   0.368  0.00  0.00    -0.172 NA
ENDROOT
BRANCH   4   6
ATOM      6  N   UNL d   1      -0.659   2.904  -1.456  0.00  0.00    -0.366 N 
ATOM      7  H   UNL d   1       0.244   2.943  -1.920  0.00  0.00     0.162 HD
BRANCH   6   8
ATOM      8  C   UNL d   1      -0.606   2.400  -0.104  0.00  0.00     0.165 C 
BRANCH   8   9
ATOM      9  C   UNL d   1       0.208   1.125  -0.077  0.00  0.00     0.015 A 
ATOM     10  C   UNL d   1       1.617   1.176  -0.074  0.00  0.00     0.085 A 
ATOM     11  C   UNL d   1       2.375  -0.004  -0.163  0.00  0.00     0.038 A 
ATOM     12  C   UNL d   1       1.752  -1.246  -0.150  0.00  0.00     0.004 A 
ATOM     13  C   UNL d   1       0.365  -1.316  -0.106  0.00  0.00     0.024 A 
ATOM     14  C   UNL d   1      -0.402  -0.144  -0.096  0.00  0.00     0.044 A 
ATOM     15 CL   UNL d   1      -2.120  -0.347  -0.114  0.00  0.00    -0.084 Cl
BRANCH  10  16
ATOM     16  O   UNL d   1       2.220   2.423  -0.027  0.00  0.00    -0.310 OA
BRANCH  16  17
ATOM     17  C   UNL d   1       3.435   2.515   0.619  0.00  0.00     0.076 A 
ATOM     18  C   UNL d   1       4.464   3.183  -0.043  0.00  0.00     0.037 A 
ATOM     19  C   UNL d   1       5.737   3.233   0.529  0.00  0.00     0.003 A 
ATOM     20  C   UNL d   1       5.973   2.628   1.765  0.00  0.00     0.000 A 
ATOM     21  C   UNL d   1       4.930   2.004   2.449  0.00  0.00     0.003 A 
ATOM     22  C   UNL d   1       3.654   1.967   1.888  0.00  0.00     0.037 A 
ENDBRANCH  16  17
ENDBRANCH  10  16
ENDBRANCH   8   9
ENDBRANCH   6   8
ENDBRANCH   4   6
BRANCH   4  23
ATOM     23  S   UNL d   1      -1.010   4.109  -3.693  0.00  0.00    -0.098 SA
ATOM     24  C   UNL d   1      -2.354   5.159  -4.295  0.00  0.00     0.099 C 
ENDBRANCH   4  23
TORSDOF 6
