REMARK  7 active torsions:
REMARK  status: ('A' for Active; 'I' for Inactive)
REMARK    1  A    between atoms: C_2  and  C_1 
REMARK    2  A    between atoms: O_5  and  C_1 
REMARK    3  A    between atoms: O_17  and  C_4 
REMARK    4  A    between atoms: C_10  and  O_5 
REMARK    5  A    between atoms: C_6  and  C_10 
REMARK    6  A    between atoms: C_7  and  C_6 
REMARK    7  A    between atoms: O_21  and  C_8 
ROOT
ATOM      1  C   UNL d   1       1.103   0.011   0.188  0.00  0.00     0.293 C 
ATOM      2  O   UNL d   1       1.702  -0.713  -0.595  0.00  0.00    -0.259 OA
ENDROOT
BRANCH   1   3
ATOM      3  C   UNL d   1       0.332   1.204  -0.266  0.00  0.00     0.042 A 
ATOM      4  C   UNL d   1       0.660   1.770  -1.512  0.00  0.00     0.057 A 
ATOM      5  C   UNL d   1      -0.067   2.851  -2.043  0.00  0.00     0.102 A 
ATOM      6  C   UNL d   1      -1.156   3.356  -1.313  0.00  0.00     0.101 A 
ATOM      7  C   UNL d   1      -1.486   2.781  -0.076  0.00  0.00     0.040 A 
ATOM      8  C   UNL d   1      -0.743   1.722   0.457  0.00  0.00     0.020 A 
BRANCH   5   9
ATOM      9  O   UNL d   1       0.204   3.415  -3.261  0.00  0.00    -0.353 OA
ATOM     10  C   UNL d   1       1.310   2.920  -4.005  0.00  0.00     0.210 C 
ENDBRANCH   5   9
BRANCH   6  11
ATOM     11  O   UNL d   1      -2.033   4.340  -1.695  0.00  0.00    -0.353 OA
ATOM     12  C   UNL d   1      -1.531   5.391  -2.512  0.00  0.00     0.210 C 
ENDBRANCH   6  11
ENDBRANCH   1   3
BRANCH   1  13
ATOM     13  O   UNL d   1       1.041  -0.159   1.532  0.00  0.00    -0.310 OA
BRANCH  13  14
ATOM     14  C   UNL d   1       1.733  -1.304   2.064  0.00  0.00     0.263 C 
BRANCH  14  15
ATOM     15  C   UNL d   1       2.889  -0.929   2.996  0.00  0.00     0.183 C 
ATOM     16  O   UNL d   1       3.209   0.239   3.207  0.00  0.00    -0.290 OA
BRANCH  15  17
ATOM     17  C   UNL d   1       3.653  -2.027   3.687  0.00  0.00     0.012 A 
ATOM     18  C   UNL d   1       3.357  -3.387   3.519  0.00  0.00     0.016 A 
ATOM     19  C   UNL d   1       4.099  -4.365   4.202  0.00  0.00     0.020 A 
ATOM     20  C   UNL d   1       5.138  -3.988   5.051  0.00  0.00     0.011 A 
ATOM     21  C   UNL d   1       5.446  -2.643   5.227  0.00  0.00     0.020 A 
ATOM     22 BR   UNL d   1       6.131  -5.309   5.970  0.00  0.00    -0.051 Br
ATOM     23  C   UNL d   1       4.705  -1.668   4.547  0.00  0.00     0.016 A 
ENDBRANCH  15  17
ENDBRANCH  14  15
ENDBRANCH  13  14
ENDBRANCH   1  13
TORSDOF 7
