REMARK  8 active torsions:
REMARK  status: ('A' for Active; 'I' for Inactive)
REMARK    1  A    between atoms: C_5  and  S_1 
REMARK    2  A    between atoms: O_7  and  S_1 
REMARK    3  A    between atoms: S_2  and  C_6 
REMARK    4  A    between atoms: C_11  and  S_2 
REMARK    5  A    between atoms: C_4  and  C_3 
REMARK    6  A    between atoms: C_6  and  C_10 
REMARK    7  A    between atoms: N_8  and  O_7 
REMARK    8  A    between atoms: N_19  and  C_10 
ROOT
ATOM      1  O   UNL d   1       1.500  -1.178   2.634  0.00  0.00    -0.146 OA
ENDROOT
BRANCH   1   2
ATOM      2  S   UNL d   1       2.209  -1.516   1.180  0.00  0.00     0.319 S 
ATOM      3  O   UNL d   1       1.226  -2.188   0.349  0.00  0.00    -0.191 OA
ATOM      4  O   UNL d   1       2.916  -0.348   0.680  0.00  0.00    -0.191 OA
BRANCH   2   5
ATOM      5  C   UNL d   1       3.494  -2.721   1.530  0.00  0.00     0.103 A 
ATOM      6  C   UNL d   1       4.579  -2.458   2.388  0.00  0.00     0.071 A 
ATOM      7  C   UNL d   1       5.592  -3.439   2.490  0.00  0.00     0.018 A 
ATOM      8  C   UNL d   1       5.537  -4.627   1.761  0.00  0.00     0.001 A 
ATOM      9  C   UNL d   1       4.462  -4.870   0.917  0.00  0.00     0.002 A 
ATOM     10  C   UNL d   1       3.445  -3.924   0.801  0.00  0.00     0.027 A 
BRANCH   6  11
ATOM     11  C   UNL d   1       4.776  -1.210   3.212  0.00  0.00     0.419 C 
ATOM     12  F   UNL d   1       3.794  -0.286   3.132  0.00  0.00    -0.166 F 
ATOM     13  F   UNL d   1       4.862  -1.511   4.540  0.00  0.00    -0.166 F 
ATOM     14  F   UNL d   1       5.934  -0.564   2.907  0.00  0.00    -0.166 F 
ENDBRANCH   6  11
ENDBRANCH   2   5
ENDBRANCH   1   2
BRANCH   1  15
ATOM     15  N   UNL d   1       0.575  -0.107   2.530  0.00  0.00    -0.236 N 
ATOM     16  C   UNL d   1       0.271   0.411   3.678  0.00  0.00     0.110 C 
ATOM     17  HN  UNL d   1       0.189   0.220   1.644  1.00  0.00     0.197 HD
BRANCH  16  18
ATOM     18  C   UNL d   1      -0.626   1.625   3.632  0.00  0.00     0.218 C 
BRANCH  18  19
ATOM     19  S   UNL d   1       0.191   3.126   4.126  0.00  0.00     0.158 S 
ATOM     20  O   UNL d   1      -0.821   4.170   4.019  0.00  0.00    -0.227 OA
ATOM     21  O   UNL d   1       0.787   2.869   5.427  0.00  0.00    -0.227 OA
BRANCH  19  22
ATOM     22  C   UNL d   1       1.522   3.537   2.934  0.00  0.00     0.053 C 
ATOM     23  C   UNL d   1       0.960   3.608   1.508  0.00  0.00     0.031 C 
ATOM     24  C   UNL d   1       2.091   4.914   3.322  0.00  0.00     0.031 C 
ATOM     25  C   UNL d   1       2.670   2.529   3.001  0.00  0.00     0.031 C 
ENDBRANCH  19  22
ENDBRANCH  18  19
ENDBRANCH  16  18
BRANCH  16  26
ATOM     26  N   UNL d   1       0.665  -0.068   4.898  0.00  0.00    -0.387 N 
ATOM     27  H   UNL d   1       0.613   0.525   5.726  0.00  0.00     0.157 HD
ATOM     28  H   UNL d   1       1.329  -0.833   4.939  0.00  0.00     0.157 HD
ENDBRANCH  16  26
ENDBRANCH   1  15
TORSDOF 8
