REMARK  6 active torsions:
REMARK  status: ('A' for Active; 'I' for Inactive)
REMARK    1  A    between atoms: C_2  and  C_1 
REMARK    2  A    between atoms: O_14  and  C_8 
REMARK    3  A    between atoms: C_15  and  O_14 
REMARK    4  A    between atoms: C_16  and  C_15 
REMARK    5  A    between atoms: C_18  and  C_16 
REMARK    6  A    between atoms: C_17  and  C_18 
ROOT
ATOM      1  C   UNL d   1       1.376  -0.209   0.099  0.00  0.00    -0.026 A 
ATOM      2  C   UNL d   1       0.483  -1.297   0.088  0.00  0.00     0.015 A 
ATOM      3  C   UNL d   1       0.811   1.077   0.026  0.00  0.00     0.015 A 
ATOM      4  C   UNL d   1      -1.437   0.172  -0.036  0.00  0.00     0.068 A 
ATOM      5  C   UNL d   1      -0.903  -1.111   0.012  0.00  0.00     0.037 A 
ATOM      6  C   UNL d   1      -0.576   1.264  -0.042  0.00  0.00     0.037 A 
ENDROOT
BRANCH   1   7
ATOM      7  C   UNL d   1       2.843  -0.413   0.182  0.00  0.00    -0.026 A 
ATOM      8  C   UNL d   1       3.467  -1.531  -0.403  0.00  0.00     0.013 A 
ATOM      9  C   UNL d   1       4.851  -1.728  -0.316  0.00  0.00     0.020 A 
ATOM     10  C   UNL d   1       5.639  -0.798   0.350  0.00  0.00     0.011 A 
ATOM     11  C   UNL d   1       5.057   0.321   0.934  0.00  0.00     0.020 A 
ATOM     12 BR   UNL d   1       7.508  -1.055   0.463  0.00  0.00    -0.051 Br
ATOM     13  C   UNL d   1       3.674   0.505   0.856  0.00  0.00     0.013 A 
ENDBRANCH   1   7
BRANCH   4  14
ATOM     14  O   UNL d   1      -2.771   0.471  -0.124  0.00  0.00    -0.351 OA
BRANCH  14  15
ATOM     15  C   UNL d   1      -3.651  -0.489   0.455  0.00  0.00     0.175 C 
BRANCH  15  16
ATOM     16  C   UNL d   1      -5.082   0.020   0.322  0.00  0.00     0.027 C 
BRANCH  16  17
ATOM     17  C   UNL d   1      -6.067  -0.968   0.941  0.00  0.00     0.002 C 
BRANCH  17  18
ATOM     18  C   UNL d   1      -7.512  -0.501   0.790  0.00  0.00    -0.004 C 
ATOM     19  C   UNL d   1      -8.476  -1.498   1.412  0.00  0.00     0.005 C 
ENDBRANCH  17  18
ENDBRANCH  16  17
ENDBRANCH  15  16
ENDBRANCH  14  15
ENDBRANCH   4  14
TORSDOF 6
