REMARK  7 active torsions:
REMARK  status: ('A' for Active; 'I' for Inactive)
REMARK    1  A    between atoms: C_3  and  C_1 
REMARK    2  A    between atoms: C_10  and  C_2 
REMARK    3  A    between atoms: O_18  and  C_10 
REMARK    4  A    between atoms: C_15  and  C_12 
REMARK    5  A    between atoms: O_16  and  C_15 
REMARK    6  A    between atoms: C_17  and  O_16 
REMARK    7  A    between atoms: C_26  and  O_18 
ROOT
ATOM      1  C   UNL d   1      -2.512  -1.655  -0.071  0.00  0.00     0.076 A 
ATOM      2  N   UNL d   1      -2.664  -2.680   0.846  0.00  0.00    -0.349 N 
ATOM      3  HN  UNL d   1      -1.932  -3.019   1.471  1.00  0.00     0.166 HD
ATOM      4  C   UNL d   1      -3.634  -1.358  -0.815  0.00  0.00     0.084 A 
ATOM      5  C   UNL d   1      -3.892  -3.155   0.791  0.00  0.00     0.075 A 
ATOM      6  S   UNL d   1      -4.912  -2.414  -0.386  0.00  0.00    -0.084 SA
ENDROOT
BRANCH   1   7
ATOM      7  C   UNL d   1      -1.242  -0.890  -0.200  0.00  0.00     0.144 A 
ATOM      8  C   UNL d   1       0.027  -1.287   0.177  0.00  0.00     0.101 A 
ATOM      9  C   UNL d   1       0.819  -0.119   0.001  0.00  0.00     0.048 A 
ATOM     10  C   UNL d   1       2.261   0.106   0.261  0.00  0.00     0.071 C 
ATOM     11  N   UNL d   1       0.099   0.883  -0.520  0.00  0.00    -0.264 N 
ATOM     12  O   UNL d   1      -1.177   0.384  -0.681  0.00  0.00    -0.234 OA
ATOM     13  HN  UNL d   1       0.426   1.821  -0.750  1.00  0.00     0.194 HD
BRANCH   8  14
ATOM     14  C   UNL d   1       0.399  -2.612   0.605  0.00  0.00     0.298 C 
ATOM     15  O   UNL d   1      -0.089  -3.640   0.141  0.00  0.00    -0.259 OA
BRANCH  14  16
ATOM     16  O   UNL d   1       1.357  -2.590   1.575  0.00  0.00    -0.318 OA
BRANCH  16  17
ATOM     17  C   UNL d   1       1.531  -3.825   2.284  0.00  0.00     0.174 C 
ATOM     18  C   UNL d   1       0.639  -3.781   3.510  0.00  0.00     0.034 C 
ENDBRANCH  16  17
ENDBRANCH  14  16
ENDBRANCH   8  14
ENDBRANCH   1   7
BRANCH   5  19
ATOM     19  C   UNL d   1      -4.417  -4.285   1.628  0.00  0.00     0.240 C 
BRANCH  19  20
ATOM     20  O   UNL d   1      -5.107  -3.711   2.743  0.00  0.00    -0.345 OA
BRANCH  20  21
ATOM     21  C   UNL d   1      -5.631  -4.605   3.640  0.00  0.00     0.069 A 
ATOM     22  C   UNL d   1      -5.782  -4.125   4.943  0.00  0.00     0.038 A 
ATOM     23  C   UNL d   1      -6.322  -4.940   5.943  0.00  0.00     0.026 A 
ATOM     24  C   UNL d   1      -6.729  -6.234   5.630  0.00  0.00     0.034 A 
ATOM     25  C   UNL d   1      -6.605  -6.713   4.327  0.00  0.00     0.026 A 
ATOM     26 CL   UNL d   1      -7.396  -7.246   6.850  0.00  0.00    -0.084 Cl
ATOM     27  C   UNL d   1      -6.058  -5.897   3.332  0.00  0.00     0.038 A 
ENDBRANCH  20  21
ENDBRANCH  19  20
ENDBRANCH   5  19
TORSDOF 7
