REMARK  3 active torsions:
REMARK  status: ('A' for Active; 'I' for Inactive)
REMARK    1  A    between atoms: S_10  and  C_1 
REMARK    2  A    between atoms: C_5  and  C_14 
REMARK    3  A    between atoms: C_14  and  S_10 
ROOT
ATOM      1  C   UNL d   1      -4.839  -0.279  -0.112  0.00  0.00     0.123 C 
ENDROOT
BRANCH   1   2
ATOM      2  C   UNL d   1      -6.258  -0.802  -0.149  0.00  0.00    -0.011 A 
ATOM      3  C   UNL d   1      -7.364   0.065  -0.195  0.00  0.00     0.087 A 
ATOM      4  C   UNL d   1      -8.675  -0.435  -0.200  0.00  0.00     0.003 A 
ATOM      5  O   UNL d   1      -7.117   1.413  -0.204  0.00  0.00    -0.325 OA
ATOM      6  C   UNL d   1      -9.835   0.512  -0.232  0.00  0.00     0.212 C 
ATOM      7  C   UNL d   1      -8.884  -1.818  -0.205  0.00  0.00     0.054 A 
ATOM      8  O   UNL d   1      -9.434   1.810   0.188  0.00  0.00    -0.362 OA
ATOM      9  C   UNL d   1      -8.264   2.200  -0.519  0.00  0.00     0.345 C 
ATOM     10  C   UNL d   1      -7.794  -2.678  -0.181  0.00  0.00     0.117 A 
ATOM     11  C   UNL d   1      -6.492  -2.187  -0.153  0.00  0.00     0.053 A 
ATOM     12  F   UNL d   1      -8.000  -4.001  -0.181  0.00  0.00    -0.206 F 
ENDBRANCH   1   2
BRANCH   1  13
ATOM     13  S   UNL d   1      -4.151  -0.066  -1.780  0.00  0.00    -0.100 SA
BRANCH  13  14
ATOM     14  C   UNL d   1      -2.558   0.562  -1.401  0.00  0.00     0.113 A 
ATOM     15  N   UNL d   1      -2.151   0.739  -0.166  0.00  0.00    -0.344 N 
ATOM     16  C   UNL d   1      -0.859   1.244  -0.167  0.00  0.00     0.050 A 
ATOM     17  HN  UNL d   1      -2.702   0.536   0.668  1.00  0.00     0.167 HD
ATOM     18  C   UNL d   1      -0.096   1.564   0.975  0.00  0.00     0.031 A 
ATOM     19  C   UNL d   1      -0.292   1.440  -1.428  0.00  0.00     0.034 A 
ATOM     20  C   UNL d   1       1.203   2.064   0.829  0.00  0.00     0.002 A 
ATOM     21  C   UNL d   1       1.749   2.248  -0.437  0.00  0.00     0.002 A 
ATOM     22  C   UNL d   1       1.012   1.940  -1.586  0.00  0.00     0.021 A 
ATOM     23  S   UNL d   1      -1.436   0.976  -2.628  0.00  0.00    -0.063 SA
ENDBRANCH  13  14
ENDBRANCH   1  13
TORSDOF 3
