REMARK  3 active torsions:
REMARK  status: ('A' for Active; 'I' for Inactive)
REMARK    1  A    between atoms: C_9  and  N_1 
REMARK    2  A    between atoms: S_11  and  C_2 
REMARK    3  A    between atoms: C_7  and  C_10 
ROOT
ATOM      1  C   UNL d   1      -0.718   2.498   0.050  0.00  0.00     0.042 A 
ATOM      2  C   UNL d   1      -1.483   5.212   0.173  0.00  0.00     0.048 A 
ATOM      3  C   UNL d   1      -1.546   2.955   1.082  0.00  0.00     0.031 A 
ATOM      4  C   UNL d   1      -0.250   3.411  -0.907  0.00  0.00     0.031 A 
ATOM      5  C   UNL d   1      -1.929   4.300   1.137  0.00  0.00     0.018 A 
ATOM      6  C   UNL d   1      -0.638   4.754  -0.848  0.00  0.00     0.018 A 
ENDROOT
BRANCH   1   7
ATOM      7  N   UNL d   1      -0.310   1.137  -0.015  0.00  0.00    -0.286 N 
ATOM      8  C   UNL d   1      -0.926  -0.028   0.411  0.00  0.00     0.164 A 
ATOM      9  N   UNL d   1      -0.127  -1.057   0.227  0.00  0.00    -0.279 N 
ATOM     10  N   UNL d   1       1.018  -0.603  -0.372  0.00  0.00    -0.294 N 
ATOM     11  HN  UNL d   1      -0.325  -2.023   0.485  1.00  0.00     0.189 HD
ATOM     12  C   UNL d   1       0.889   0.693  -0.532  0.00  0.00     0.207 A 
ATOM     13  HN  UNL d   1       1.823  -1.168  -0.643  1.00  0.00     0.187 HD
BRANCH   8  14
ATOM     14  S   UNL d   1      -2.577  -0.207   0.913  0.00  0.00    -0.105 SA
ATOM     15  H   UNL d   1      -3.089   0.915   0.391  0.00  0.00     0.110 HD
ENDBRANCH   8  14
ENDBRANCH   1   7
BRANCH   2  16
ATOM     16  C   UNL d   1      -1.882   6.668   0.229  0.00  0.00     0.417 C 
ATOM     17  F   UNL d   1      -2.712   6.965   1.268  0.00  0.00    -0.166 F 
ATOM     18  F   UNL d   1      -0.808   7.495   0.360  0.00  0.00    -0.166 F 
ATOM     19  F   UNL d   1      -2.533   7.072  -0.896  0.00  0.00    -0.166 F 
ENDBRANCH   2  16
TORSDOF 3
