REMARK  3 active torsions:
REMARK  status: ('A' for Active; 'I' for Inactive)
REMARK    1  A    between atoms: C_5  and  C_1 
REMARK    2  A    between atoms: C_2  and  N_7 
REMARK       I    between atoms: N_10  and  C_5 
REMARK    3  A    between atoms: N_7  and  N_10 
ROOT
ATOM      1  C   UNL d   1      -0.073   2.522   0.114  0.00  0.00     0.270 C 
ATOM      2  N   UNL d   1      -1.315   3.144   0.078  0.00  0.00    -0.282 N 
ATOM      3  O   UNL d   1       0.956   3.195   0.208  0.00  0.00    -0.266 OA
ATOM      4  H   UNL d   1      -2.134   2.666  -0.279  0.00  0.00     0.184 HD
ENDROOT
BRANCH   2   5
ATOM      5  N   UNL d   1      -1.306   4.544  -0.156  0.00  0.00    -0.200 NA
ATOM      6  H   UNL d   1      -0.339   4.903  -0.077  0.00  0.00     0.153 HD
BRANCH   5   7
ATOM      7  C   UNL d   1      -2.175   5.311   0.684  0.00  0.00     0.073 A 
ATOM      8  C   UNL d   1      -1.764   6.607   1.071  0.00  0.00     0.073 A 
ATOM      9 CL   UNL d   1      -0.203   7.220   0.657  0.00  0.00    -0.081 Cl
ATOM     10  C   UNL d   1      -2.625   7.418   1.803  0.00  0.00     0.113 A 
ATOM     11  N   UNL d   1      -3.871   7.051   2.171  0.00  0.00    -0.372 N 
ATOM     12  C   UNL d   1      -4.273   5.826   1.764  0.00  0.00     0.113 A 
ATOM     13  HN  UNL d   1      -4.473   7.662   2.724  1.00  0.00     0.164 HD
ATOM     14  C   UNL d   1      -3.491   4.942   1.020  0.00  0.00     0.073 A 
ATOM     15 CL   UNL d   1      -4.241   3.470   0.510  0.00  0.00    -0.081 Cl
ENDBRANCH   5   7
ENDBRANCH   2   5
BRANCH   1  16
ATOM     16  C   UNL d   1      -0.044   1.072   0.007  0.00  0.00     0.088 A 
ATOM     17  C   UNL d   1       1.129   0.339  -0.068  0.00  0.00     0.090 A 
ATOM     18  O   UNL d   1       0.847  -0.983  -0.163  0.00  0.00    -0.242 OA
ATOM     19  C   UNL d   1       2.565   0.691  -0.074  0.00  0.00     0.080 C 
ATOM     20  N   UNL d   1      -0.514  -1.164  -0.150  0.00  0.00    -0.265 N 
ATOM     21  C   UNL d   1      -1.051   0.060  -0.046  0.00  0.00     0.047 A 
ATOM     22  HN  UNL d   1      -1.015  -2.051  -0.208  1.00  0.00     0.194 HD
ATOM     23  C   UNL d   1      -2.529   0.158   0.002  0.00  0.00     0.071 C 
ENDBRANCH   1  16
TORSDOF 3
