REMARK  4 active torsions:
REMARK  status: ('A' for Active; 'I' for Inactive)
REMARK    1  A    between atoms: C_7  and  C_1 
REMARK    2  A    between atoms: C_6  and  C_2 
REMARK    3  A    between atoms: N_4  and  C_7 
REMARK    4  A    between atoms: N_5  and  C_6 
ROOT
ATOM      1  C   UNL d   1      -0.314   1.287   0.170  0.00  0.00    -0.002 A 
ATOM      2  C   UNL d   1      -0.596  -1.153   0.292  0.00  0.00     0.009 A 
ATOM      3  C   UNL d   1       0.122   0.018   0.590  0.00  0.00     0.132 A 
ATOM      4  F   UNL d   1       1.277  -0.068   1.265  0.00  0.00    -0.205 F 
ATOM      5  C   UNL d   1      -1.577   1.386  -0.424  0.00  0.00     0.012 A 
ATOM      6  C   UNL d   1      -1.850  -1.016  -0.324  0.00  0.00     0.012 A 
ATOM      7  C   UNL d   1      -2.352   0.246  -0.645  0.00  0.00     0.001 A 
ENDROOT
BRANCH   1   8
ATOM      8  C   UNL d   1       0.662   2.448   0.130  0.00  0.00     0.159 C 
BRANCH   8   9
ATOM      9  N   UNL d   1       0.526   3.589   1.021  0.00  0.00    -0.404 N 
ATOM     10  C   UNL d   1      -0.725   4.340   1.029  0.00  0.00     0.143 C 
ATOM     11  C   UNL d   1      -1.681   3.945   2.165  0.00  0.00     0.187 C 
ATOM     12  O   UNL d   1      -1.027   3.980   3.439  0.00  0.00    -0.388 OA
ATOM     13  C   UNL d   1       0.098   3.090   3.444  0.00  0.00     0.187 C 
ATOM     14  C   UNL d   1       1.110   3.465   2.356  0.00  0.00     0.143 C 
ENDBRANCH   8   9
ENDBRANCH   1   8
BRANCH   2  15
ATOM     15  C   UNL d   1      -0.073  -2.536   0.632  0.00  0.00     0.314 C 
BRANCH  15  16
ATOM     16  N   UNL d   1       1.010  -3.054  -0.237  0.00  0.00     0.096 N 
ATOM     17  C   UNL d   1       1.219  -4.509  -0.001  0.00  0.00     0.299 C 
ATOM     18  C   UNL d   1       1.818  -4.832   1.383  0.00  0.00     0.198 C 
ATOM     19  O   UNL d   1       3.045  -4.129   1.616  0.00  0.00    -0.388 OA
ATOM     20  C   UNL d   1       2.887  -2.714   1.417  0.00  0.00     0.198 C 
ATOM     21  C   UNL d   1       2.328  -2.422   0.013  0.00  0.00     0.299 C 
ENDBRANCH  15  16
ENDBRANCH   2  15
TORSDOF 4
