REMARK  5 active torsions:
REMARK  status: ('A' for Active; 'I' for Inactive)
REMARK    1  A    between atoms: O_2  and  S_1 
REMARK    2  A    between atoms: C_3  and  S_1 
REMARK    3  A    between atoms: C_9  and  O_2 
REMARK    4  A    between atoms: O_8  and  C_10 
REMARK    5  A    between atoms: C_13  and  O_8 
ROOT
ATOM      1  C   UNL d   1       0.690  -1.808   1.938  0.00  0.00     0.089 A 
ATOM      2  C   UNL d   1       1.557  -4.163   3.176  0.00  0.00     0.076 A 
ATOM      3  C   UNL d   1       2.022  -2.208   1.828  0.00  0.00     0.041 A 
ATOM      4  C   UNL d   1      -0.185  -2.541   2.744  0.00  0.00     0.041 A 
ATOM      5  C   UNL d   1       0.246  -3.723   3.352  0.00  0.00     0.040 A 
ATOM      6  C   UNL d   1       2.462  -3.373   2.462  0.00  0.00     0.040 A 
ENDROOT
BRANCH   1   7
ATOM      7  O   UNL d   1       0.336  -0.690   1.220  0.00  0.00    -0.229 OA
BRANCH   7   8
ATOM      8  S   UNL d   1      -1.229  -0.380   0.862  0.00  0.00     0.303 S 
ATOM      9  O   UNL d   1      -1.831   0.304   1.992  0.00  0.00    -0.193 OA
ATOM     10  O   UNL d   1      -1.845  -1.572   0.309  0.00  0.00    -0.193 OA
BRANCH   8  11
ATOM     11  C   UNL d   1      -1.136   0.789  -0.477  0.00  0.00     0.086 A 
ATOM     12  C   UNL d   1      -0.959   0.314  -1.780  0.00  0.00     0.026 A 
ATOM     13  C   UNL d   1      -1.023   1.205  -2.852  0.00  0.00     0.008 A 
ATOM     14  C   UNL d   1      -1.267   2.567  -2.630  0.00  0.00    -0.062 A 
ATOM     15  C   UNL d   1      -1.429   3.034  -1.318  0.00  0.00     0.008 A 
ATOM     16  C   UNL d   1      -1.391   3.501  -3.798  0.00  0.00     0.048 C 
ATOM     17  C   UNL d   1      -1.367   2.147  -0.239  0.00  0.00     0.026 A 
ENDBRANCH   8  11
ENDBRANCH   7   8
ENDBRANCH   1   7
BRANCH   2  18
ATOM     18  O   UNL d   1       1.882  -5.356   3.780  0.00  0.00    -0.311 OA
BRANCH  18  19
ATOM     19  C   UNL d   1       2.751  -6.217   3.148  0.00  0.00     0.076 A 
ATOM     20  C   UNL d   1       3.535  -7.017   3.982  0.00  0.00     0.037 A 
ATOM     21  C   UNL d   1       4.469  -7.897   3.432  0.00  0.00     0.003 A 
ATOM     22  C   UNL d   1       4.617  -7.981   2.048  0.00  0.00     0.000 A 
ATOM     23  C   UNL d   1       3.803  -7.219   1.212  0.00  0.00     0.003 A 
ATOM     24  C   UNL d   1       2.851  -6.358   1.760  0.00  0.00     0.037 A 
ENDBRANCH  18  19
ENDBRANCH   2  18
TORSDOF 5
