REMARK  4 active torsions:
REMARK  status: ('A' for Active; 'I' for Inactive)
REMARK       I    between atoms: N_5  and  C_1 
REMARK    1  A    between atoms: O_6  and  C_1 
REMARK    2  A    between atoms: N_2  and  C_3 
REMARK    3  A    between atoms: C_10  and  N_5 
REMARK    4  A    between atoms: C_8  and  O_6 
ROOT
ATOM      1  C   UNL d   1      -3.247  -0.041  -0.967  0.00  0.00     0.033 A 
ATOM      2  C   UNL d   1      -1.851  -0.079  -1.064  0.00  0.00     0.066 A 
ATOM      3  C   UNL d   1      -1.095  -0.986  -0.307  0.00  0.00     0.083 A 
ATOM      4  C   UNL d   1      -3.846  -0.995  -0.124  0.00  0.00     0.029 A 
ATOM      5  C   UNL d   1      -3.096  -1.934   0.596  0.00  0.00     0.005 A 
ATOM      6  C   UNL d   1      -1.710  -1.932   0.505  0.00  0.00     0.037 A 
ENDROOT
BRANCH   3   7
ATOM      7  O   UNL d   1       0.311  -1.030  -0.387  0.00  0.00    -0.261 OA
BRANCH   7   8
ATOM      8  C   UNL d   1       0.996   0.177  -0.265  0.00  0.00     0.370 C 
ATOM      9  N   UNL d   1       2.329  -0.044  -0.510  0.00  0.00    -0.302 N 
ATOM     10  H   UNL d   1       2.568  -1.013  -0.673  0.00  0.00     0.171 HD
ATOM     11  O   UNL d   1       0.468   1.249   0.000  0.00  0.00    -0.238 OA
BRANCH   9  12
ATOM     12  C   UNL d   1       3.348   0.918  -0.639  0.00  0.00     0.036 A 
ATOM     13  C   UNL d   1       3.139   2.292  -0.489  0.00  0.00     0.029 A 
ATOM     14  C   UNL d   1       4.185   3.197  -0.688  0.00  0.00     0.002 A 
ATOM     15  C   UNL d   1       5.452   2.738  -1.034  0.00  0.00     0.000 A 
ATOM     16  C   UNL d   1       5.677   1.370  -1.168  0.00  0.00     0.002 A 
ATOM     17  C   UNL d   1       4.630   0.464  -0.969  0.00  0.00     0.029 A 
ENDBRANCH   9  12
ENDBRANCH   7   8
ENDBRANCH   3   7
BRANCH   1  18
ATOM     18  N   UNL d   1      -4.034   0.852  -1.680  0.00  0.00    -0.377 N 
ATOM     19  C   UNL d   1      -3.567   1.516  -2.910  0.00  0.00     0.149 C 
ATOM     20  C   UNL d   1      -3.242   2.995  -2.659  0.00  0.00     0.187 C 
ATOM     21  O   UNL d   1      -4.362   3.683  -2.076  0.00  0.00    -0.388 OA
ATOM     22  C   UNL d   1      -4.697   3.084  -0.813  0.00  0.00     0.187 C 
ATOM     23  C   UNL d   1      -5.088   1.603  -0.967  0.00  0.00     0.149 C 
ENDBRANCH   1  18
TORSDOF 4
