REMARK  4 active torsions:
REMARK  status: ('A' for Active; 'I' for Inactive)
REMARK    1  A    between atoms: C_3  and  C_1 
REMARK    2  A    between atoms: C_8  and  C_2 
REMARK       I    between atoms: N_15  and  C_8 
REMARK       I    between atoms: C_13  and  N_16 
REMARK       I    between atoms: N_17  and  C_13 
REMARK    3  A    between atoms: N_16  and  N_15 
REMARK    4  A    between atoms: C_20  and  N_17 
ROOT
ATOM      1  C   UNL d   1      -2.645  -1.481  -0.274  0.00  0.00     0.289 C 
ATOM      2  N   UNL d   1      -3.675  -0.732  -0.812  0.00  0.00    -0.261 N 
ATOM      3  O   UNL d   1      -2.818  -2.662   0.024  0.00  0.00    -0.264 OA
ATOM      4  H   UNL d   1      -3.569   0.246  -1.083  0.00  0.00     0.190 HD
ENDROOT
BRANCH   1   5
ATOM      5  C   UNL d   1      -1.382  -0.765  -0.078  0.00  0.00     0.139 A 
ATOM      6  C   UNL d   1      -0.280  -1.107   0.759  0.00  0.00     0.057 A 
ATOM      7  C   UNL d   1       0.681  -0.167   0.467  0.00  0.00     0.087 A 
ATOM      8  O   UNL d   1       0.174   0.721  -0.430  0.00  0.00    -0.241 OA
ATOM      9  C   UNL d   1       2.065   0.073   0.924  0.00  0.00     0.080 C 
ATOM     10  N   UNL d   1      -1.121   0.366  -0.757  0.00  0.00    -0.255 N 
ATOM     11  HN  UNL d   1      -1.752   0.862  -1.387  1.00  0.00     0.195 HD
BRANCH   6  12
ATOM     12  C   UNL d   1      -0.186  -2.198   1.728  0.00  0.00     0.054 A 
ATOM     13  N   UNL d   1       1.071  -2.692   2.038  0.00  0.00    -0.353 N 
ATOM     14  C   UNL d   1       0.965  -3.654   2.931  0.00  0.00     0.047 A 
ATOM     15  HN  UNL d   1       1.947  -2.360   1.635  1.00  0.00     0.166 HD
ATOM     16  C   UNL d   1       2.107  -4.426   3.489  0.00  0.00     0.076 C 
ATOM     17  S   UNL d   1      -0.630  -4.003   3.463  0.00  0.00    -0.087 SA
ATOM     18  C   UNL d   1      -1.221  -2.764   2.443  0.00  0.00     0.082 A 
ENDBRANCH   6  12
ENDBRANCH   1   5
BRANCH   2  19
ATOM     19  N   UNL d   1      -4.905  -1.366  -1.076  0.00  0.00    -0.248 N 
ATOM     20  C   UNL d   1      -5.982  -0.555  -1.397  0.00  0.00     0.339 C 
ATOM     21  N   UNL d   1      -7.125  -1.297  -1.623  0.00  0.00    -0.308 N 
ATOM     22  O   UNL d   1      -5.854   0.661  -1.485  0.00  0.00    -0.245 OA
ATOM     23  H   UNL d   1      -7.021  -2.300  -1.582  0.00  0.00     0.170 HD
ATOM     24  H   UNL d   1      -5.063  -2.219  -0.545  0.00  0.00     0.192 HD
BRANCH  21  25
ATOM     25  C   UNL d   1      -8.406  -0.809  -1.961  0.00  0.00     0.036 A 
ATOM     26  C   UNL d   1      -8.699   0.546  -2.122  0.00  0.00     0.029 A 
ATOM     27  C   UNL d   1     -10.002   0.967  -2.403  0.00  0.00     0.002 A 
ATOM     28  C   UNL d   1     -11.027   0.034  -2.532  0.00  0.00     0.000 A 
ATOM     29  C   UNL d   1     -10.743  -1.323  -2.404  0.00  0.00     0.002 A 
ATOM     30  C   UNL d   1      -9.438  -1.744  -2.126  0.00  0.00     0.029 A 
ENDBRANCH  21  25
ENDBRANCH   2  19
TORSDOF 4
