REMARK  8 active torsions:
REMARK  status: ('A' for Active; 'I' for Inactive)
REMARK    1  A    between atoms: N_2  and  C_1 
REMARK    2  A    between atoms: C_3  and  C_1 
REMARK    3  A    between atoms: N_5  and  C_1 
REMARK    4  A    between atoms: C_11  and  C_1 
REMARK       I    between atoms: C_4  and  N_2 
REMARK    5  A    between atoms: C_7  and  C_4 
REMARK    6  A    between atoms: C_6  and  N_5 
REMARK    7  A    between atoms: O_20  and  C_11 
REMARK    8  A    between atoms: C_25  and  O_20 
ROOT
ATOM      1  C   UNL d   1       1.084   0.083  -0.037  0.00  0.00     0.298 C 
ENDROOT
BRANCH   1   2
ATOM      2  N   UNL d   1       0.728   0.799   1.198  0.00  0.00    -0.314 N 
ATOM      3  C   UNL d   1       1.172   0.434   2.444  0.00  0.00     0.255 C 
ATOM      4  O   UNL d   1       2.061  -0.389   2.629  0.00  0.00    -0.268 OA
ATOM      5  H   UNL d   1      -0.179   1.254   1.149  0.00  0.00     0.166 HD
BRANCH   3   6
ATOM      6  C   UNL d   1       0.601   1.202   3.587  0.00  0.00     0.053 A 
ATOM      7  C   UNL d   1      -0.747   1.575   3.703  0.00  0.00     0.049 A 
ATOM      8 CL   UNL d   1      -1.978   1.035   2.627  0.00  0.00    -0.083 Cl
ATOM      9  C   UNL d   1      -1.162   2.406   4.754  0.00  0.00     0.025 A 
ATOM     10  C   UNL d   1      -0.246   2.849   5.704  0.00  0.00     0.002 A 
ATOM     11  C   UNL d   1       1.084   2.450   5.624  0.00  0.00     0.001 A 
ATOM     12  C   UNL d   1       1.504   1.626   4.577  0.00  0.00     0.019 A 
ENDBRANCH   3   6
ENDBRANCH   1   2
BRANCH   1  13
ATOM     13  C   UNL d   1       0.656   0.906  -1.316  0.00  0.00     0.442 C 
ATOM     14  F   UNL d   1      -0.272   1.849  -0.989  0.00  0.00    -0.166 F 
ATOM     15  F   UNL d   1       1.679   1.596  -1.886  0.00  0.00    -0.166 F 
ATOM     16  F   UNL d   1       0.120   0.144  -2.300  0.00  0.00    -0.166 F 
ENDBRANCH   1  13
BRANCH   1  17
ATOM     17  N   UNL d   1       0.488  -1.265   0.068  0.00  0.00    -0.333 N 
ATOM     18  H   UNL d   1       1.170  -2.017   0.146  0.00  0.00     0.164 HD
BRANCH  17  19
ATOM     19  C   UNL d   1      -0.831  -1.500  -0.051  0.00  0.00     0.126 A 
ATOM     20  N   UNL d   1      -1.790  -0.584  -0.193  0.00  0.00    -0.245 N 
ATOM     21  O   UNL d   1      -2.984  -1.276  -0.227  0.00  0.00    -0.241 OA
ATOM     22  HN  UNL d   1      -1.666   0.427  -0.263  1.00  0.00     0.196 HD
ATOM     23  C   UNL d   1      -2.733  -2.607  -0.131  0.00  0.00     0.076 A 
ATOM     24  C   UNL d   1      -1.378  -2.801  -0.029  0.00  0.00     0.084 A 
ATOM     25  C   UNL d   1      -3.908  -3.494  -0.144  0.00  0.00     0.079 C 
ENDBRANCH  17  19
ENDBRANCH   1  17
BRANCH   1  26
ATOM     26  C   UNL d   1       2.613  -0.045  -0.278  0.00  0.00     0.318 C 
ATOM     27  O   UNL d   1       3.112  -0.936  -0.960  0.00  0.00    -0.260 OA
BRANCH  26  28
ATOM     28  O   UNL d   1       3.309   1.001   0.256  0.00  0.00    -0.318 OA
BRANCH  28  29
ATOM     29  C   UNL d   1       4.711   1.042  -0.042  0.00  0.00     0.174 C 
ATOM     30  C   UNL d   1       5.486   0.105   0.865  0.00  0.00     0.034 C 
ENDBRANCH  28  29
ENDBRANCH  26  28
ENDBRANCH   1  26
TORSDOF 8
