REMARK  5 active torsions:
REMARK  status: ('A' for Active; 'I' for Inactive)
REMARK    1  A    between atoms: C_10  and  C_1 
REMARK    2  A    between atoms: C_4  and  C_9 
REMARK    3  A    between atoms: O_19  and  C_7 
REMARK    4  A    between atoms: C_21  and  C_11 
REMARK    5  A    between atoms: O_20  and  C_21 
ROOT
ATOM      1  C   UNL d   1       1.011  -1.123   0.019  0.00  0.00     0.117 A 
ATOM      2  N   UNL d   1      -0.334  -1.116  -0.018  0.00  0.00    -0.323 N 
ATOM      3  HN  UNL d   1      -0.884  -1.975  -0.041  1.00  0.00     0.169 HD
ATOM      4  N   UNL d   1       1.778  -0.012   0.030  0.00  0.00    -0.343 N 
ATOM      5  HN  UNL d   1       2.796  -0.072   0.040  1.00  0.00     0.167 HD
ATOM      6  C   UNL d   1      -0.897   0.094  -0.024  0.00  0.00     0.143 A 
ATOM      7  C   UNL d   1      -0.230   1.285   0.001  0.00  0.00     0.083 A 
ATOM      8  C   UNL d   1       1.144   1.186   0.029  0.00  0.00     0.038 A 
ENDROOT
BRANCH   1   9
ATOM      9  C   UNL d   1       1.692  -2.434   0.064  0.00  0.00     0.008 A 
ATOM     10  C   UNL d   1       0.964  -3.639   0.012  0.00  0.00     0.016 A 
ATOM     11  C   UNL d   1       1.598  -4.886   0.074  0.00  0.00     0.017 A 
ATOM     12  C   UNL d   1       2.990  -4.970   0.190  0.00  0.00     0.048 A 
ATOM     13  C   UNL d   1       3.732  -3.783   0.234  0.00  0.00     0.017 A 
ATOM     14  C   UNL d   1       3.091  -2.539   0.170  0.00  0.00     0.016 A 
BRANCH  12  15
ATOM     15  C   UNL d   1       3.687  -6.306   0.272  0.00  0.00     0.417 C 
ATOM     16  F   UNL d   1       2.836  -7.369   0.225  0.00  0.00    -0.166 F 
ATOM     17  F   UNL d   1       4.574  -6.494  -0.745  0.00  0.00    -0.166 F 
ATOM     18  F   UNL d   1       4.401  -6.451   1.422  0.00  0.00    -0.166 F 
ENDBRANCH  12  15
ENDBRANCH   1   9
BRANCH   6  19
ATOM     19  O   UNL d   1      -2.254   0.072  -0.064  0.00  0.00    -0.346 OA
ATOM     20  H   UNL d   1      -2.417  -0.888  -0.063  0.00  0.00     0.219 HD
ENDBRANCH   6  19
BRANCH   8  21
ATOM     21  C   UNL d   1       1.999   2.430   0.031  0.00  0.00     0.224 C 
BRANCH  21  22
ATOM     22  O   UNL d   1       1.663   3.256   1.147  0.00  0.00    -0.390 OA
ATOM     23  C   UNL d   1       2.481   4.417   1.196  0.00  0.00     0.201 C 
ENDBRANCH  21  22
ENDBRANCH   8  21
TORSDOF 5
