REMARK  4 active torsions:
REMARK  status: ('A' for Active; 'I' for Inactive)
REMARK    1  A    between atoms: N_2  and  S_1 
REMARK    2  A    between atoms: C_5  and  S_1 
REMARK       I    between atoms: C_3  and  N_2 
REMARK       I    between atoms: N_4  and  C_3 
REMARK    3  A    between atoms: C_14  and  N_6 
REMARK    4  A    between atoms: C_20  and  C_14 
ROOT
ATOM      1  N   UNL d   1       1.167   1.509  -1.659  0.00  0.00    -0.232 N 
ATOM      2  C   UNL d   1       0.490   2.299  -0.738  0.00  0.00     0.332 C 
ATOM      3  N   UNL d   1       1.214   2.694   0.378  0.00  0.00    -0.330 N 
ATOM      4  N   UNL d   1       2.550   3.439   2.918  0.00  0.00     0.095 N 
ATOM      5  O   UNL d   1      -0.663   2.651  -0.927  0.00  0.00    -0.246 OA
ATOM      6  C   UNL d   1       2.578   2.262   0.680  0.00  0.00     0.158 C 
ATOM      7  C   UNL d   1       0.710   3.830   1.157  0.00  0.00     0.158 C 
ATOM      8  C   UNL d   1       2.840   2.191   2.193  0.00  0.00     0.292 C 
ATOM      9  C   UNL d   1       1.160   3.849   2.634  0.00  0.00     0.292 C 
ATOM     10  H   UNL d   1       2.171   1.417  -1.647  0.00  0.00     0.183 HD
ENDROOT
BRANCH   1  11
ATOM     11  S   UNL d   1       0.496   0.780  -2.989  0.00  0.00     0.266 S 
ATOM     12  O   UNL d   1      -0.518  -0.149  -2.543  0.00  0.00    -0.200 OA
ATOM     13  O   UNL d   1       1.626   0.321  -3.775  0.00  0.00    -0.200 OA
BRANCH  11  14
ATOM     14  C   UNL d   1      -0.261   2.094  -3.902  0.00  0.00     0.080 A 
ATOM     15  C   UNL d   1       0.533   3.118  -4.424  0.00  0.00     0.026 A 
ATOM     16  C   UNL d   1      -0.063   4.138  -5.166  0.00  0.00     0.008 A 
ATOM     17  C   UNL d   1      -1.446   4.132  -5.400  0.00  0.00    -0.062 A 
ATOM     18  C   UNL d   1      -2.228   3.092  -4.879  0.00  0.00     0.008 A 
ATOM     19  C   UNL d   1      -2.076   5.231  -6.204  0.00  0.00     0.048 C 
ATOM     20  C   UNL d   1      -1.639   2.072  -4.132  0.00  0.00     0.026 A 
ENDBRANCH  11  14
ENDBRANCH   1  11
BRANCH   4  21
ATOM     21  C   UNL d   1       3.555   4.478   2.636  0.00  0.00     0.311 C 
BRANCH  21  22
ATOM     22  C   UNL d   1       3.550   5.660   3.588  0.00  0.00    -0.030 A 
ATOM     23  C   UNL d   1       3.040   5.575   4.893  0.00  0.00     0.009 A 
ATOM     24  C   UNL d   1       3.047   6.687   5.738  0.00  0.00     0.001 A 
ATOM     25  C   UNL d   1       3.598   7.890   5.304  0.00  0.00     0.000 A 
ATOM     26  C   UNL d   1       4.158   7.977   4.032  0.00  0.00     0.001 A 
ATOM     27  C   UNL d   1       4.139   6.869   3.182  0.00  0.00     0.009 A 
ENDBRANCH  21  22
ENDBRANCH   4  21
TORSDOF 4
