REMARK  6 active torsions:
REMARK  status: ('A' for Active; 'I' for Inactive)
REMARK    1  A    between atoms: C_2  and  S_1 
REMARK    2  A    between atoms: N_8  and  S_1 
REMARK    3  A    between atoms: C_3  and  C_10 
REMARK    4  A    between atoms: N_16  and  C_5 
REMARK    5  A    between atoms: N_15  and  C_6 
REMARK    6  A    between atoms: C_10  and  N_8 
ROOT
ATOM      1  N   UNL d   1       2.022   1.569  -1.234  0.00  0.00    -0.211 NA
ATOM      2  H   UNL d   1       1.762   1.442  -2.213  0.00  0.00     0.140 HD
ENDROOT
BRANCH   1   3
ATOM      3  S   UNL d   1       2.697   0.206  -0.511  0.00  0.00     0.243 S 
ATOM      4  O   UNL d   1       3.981  -0.043  -1.119  0.00  0.00    -0.206 OA
ATOM      5  O   UNL d   1       2.577   0.338   0.923  0.00  0.00    -0.206 OA
BRANCH   3   6
ATOM      6  C   UNL d   1       1.602  -1.093  -1.025  0.00  0.00     0.096 A 
ATOM      7  C   UNL d   1       1.575  -1.542  -2.345  0.00  0.00     0.058 A 
ATOM      8  C   UNL d   1       0.778  -2.641  -2.677  0.00  0.00     0.050 A 
ATOM      9 CL   UNL d   1       2.430  -0.791  -3.643  0.00  0.00    -0.083 Cl
ATOM     10  C   UNL d   1      -0.005  -3.277  -1.708  0.00  0.00     0.041 A 
ATOM     11  C   UNL d   1      -0.016  -2.813  -0.386  0.00  0.00    -0.039 A 
ATOM     12 CL   UNL d   1      -0.942  -4.634  -2.217  0.00  0.00    -0.084 Cl
ATOM     13  C   UNL d   1       0.811  -1.726  -0.052  0.00  0.00     0.035 A 
ATOM     14  C   UNL d   1      -0.832  -3.438   0.712  0.00  0.00     0.050 C 
ENDBRANCH   3   6
ENDBRANCH   1   3
BRANCH   1  15
ATOM     15  C   UNL d   1       0.984   2.275  -0.466  0.00  0.00     0.146 C 
BRANCH  15  16
ATOM     16  C   UNL d   1       0.536   3.562  -1.137  0.00  0.00    -0.002 A 
ATOM     17  C   UNL d   1      -0.483   3.548  -2.144  0.00  0.00     0.019 A 
ATOM     18  C   UNL d   1      -0.894   4.788  -2.671  0.00  0.00     0.024 A 
ATOM     19  C   UNL d   1      -0.307   5.987  -2.285  0.00  0.00     0.004 A 
ATOM     20  C   UNL d   1       0.715   5.985  -1.346  0.00  0.00     0.024 A 
ATOM     21  C   UNL d   1       1.154   4.796  -0.741  0.00  0.00     0.019 A 
BRANCH  17  22
ATOM     22  N   UNL d   1      -1.059   2.344  -2.626  0.00  0.00    -0.291 NA
ATOM     23  C   UNL d   1      -1.613   2.386  -3.989  0.00  0.00     0.116 C 
ATOM     24  C   UNL d   1      -1.948   1.664  -1.672  0.00  0.00     0.116 C 
ENDBRANCH  17  22
BRANCH  21  25
ATOM     25  N   UNL d   1       2.149   4.831   0.267  0.00  0.00    -0.291 NA
ATOM     26  C   UNL d   1       2.240   6.056   1.069  0.00  0.00     0.116 C 
ATOM     27  C   UNL d   1       3.470   4.361  -0.180  0.00  0.00     0.116 C 
ENDBRANCH  21  25
ENDBRANCH  15  16
ENDBRANCH   1  15
TORSDOF 6
