REMARK  2 active torsions:
REMARK  status: ('A' for Active; 'I' for Inactive)
REMARK    1  A    between atoms: N_6  and  C_1 
REMARK    2  A    between atoms: O_15  and  C_2 
REMARK       I    between atoms: C_3  and  N_6 
REMARK       I    between atoms: N_4  and  C_3 
ROOT
ATOM      1  C   UNL d   1      -2.225   3.749  -0.037  0.00  0.00     0.323 C 
ATOM      2  N   UNL d   1      -0.966   4.253  -0.278  0.00  0.00    -0.329 N 
ATOM      3  N   UNL d   1      -2.497   2.533  -0.617  0.00  0.00    -0.306 N 
ATOM      4  O   UNL d   1       1.774   4.346   0.448  0.00  0.00    -0.378 OA
ATOM      5  C   UNL d   1       0.046   3.749  -1.213  0.00  0.00     0.159 C 
ATOM      6  C   UNL d   1      -0.457   5.313   0.594  0.00  0.00     0.159 C 
ATOM      7  O   UNL d   1      -3.024   4.328   0.703  0.00  0.00    -0.247 OA
ATOM      8  C   UNL d   1       1.308   3.307  -0.441  0.00  0.00     0.136 C 
ATOM      9  C   UNL d   1       0.743   4.752   1.372  0.00  0.00     0.136 C 
ATOM     10  C   UNL d   1       1.321   5.785   2.325  0.00  0.00     0.041 C 
ATOM     11  C   UNL d   1       2.448   2.978  -1.395  0.00  0.00     0.041 C 
ATOM     12  H   UNL d   1      -1.719   1.891  -0.674  0.00  0.00     0.171 HD
ENDROOT
BRANCH   3  13
ATOM     13  C   UNL d   1      -3.750   1.932  -0.531  0.00  0.00     0.078 C 
ATOM     14  C   UNL d   1      -3.953   0.535  -0.296  0.00  0.00     0.124 C 
ATOM     15  C   UNL d   1      -5.275   0.184  -0.419  0.00  0.00     0.110 C 
ATOM     16 CL   UNL d   1      -5.966  -1.386  -0.300  0.00  0.00    -0.073 Cl
ATOM     17  S   UNL d   1      -6.292   1.518  -0.666  0.00  0.00    -0.085 SA
ATOM     18  C   UNL d   1      -4.956   2.595  -0.660  0.00  0.00     0.083 C 
BRANCH  14  19
ATOM     19  O   UNL d   1      -2.992  -0.370   0.022  0.00  0.00    -0.351 OA
ATOM     20  C   UNL d   1      -2.302  -0.018   1.226  0.00  0.00     0.210 C 
ENDBRANCH  14  19
ENDBRANCH   3  13
TORSDOF 2
