REMARK  4 active torsions:
REMARK  status: ('A' for Active; 'I' for Inactive)
REMARK    1  A    between atoms: C_4  and  S_1 
REMARK    2  A    between atoms: C_8  and  S_1 
REMARK    3  A    between atoms: N_2  and  C_5 
REMARK    4  A    between atoms: O_15  and  C_8 
ROOT
ATOM      1  C   UNL d   1       0.365  -1.565  -0.091  0.00  0.00     0.061 A 
ATOM      2  C   UNL d   1      -0.624  -4.211  -0.188  0.00  0.00     0.037 A 
ATOM      3  C   UNL d   1       1.253  -2.638  -0.113  0.00  0.00     0.026 A 
ATOM      4  C   UNL d   1      -1.008  -1.794  -0.106  0.00  0.00     0.026 A 
ATOM      5  C   UNL d   1      -1.492  -3.108  -0.165  0.00  0.00     0.031 A 
ATOM      6  C   UNL d   1       0.757  -3.947  -0.160  0.00  0.00     0.031 A 
ENDROOT
BRANCH   1   7
ATOM      7  S   UNL d   1       0.984   0.094   0.052  0.00  0.00     0.197 S 
ATOM      8  O   UNL d   1       2.329   0.013   0.595  0.00  0.00    -0.220 OA
ATOM      9  O   UNL d   1      -0.034   0.886   0.717  0.00  0.00    -0.220 OA
BRANCH   7  10
ATOM     10  C   UNL d   1       1.128   0.646  -1.653  0.00  0.00     0.309 C 
BRANCH  10  11
ATOM     11  O   UNL d   1       2.136  -0.006  -2.442  0.00  0.00    -0.386 OA
ATOM     12  H   UNL d   1       2.950   0.017  -1.902  0.00  0.00     0.210 HD
ENDBRANCH  10  11
ENDBRANCH   7  10
ENDBRANCH   1   7
BRANCH   2  13
ATOM     13  N   UNL d   1      -1.109  -5.550  -0.213  0.00  0.00    -0.318 N 
ATOM     14  C   UNL d   1      -2.457  -5.947  -0.251  0.00  0.00     0.224 C 
ATOM     15  O   UNL d   1      -3.465  -5.267  -0.362  0.00  0.00    -0.273 OA
ATOM     16  C   UNL d   1      -2.504  -7.446  -0.071  0.00  0.00     0.105 C 
ATOM     17  C   UNL d   1      -1.098  -7.885  -0.419  0.00  0.00     0.029 C 
ATOM     18  C   UNL d   1      -0.246  -6.695  -0.029  0.00  0.00     0.133 C 
ENDBRANCH   2  13
TORSDOF 4
