REMARK  3 active torsions:
REMARK  status: ('A' for Active; 'I' for Inactive)
REMARK    1  A    between atoms: C_8  and  C_3 
REMARK    2  A    between atoms: C_10  and  C_4 
REMARK    3  A    between atoms: C_6  and  C_9 
ROOT
ATOM      1  C   UNL d   1      -0.410  -5.415   0.063  0.00  0.00     0.048 A 
ATOM      2  C   UNL d   1      -0.015  -2.606  -0.048  0.00  0.00    -0.002 A 
ATOM      3  C   UNL d   1      -0.922  -4.663  -1.001  0.00  0.00     0.017 A 
ATOM      4  C   UNL d   1       0.290  -4.750   1.079  0.00  0.00     0.017 A 
ATOM      5  C   UNL d   1      -0.729  -3.277  -1.054  0.00  0.00     0.015 A 
ATOM      6  C   UNL d   1       0.480  -3.364   1.025  0.00  0.00     0.015 A 
ENDROOT
BRANCH   2   7
ATOM      7  C   UNL d   1       0.213  -1.148  -0.072  0.00  0.00     0.085 A 
ATOM      8  N   UNL d   1       0.413  -0.406   1.002  0.00  0.00    -0.347 N 
ATOM      9  C   UNL d   1       0.591   0.932   0.655  0.00  0.00     0.085 A 
ATOM     10  HN  UNL d   1       0.435  -0.764   1.957  1.00  0.00     0.167 HD
ATOM     11  C   UNL d   1       0.556   1.173  -0.706  0.00  0.00     0.085 A 
ATOM     12  S   UNL d   1       0.288  -0.280  -1.561  0.00  0.00    -0.081 SA
BRANCH   9  13
ATOM     13  C   UNL d   1       0.796   1.988   1.650  0.00  0.00     0.172 C 
ATOM     14  O   UNL d   1       0.950   3.165   1.312  0.00  0.00    -0.291 OA
ATOM     15  C   UNL d   1       0.821   1.621   3.111  0.00  0.00     0.098 C 
ENDBRANCH   9  13
ENDBRANCH   2   7
BRANCH   1  16
ATOM     16  C   UNL d   1      -0.604  -6.912   0.125  0.00  0.00     0.417 C 
ATOM     17  F   UNL d   1      -1.305  -7.414  -0.930  0.00  0.00    -0.166 F 
ATOM     18  F   UNL d   1       0.578  -7.589   0.141  0.00  0.00    -0.166 F 
ATOM     19  F   UNL d   1      -1.277  -7.305   1.241  0.00  0.00    -0.166 F 
ENDBRANCH   1  16
TORSDOF 3
