REMARK  4 active torsions:
REMARK  status: ('A' for Active; 'I' for Inactive)
REMARK    1  A    between atoms: S_22  and  C_3 
REMARK    2  A    between atoms: C_9  and  C_4 
REMARK       I    between atoms: C_10  and  N_6 
REMARK    3  A    between atoms: C_14  and  C_10 
REMARK    4  A    between atoms: O_26  and  N_19 
ROOT
ATOM      1  C   UNL d   1       0.113  -0.789   0.016  0.00  0.00     0.020 A 
ATOM      2  C   UNL d   1       0.446   0.642  -0.060  0.00  0.00    -0.024 A 
ATOM      3  C   UNL d   1       1.244  -1.588   0.023  0.00  0.00     0.054 A 
ATOM      4  C   UNL d   1       1.816   0.846  -0.140  0.00  0.00     0.041 A 
ATOM      5  S   UNL d   1       2.659  -0.645  -0.149  0.00  0.00    -0.080 SA
ATOM      6  C   UNL d   1      -1.288  -1.202   0.125  0.00  0.00     0.045 C 
ATOM      7  C   UNL d   1      -0.637   1.708  -0.021  0.00  0.00     0.050 C 
ATOM      8  C   UNL d   1      -2.048   1.163   0.362  0.00  0.00    -0.038 C 
ATOM      9  C   UNL d   1      -2.305  -0.181  -0.351  0.00  0.00     0.069 C 
ATOM     10  N   UNL d   1      -1.577  -2.348   0.658  0.00  0.00    -0.271 N 
ATOM     11  HN  UNL d   1      -0.880  -3.005   1.008  1.00  0.00     0.194 HD
ATOM     12  C   UNL d   1      -3.133   2.160  -0.083  0.00  0.00     0.015 C 
ATOM     13  C   UNL d   1      -2.172   0.988   1.893  0.00  0.00     0.015 C 
ENDROOT
BRANCH   4  14
ATOM     14  C   UNL d   1       2.582   2.158  -0.171  0.00  0.00     0.067 A 
ATOM     15  N   UNL d   1       2.023   3.380  -0.179  0.00  0.00    -0.290 N 
ATOM     16  N   UNL d   1       3.081   4.246  -0.044  0.00  0.00    -0.230 N 
ATOM     17  HN  UNL d   1       1.034   3.613  -0.267  1.00  0.00     0.187 HD
ATOM     18  C   UNL d   1       2.913   5.649   0.115  0.00  0.00     0.283 C 
ATOM     19  C   UNL d   1       4.285   3.579  -0.050  0.00  0.00     0.122 A 
ATOM     20  O   UNL d   1       3.895   6.247   0.564  0.00  0.00    -0.265 OA
ATOM     21  C   UNL d   1       3.999   2.243  -0.164  0.00  0.00     0.051 A 
BRANCH  18  22
ATOM     22  C   UNL d   1       1.696   6.336  -0.287  0.00  0.00     0.074 A 
ATOM     23  S   UNL d   1       1.201   7.741   0.562  0.00  0.00    -0.097 SA
ATOM     24  C   UNL d   1      -0.105   8.005  -0.508  0.00  0.00     0.050 A 
ATOM     25  C   UNL d   1      -0.160   7.054  -1.502  0.00  0.00     0.009 A 
ATOM     26  C   UNL d   1       0.870   6.079  -1.362  0.00  0.00     0.025 A 
ENDBRANCH  18  22
ENDBRANCH   4  14
BRANCH   3  27
ATOM     27  S   UNL d   1       1.473  -3.326   0.233  0.00  0.00    -0.126 SA
ATOM     28  C   UNL d   1       0.330  -4.082  -0.934  0.00  0.00     0.096 C 
ENDBRANCH   3  27
BRANCH  10  29
ATOM     29  O   UNL d   1      -2.958  -2.577   0.700  0.00  0.00    -0.285 OA
ATOM     30  C   UNL d   1      -3.192  -3.816   1.358  0.00  0.00     0.237 C 
ENDBRANCH  10  29
TORSDOF 4
