REMARK  8 active torsions:
REMARK  status: ('A' for Active; 'I' for Inactive)
REMARK    1  A    between atoms: C_7  and  C_2 
REMARK    2  A    between atoms: C_13  and  N_3 
REMARK    3  A    between atoms: O_18  and  C_7 
REMARK    4  A    between atoms: C_8  and  N_15 
REMARK    5  A    between atoms: N_12  and  C_8 
REMARK    6  A    between atoms: N_10  and  C_9 
REMARK    7  A    between atoms: N_15  and  N_10 
REMARK    8  A    between atoms: C_17  and  N_12 
ROOT
ATOM      1  C   UNL d   1       0.838  -0.801   0.370  0.00  0.00     0.091 C 
ATOM      2  C   UNL d   1      -0.499  -1.079   0.633  0.00  0.00     0.086 C 
ATOM      3  N   UNL d   1       0.893   0.557   0.087  0.00  0.00    -0.255 N 
ATOM      4  N   UNL d   1      -0.346   1.079  -0.099  0.00  0.00    -0.303 N 
ATOM      5  HN  UNL d   1      -0.591   1.989  -0.488  1.00  0.00     0.186 HD
ATOM      6  C   UNL d   1      -1.167   0.129   0.345  0.00  0.00     0.127 C 
ATOM      7  C   UNL d   1       1.972  -1.679   0.315  0.00  0.00     0.139 C 
ENDROOT
BRANCH   2   8
ATOM      8  C   UNL d   1      -1.151  -2.313   1.030  0.00  0.00     0.296 C 
ATOM      9  O   UNL d   1      -2.224  -2.319   1.613  0.00  0.00    -0.259 OA
BRANCH   8  10
ATOM     10  O   UNL d   1      -0.493  -3.428   0.607  0.00  0.00    -0.322 OA
ATOM     11  C   UNL d   1      -1.095  -4.677   0.955  0.00  0.00     0.213 C 
ENDBRANCH   8  10
ENDBRANCH   2   8
BRANCH   3  12
ATOM     12  C   UNL d   1       2.034   1.402   0.006  0.00  0.00     0.057 A 
ATOM     13  C   UNL d   1       1.978   2.562  -0.780  0.00  0.00     0.031 A 
ATOM     14  C   UNL d   1       3.096   3.393  -0.878  0.00  0.00     0.002 A 
ATOM     15  C   UNL d   1       4.256   3.092  -0.165  0.00  0.00     0.000 A 
ATOM     16  C   UNL d   1       4.300   1.965   0.653  0.00  0.00     0.002 A 
ATOM     17  C   UNL d   1       3.195   1.117   0.740  0.00  0.00     0.031 A 
ENDBRANCH   3  12
BRANCH   7  18
ATOM     18  N   UNL d   1       2.171  -2.581   1.220  0.00  0.00    -0.307 N 
ATOM     19  HN  UNL d   1       1.596  -2.653   2.060  1.00  0.00     0.186 HD
BRANCH  18  20
ATOM     20  N   UNL d   1       3.209  -3.430   0.963  0.00  0.00    -0.276 N 
ATOM     21  H   UNL d   1       3.509  -3.573   0.003  0.00  0.00     0.189 HD
BRANCH  20  22
ATOM     22  C   UNL d   1       3.814  -4.182   1.949  0.00  0.00     0.191 C 
ATOM     23  S   UNL d   1       3.865  -3.788   3.571  0.00  0.00    -0.039 SA
BRANCH  22  24
ATOM     24  N   UNL d   1       4.512  -5.280   1.501  0.00  0.00    -0.332 N 
ATOM     25  H   UNL d   1       5.230  -5.618   2.135  0.00  0.00     0.168 HD
BRANCH  24  26
ATOM     26  C   UNL d   1       4.138  -6.157   0.460  0.00  0.00     0.034 A 
ATOM     27  C   UNL d   1       5.109  -7.013  -0.068  0.00  0.00     0.031 A 
ATOM     28  C   UNL d   1       4.779  -7.895  -1.103  0.00  0.00     0.026 A 
ATOM     29  C   UNL d   1       3.469  -7.956  -1.572  0.00  0.00     0.034 A 
ATOM     30  C   UNL d   1       2.483  -7.149  -1.014  0.00  0.00     0.026 A 
ATOM     31 CL   UNL d   1       3.065  -9.037  -2.849  0.00  0.00    -0.084 Cl
ATOM     32  C   UNL d   1       2.820  -6.245  -0.003  0.00  0.00     0.031 A 
ENDBRANCH  24  26
ENDBRANCH  22  24
ENDBRANCH  20  22
ENDBRANCH  18  20
ENDBRANCH   7  18
TORSDOF 8
