REMARK  4 active torsions:
REMARK  status: ('A' for Active; 'I' for Inactive)
REMARK    1  A    between atoms: C_2  and  C_1 
REMARK       I    between atoms: N_4  and  C_2 
REMARK    2  A    between atoms: C_3  and  N_5 
REMARK    3  A    between atoms: N_12  and  C_3 
REMARK    4  A    between atoms: N_5  and  N_4 
ROOT
ATOM      1  C   UNL d   1       2.651   1.340   0.041  0.00  0.00     0.270 C 
ATOM      2  N   UNL d   1       3.972   0.942  -0.017  0.00  0.00    -0.264 N 
ATOM      3  O   UNL d   1       1.744   0.529   0.238  0.00  0.00    -0.266 OA
ATOM      4  H   UNL d   1       4.743   1.553  -0.267  0.00  0.00     0.190 HD
ENDROOT
BRANCH   2   5
ATOM      5  N   UNL d   1       4.266  -0.422   0.147  0.00  0.00    -0.274 N 
ATOM      6  H   UNL d   1       3.445  -1.003   0.318  0.00  0.00     0.189 HD
BRANCH   5   7
ATOM      7  C   UNL d   1       5.396  -0.987  -0.424  0.00  0.00     0.186 C 
ATOM      8  S   UNL d   1       6.580  -0.099  -1.208  0.00  0.00    -0.040 SA
BRANCH   7   9
ATOM      9  N   UNL d   1       5.416  -2.352  -0.220  0.00  0.00    -0.370 N 
ATOM     10  C   UNL d   1       6.456  -3.288  -0.607  0.00  0.00     0.148 C 
ATOM     11  H   UNL d   1       4.716  -2.720   0.409  0.00  0.00     0.161 HD
ENDBRANCH   7   9
ENDBRANCH   5   7
ENDBRANCH   2   5
BRANCH   1  12
ATOM     12  C   UNL d   1       2.405   2.772  -0.133  0.00  0.00     0.040 A 
ATOM     13  C   UNL d   1       1.118   3.288  -0.111  0.00  0.00     0.066 A 
ATOM     14  S   UNL d   1       1.063   4.984  -0.302  0.00  0.00    -0.113 SA
ATOM     15  C   UNL d   1       2.763   5.076  -0.423  0.00  0.00     0.050 A 
ATOM     16  C   UNL d   1       3.357   3.835  -0.322  0.00  0.00     0.024 A 
ENDBRANCH   1  12
TORSDOF 4
