REMARK  3 active torsions:
REMARK  status: ('A' for Active; 'I' for Inactive)
REMARK    1  A    between atoms: C_17  and  C_8 
REMARK    2  A    between atoms: C_15  and  C_10 
REMARK    3  A    between atoms: C_14  and  C_16 
ROOT
ATOM      1  C   UNL d   1      -0.144  -1.121   0.068  0.00  0.00     0.082 A 
ATOM      2  C   UNL d   1      -0.298  -2.544   0.084  0.00  0.00     0.191 A 
ATOM      3  N   UNL d   1      -1.465  -3.146  -0.008  0.00  0.00    -0.318 N 
ATOM      4  HN  UNL d   1      -2.388  -2.722  -0.096  1.00  0.00     0.169 HD
ATOM      5  S   UNL d   1       1.392  -0.361   0.080  0.00  0.00    -0.065 SA
ATOM      6  N   UNL d   1      -0.677   1.152   0.025  0.00  0.00    -0.352 N 
ATOM      7  HN  UNL d   1      -1.277   1.976   0.029  1.00  0.00     0.166 HD
ATOM      8  C   UNL d   1       0.641   1.186   0.008  0.00  0.00     0.085 A 
ATOM      9  C   UNL d   1      -1.137  -0.154   0.036  0.00  0.00     0.027 A 
ATOM     10  C   UNL d   1      -1.145  -4.482   0.045  0.00  0.00     0.138 A 
ATOM     11  N   UNL d   1       0.170  -4.720   0.167  0.00  0.00    -0.242 N 
ATOM     12  HN  UNL d   1       0.645  -5.620   0.228  1.00  0.00     0.196 HD
ATOM     13  O   UNL d   1       0.733  -3.443   0.189  0.00  0.00    -0.216 OA
ATOM     14  C   UNL d   1      -2.610  -0.369   0.005  0.00  0.00     0.070 C 
ENDROOT
BRANCH  10  15
ATOM     15  C   UNL d   1      -2.175  -5.513  -0.031  0.00  0.00     0.010 A 
ATOM     16  C   UNL d   1      -3.514  -5.147  -0.234  0.00  0.00     0.016 A 
ATOM     17  C   UNL d   1      -4.521  -6.114  -0.307  0.00  0.00     0.017 A 
ATOM     18  C   UNL d   1      -4.210  -7.473  -0.175  0.00  0.00     0.048 A 
ATOM     19  C   UNL d   1      -2.870  -7.843   0.028  0.00  0.00     0.017 A 
ATOM     20  C   UNL d   1      -1.863  -6.873   0.099  0.00  0.00     0.016 A 
BRANCH  18  21
ATOM     21  C   UNL d   1      -5.285  -8.530  -0.248  0.00  0.00     0.417 C 
ATOM     22  F   UNL d   1      -6.537  -8.021  -0.428  0.00  0.00    -0.166 F 
ATOM     23  F   UNL d   1      -5.088  -9.403  -1.274  0.00  0.00    -0.166 F 
ATOM     24  F   UNL d   1      -5.350  -9.287   0.881  0.00  0.00    -0.166 F 
ENDBRANCH  18  21
ENDBRANCH  10  15
BRANCH   8  25
ATOM     25  C   UNL d   1       1.420   2.436  -0.044  0.00  0.00    -0.002 A 
ATOM     26  C   UNL d   1       2.702   2.517  -0.608  0.00  0.00     0.014 A 
ATOM     27  C   UNL d   1       3.375   3.741  -0.683  0.00  0.00     0.001 A 
ATOM     28  C   UNL d   1       2.778   4.900  -0.194  0.00  0.00     0.000 A 
ATOM     29  C   UNL d   1       1.509   4.840   0.373  0.00  0.00     0.001 A 
ATOM     30  C   UNL d   1       0.835   3.618   0.444  0.00  0.00     0.014 A 
ENDBRANCH   8  25
TORSDOF 3
