REMARK  7 active torsions:
REMARK  status: ('A' for Active; 'I' for Inactive)
REMARK    1  A    between atoms: C_13  and  C_5 
REMARK    2  A    between atoms: N_7  and  C_9 
REMARK    3  A    between atoms: N_8  and  C_14 
REMARK       I    between atoms: N_23  and  C_13 
REMARK    4  A    between atoms: C_26  and  N_23 
REMARK    5  A    between atoms: C_24  and  C_26 
REMARK    6  A    between atoms: C_27  and  C_24 
REMARK    7  A    between atoms: O_25  and  C_27 
ROOT
ATOM      1  C   UNL d   1      -0.675   0.842   0.050  0.00  0.00     0.005 A 
ATOM      2  C   UNL d   1      -1.149  -0.491   0.007  0.00  0.00     0.029 A 
ATOM      3  C   UNL d   1       1.210  -0.555  -0.028  0.00  0.00     0.028 A 
ATOM      4  C   UNL d   1       0.791   0.791   0.045  0.00  0.00    -0.010 A 
ATOM      5  C   UNL d   1      -1.630   1.864   0.069  0.00  0.00     0.046 A 
ATOM      6  C   UNL d   1       0.009  -1.400  -0.037  0.00  0.00     0.194 A 
ATOM      7  C   UNL d   1      -3.413   0.168  -0.016  0.00  0.00     0.104 A 
ATOM      8  C   UNL d   1      -2.480  -0.866  -0.022  0.00  0.00     0.052 A 
ATOM      9  C   UNL d   1      -3.002   1.518   0.030  0.00  0.00     0.054 A 
ATOM     10  C   UNL d   1       2.531  -0.971  -0.092  0.00  0.00     0.052 A 
ATOM     11  C   UNL d   1       3.499   0.033  -0.086  0.00  0.00     0.103 A 
ATOM     12  C   UNL d   1       1.775   1.767   0.084  0.00  0.00     0.016 A 
ATOM     13  O   UNL d   1      -0.026  -2.611  -0.077  0.00  0.00    -0.287 OA
ATOM     14  C   UNL d   1       3.130   1.391   0.004  0.00  0.00     0.037 A 
ENDROOT
BRANCH   5  15
ATOM     15  C   UNL d   1      -1.275   3.306   0.028  0.00  0.00     0.252 C 
ATOM     16  O   UNL d   1      -0.359   3.690  -0.688  0.00  0.00    -0.268 OA
ATOM     17  N   UNL d   1      -2.038   4.160   0.800  0.00  0.00    -0.357 N 
ATOM     18  H   UNL d   1      -2.816   3.826   1.352  0.00  0.00     0.162 HD
BRANCH  17  19
ATOM     19  C   UNL d   1      -1.728   5.578   0.887  0.00  0.00     0.125 C 
BRANCH  19  20
ATOM     20  C   UNL d   1      -2.216   6.383  -0.316  0.00  0.00     0.046 C 
BRANCH  20  21
ATOM     21  C   UNL d   1      -3.733   6.420  -0.433  0.00  0.00     0.165 C 
BRANCH  21  22
ATOM     22  O   UNL d   1      -4.298   6.970   0.750  0.00  0.00    -0.401 OA
ATOM     23  H   UNL d   1      -5.258   7.038   0.604  0.00  0.00     0.209 HD
ENDBRANCH  21  22
ENDBRANCH  20  21
ENDBRANCH  19  20
ENDBRANCH  17  19
ENDBRANCH   5  15
BRANCH   7  24
ATOM     24  N   UNL d   1      -4.846  -0.151  -0.086  0.00  0.00    -0.116 N 
ATOM     25  O   UNL d   1      -5.169  -1.343  -0.144  0.00  0.00    -0.532 OA
ATOM     26  O   UNL d   1      -5.641   0.799  -0.080  0.00  0.00    -0.532 OA
ENDBRANCH   7  24
BRANCH  11  27
ATOM     27  N   UNL d   1       4.920  -0.326  -0.190  0.00  0.00    -0.116 N 
ATOM     28  O   UNL d   1       5.202  -1.528  -0.277  0.00  0.00    -0.532 OA
ATOM     29  O   UNL d   1       5.748   0.593  -0.186  0.00  0.00    -0.532 OA
ENDBRANCH  11  27
TORSDOF 7
