REMARK  3 active torsions:
REMARK  status: ('A' for Active; 'I' for Inactive)
REMARK       I    between atoms: C_2  and  N_1 
REMARK       I    between atoms: C_3  and  N_1 
REMARK    1  A    between atoms: C_5  and  C_2 
REMARK       I    between atoms: N_7  and  C_3 
REMARK    2  A    between atoms: C_4  and  C_6 
REMARK    3  A    between atoms: N_8  and  N_7 
ROOT
ATOM      1  N   UNL d   1       1.063  -0.128  -0.266  0.00  0.00    -0.274 N 
ATOM      2  C   UNL d   1       0.279   1.008  -0.175  0.00  0.00     0.260 C 
ATOM      3  C   UNL d   1       2.427  -0.206  -0.489  0.00  0.00     0.337 C 
ATOM      4  N   UNL d   1       3.034   1.002  -0.764  0.00  0.00    -0.271 N 
ATOM      5  O   UNL d   1       0.717   2.155  -0.203  0.00  0.00    -0.267 OA
ATOM      6  O   UNL d   1       2.975  -1.305  -0.448  0.00  0.00    -0.246 OA
ATOM      7  H   UNL d   1       0.655  -1.043  -0.153  0.00  0.00     0.173 HD
ATOM      8  H   UNL d   1       2.468   1.845  -0.680  0.00  0.00     0.185 HD
ENDROOT
BRANCH   2   9
ATOM      9  C   UNL d   1      -1.177   0.793   0.032  0.00  0.00     0.047 A 
ATOM     10  C   UNL d   1      -2.150   1.589  -0.602  0.00  0.00     0.063 A 
ATOM     11  C   UNL d   1      -3.504   1.405  -0.243  0.00  0.00     0.017 A 
ATOM     12  C   UNL d   1      -3.885   0.436   0.684  0.00  0.00     0.001 A 
ATOM     13  C   UNL d   1      -2.920  -0.367   1.278  0.00  0.00     0.001 A 
ATOM     14  C   UNL d   1      -1.573  -0.183   0.967  0.00  0.00     0.018 A 
BRANCH  10  15
ATOM     15  C   UNL d   1      -1.870   2.627  -1.666  0.00  0.00     0.418 C 
ATOM     16  F   UNL d   1      -0.625   2.632  -2.202  0.00  0.00    -0.166 F 
ATOM     17  F   UNL d   1      -2.699   2.450  -2.741  0.00  0.00    -0.166 F 
ATOM     18  F   UNL d   1      -2.120   3.894  -1.232  0.00  0.00    -0.166 F 
ENDBRANCH  10  15
ENDBRANCH   2   9
BRANCH   4  19
ATOM     19  N   UNL d   1       4.419   1.105  -0.997  0.00  0.00    -0.227 NA
ATOM     20  C   UNL d   1       4.660   1.520  -2.388  0.00  0.00     0.113 C 
ATOM     21  C   UNL d   1       6.151   1.692  -2.685  0.00  0.00     0.016 C 
ATOM     22  C   UNL d   1       6.806   2.652  -1.700  0.00  0.00     0.002 C 
ATOM     23  C   UNL d   1       6.514   2.221  -0.268  0.00  0.00     0.016 C 
ATOM     24  C   UNL d   1       5.014   2.050  -0.039  0.00  0.00     0.113 C 
ENDBRANCH   4  19
TORSDOF 3
