REMARK  4 active torsions:
REMARK  status: ('A' for Active; 'I' for Inactive)
REMARK    1  A    between atoms: C_2  and  C_1 
REMARK       I    between atoms: N_3  and  C_2 
REMARK       I    between atoms: C_5  and  N_3 
REMARK    2  A    between atoms: C_4  and  N_8 
REMARK       I    between atoms: N_8  and  C_5 
REMARK    3  A    between atoms: O_23  and  C_6 
REMARK    4  A    between atoms: O_24  and  C_7 
ROOT
ATOM      1  C   UNL d   1       0.857  -3.389   1.610  0.00  0.00     0.244 C 
ATOM      2  N   UNL d   1      -0.186  -4.008   0.936  0.00  0.00    -0.175 NA
ATOM      3  C   UNL d   1      -1.494  -3.752   1.302  0.00  0.00     0.305 C 
ATOM      4  N   UNL d   1      -1.955  -2.525   0.934  0.00  0.00    -0.311 N 
ATOM      5  O   UNL d   1       1.322  -3.838   2.653  0.00  0.00    -0.273 OA
ATOM      6  O   UNL d   1      -2.159  -4.646   1.819  0.00  0.00    -0.253 OA
ATOM      7  H   UNL d   1      -0.116  -4.981   1.226  0.00  0.00     0.141 HD
ATOM      8  H   UNL d   1      -1.466  -2.131   0.137  0.00  0.00     0.170 HD
ENDROOT
BRANCH   1   9
ATOM      9  C   UNL d   1       1.600  -2.330   0.876  0.00  0.00     0.096 C 
ATOM     10  C   UNL d   1       1.056  -1.051   0.707  0.00  0.00     0.108 C 
ATOM     11  C   UNL d   1       1.708  -0.111  -0.103  0.00  0.00     0.069 C 
ATOM     12 CL   UNL d   1       0.985   1.410  -0.489  0.00  0.00    -0.081 Cl
ATOM     13  C   UNL d   1       2.949  -0.402  -0.659  0.00  0.00     0.048 C 
ATOM     14  C   UNL d   1       3.551  -1.632  -0.402  0.00  0.00     0.047 C 
ATOM     15  C   UNL d   1       2.895  -2.592   0.387  0.00  0.00     0.103 C 
ATOM     16 BR   UNL d   1       5.248  -1.948  -1.194  0.00  0.00    -0.048 Br
BRANCH  10  17
ATOM     17  O   UNL d   1      -0.138  -0.752   1.290  0.00  0.00    -0.353 OA
ATOM     18  C   UNL d   1      -0.032   0.173   2.373  0.00  0.00     0.210 C 
ENDBRANCH  10  17
BRANCH  15  19
ATOM     19  O   UNL d   1       3.488  -3.803   0.645  0.00  0.00    -0.353 OA
ATOM     20  C   UNL d   1       4.464  -3.683   1.692  0.00  0.00     0.210 C 
ENDBRANCH  15  19
ENDBRANCH   1   9
BRANCH   4  21
ATOM     21  C   UNL d   1      -3.076  -1.766   1.367  0.00  0.00     0.070 A 
ATOM     22  C   UNL d   1      -3.709  -1.851   2.621  0.00  0.00     0.040 A 
ATOM     23  C   UNL d   1      -4.755  -0.966   2.952  0.00  0.00     0.040 A 
ATOM     24 BR   UNL d   1      -3.123  -2.928   4.077  0.00  0.00    -0.049 Br
ATOM     25  C   UNL d   1      -5.148   0.029   2.067  0.00  0.00     0.013 A 
ATOM     26  C   UNL d   1      -4.526   0.158   0.836  0.00  0.00     0.040 A 
ATOM     27 BR   UNL d   1      -6.499   1.255   2.562  0.00  0.00    -0.051 Br
ATOM     28  C   UNL d   1      -3.500  -0.734   0.494  0.00  0.00     0.040 A 
ATOM     29 BR   UNL d   1      -2.683  -0.473  -1.213  0.00  0.00    -0.049 Br
ENDBRANCH   4  21
TORSDOF 4
