REMARK  6 active torsions:
REMARK  status: ('A' for Active; 'I' for Inactive)
REMARK    1  A    between atoms: O_5  and  C_1 
REMARK    2  A    between atoms: N_11  and  C_2 
REMARK    3  A    between atoms: C_10  and  O_5 
REMARK    4  A    between atoms: C_16  and  N_11 
REMARK    5  A    between atoms: C_18  and  C_16 
REMARK    6  A    between atoms: O_26  and  C_19 
ROOT
ATOM      1  C   UNL d   1      -0.782   1.092   0.092  0.00  0.00     0.142 A 
ATOM      2  C   UNL d   1      -1.423  -0.133  -0.090  0.00  0.00     0.139 A 
ATOM      3  N   UNL d   1      -0.721  -1.266  -0.284  0.00  0.00    -0.330 N 
ATOM      4  HN  UNL d   1      -1.193  -2.152  -0.463  1.00  0.00     0.168 HD
ATOM      5  N   UNL d   1       1.320  -0.062  -0.099  0.00  0.00    -0.347 N 
ATOM      6  HN  UNL d   1       2.340  -0.058  -0.111  1.00  0.00     0.167 HD
ATOM      7  C   UNL d   1       0.607   1.076   0.057  0.00  0.00     0.044 A 
ATOM      8  C   UNL d   1       0.620  -1.195  -0.235  0.00  0.00     0.079 A 
ATOM      9  C   UNL d   1       1.399   2.346   0.182  0.00  0.00     0.071 C 
ATOM     10  C   UNL d   1       1.379  -2.485  -0.248  0.00  0.00     0.089 C 
ENDROOT
BRANCH   2  11
ATOM     11  N   UNL d   1      -2.815  -0.212  -0.108  0.00  0.00    -0.370 N 
ATOM     12  H   UNL d   1      -3.245   0.136   0.739  0.00  0.00     0.161 HD
BRANCH  11  13
ATOM     13  C   UNL d   1      -3.441  -1.365  -0.731  0.00  0.00     0.160 C 
BRANCH  13  14
ATOM     14  C   UNL d   1      -3.689  -2.567   0.152  0.00  0.00    -0.040 A 
ATOM     15  C   UNL d   1      -3.834  -2.499   1.543  0.00  0.00     0.011 A 
ATOM     16  C   UNL d   1      -4.174  -3.639   2.288  0.00  0.00     0.037 A 
ATOM     17  C   UNL d   1      -4.386  -4.862   1.651  0.00  0.00     0.068 A 
ATOM     18  C   UNL d   1      -4.242  -4.939   0.267  0.00  0.00     0.037 A 
ATOM     19  C   UNL d   1      -3.896  -3.808  -0.474  0.00  0.00     0.011 A 
BRANCH  17  20
ATOM     20  O   UNL d   1      -4.756  -6.034   2.250  0.00  0.00    -0.356 OA
ATOM     21  C   UNL d   1      -4.743  -6.062   3.671  0.00  0.00     0.210 C 
ENDBRANCH  17  20
ENDBRANCH  13  14
ENDBRANCH  11  13
ENDBRANCH   2  11
BRANCH   1  22
ATOM     22  O   UNL d   1      -1.378   2.271   0.450  0.00  0.00    -0.303 OA
BRANCH  22  23
ATOM     23  C   UNL d   1      -2.403   2.849  -0.263  0.00  0.00     0.098 A 
ATOM     24  C   UNL d   1      -3.043   3.933   0.365  0.00  0.00     0.069 A 
ATOM     25  C   UNL d   1      -4.110   4.593  -0.247  0.00  0.00     0.050 A 
ATOM     26 CL   UNL d   1      -2.533   4.497   1.921  0.00  0.00    -0.081 Cl
ATOM     27  C   UNL d   1      -4.540   4.173  -1.499  0.00  0.00     0.035 A 
ATOM     28  C   UNL d   1      -3.897   3.124  -2.152  0.00  0.00     0.026 A 
ATOM     29 CL   UNL d   1      -5.876   4.957  -2.248  0.00  0.00    -0.084 Cl
ATOM     30  C   UNL d   1      -2.811   2.480  -1.547  0.00  0.00     0.041 A 
ENDBRANCH  22  23
ENDBRANCH   1  22
TORSDOF 6
