REMARK  3 active torsions:
REMARK  status: ('A' for Active; 'I' for Inactive)
REMARK    1  A    between atoms: C_6  and  C_1 
REMARK    2  A    between atoms: N_12  and  C_2 
REMARK    3  A    between atoms: C_5  and  C_7 
REMARK       I    between atoms: C_7  and  N_8 
REMARK       I    between atoms: N_8  and  C_9 
REMARK       I    between atoms: C_9  and  N_12 
ROOT
ATOM      1  C   UNL d   1       2.517  -0.775  -0.392  0.00  0.00     0.234 C 
ATOM      2  N   UNL d   1       2.614  -2.117   0.002  0.00  0.00    -0.278 N 
ATOM      3  C   UNL d   1       3.738  -2.930  -0.127  0.00  0.00     0.327 C 
ATOM      4  N   UNL d   1       3.566  -4.283   0.128  0.00  0.00    -0.304 N 
ATOM      5  O   UNL d   1       4.832  -2.557  -0.516  0.00  0.00    -0.247 OA
ATOM      6  O   UNL d   1       3.470  -0.111  -0.800  0.00  0.00    -0.272 OA
ATOM      7  H   UNL d   1       1.755  -2.590   0.214  0.00  0.00     0.173 HD
ATOM      8  H   UNL d   1       4.324  -4.845  -0.250  0.00  0.00     0.171 HD
ENDROOT
BRANCH   4   9
ATOM      9  C   UNL d   1       2.494  -4.951   0.715  0.00  0.00     0.097 C 
ATOM     10  C   UNL d   1       1.975  -6.293   0.516  0.00  0.00     0.097 C 
ATOM     11  N   UNL d   1       0.830  -6.410   1.214  0.00  0.00    -0.258 N 
ATOM     12  O   UNL d   1       0.718  -5.312   2.009  0.00  0.00    -0.240 OA
ATOM     13  HN  UNL d   1       0.166  -7.183   1.158  1.00  0.00     0.195 HD
ATOM     14  C   UNL d   1       1.796  -4.524   1.832  0.00  0.00     0.101 C 
ATOM     15  C   UNL d   1       2.040  -3.604   2.963  0.00  0.00     0.081 C 
BRANCH  10  16
ATOM     16  C   UNL d   1       2.434  -7.517  -0.190  0.00  0.00     0.038 A 
ATOM     17  C   UNL d   1       3.746  -8.019  -0.044  0.00  0.00     0.048 A 
ATOM     18 CL   UNL d   1       5.022  -7.130   0.715  0.00  0.00    -0.083 Cl
ATOM     19  C   UNL d   1       4.083  -9.327  -0.453  0.00  0.00     0.025 A 
ATOM     20  C   UNL d   1       3.124 -10.178  -0.996  0.00  0.00     0.003 A 
ATOM     21  C   UNL d   1       1.834  -9.704  -1.176  0.00  0.00     0.025 A 
ATOM     22  C   UNL d   1       1.496  -8.392  -0.803  0.00  0.00     0.048 A 
ATOM     23 CL   UNL d   1      -0.149  -7.944  -1.154  0.00  0.00    -0.083 Cl
ENDBRANCH  10  16
ENDBRANCH   4   9
BRANCH   1  24
ATOM     24  C   UNL d   1       1.104  -0.126  -0.247  0.00  0.00     0.042 C 
ATOM     25  C   UNL d   1       0.657  -0.157   1.233  0.00  0.00     0.024 C 
ATOM     26  C   UNL d   1      -0.742   0.458   1.408  0.00  0.00    -0.013 C 
ATOM     27  C   UNL d   1      -0.706   1.929   0.972  0.00  0.00     0.009 C 
ATOM     28  C   UNL d   1      -1.752  -0.307   0.536  0.00  0.00     0.009 C 
ATOM     29  C   UNL d   1      -0.284   2.019  -0.504  0.00  0.00    -0.013 C 
ATOM     30  C   UNL d   1       1.108   1.373  -0.690  0.00  0.00     0.024 C 
ATOM     31  C   UNL d   1      -1.315   1.268  -1.358  0.00  0.00     0.009 C 
ATOM     32  C   UNL d   1      -1.346  -0.215  -0.945  0.00  0.00    -0.013 C 
ATOM     33  C   UNL d   1       0.052  -0.843  -1.128  0.00  0.00     0.024 C 
ENDBRANCH   1  24
TORSDOF 3
