REMARK  4 active torsions:
REMARK  status: ('A' for Active; 'I' for Inactive)
REMARK    1  A    between atoms: C_4  and  C_1 
REMARK    2  A    between atoms: N_10  and  C_2 
REMARK    3  A    between atoms: O_15  and  C_4 
REMARK    4  A    between atoms: C_11  and  N_10 
ROOT
ATOM      1  C   UNL d   1       3.871  -3.427  -0.365  0.00  0.00     0.139 C 
ATOM      2  C   UNL d   1       5.061  -3.009   0.289  0.00  0.00     0.112 C 
ATOM      3  C   UNL d   1       3.823  -4.731  -0.934  0.00  0.00     0.112 C 
ATOM      4  N   UNL d   1       6.023  -2.673   0.840  0.00  0.00    -0.191 NA
ATOM      5  N   UNL d   1       3.763  -5.784  -1.421  0.00  0.00    -0.191 NA
ATOM      6  C   UNL d   1       2.786  -2.635  -0.444  0.00  0.00     0.122 C 
ENDROOT
BRANCH   6   7
ATOM      7  N   UNL d   1       2.599  -1.320  -0.047  0.00  0.00    -0.362 N 
ATOM      8  H   UNL d   1       3.467  -0.796   0.116  0.00  0.00     0.165 HD
BRANCH   7   9
ATOM      9  C   UNL d   1       1.433  -0.610  -0.079  0.00  0.00     0.055 A 
ATOM     10  C   UNL d   1       1.372   0.822  -0.232  0.00  0.00     0.073 A 
ATOM     11  C   UNL d   1       0.057   1.259  -0.182  0.00  0.00     0.069 A 
ATOM     12  S   UNL d   1      -1.068  -0.008   0.019  0.00  0.00    -0.110 SA
ATOM     13  C   UNL d   1       0.179  -1.173   0.051  0.00  0.00     0.080 A 
BRANCH  10  14
ATOM     14  C   UNL d   1       2.506   1.722  -0.444  0.00  0.00     0.295 C 
ATOM     15  O   UNL d   1       3.669   1.334  -0.470  0.00  0.00    -0.259 OA
BRANCH  14  16
ATOM     16  O   UNL d   1       2.118   3.021  -0.613  0.00  0.00    -0.322 OA
ATOM     17  C   UNL d   1       3.170   3.958  -0.845  0.00  0.00     0.213 C 
ENDBRANCH  14  16
ENDBRANCH  10  14
ENDBRANCH   7   9
ENDBRANCH   6   7
TORSDOF 4
