REMARK  7 active torsions:
REMARK  status: ('A' for Active; 'I' for Inactive)
REMARK    1  A    between atoms: C_12  and  C_1 
REMARK    2  A    between atoms: C_11  and  C_2 
REMARK    3  A    between atoms: C_6  and  C_8 
REMARK    4  A    between atoms: N_13  and  N_9 
REMARK    5  A    between atoms: O_19  and  C_12 
REMARK    6  A    between atoms: C_14  and  N_13 
REMARK    7  A    between atoms: C_23  and  O_19 
ROOT
ATOM      1  N   UNL d   1      -0.841   3.309  -0.330  0.00  0.00    -0.302 N 
ATOM      2  HN  UNL d   1      -1.412   4.146  -0.444  1.00  0.00     0.186 HD
ATOM      3  C   UNL d   1      -1.399   2.140  -0.193  0.00  0.00     0.058 C 
ATOM      4  C   UNL d   1      -0.669   0.822  -0.056  0.00  0.00     0.072 C 
ENDROOT
BRANCH   1   5
ATOM      5  N   UNL d   1       0.520   3.395  -0.317  0.00  0.00    -0.300 N 
ATOM      6  H   UNL d   1       1.026   2.808   0.350  0.00  0.00     0.187 HD
BRANCH   5   7
ATOM      7  C   UNL d   1       1.082   4.692  -0.455  0.00  0.00     0.063 A 
ATOM      8  C   UNL d   1       2.381   4.994   0.002  0.00  0.00     0.075 A 
ATOM      9  C   UNL d   1       2.904   6.292  -0.193  0.00  0.00     0.018 A 
ATOM     10  C   UNL d   1       2.170   7.272  -0.856  0.00  0.00     0.001 A 
ATOM     11  C   UNL d   1       0.906   6.968  -1.342  0.00  0.00     0.002 A 
ATOM     12  C   UNL d   1       0.374   5.692  -1.149  0.00  0.00     0.032 A 
BRANCH   8  13
ATOM     13  C   UNL d   1       3.252   3.998   0.721  0.00  0.00     0.419 C 
ATOM     14  F   UNL d   1       2.684   2.766   0.881  0.00  0.00    -0.166 F 
ATOM     15  F   UNL d   1       4.436   3.777   0.082  0.00  0.00    -0.166 F 
ATOM     16  F   UNL d   1       3.583   4.407   1.979  0.00  0.00    -0.166 F 
ENDBRANCH   8  13
ENDBRANCH   5   7
ENDBRANCH   1   5
BRANCH   3  17
ATOM     17  C   UNL d   1      -2.842   2.083  -0.178  0.00  0.00     0.124 A 
ATOM     18  C   UNL d   1      -3.822   3.047  -0.240  0.00  0.00     0.079 A 
ATOM     19  C   UNL d   1      -5.045   2.333  -0.138  0.00  0.00     0.132 A 
ATOM     20  N   UNL d   1      -4.809   1.013  -0.048  0.00  0.00    -0.255 N 
ATOM     21  O   UNL d   1      -3.441   0.865  -0.070  0.00  0.00    -0.235 OA
ATOM     22  HN  UNL d   1      -5.505   0.270   0.023  1.00  0.00     0.195 HD
BRANCH  19  23
ATOM     23  C   UNL d   1      -6.394   2.892  -0.061  0.00  0.00     0.311 C 
ATOM     24  O   UNL d   1      -6.616   4.096  -0.063  0.00  0.00    -0.258 OA
BRANCH  23  25
ATOM     25  O   UNL d   1      -7.350   1.930   0.104  0.00  0.00    -0.317 OA
BRANCH  25  26
ATOM     26  C   UNL d   1      -8.604   2.375   0.633  0.00  0.00     0.175 C 
ATOM     27  C   UNL d   1      -8.507   2.370   2.148  0.00  0.00     0.034 C 
ENDBRANCH  25  26
ENDBRANCH  23  25
ENDBRANCH  19  23
ENDBRANCH   3  17
TORSDOF 7
