REMARK  1 active torsions:
REMARK  status: ('A' for Active; 'I' for Inactive)
REMARK    1  A    between atoms: O_11  and  N_7 
ROOT
ATOM      1  C   UNL d   1      -0.007  -1.153   0.333  0.00  0.00     0.004 C 
ATOM      2  C   UNL d   1      -0.048  -0.004   1.380  0.00  0.00    -0.031 C 
ATOM      3  C   UNL d   1      -1.197  -0.743  -0.533  0.00  0.00     0.019 C 
ATOM      4  C   UNL d   1      -0.044   1.095   0.280  0.00  0.00    -0.000 C 
ATOM      5  C   UNL d   1      -1.284   0.768  -0.591  0.00  0.00     0.060 C 
ATOM      6  C   UNL d   1       1.216  -0.803  -0.550  0.00  0.00     0.016 C 
ATOM      7  N   UNL d   1      -1.979  -1.596  -1.117  0.00  0.00    -0.277 N 
ATOM      8  HN  UNL d   1      -1.878  -2.609  -1.062  1.00  0.00     0.193 HD
ATOM      9  C   UNL d   1       1.208   0.742  -0.560  0.00  0.00     0.007 C 
ATOM     10  C   UNL d   1      -0.024  -2.569   0.858  0.00  0.00     0.022 C 
ATOM     11  C   UNL d   1       1.167   0.037   2.327  0.00  0.00     0.016 C 
ATOM     12  C   UNL d   1      -1.303   0.003   2.278  0.00  0.00     0.016 C 
ENDROOT
BRANCH   7  13
ATOM     13  O   UNL d   1      -2.981  -0.932  -1.831  0.00  0.00    -0.290 OA
ATOM     14  H   UNL d   1      -3.504  -1.674  -2.190  0.00  0.00     0.244 HD
ENDBRANCH   7  13
TORSDOF 1
