REMARK  6 active torsions:
REMARK  status: ('A' for Active; 'I' for Inactive)
REMARK       I    between atoms: N_2  and  C_1 
REMARK    1  A    between atoms: C_4  and  C_1 
REMARK    2  A    between atoms: C_5  and  C_6 
REMARK    3  A    between atoms: N_9  and  C_7 
REMARK    4  A    between atoms: S_17  and  C_7 
REMARK    5  A    between atoms: N_8  and  N_9 
REMARK    6  A    between atoms: C_10  and  N_8 
ROOT
ATOM      1  C   UNL d   1       0.760   0.110   0.322  0.00  0.00     0.261 C 
ATOM      2  N   UNL d   1       0.151  -1.105   0.495  0.00  0.00    -0.302 N 
ATOM      3  HN  UNL d   1      -0.852  -1.204   0.340  1.00  0.00     0.171 HD
ATOM      4  C   UNL d   1       0.858  -2.125   0.854  0.00  0.00     0.161 C 
ATOM      5  O   UNL d   1       1.957   0.306   0.505  0.00  0.00    -0.267 OA
ENDROOT
BRANCH   4   6
ATOM      6  N   UNL d   1       2.223  -2.228   1.050  0.00  0.00    -0.279 N 
ATOM      7  H   UNL d   1       2.725  -1.382   0.755  0.00  0.00     0.189 HD
BRANCH   6   8
ATOM      8  N   UNL d   1       2.923  -3.418   0.957  0.00  0.00    -0.298 N 
ATOM      9  H   UNL d   1       2.305  -4.233   0.846  0.00  0.00     0.187 HD
BRANCH   8  10
ATOM     10  C   UNL d   1       4.076  -3.687   1.738  0.00  0.00     0.063 A 
ATOM     11  C   UNL d   1       4.505  -5.007   1.995  0.00  0.00     0.075 A 
ATOM     12  C   UNL d   1       5.673  -5.223   2.761  0.00  0.00     0.018 A 
ATOM     13  C   UNL d   1       6.436  -4.159   3.230  0.00  0.00     0.001 A 
ATOM     14  C   UNL d   1       6.049  -2.861   2.934  0.00  0.00     0.002 A 
ATOM     15  C   UNL d   1       4.883  -2.630   2.192  0.00  0.00     0.032 A 
BRANCH  11  16
ATOM     16  C   UNL d   1       3.771  -6.229   1.508  0.00  0.00     0.419 C 
ATOM     17  F   UNL d   1       2.672  -5.965   0.745  0.00  0.00    -0.166 F 
ATOM     18  F   UNL d   1       4.560  -7.043   0.750  0.00  0.00    -0.166 F 
ATOM     19  F   UNL d   1       3.322  -7.006   2.535  0.00  0.00    -0.166 F 
ENDBRANCH  11  16
ENDBRANCH   8  10
ENDBRANCH   6   8
ENDBRANCH   4   6
BRANCH   4  20
ATOM     20  S   UNL d   1      -0.089  -3.592   1.167  0.00  0.00    -0.097 SA
ATOM     21  C   UNL d   1      -0.451  -3.270   2.911  0.00  0.00     0.099 C 
ENDBRANCH   4  20
BRANCH   1  22
ATOM     22  C   UNL d   1      -0.126   1.249  -0.066  0.00  0.00     0.075 A 
ATOM     23  C   UNL d   1       0.356   2.249  -0.934  0.00  0.00     0.051 A 
ATOM     24 CL   UNL d   1       1.879   2.159  -1.756  0.00  0.00    -0.083 Cl
ATOM     25  C   UNL d   1      -0.418   3.385  -1.224  0.00  0.00     0.025 A 
ATOM     26  C   UNL d   1      -1.689   3.530  -0.682  0.00  0.00     0.003 A 
ATOM     27  C   UNL d   1      -2.194   2.534   0.146  0.00  0.00     0.025 A 
ATOM     28  C   UNL d   1      -1.422   1.404   0.464  0.00  0.00     0.051 A 
ATOM     29 CL   UNL d   1      -2.164   0.309   1.582  0.00  0.00    -0.083 Cl
ENDBRANCH   1  22
TORSDOF 6
