REMARK  7 active torsions:
REMARK  status: ('A' for Active; 'I' for Inactive)
REMARK    1  A    between atoms: C_2  and  C_1 
REMARK       I    between atoms: C_3  and  N_6 
REMARK    2  A    between atoms: C_11  and  C_3 
REMARK    3  A    between atoms: N_6  and  C_9 
REMARK    4  A    between atoms: C_7  and  C_16 
REMARK    5  A    between atoms: O_20  and  C_7 
REMARK    6  A    between atoms: C_8  and  C_11 
REMARK    7  A    between atoms: C_16  and  C_8 
ROOT
ATOM      1  C   UNL d   1       5.210  -1.298   0.206  0.00  0.00     0.222 C 
ATOM      2  N   UNL d   1       4.497  -1.419  -0.975  0.00  0.00    -0.327 N 
ATOM      3  O   UNL d   1       4.726  -1.180   1.329  0.00  0.00    -0.273 OA
ATOM      4  H   UNL d   1       5.019  -1.356  -1.851  0.00  0.00     0.169 HD
ENDROOT
BRANCH   2   5
ATOM      5  C   UNL d   1       3.089  -1.486  -1.074  0.00  0.00     0.035 A 
ATOM      6  C   UNL d   1       2.268  -1.797   0.014  0.00  0.00     0.047 A 
ATOM      7  C   UNL d   1       0.857  -1.827  -0.078  0.00  0.00     0.067 A 
ATOM      8  C   UNL d   1       0.277  -1.540  -1.315  0.00  0.00     0.026 A 
ATOM      9  C   UNL d   1       1.090  -1.255  -2.422  0.00  0.00     0.022 A 
ATOM     10 BR   UNL d   1      -1.596  -1.510  -1.620  0.00  0.00    -0.050 Br
ATOM     11  C   UNL d   1       2.487  -1.242  -2.307  0.00  0.00     0.031 A 
BRANCH   7  12
ATOM     12  C   UNL d   1       0.123  -2.182   1.190  0.00  0.00     0.418 C 
ATOM     13  F   UNL d   1      -1.234  -2.161   1.136  0.00  0.00    -0.166 F 
ATOM     14  F   UNL d   1       0.447  -3.436   1.623  0.00  0.00    -0.166 F 
ATOM     15  F   UNL d   1       0.453  -1.349   2.220  0.00  0.00    -0.166 F 
ENDBRANCH   7  12
ENDBRANCH   2   5
BRANCH   1  16
ATOM     16  C   UNL d   1       6.721  -1.333   0.046  0.00  0.00     0.112 C 
BRANCH  16  17
ATOM     17  C   UNL d   1       7.346  -2.747   0.183  0.00  0.00    -0.030 C 
ATOM     18  C   UNL d   1       8.883  -2.594   0.173  0.00  0.00     0.016 C 
ATOM     19  C   UNL d   1       6.966  -3.385   1.536  0.00  0.00     0.016 C 
BRANCH  17  20
ATOM     20  C   UNL d   1       6.893  -3.707  -0.939  0.00  0.00     0.119 C 
BRANCH  20  21
ATOM     21  C   UNL d   1       7.206  -3.202  -2.325  0.00  0.00     0.140 C 
ATOM     22  O   UNL d   1       6.495  -2.412  -2.924  0.00  0.00    -0.650 OA
BRANCH  21  23
ATOM     23  O   UNL d   1       8.377  -3.656  -2.819  0.00  0.00    -0.776 OA
ATOM     24  H   UNL d   1       8.866  -4.256  -2.219  0.00  0.00     0.167 HD
ENDBRANCH  21  23
ENDBRANCH  20  21
ENDBRANCH  17  20
ENDBRANCH  16  17
ENDBRANCH   1  16
TORSDOF 7
