REMARK  5 active torsions:
REMARK  status: ('A' for Active; 'I' for Inactive)
REMARK       I    between atoms: N_3  and  C_1 
REMARK       I    between atoms: N_6  and  C_1 
REMARK    1  A    between atoms: N_2  and  C_9 
REMARK    2  A    between atoms: C_7  and  N_3 
REMARK    3  A    between atoms: C_17  and  N_6 
REMARK    4  A    between atoms: C_9  and  C_16 
REMARK    5  A    between atoms: C_16  and  C_17 
ROOT
ATOM      1  C   UNL d   1       2.264   2.771  -0.280  0.00  0.00     0.320 C 
ATOM      2  N   UNL d   1       1.895   4.095  -0.217  0.00  0.00    -0.309 N 
ATOM      3  O   UNL d   1       2.128   2.020  -1.236  0.00  0.00    -0.247 OA
ATOM      4  N   UNL d   1       2.791   2.328   0.917  0.00  0.00    -0.343 N 
ATOM      5  H   UNL d   1       2.284   4.635   0.542  0.00  0.00     0.170 HD
ATOM      6  H   UNL d   1       2.861   2.964   1.695  0.00  0.00     0.164 HD
ENDROOT
BRANCH   4   7
ATOM      7  C   UNL d   1       3.178   0.945   1.097  0.00  0.00     0.126 C 
BRANCH   7   8
ATOM      8  C   UNL d   1       4.636   0.688   0.713  0.00  0.00     0.050 C 
BRANCH   8   9
ATOM      9  C   UNL d   1       5.581   1.426   1.669  0.00  0.00     0.274 C 
BRANCH   9  10
ATOM     10  N   UNL d   1       7.018   1.262   1.380  0.00  0.00     0.092 N 
ATOM     11  C   UNL d   1       7.517  -0.115   1.579  0.00  0.00     0.219 C 
ATOM     12  C   UNL d   1       8.867  -0.304   0.869  0.00  0.00     0.043 C 
ATOM     13  C   UNL d   1       7.598  -0.522   3.061  0.00  0.00     0.035 C 
ATOM     14  C   UNL d   1       8.311   0.507   3.937  0.00  0.00     0.004 C 
ATOM     15  C   UNL d   1       7.845   1.931   3.658  0.00  0.00     0.030 C 
ATOM     16  C   UNL d   1       7.806   2.235   2.160  0.00  0.00     0.273 C 
ENDBRANCH   9  10
ENDBRANCH   8   9
ENDBRANCH   7   8
ENDBRANCH   4   7
BRANCH   2  17
ATOM     17  C   UNL d   1       1.073   4.781  -1.134  0.00  0.00     0.036 A 
ATOM     18  C   UNL d   1       0.425   4.150  -2.201  0.00  0.00     0.031 A 
ATOM     19  C   UNL d   1      -0.476   4.852  -3.008  0.00  0.00     0.026 A 
ATOM     20  C   UNL d   1      -0.725   6.195  -2.757  0.00  0.00     0.034 A 
ATOM     21  C   UNL d   1      -0.055   6.852  -1.728  0.00  0.00     0.026 A 
ATOM     22 CL   UNL d   1      -1.884   7.039  -3.706  0.00  0.00    -0.084 Cl
ATOM     23  C   UNL d   1       0.848   6.147  -0.921  0.00  0.00     0.031 A 
ENDBRANCH   2  17
TORSDOF 5
