REMARK  4 active torsions:
REMARK  status: ('A' for Active; 'I' for Inactive)
REMARK    1  A    between atoms: S_8  and  C_2 
REMARK    2  A    between atoms: S_9  and  C_3 
REMARK    3  A    between atoms: C_10  and  S_9 
REMARK    4  A    between atoms: C_11  and  C_10 
ROOT
ATOM      1  S   UNL d   1       0.919  -1.002   0.707  0.00  0.00    -0.038 SA
ATOM      2  C   UNL d   1      -0.133   0.270   0.261  0.00  0.00     0.126 A 
ATOM      3  C   UNL d   1       2.192  -0.066   0.037  0.00  0.00     0.129 A 
ATOM      4  N   UNL d   1       0.449   1.285  -0.334  0.00  0.00    -0.287 N 
ATOM      5  HN  UNL d   1      -0.044   2.116  -0.662  1.00  0.00     0.188 HD
ATOM      6  N   UNL d   1       1.815   1.090  -0.462  0.00  0.00    -0.287 N 
ATOM      7  HN  UNL d   1       2.451   1.762  -0.891  1.00  0.00     0.188 HD
ENDROOT
BRANCH   3   8
ATOM      8  S   UNL d   1       3.842  -0.635   0.009  0.00  0.00    -0.103 SA
BRANCH   8   9
ATOM      9  C   UNL d   1       4.761   0.934  -0.022  0.00  0.00     0.081 C 
BRANCH   9  10
ATOM     10  C   UNL d   1       6.258   0.626  -0.017  0.00  0.00     0.006 C 
ATOM     11  C   UNL d   1       7.098   1.895  -0.017  0.00  0.00     0.006 C 
ENDBRANCH   9  10
ENDBRANCH   8   9
ENDBRANCH   3   8
BRANCH   2  12
ATOM     12  S   UNL d   1      -1.850   0.237   0.578  0.00  0.00    -0.117 SA
ATOM     13  H   UNL d   1      -1.881  -0.941   1.213  0.00  0.00     0.109 HD
ENDBRANCH   2  12
TORSDOF 4
