REMARK  8 active torsions:
REMARK  status: ('A' for Active; 'I' for Inactive)
REMARK    1  A    between atoms: N_2  and  C_1 
REMARK    2  A    between atoms: C_3  and  C_1 
REMARK    3  A    between atoms: N_5  and  C_1 
REMARK    4  A    between atoms: C_7  and  C_1 
REMARK       I    between atoms: C_4  and  N_2 
REMARK    5  A    between atoms: C_6  and  C_4 
REMARK    6  A    between atoms: C_8  and  N_5 
REMARK    7  A    between atoms: O_18  and  C_7 
REMARK    8  A    between atoms: C_25  and  O_18 
ROOT
ATOM      1  C   UNL d   1       1.072   0.080  -0.137  0.00  0.00     0.281 C 
ENDROOT
BRANCH   1   2
ATOM      2  N   UNL d   1       0.691   0.233   1.273  0.00  0.00    -0.319 N 
ATOM      3  C   UNL d   1       1.131  -0.522   2.318  0.00  0.00     0.255 C 
ATOM      4  O   UNL d   1       1.971  -1.403   2.177  0.00  0.00    -0.268 OA
ATOM      5  H   UNL d   1      -0.228   0.653   1.373  0.00  0.00     0.165 HD
BRANCH   3   6
ATOM      6  C   UNL d   1       0.543  -0.220   3.672  0.00  0.00     0.053 A 
ATOM      7  C   UNL d   1      -0.095   0.981   4.037  0.00  0.00     0.049 A 
ATOM      8 CL   UNL d   1      -0.418   2.295   2.961  0.00  0.00    -0.083 Cl
ATOM      9  C   UNL d   1      -0.507   1.190   5.362  0.00  0.00     0.025 A 
ATOM     10  C   UNL d   1      -0.311   0.210   6.332  0.00  0.00     0.002 A 
ATOM     11  C   UNL d   1       0.284  -0.995   5.979  0.00  0.00     0.001 A 
ATOM     12  C   UNL d   1       0.712  -1.207   4.663  0.00  0.00     0.019 A 
ENDBRANCH   3   6
ENDBRANCH   1   2
BRANCH   1  13
ATOM     13  C   UNL d   1       0.623   1.347  -0.982  0.00  0.00     0.436 C 
ATOM     14  F   UNL d   1      -0.174   2.164  -0.233  0.00  0.00    -0.166 F 
ATOM     15  F   UNL d   1       1.656   2.134  -1.384  0.00  0.00    -0.166 F 
ATOM     16  F   UNL d   1      -0.079   1.047  -2.101  0.00  0.00    -0.166 F 
ENDBRANCH   1  13
BRANCH   1  17
ATOM     17  N   UNL d   1       0.526  -1.209  -0.623  0.00  0.00    -0.236 NA
ATOM     18  H   UNL d   1       1.002  -2.002  -0.201  0.00  0.00     0.132 HD
BRANCH  17  19
ATOM     19  C   UNL d   1      -0.850  -1.381  -0.671  0.00  0.00     0.083 A 
ATOM     20  N   UNL d   1      -1.658  -0.442  -0.142  0.00  0.00    -0.357 N 
ATOM     21  C   UNL d   1      -2.992  -0.632  -0.251  0.00  0.00     0.090 A 
ATOM     22  HN  UNL d   1      -1.277   0.382   0.323  1.00  0.00     0.166 HD
ATOM     23  C   UNL d   1      -3.574  -1.717  -0.883  0.00  0.00     0.024 A 
ATOM     24  C   UNL d   1      -2.739  -2.675  -1.451  0.00  0.00    -0.058 A 
ATOM     25  C   UNL d   1      -1.358  -2.506  -1.323  0.00  0.00     0.049 A 
ATOM     26  C   UNL d   1      -3.317  -3.851  -2.178  0.00  0.00     0.048 C 
ENDBRANCH  17  19
ENDBRANCH   1  17
BRANCH   1  27
ATOM     27  C   UNL d   1       2.602   0.103  -0.387  0.00  0.00     0.312 C 
ATOM     28  O   UNL d   1       3.150  -0.410  -1.369  0.00  0.00    -0.260 OA
BRANCH  27  29
ATOM     29  O   UNL d   1       3.270   0.866   0.534  0.00  0.00    -0.319 OA
BRANCH  29  30
ATOM     30  C   UNL d   1       4.668   1.074   0.272  0.00  0.00     0.174 C 
ATOM     31  C   UNL d   1       5.488  -0.119   0.720  0.00  0.00     0.034 C 
ENDBRANCH  29  30
ENDBRANCH  27  29
ENDBRANCH   1  27
TORSDOF 8
