REMARK  3 active torsions:
REMARK  status: ('A' for Active; 'I' for Inactive)
REMARK    1  A    between atoms: C_2  and  C_1 
REMARK    2  A    between atoms: C_6  and  C_2 
REMARK    3  A    between atoms: C_8  and  C_5 
ROOT
ATOM      1  C   UNL d   1       0.566   1.019   0.081  0.00  0.00     0.081 C 
ATOM      2  N   UNL d   1       1.202  -0.115   0.128  0.00  0.00    -0.321 N 
ATOM      3  HN  UNL d   1       2.212  -0.257   0.109  1.00  0.00     0.180 HD
ATOM      4  C   UNL d   1      -0.935   0.945   0.082  0.00  0.00     0.088 C 
ATOM      5  N   UNL d   1       0.241  -1.071   0.208  0.00  0.00    -0.239 NA
ATOM      6  C   UNL d   1      -1.067  -0.555  -0.211  0.00  0.00     0.126 C 
ATOM      7  H   UNL d   1       0.500  -1.933  -0.277  0.00  0.00     0.146 HD
ENDROOT
BRANCH   1   8
ATOM      8  C   UNL d   1       1.257   2.340  -0.090  0.00  0.00     0.206 C 
ATOM      9  O   UNL d   1       0.695   3.180  -0.783  0.00  0.00    -0.285 OA
BRANCH   8  10
ATOM     10  C   UNL d   1       2.585   2.607   0.515  0.00  0.00     0.017 A 
ATOM     11  C   UNL d   1       3.007   1.981   1.693  0.00  0.00     0.022 A 
ATOM     12  C   UNL d   1       4.241   2.320   2.270  0.00  0.00    -0.061 A 
ATOM     13  C   UNL d   1       4.669   1.725   3.581  0.00  0.00     0.048 C 
ATOM     14  C   UNL d   1       5.056   3.274   1.645  0.00  0.00     0.007 A 
ATOM     15  C   UNL d   1       4.645   3.886   0.461  0.00  0.00     0.002 A 
ATOM     16  C   UNL d   1       3.409   3.562  -0.098  0.00  0.00     0.015 A 
ENDBRANCH   8  10
ENDBRANCH   1   8
BRANCH   4  17
ATOM     17  C   UNL d   1      -1.581   1.382   1.383  0.00  0.00    -0.047 A 
ATOM     18  C   UNL d   1      -2.498   2.446   1.379  0.00  0.00     0.009 A 
ATOM     19  C   UNL d   1      -3.141   2.839   2.557  0.00  0.00     0.024 A 
ATOM     20  C   UNL d   1      -2.870   2.174   3.750  0.00  0.00     0.034 A 
ATOM     21  C   UNL d   1      -1.962   1.120   3.775  0.00  0.00     0.024 A 
ATOM     22 CL   UNL d   1      -3.663   2.654   5.200  0.00  0.00    -0.084 Cl
ATOM     23  C   UNL d   1      -1.319   0.728   2.599  0.00  0.00     0.009 A 
ENDBRANCH   4  17
TORSDOF 3
