REMARK  5 active torsions:
REMARK  status: ('A' for Active; 'I' for Inactive)
REMARK    1  A    between atoms: N_5  and  S_1 
REMARK    2  A    between atoms: C_8  and  S_1 
REMARK    3  A    between atoms: N_3  and  C_2 
REMARK    4  A    between atoms: N_7  and  C_4 
REMARK    5  A    between atoms: C_13  and  N_5 
REMARK       I    between atoms: C_12  and  N_7 
ROOT
ATOM      1  C   UNL d   1       2.416   0.250   4.117  0.00  0.00     0.131 A 
ATOM      2  C   UNL d   1       1.467   0.454   5.149  0.00  0.00     0.068 A 
ATOM      3  C   UNL d   1       2.088   0.509   2.770  0.00  0.00     0.068 A 
ATOM      4  C   UNL d   1       0.823   0.992   2.445  0.00  0.00     0.045 A 
ATOM      5  C   UNL d   1       0.200   0.928   4.777  0.00  0.00     0.034 A 
ATOM      6  C   UNL d   1      -0.119   1.197   3.442  0.00  0.00     0.032 A 
ENDROOT
BRANCH   4   7
ATOM      7  N   UNL d   1       0.468   1.189   1.083  0.00  0.00    -0.281 N 
ATOM      8  H   UNL d   1      -0.129   1.987   0.866  0.00  0.00     0.179 HD
BRANCH   7   9
ATOM      9  S   UNL d   1      -0.008  -0.173   0.176  0.00  0.00     0.263 S 
ATOM     10  O   UNL d   1       1.009  -1.195   0.299  0.00  0.00    -0.200 OA
ATOM     11  O   UNL d   1      -0.432   0.330  -1.109  0.00  0.00    -0.200 OA
BRANCH   9  12
ATOM     12  C   UNL d   1      -1.458  -0.727   1.044  0.00  0.00     0.079 A 
ATOM     13  C   UNL d   1      -2.712  -0.230   0.678  0.00  0.00     0.026 A 
ATOM     14  C   UNL d   1      -3.841  -0.621   1.399  0.00  0.00     0.008 A 
ATOM     15  C   UNL d   1      -3.724  -1.508   2.479  0.00  0.00    -0.062 A 
ATOM     16  C   UNL d   1      -2.465  -2.025   2.812  0.00  0.00     0.008 A 
ATOM     17  C   UNL d   1      -4.942  -1.886   3.271  0.00  0.00     0.048 C 
ATOM     18  C   UNL d   1      -1.333  -1.650   2.086  0.00  0.00     0.026 A 
ENDBRANCH   9  12
ENDBRANCH   7   9
ENDBRANCH   4   7
BRANCH   1  19
ATOM     19  N   UNL d   1       3.765  -0.269   4.394  0.00  0.00    -0.113 N 
ATOM     20  O   UNL d   1       4.062  -0.525   5.572  0.00  0.00    -0.532 OA
ATOM     21  O   UNL d   1       4.542  -0.412   3.440  0.00  0.00    -0.532 OA
ENDBRANCH   1  19
BRANCH   2  22
ATOM     22  N   UNL d   1       1.780   0.238   6.519  0.00  0.00    -0.325 N 
ATOM     23  C   UNL d   1       0.896   0.172   7.580  0.00  0.00     0.218 C 
ATOM     24  O   UNL d   1      -0.328   0.166   7.504  0.00  0.00    -0.274 OA
ATOM     25  C   UNL d   1       1.575   0.140   8.926  0.00  0.00     0.117 C 
ATOM     26  H   UNL d   1       2.754   0.005   6.723  0.00  0.00     0.169 HD
ENDBRANCH   2  22
TORSDOF 5
