REMARK  2 active torsions:
REMARK  status: ('A' for Active; 'I' for Inactive)
REMARK    1  A    between atoms: C_12  and  C_3 
REMARK    2  A    between atoms: O_19  and  C_15 
ROOT
ATOM      1  C   UNL d   1      -0.296   0.517  -0.018  0.00  0.00     0.089 A 
ATOM      2  C   UNL d   1      -0.162  -0.869   0.058  0.00  0.00     0.028 A 
ATOM      3  C   UNL d   1       1.900   0.931   0.068  0.00  0.00     0.119 A 
ATOM      4  N   UNL d   1       0.679   1.435  -0.046  0.00  0.00    -0.335 N 
ATOM      5  HN  UNL d   1       0.498   2.434  -0.145  1.00  0.00     0.168 HD
ATOM      6  S   UNL d   1      -1.907   1.043  -0.088  0.00  0.00    -0.060 SA
ATOM      7  C   UNL d   1      -2.494  -0.547  -0.027  0.00  0.00     0.094 A 
ATOM      8  C   UNL d   1      -1.481  -1.499   0.044  0.00  0.00    -0.019 A 
ATOM      9  N   UNL d   1       2.170  -0.385   0.152  0.00  0.00    -0.345 N 
ATOM     10  HN  UNL d   1       3.138  -0.690   0.246  1.00  0.00     0.167 HD
ATOM     11  C   UNL d   1       1.178  -1.317   0.114  0.00  0.00     0.020 A 
ATOM     12  C   UNL d   1      -3.895  -0.828  -0.051  0.00  0.00     0.107 C 
ATOM     13  N   UNL d   1      -5.030  -1.088  -0.066  0.00  0.00    -0.191 NA
ATOM     14  C   UNL d   1      -1.795  -2.964   0.098  0.00  0.00     0.051 C 
ATOM     15  C   UNL d   1       1.706  -2.718   0.113  0.00  0.00     0.069 C 
ENDROOT
BRANCH   3  16
ATOM     16  C   UNL d   1       3.066   1.832  -0.013  0.00  0.00     0.041 A 
ATOM     17  C   UNL d   1       3.094   3.189   0.371  0.00  0.00     0.082 A 
ATOM     18  C   UNL d   1       4.247   3.966   0.148  0.00  0.00     0.038 A 
ATOM     19  C   UNL d   1       5.390   3.420  -0.433  0.00  0.00     0.003 A 
ATOM     20  C   UNL d   1       5.396   2.085  -0.801  0.00  0.00     0.001 A 
ATOM     21  C   UNL d   1       4.256   1.309  -0.586  0.00  0.00     0.018 A 
BRANCH  17  22
ATOM     22  O   UNL d   1       2.041   3.918   0.863  0.00  0.00    -0.355 OA
ATOM     23  C   UNL d   1       1.461   3.432   2.070  0.00  0.00     0.210 C 
ENDBRANCH  17  22
ENDBRANCH   3  16
TORSDOF 2
