REMARK  1 active torsions:
REMARK  status: ('A' for Active; 'I' for Inactive)
REMARK    1  A    between atoms: C_16  and  N_4 
ROOT
ATOM      1  C   UNL d   1       2.709  -0.697  -0.015  0.00  0.00     0.139 A 
ATOM      2  C   UNL d   1       1.760   0.275   0.032  0.00  0.00     0.105 A 
ATOM      3  N   UNL d   1       4.062  -0.298  -0.131  0.00  0.00    -0.288 N 
ATOM      4  N   UNL d   1       2.290  -2.067  -0.008  0.00  0.00    -0.262 N 
ATOM      5  N   UNL d   1       3.516   1.984   0.100  0.00  0.00    -0.270 N 
ATOM      6  C   UNL d   1       4.490   1.024   0.029  0.00  0.00     0.332 C 
ATOM      7  C   UNL d   1       2.172   1.715  -0.001  0.00  0.00     0.267 C 
ATOM      8  C   UNL d   1       0.922  -2.439  -0.018  0.00  0.00     0.266 A 
ATOM      9  C   UNL d   1      -0.082  -1.380   0.000  0.00  0.00     0.061 A 
ATOM     10  C   UNL d   1       0.322  -0.070   0.044  0.00  0.00     0.068 A 
ATOM     11  N   UNL d   1      -0.592   0.932   0.078  0.00  0.00    -0.354 N 
ATOM     12  HN  UNL d   1      -0.278   1.901   0.125  1.00  0.00     0.166 HD
ATOM     13  C   UNL d   1      -1.449  -1.688  -0.008  0.00  0.00     0.033 A 
ATOM     14  C   UNL d   1      -2.393  -0.660   0.012  0.00  0.00    -0.007 A 
ATOM     15  C   UNL d   1      -1.909   0.658   0.049  0.00  0.00     0.043 A 
ATOM     16  O   UNL d   1       5.687   1.320   0.069  0.00  0.00    -0.246 OA
ATOM     17  O   UNL d   1       1.363   2.635  -0.116  0.00  0.00    -0.267 OA
ATOM     18  O   UNL d   1       0.494  -3.594  -0.007  0.00  0.00    -0.267 OA
ATOM     19  C   UNL d   1      -3.777  -0.914  -0.008  0.00  0.00     0.037 A 
ATOM     20  C   UNL d   1       5.158  -1.188  -0.493  0.00  0.00     0.163 C 
ATOM     21  C   UNL d   1       3.908   3.385   0.096  0.00  0.00     0.164 C 
ATOM     22  C   UNL d   1      -2.830   1.698   0.052  0.00  0.00     0.032 A 
ATOM     23  C   UNL d   1      -4.676   0.149  -0.001  0.00  0.00     0.035 A 
ATOM     24  C   UNL d   1      -4.209   1.457   0.025  0.00  0.00     0.026 A 
ATOM     25 CL   UNL d   1      -6.367  -0.159  -0.029  0.00  0.00    -0.084 Cl
ENDROOT
BRANCH   4  26
ATOM     26  C   UNL d   1       3.162  -3.205   0.097  0.00  0.00     0.044 A 
ATOM     27  C   UNL d   1       3.142  -4.181  -0.915  0.00  0.00     0.030 A 
ATOM     28  C   UNL d   1       3.997  -5.281  -0.856  0.00  0.00     0.002 A 
ATOM     29  C   UNL d   1       4.862  -5.426   0.225  0.00  0.00     0.000 A 
ATOM     30  C   UNL d   1       4.856  -4.487   1.259  0.00  0.00     0.002 A 
ATOM     31  C   UNL d   1       3.995  -3.385   1.204  0.00  0.00     0.030 A 
ENDBRANCH   4  26
TORSDOF 1
