REMARK  0 active torsions:
REMARK  status: ('A' for Active; 'I' for Inactive)
ROOT
ATOM      1  N   UNL d   1       1.179   1.359  -0.044  0.00  0.00    -0.359 N 
ATOM      2  HN  UNL d   1       1.153   2.379  -0.056  1.00  0.00     0.166 HD
ATOM      3  C   UNL d   1       0.018  -0.766  -0.001  0.00  0.00    -0.003 A 
ATOM      4  C   UNL d   1       0.041   0.646  -0.022  0.00  0.00     0.043 A 
ATOM      5  C   UNL d   1       1.264  -1.439  -0.012  0.00  0.00    -0.048 A 
ATOM      6  C   UNL d   1       2.358   0.701  -0.049  0.00  0.00     0.006 A 
ATOM      7  C   UNL d   1       2.441  -0.684  -0.035  0.00  0.00     0.032 A 
ATOM      8  C   UNL d   1      -1.231  -1.430   0.022  0.00  0.00     0.021 A 
ATOM      9  C   UNL d   1      -1.166   1.332  -0.026  0.00  0.00     0.031 A 
ATOM     10  C   UNL d   1      -2.439  -0.722   0.004  0.00  0.00    -0.061 A 
ATOM     11  C   UNL d   1      -2.397   0.670  -0.015  0.00  0.00     0.009 A 
ATOM     12  C   UNL d   1       1.360  -2.940  -0.014  0.00  0.00     0.049 C 
ATOM     13  C   UNL d   1       3.607   1.529  -0.095  0.00  0.00     0.068 C 
ATOM     14  C   UNL d   1      -3.744  -1.460   0.026  0.00  0.00     0.048 C 
ENDROOT
TORSDOF 0
