REMARK  4 active torsions:
REMARK  status: ('A' for Active; 'I' for Inactive)
REMARK       I    between atoms: N_2  and  C_1 
REMARK       I    between atoms: N_3  and  C_1 
REMARK    1  A    between atoms: C_5  and  N_3 
REMARK    2  A    between atoms: C_10  and  N_4 
REMARK    3  A    between atoms: O_14  and  C_9 
REMARK    4  A    between atoms: C_13  and  C_10 
ROOT
ATOM      1  C   UNL d   1       1.048  -0.516  -0.270  0.00  0.00     0.323 C 
ATOM      2  N   UNL d   1       0.393  -1.440   0.530  0.00  0.00    -0.331 N 
ATOM      3  N   UNL d   1       0.375  -0.173  -1.420  0.00  0.00    -0.306 N 
ATOM      4  N   UNL d   1      -0.435  -3.809   2.089  0.00  0.00     0.095 N 
ATOM      5  O   UNL d   1       2.123  -0.018   0.057  0.00  0.00    -0.247 OA
ATOM      6  C   UNL d   1       0.881  -1.643   1.897  0.00  0.00     0.158 C 
ATOM      7  C   UNL d   1      -0.843  -2.153   0.188  0.00  0.00     0.158 C 
ATOM      8  C   UNL d   1      -0.823  -3.620   0.673  0.00  0.00     0.292 C 
ATOM      9  C   UNL d   1       0.859  -3.124   2.308  0.00  0.00     0.292 C 
ATOM     10  H   UNL d   1      -0.628  -0.173  -1.347  0.00  0.00     0.171 HD
ENDROOT
BRANCH   3  11
ATOM     11  C   UNL d   1       0.898   0.718  -2.380  0.00  0.00     0.069 A 
ATOM     12  C   UNL d   1       0.085   1.719  -2.933  0.00  0.00     0.095 A 
ATOM     13  C   UNL d   1       0.558   2.483  -4.002  0.00  0.00     0.039 A 
ATOM     14  C   UNL d   1       1.846   2.271  -4.510  0.00  0.00     0.003 A 
ATOM     15  C   UNL d   1       2.667   1.303  -3.934  0.00  0.00     0.002 A 
ATOM     16  C   UNL d   1       2.199   0.537  -2.867  0.00  0.00     0.032 A 
BRANCH  12  17
ATOM     17  O   UNL d   1      -1.195   2.001  -2.520  0.00  0.00    -0.354 OA
ATOM     18  C   UNL d   1      -1.338   2.215  -1.113  0.00  0.00     0.210 C 
ENDBRANCH  12  17
ENDBRANCH   3  11
BRANCH   4  19
ATOM     19  C   UNL d   1      -1.504  -3.338   2.984  0.00  0.00     0.311 C 
BRANCH  19  20
ATOM     20  C   UNL d   1      -1.240  -3.558   4.462  0.00  0.00    -0.030 A 
ATOM     21  C   UNL d   1      -1.177  -2.459   5.329  0.00  0.00     0.009 A 
ATOM     22  C   UNL d   1      -0.995  -2.646   6.703  0.00  0.00     0.001 A 
ATOM     23  C   UNL d   1      -0.881  -3.935   7.216  0.00  0.00     0.000 A 
ATOM     24  C   UNL d   1      -0.929  -5.034   6.361  0.00  0.00     0.001 A 
ATOM     25  C   UNL d   1      -1.108  -4.847   4.986  0.00  0.00     0.009 A 
ENDBRANCH  19  20
ENDBRANCH   4  19
TORSDOF 4
