REMARK  3 active torsions:
REMARK  status: ('A' for Active; 'I' for Inactive)
REMARK    1  A    between atoms: C_2  and  C_1 
REMARK       I    between atoms: N_9  and  C_2 
REMARK    2  A    between atoms: N_4  and  N_9 
REMARK    3  A    between atoms: C_14  and  C_10 
ROOT
ATOM      1  N   UNL d   1      -2.071   3.369   0.110  0.00  0.00    -0.307 N 
ATOM      2  HN  UNL d   1      -2.623   4.091   0.573  1.00  0.00     0.186 HD
ATOM      3  C   UNL d   1      -2.611   2.259  -0.300  0.00  0.00     0.136 C 
ENDROOT
BRANCH   1   4
ATOM      4  N   UNL d   1      -0.717   3.523  -0.110  0.00  0.00    -0.265 N 
ATOM      5  C   UNL d   1       0.230   2.510   0.065  0.00  0.00     0.286 C 
ATOM      6  O   UNL d   1      -0.086   1.352   0.337  0.00  0.00    -0.264 OA
ATOM      7  H   UNL d   1      -0.401   4.482  -0.033  0.00  0.00     0.190 HD
BRANCH   5   8
ATOM      8  C   UNL d   1       1.624   2.930  -0.077  0.00  0.00     0.104 A 
ATOM      9  N   UNL d   1       2.714   2.070  -0.120  0.00  0.00    -0.357 N 
ATOM     10  C   UNL d   1       3.880   2.790  -0.252  0.00  0.00     0.091 A 
ATOM     11  C   UNL d   1       2.730   0.624  -0.051  0.00  0.00     0.156 C 
ATOM     12  C   UNL d   1       3.563   4.123  -0.292  0.00  0.00     0.020 A 
ATOM     13  C   UNL d   1       2.156   4.214  -0.192  0.00  0.00     0.037 A 
ENDBRANCH   5   8
ENDBRANCH   1   4
BRANCH   3  14
ATOM     14  C   UNL d   1      -4.019   1.905  -0.025  0.00  0.00     0.049 A 
ATOM     15  N   UNL d   1      -4.416   0.710  -0.530  0.00  0.00    -0.365 N 
ATOM     16  C   UNL d   1      -5.683   0.332  -0.257  0.00  0.00     0.088 A 
ATOM     17  HN  UNL d   1      -3.790   0.128  -1.086  1.00  0.00     0.165 HD
ATOM     18  C   UNL d   1      -6.572   1.094   0.484  0.00  0.00     0.017 A 
ATOM     19  C   UNL d   1      -6.139   2.321   0.979  0.00  0.00     0.004 A 
ATOM     20  C   UNL d   1      -4.837   2.740   0.724  0.00  0.00     0.031 A 
ENDBRANCH   3  14
TORSDOF 3
