REMARK  2 active torsions:
REMARK  status: ('A' for Active; 'I' for Inactive)
REMARK    1  A    between atoms: C_11  and  C_5 
REMARK    2  A    between atoms: C_12  and  C_6 
ROOT
ATOM      1  C   UNL d   1      -1.145   0.906   0.005  0.00  0.00    -0.046 A 
ATOM      2  C   UNL d   1       1.141   0.910   0.016  0.00  0.00    -0.046 A 
ATOM      3  C   UNL d   1       0.002  -1.219  -0.009  0.00  0.00    -0.024 A 
ATOM      4  C   UNL d   1      -0.002   0.143   0.006  0.00  0.00    -0.013 A 
ATOM      5  C   UNL d   1      -2.465  -1.100  -0.007  0.00  0.00    -0.049 A 
ATOM      6  C   UNL d   1       2.466  -1.097   0.044  0.00  0.00    -0.049 A 
ATOM      7  C   UNL d   1      -2.405   0.319  -0.008  0.00  0.00     0.015 A 
ATOM      8  C   UNL d   1       2.400   0.324   0.024  0.00  0.00     0.015 A 
ATOM      9  C   UNL d   1      -1.255  -1.847  -0.033  0.00  0.00     0.020 A 
ATOM     10  C   UNL d   1       1.260  -1.847  -0.001  0.00  0.00     0.020 A 
ATOM     11  C   UNL d   1      -0.786   2.353   0.018  0.00  0.00     0.044 A 
ATOM     12  C   UNL d   1       0.780   2.355   0.009  0.00  0.00     0.044 A 
ENDROOT
BRANCH   5  13
ATOM     13  C   UNL d   1      -3.822  -1.836  -0.032  0.00  0.00    -0.024 C 
ATOM     14  C   UNL d   1      -4.218  -2.068  -1.503  0.00  0.00     0.019 C 
ATOM     15  C   UNL d   1      -3.761  -3.207   0.687  0.00  0.00     0.019 C 
ATOM     16  C   UNL d   1      -4.950  -1.039   0.662  0.00  0.00     0.019 C 
ENDBRANCH   5  13
BRANCH   6  17
ATOM     17  C   UNL d   1       3.829  -1.822   0.069  0.00  0.00    -0.024 C 
ATOM     18  C   UNL d   1       4.284  -2.050  -1.385  0.00  0.00     0.019 C 
ATOM     19  C   UNL d   1       4.912  -1.004   0.811  0.00  0.00     0.019 C 
ATOM     20  C   UNL d   1       3.767  -3.195   0.781  0.00  0.00     0.019 C 
ENDBRANCH   6  17
TORSDOF 2
