REMARK  8 active torsions:
REMARK  status: ('A' for Active; 'I' for Inactive)
REMARK    1  A    between atoms: C_7  and  C_2 
REMARK    2  A    between atoms: O_11  and  C_7 
REMARK    3  A    between atoms: O_13  and  C_9 
REMARK    4  A    between atoms: C_17  and  O_11 
REMARK    5  A    between atoms: C_18  and  O_13 
REMARK    6  A    between atoms: O_15  and  C_19 
REMARK    7  A    between atoms: C_20  and  O_15 
REMARK    8  A    between atoms: C_19  and  C_18 
ROOT
ATOM      1  C   UNL d   1      -1.294   0.788  -0.119  0.00  0.00     0.190 A 
ATOM      2  C   UNL d   1      -1.810  -1.593  -0.076  0.00  0.00     0.154 A 
ATOM      3  C   UNL d   1       0.149   0.429  -0.101  0.00  0.00     0.081 A 
ATOM      4  C   UNL d   1      -2.263  -0.335  -0.064  0.00  0.00     0.099 A 
ATOM      5  O   UNL d   1      -0.479  -1.932  -0.161  0.00  0.00    -0.303 OA
ATOM      6  C   UNL d   1       0.458  -0.937  -0.124  0.00  0.00     0.093 A 
ATOM      7  O   UNL d   1      -1.718   1.933  -0.157  0.00  0.00    -0.287 OA
ATOM      8  C   UNL d   1       1.196   1.368  -0.056  0.00  0.00     0.085 A 
ATOM      9  C   UNL d   1       1.776  -1.392  -0.098  0.00  0.00     0.038 A 
ATOM     10  C   UNL d   1       2.811  -0.479  -0.043  0.00  0.00     0.006 A 
ATOM     11  C   UNL d   1       2.522   0.883  -0.021  0.00  0.00     0.038 A 
ENDROOT
BRANCH   8  12
ATOM     12  O   UNL d   1       0.899   2.717  -0.039  0.00  0.00    -0.348 OA
BRANCH  12  13
ATOM     13  C   UNL d   1       2.038   3.578  -0.037  0.00  0.00     0.201 C 
BRANCH  13  14
ATOM     14  C   UNL d   1       1.722   5.067  -0.064  0.00  0.00     0.194 C 
BRANCH  14  15
ATOM     15  O   UNL d   1       3.006   5.702  -0.068  0.00  0.00    -0.389 OA
BRANCH  15  16
ATOM     16  C   UNL d   1       2.966   7.119  -0.094  0.00  0.00     0.163 C 
ATOM     17  C   UNL d   1       4.408   7.595  -0.101  0.00  0.00     0.033 C 
ENDBRANCH  15  16
ENDBRANCH  14  15
ENDBRANCH  13  14
ENDBRANCH  12  13
ENDBRANCH   8  12
BRANCH   2  18
ATOM     18  C   UNL d   1      -2.778  -2.722   0.058  0.00  0.00     0.317 C 
ATOM     19  O   UNL d   1      -3.985  -2.601   0.195  0.00  0.00    -0.257 OA
BRANCH  18  20
ATOM     20  O   UNL d   1      -2.075  -3.885   0.076  0.00  0.00    -0.316 OA
BRANCH  20  21
ATOM     21  C   UNL d   1      -2.784  -5.070   0.452  0.00  0.00     0.175 C 
ATOM     22  C   UNL d   1      -2.673  -5.249   1.956  0.00  0.00     0.034 C 
ENDBRANCH  20  21
ENDBRANCH  18  20
ENDBRANCH   2  18
TORSDOF 8
