REMARK  2 active torsions:
REMARK  status: ('A' for Active; 'I' for Inactive)
REMARK    1  A    between atoms: N_6  and  C_1 
REMARK    2  A    between atoms: C_8  and  C_5 
ROOT
ATOM      1  C   UNL d   1      -0.516  -1.353  -0.013  0.00  0.00     0.010 C 
ATOM      2  C   UNL d   1      -1.400  -0.343   0.061  0.00  0.00     0.055 C 
ATOM      3  C   UNL d   1      -1.138   1.113   0.021  0.00  0.00     0.070 C 
ATOM      4  S   UNL d   1       0.429   1.651  -0.524  0.00  0.00    -0.108 SA
ATOM      5  C   UNL d   1       1.529   0.313  -0.018  0.00  0.00     0.098 C 
ATOM      6  C   UNL d   1       0.980  -1.119  -0.112  0.00  0.00     0.077 C 
ATOM      7  S   UNL d   1      -2.351   2.238   0.334  0.00  0.00    -0.072 SA
ENDROOT
BRANCH   1   8
ATOM      8  N   UNL d   1      -0.933  -2.700  -0.088  0.00  0.00    -0.384 N 
ATOM      9  C   UNL d   1      -0.439  -3.708   0.872  0.00  0.00     0.122 C 
ATOM     10  C   UNL d   1      -0.266  -5.053   0.174  0.00  0.00     0.020 C 
ATOM     11  C   UNL d   1      -1.569  -5.508  -0.476  0.00  0.00     0.003 C 
ATOM     12  C   UNL d   1      -2.124  -4.425  -1.395  0.00  0.00     0.020 C 
ATOM     13  C   UNL d   1      -2.235  -3.080  -0.683  0.00  0.00     0.122 C 
ENDBRANCH   1   8
BRANCH   5  14
ATOM     14  C   UNL d   1       2.202   0.587   1.312  0.00  0.00    -0.003 A 
ATOM     15  S   UNL d   1       3.923   0.686   1.364  0.00  0.00    -0.105 SA
ATOM     16  C   UNL d   1       3.939   0.936   3.050  0.00  0.00     0.050 A 
ATOM     17  C   UNL d   1       2.663   0.946   3.575  0.00  0.00     0.008 A 
ATOM     18  C   UNL d   1       1.662   0.746   2.576  0.00  0.00     0.016 A 
ENDBRANCH   5  14
TORSDOF 2
