REMARK  6 active torsions:
REMARK  status: ('A' for Active; 'I' for Inactive)
REMARK    1  A    between atoms: S_2  and  C_1 
REMARK    2  A    between atoms: C_5  and  C_1 
REMARK    3  A    between atoms: C_11  and  S_2 
REMARK    4  A    between atoms: N_4  and  C_3 
REMARK    5  A    between atoms: S_12  and  C_3 
REMARK    6  A    between atoms: N_6  and  C_5 
ROOT
ATOM      1  C   UNL d   1       1.062   0.052  -0.059  0.00  0.00     0.154 C 
ATOM      2  C   UNL d   1       0.373   1.072   0.514  0.00  0.00     0.098 C 
ENDROOT
BRANCH   1   3
ATOM      3  S   UNL d   1       0.390  -1.339  -0.865  0.00  0.00     0.190 S 
ATOM      4  O   UNL d   1      -0.894  -1.033  -1.471  0.00  0.00    -0.221 OA
ATOM      5  O   UNL d   1       1.410  -1.918  -1.730  0.00  0.00    -0.221 OA
BRANCH   3   6
ATOM      6  C   UNL d   1       0.108  -2.526   0.461  0.00  0.00     0.106 C 
ATOM      7  C   UNL d   1      -0.704  -3.707  -0.067  0.00  0.00     0.026 C 
ATOM      8  C   UNL d   1       1.419  -3.029   1.064  0.00  0.00     0.026 C 
ENDBRANCH   3   6
ENDBRANCH   1   3
BRANCH   1   9
ATOM      9  C   UNL d   1       2.582   0.052  -0.059  0.00  0.00    -0.022 C 
BRANCH   9  10
ATOM     10  N   UNL d   1       3.843   0.052  -0.059  0.00  0.00    -0.365 N 
ATOM     11  HN2 UNL d   1       2.823   0.052  -0.059  1.00  0.00     0.165 HD
ATOM     12  HN1 UNL d   1       4.863   0.052  -0.059  1.00  0.00     0.165 HD
ENDBRANCH   9  10
ENDBRANCH   1   9
BRANCH   2  13
ATOM     13  N   UNL d   1       1.045   2.195   1.052  0.00  0.00    -0.374 N 
ATOM     14  C   UNL d   1       1.963   2.103   2.202  0.00  0.00     0.123 C 
ATOM     15  C   UNL d   1       1.571   3.279   3.085  0.00  0.00     0.021 C 
ATOM     16  C   UNL d   1       1.243   4.352   2.066  0.00  0.00     0.021 C 
ATOM     17  C   UNL d   1       0.530   3.576   0.963  0.00  0.00     0.123 C 
ENDBRANCH   2  13
BRANCH   2  18
ATOM     18  S   UNL d   1      -1.384   0.959   0.723  0.00  0.00    -0.115 SA
ATOM     19  C   UNL d   1      -1.962   1.789  -0.778  0.00  0.00     0.097 C 
ENDBRANCH   2  18
TORSDOF 6
