REMARK  7 active torsions:
REMARK  status: ('A' for Active; 'I' for Inactive)
REMARK    1  A    between atoms: O_4  and  S_1 
REMARK    2  A    between atoms: C_8  and  S_1 
REMARK    3  A    between atoms: S_2  and  C_3 
REMARK    4  A    between atoms: C_13  and  S_2 
REMARK    5  A    between atoms: C_3  and  C_7 
REMARK    6  A    between atoms: N_5  and  O_4 
REMARK    7  A    between atoms: N_16  and  C_7 
ROOT
ATOM      1  N   UNL d   1       0.654   1.412  -2.123  0.00  0.00    -0.241 N 
ATOM      2  HN  UNL d   1       0.367   0.547  -1.664  1.00  0.00     0.196 HD
ATOM      3  C   UNL d   1       0.328   1.742  -3.337  0.00  0.00     0.090 C 
ENDROOT
BRANCH   3   4
ATOM      4  C   UNL d   1      -0.560   0.771  -4.081  0.00  0.00     0.217 C 
BRANCH   4   5
ATOM      5  S   UNL d   1      -2.162   1.487  -4.309  0.00  0.00     0.181 S 
ATOM      6  O   UNL d   1      -2.734   1.822  -3.019  0.00  0.00    -0.222 OA
ATOM      7  O   UNL d   1      -2.040   2.504  -5.342  0.00  0.00    -0.222 OA
BRANCH   5   8
ATOM      8  C   UNL d   1      -3.144   0.158  -4.975  0.00  0.00     0.059 A 
ATOM      9  C   UNL d   1      -3.802  -0.711  -4.097  0.00  0.00     0.023 A 
ATOM     10  C   UNL d   1      -4.641  -1.702  -4.609  0.00  0.00     0.002 A 
ATOM     11  C   UNL d   1      -4.827  -1.817  -5.987  0.00  0.00     0.000 A 
ATOM     12  C   UNL d   1      -4.173  -0.945  -6.859  0.00  0.00     0.002 A 
ATOM     13  C   UNL d   1      -3.331   0.050  -6.357  0.00  0.00     0.023 A 
ENDBRANCH   5   8
ENDBRANCH   4   5
ENDBRANCH   3   4
BRANCH   3  14
ATOM     14  N   UNL d   1       0.758   2.883  -3.979  0.00  0.00    -0.290 NA
ATOM     15  H   UNL d   1       0.151   3.266  -4.704  0.00  0.00     0.125 HD
ATOM     16  H   UNL d   1       1.115   3.603  -3.358  0.00  0.00     0.125 HD
ENDBRANCH   3  14
BRANCH   1  17
ATOM     17  O   UNL d   1       1.460   2.407  -1.517  0.00  0.00    -0.146 OA
BRANCH  17  18
ATOM     18  S   UNL d   1       1.479   2.381   0.133  0.00  0.00     0.318 S 
ATOM     19  O   UNL d   1       0.281   1.745   0.648  0.00  0.00    -0.191 OA
ATOM     20  O   UNL d   1       1.849   3.711   0.589  0.00  0.00    -0.191 OA
BRANCH  18  21
ATOM     21  C   UNL d   1       2.851   1.304   0.538  0.00  0.00     0.088 A 
ATOM     22  C   UNL d   1       4.109   1.859   0.805  0.00  0.00     0.027 A 
ATOM     23  C   UNL d   1       5.156   1.029   1.211  0.00  0.00     0.025 A 
ATOM     24  C   UNL d   1       4.939  -0.343   1.354  0.00  0.00     0.034 A 
ATOM     25  C   UNL d   1       3.682  -0.894   1.090  0.00  0.00     0.025 A 
ATOM     26 CL   UNL d   1       6.226  -1.359   1.875  0.00  0.00    -0.084 Cl
ATOM     27  C   UNL d   1       2.632  -0.069   0.683  0.00  0.00     0.027 A 
ENDBRANCH  18  21
ENDBRANCH  17  18
ENDBRANCH   1  17
TORSDOF 7
