REMARK  5 active torsions:
REMARK  status: ('A' for Active; 'I' for Inactive)
REMARK    1  A    between atoms: C_2  and  C_1 
REMARK    2  A    between atoms: C_6  and  O_16 
REMARK       I    between atoms: N_13  and  C_6 
REMARK    3  A    between atoms: C_14  and  C_7 
REMARK    4  A    between atoms: O_16  and  N_10 
REMARK    5  A    between atoms: C_20  and  N_13 
ROOT
ATOM      1  N   UNL d   1      -0.098  -3.438  -0.445  0.00  0.00    -0.265 N 
ATOM      2  HN  UNL d   1       0.868  -3.420  -0.772  1.00  0.00     0.194 HD
ATOM      3  C   UNL d   1      -0.833  -2.393  -0.204  0.00  0.00     0.151 C 
ENDROOT
BRANCH   3   4
ATOM      4  C   UNL d   1      -0.254  -1.082  -0.310  0.00  0.00     0.093 A 
ATOM      5  O   UNL d   1      -1.027   0.037  -0.123  0.00  0.00    -0.308 OA
ATOM      6  C   UNL d   1      -0.191   1.122  -0.214  0.00  0.00     0.089 A 
ATOM      7  C   UNL d   1       1.095   0.695  -0.477  0.00  0.00     0.041 A 
ATOM      8  C   UNL d   1       1.051  -0.710  -0.551  0.00  0.00     0.041 A 
BRANCH   6   9
ATOM      9  C   UNL d   1      -0.757   2.454  -0.019  0.00  0.00     0.036 A 
ATOM     10  C   UNL d   1       0.043   3.485   0.506  0.00  0.00     0.132 A 
ATOM     11  C   UNL d   1      -0.420   4.792   0.625  0.00  0.00     0.085 A 
ATOM     12  F   UNL d   1       1.300   3.233   0.907  0.00  0.00    -0.205 F 
ATOM     13  C   UNL d   1      -1.709   5.083   0.211  0.00  0.00     0.119 A 
ATOM     14  C   UNL d   1      -2.537   4.088  -0.299  0.00  0.00     0.043 A 
ATOM     15  F   UNL d   1      -2.158   6.342   0.296  0.00  0.00    -0.206 F 
ATOM     16  C   UNL d   1      -2.066   2.772  -0.409  0.00  0.00     0.020 A 
ENDBRANCH   6   9
ENDBRANCH   3   4
BRANCH   1  17
ATOM     17  O   UNL d   1      -0.854  -4.603  -0.180  0.00  0.00    -0.181 OA
BRANCH  17  18
ATOM     18  C   UNL d   1      -0.120  -5.771  -0.350  0.00  0.00     0.387 C 
ATOM     19  N   UNL d   1       1.091  -5.585  -0.979  0.00  0.00    -0.301 N 
ATOM     20  H   UNL d   1       1.258  -4.612  -1.208  0.00  0.00     0.171 HD
ATOM     21  O   UNL d   1      -0.589  -6.839   0.030  0.00  0.00    -0.236 OA
BRANCH  19  22
ATOM     22  C   UNL d   1       2.058  -6.549  -1.326  0.00  0.00     0.036 A 
ATOM     23  C   UNL d   1       1.937  -7.909  -1.025  0.00  0.00     0.029 A 
ATOM     24  C   UNL d   1       2.938  -8.816  -1.394  0.00  0.00     0.002 A 
ATOM     25  C   UNL d   1       4.070  -8.372  -2.072  0.00  0.00     0.000 A 
ATOM     26  C   UNL d   1       4.200  -7.021  -2.382  0.00  0.00     0.002 A 
ATOM     27  C   UNL d   1       3.200  -6.115  -2.011  0.00  0.00     0.029 A 
ENDBRANCH  19  22
ENDBRANCH  17  18
ENDBRANCH   1  17
TORSDOF 5
