REMARK  7 active torsions:
REMARK  status: ('A' for Active; 'I' for Inactive)
REMARK    1  A    between atoms: C_2  and  S_1 
REMARK    2  A    between atoms: C_11  and  S_1 
REMARK    3  A    between atoms: C_3  and  C_2 
REMARK    4  A    between atoms: N_13  and  C_3 
REMARK    5  A    between atoms: C_4  and  O_10 
REMARK       I    between atoms: N_9  and  C_4 
REMARK    6  A    between atoms: O_10  and  N_5 
REMARK    7  A    between atoms: C_14  and  N_9 
ROOT
ATOM      1  C   UNL d   1       0.872  -0.364   2.410  0.00  0.00     0.089 C 
ATOM      2  N   UNL d   1       1.918  -1.132   2.447  0.00  0.00    -0.248 N 
ATOM      3  HN  UNL d   1       2.465  -1.308   3.289  1.00  0.00     0.196 HD
ENDROOT
BRANCH   2   4
ATOM      4  O   UNL d   1       2.210  -1.698   1.182  0.00  0.00    -0.180 OA
BRANCH   4   5
ATOM      5  C   UNL d   1       3.562  -1.657   0.979  0.00  0.00     0.387 C 
ATOM      6  N   UNL d   1       4.149  -2.795   0.472  0.00  0.00    -0.301 N 
ATOM      7  H   UNL d   1       5.149  -2.658   0.396  0.00  0.00     0.171 HD
ATOM      8  O   UNL d   1       4.258  -0.673   1.222  0.00  0.00    -0.236 OA
BRANCH   6   9
ATOM      9  C   UNL d   1       3.670  -4.096   0.244  0.00  0.00     0.037 A 
ATOM     10  C   UNL d   1       2.329  -4.484   0.290  0.00  0.00     0.031 A 
ATOM     11  C   UNL d   1       1.972  -5.826   0.082  0.00  0.00     0.026 A 
ATOM     12  C   UNL d   1       2.951  -6.783  -0.166  0.00  0.00     0.034 A 
ATOM     13  C   UNL d   1       4.289  -6.411  -0.224  0.00  0.00     0.026 A 
ATOM     14 CL   UNL d   1       2.510  -8.430  -0.397  0.00  0.00    -0.084 Cl
ATOM     15  C   UNL d   1       4.642  -5.072  -0.029  0.00  0.00     0.031 A 
ENDBRANCH   6   9
ENDBRANCH   4   5
ENDBRANCH   2   4
BRANCH   1  16
ATOM     16  C   UNL d   1       0.324   0.057   3.753  0.00  0.00     0.212 C 
BRANCH  16  17
ATOM     17  S   UNL d   1       0.126   1.805   3.939  0.00  0.00     0.154 S 
ATOM     18  O   UNL d   1      -0.557   2.012   5.204  0.00  0.00    -0.227 OA
ATOM     19  O   UNL d   1      -0.472   2.305   2.711  0.00  0.00    -0.227 OA
BRANCH  17  20
ATOM     20  C   UNL d   1       1.773   2.528   4.082  0.00  0.00     0.100 C 
ATOM     21  C   UNL d   1       1.635   4.022   4.388  0.00  0.00     0.026 C 
ATOM     22  C   UNL d   1       2.617   1.852   5.155  0.00  0.00     0.026 C 
ENDBRANCH  17  20
ENDBRANCH  16  17
ENDBRANCH   1  16
BRANCH   1  23
ATOM     23  N   UNL d   1       0.213   0.007   1.262  0.00  0.00    -0.290 NA
ATOM     24  H   UNL d   1      -0.310   0.888   1.310  0.00  0.00     0.125 HD
ATOM     25  H   UNL d   1       0.772  -0.061   0.417  0.00  0.00     0.125 HD
ENDBRANCH   1  23
TORSDOF 7
