REMARK  7 active torsions:
REMARK  status: ('A' for Active; 'I' for Inactive)
REMARK    1  A    between atoms: C_6  and  C_1 
REMARK    2  A    between atoms: C_9  and  C_3 
REMARK    3  A    between atoms: S_10  and  C_5 
REMARK    4  A    between atoms: O_14  and  C_6 
REMARK    5  A    between atoms: C_19  and  S_10 
REMARK    6  A    between atoms: C_20  and  C_19 
REMARK    7  A    between atoms: C_21  and  C_20 
ROOT
ATOM      1  C   UNL d   1       1.307  -1.212   0.054  0.00  0.00     0.092 A 
ATOM      2  C   UNL d   1      -0.730  -0.060  -0.044  0.00  0.00     0.081 A 
ATOM      3  C   UNL d   1      -0.080  -1.361   0.018  0.00  0.00     0.021 A 
ATOM      4  S   UNL d   1       1.769   0.443   0.029  0.00  0.00    -0.074 SA
ATOM      5  C   UNL d   1       0.159   0.994  -0.004  0.00  0.00     0.063 A 
ATOM      6  C   UNL d   1      -2.145   0.143  -0.146  0.00  0.00     0.102 C 
ATOM      7  N   UNL d   1      -3.295   0.310  -0.186  0.00  0.00    -0.191 NA
ENDROOT
BRANCH   3   8
ATOM      8  C   UNL d   1      -0.755  -2.675   0.013  0.00  0.00    -0.023 A 
ATOM      9  C   UNL d   1      -0.288  -3.743  -0.770  0.00  0.00     0.014 A 
ATOM     10  C   UNL d   1      -0.927  -4.990  -0.749  0.00  0.00     0.024 A 
ATOM     11  C   UNL d   1      -2.074  -5.168   0.018  0.00  0.00     0.034 A 
ATOM     12  C   UNL d   1      -2.574  -4.115   0.775  0.00  0.00     0.024 A 
ATOM     13 CL   UNL d   1      -2.868  -6.694   0.036  0.00  0.00    -0.084 Cl
ATOM     14  C   UNL d   1      -1.910  -2.883   0.785  0.00  0.00     0.014 A 
ENDBRANCH   3   8
BRANCH   5  15
ATOM     15  S   UNL d   1      -0.168   2.728  -0.079  0.00  0.00    -0.121 SA
BRANCH  15  16
ATOM     16  C   UNL d   1      -1.024   3.026   1.502  0.00  0.00     0.080 C 
BRANCH  16  17
ATOM     17  C   UNL d   1      -1.336   4.518   1.655  0.00  0.00     0.010 C 
BRANCH  17  18
ATOM     18  C   UNL d   1      -2.116   4.792   2.944  0.00  0.00    -0.004 C 
ATOM     19  C   UNL d   1      -2.438   6.270   3.107  0.00  0.00     0.005 C 
ENDBRANCH  17  18
ENDBRANCH  16  17
ENDBRANCH  15  16
ENDBRANCH   5  15
BRANCH   1  20
ATOM     20  C   UNL d   1       2.362  -2.214   0.153  0.00  0.00     0.184 C 
ATOM     21  O   UNL d   1       2.276  -3.300   0.704  0.00  0.00    -0.646 OA
BRANCH  20  22
ATOM     22  O   UNL d   1       3.496  -1.842  -0.500  0.00  0.00    -0.772 OA
ATOM     23  H   UNL d   1       3.428  -0.954  -0.896  0.00  0.00     0.167 HD
ENDBRANCH  20  22
ENDBRANCH   1  20
TORSDOF 7
