REMARK  6 active torsions:
REMARK  status: ('A' for Active; 'I' for Inactive)
REMARK    1  A    between atoms: C_2  and  S_1 
REMARK    2  A    between atoms: C_5  and  S_1 
REMARK    3  A    between atoms: C_11  and  C_2 
REMARK    4  A    between atoms: N_3  and  C_11 
REMARK       I    between atoms: C_4  and  N_3 
REMARK    5  A    between atoms: C_10  and  N_3 
REMARK    6  A    between atoms: C_6  and  C_10 
ROOT
ATOM      1  C   UNL d   1       0.481  -0.755  -1.298  0.00  0.00     0.165 C 
ENDROOT
BRANCH   1   2
ATOM      2  S   UNL d   1       1.147   0.199   0.046  0.00  0.00     0.177 S 
ATOM      3  O   UNL d   1       2.558   0.393  -0.210  0.00  0.00    -0.223 OA
ATOM      4  O   UNL d   1       0.691  -0.383   1.296  0.00  0.00    -0.223 OA
BRANCH   2   5
ATOM      5  C   UNL d   1       0.361   1.798  -0.067  0.00  0.00     0.059 A 
ATOM      6  C   UNL d   1      -1.035   1.889  -0.053  0.00  0.00     0.025 A 
ATOM      7  C   UNL d   1      -1.641   3.144  -0.153  0.00  0.00     0.025 A 
ATOM      8  C   UNL d   1      -0.853   4.292  -0.254  0.00  0.00     0.034 A 
ATOM      9  C   UNL d   1       0.539   4.198  -0.257  0.00  0.00     0.025 A 
ATOM     10 CL   UNL d   1      -1.603   5.836  -0.368  0.00  0.00    -0.084 Cl
ATOM     11  C   UNL d   1       1.152   2.947  -0.163  0.00  0.00     0.025 A 
ENDBRANCH   2   5
ENDBRANCH   1   2
BRANCH   1  12
ATOM     12  C   UNL d   1       0.756  -0.110  -2.654  0.00  0.00     0.141 C 
BRANCH  12  13
ATOM     13  N   UNL d   1       0.228  -0.765  -3.874  0.00  0.00    -0.347 N 
ATOM     14  C   UNL d   1      -0.905  -1.578  -3.821  0.00  0.00     0.216 C 
ATOM     15  O   UNL d   1      -1.525  -1.809  -2.784  0.00  0.00    -0.274 OA
ATOM     16  C   UNL d   1      -1.392  -2.203  -5.106  0.00  0.00     0.117 C 
BRANCH  13  17
ATOM     17  C   UNL d   1       0.617  -0.120  -5.138  0.00  0.00     0.171 C 
BRANCH  17  18
ATOM     18  C   UNL d   1       1.886  -0.651  -5.735  0.00  0.00     0.000 A 
ATOM     19  S   UNL d   1       2.390   0.030  -7.238  0.00  0.00    -0.105 SA
ATOM     20  C   UNL d   1       3.756  -0.986  -7.326  0.00  0.00     0.050 A 
ATOM     21  C   UNL d   1       3.850  -1.816  -6.233  0.00  0.00     0.008 A 
ATOM     22  C   UNL d   1       2.775  -1.621  -5.312  0.00  0.00     0.017 A 
ENDBRANCH  17  18
ENDBRANCH  13  17
ENDBRANCH  12  13
ENDBRANCH   1  12
TORSDOF 6
