REMARK  5 active torsions:
REMARK  status: ('A' for Active; 'I' for Inactive)
REMARK    1  A    between atoms: C_12  and  N_2 
REMARK       I    between atoms: C_3  and  N_10 
REMARK       I    between atoms: N_4  and  C_3 
REMARK    2  A    between atoms: C_6  and  N_4 
REMARK    3  A    between atoms: O_15  and  C_9 
REMARK    4  A    between atoms: N_10  and  C_14 
REMARK    5  A    between atoms: C_14  and  C_12 
ROOT
ATOM      1  C   UNL d   1      -3.706  -4.009  -0.467  0.00  0.00     0.320 C 
ATOM      2  N   UNL d   1      -4.382  -3.002  -1.121  0.00  0.00    -0.306 N 
ATOM      3  O   UNL d   1      -4.186  -5.041  -0.020  0.00  0.00    -0.247 OA
ATOM      4  N   UNL d   1      -2.361  -3.714  -0.375  0.00  0.00    -0.341 N 
ATOM      5  H   UNL d   1      -3.811  -2.383  -1.670  0.00  0.00     0.171 HD
ATOM      6  H   UNL d   1      -2.028  -3.012  -1.026  0.00  0.00     0.164 HD
ENDROOT
BRANCH   4   7
ATOM      7  C   UNL d   1      -1.386  -4.728  -0.012  0.00  0.00     0.144 C 
BRANCH   7   8
ATOM      8  C   UNL d   1      -0.767  -5.390  -1.253  0.00  0.00     0.147 C 
BRANCH   8   9
ATOM      9  N   UNL d   1       0.128  -4.515  -2.005  0.00  0.00    -0.331 N 
ATOM     10  C   UNL d   1      -0.264  -3.396  -2.731  0.00  0.00     0.318 C 
ATOM     11  N   UNL d   1       0.882  -2.777  -3.202  0.00  0.00    -0.341 N 
ATOM     12  O   UNL d   1      -1.396  -2.982  -2.902  0.00  0.00    -0.247 OA
ATOM     13  C   UNL d   1       2.044  -3.581  -2.936  0.00  0.00     0.144 C 
ATOM     14  H   UNL d   1       0.814  -2.030  -3.880  0.00  0.00     0.164 HD
ATOM     15  C   UNL d   1       1.570  -4.533  -1.843  0.00  0.00     0.147 C 
ENDBRANCH   8   9
ENDBRANCH   7   8
ENDBRANCH   4   7
BRANCH   2  16
ATOM     16  C   UNL d   1      -5.778  -2.920  -1.315  0.00  0.00     0.069 A 
ATOM     17  C   UNL d   1      -6.330  -2.207  -2.396  0.00  0.00     0.095 A 
ATOM     18  C   UNL d   1      -7.723  -2.046  -2.476  0.00  0.00     0.039 A 
ATOM     19  C   UNL d   1      -8.569  -2.582  -1.505  0.00  0.00     0.003 A 
ATOM     20  C   UNL d   1      -8.028  -3.291  -0.441  0.00  0.00     0.002 A 
ATOM     21  C   UNL d   1      -6.645  -3.466  -0.354  0.00  0.00     0.032 A 
BRANCH  17  22
ATOM     22  O   UNL d   1      -5.668  -1.569  -3.413  0.00  0.00    -0.354 OA
ATOM     23  C   UNL d   1      -4.489  -2.165  -3.940  0.00  0.00     0.210 C 
ENDBRANCH  17  22
ENDBRANCH   2  16
TORSDOF 5
