REMARK  4 active torsions:
REMARK  status: ('A' for Active; 'I' for Inactive)
REMARK    1  A    between atoms: N_14  and  C_3 
REMARK    2  A    between atoms: C_12  and  C_10 
REMARK    3  A    between atoms: C_13  and  C_11 
REMARK    4  A    between atoms: N_18  and  N_14 
ROOT
ATOM      1  N   UNL d   1       0.255   0.610  -0.036  0.00  0.00    -0.222 N 
ATOM      2  C   UNL d   1       0.122  -0.774   0.051  0.00  0.00     0.131 A 
ATOM      3  C   UNL d   1      -0.887   1.450  -0.076  0.00  0.00     0.141 A 
ATOM      4  N   UNL d   1       1.567   0.986  -0.070  0.00  0.00    -0.294 N 
ATOM      5  HN  UNL d   1       1.940   1.934  -0.117  1.00  0.00     0.187 HD
ATOM      6  N   UNL d   1      -1.089  -1.399   0.113  0.00  0.00    -0.337 N 
ATOM      7  HN  UNL d   1      -1.163  -2.414   0.180  1.00  0.00     0.167 HD
ATOM      8  C   UNL d   1       1.399  -1.280   0.051  0.00  0.00     0.077 A 
ATOM      9  C   UNL d   1      -2.099   0.865  -0.023  0.00  0.00     0.085 A 
ATOM     10  C   UNL d   1      -2.151  -0.633   0.081  0.00  0.00     0.121 A 
ATOM     11  C   UNL d   1       2.261  -0.161  -0.027  0.00  0.00     0.037 A 
ENDROOT
BRANCH   3  12
ATOM     12  N   UNL d   1      -0.651   2.820  -0.210  0.00  0.00    -0.308 N 
ATOM     13  H   UNL d   1       0.359   3.023  -0.125  0.00  0.00     0.182 HD
BRANCH  12  14
ATOM     14  N   UNL d   1      -1.520   3.782   0.333  0.00  0.00    -0.248 NA
ATOM     15  H   UNL d   1      -2.445   3.416   0.554  0.00  0.00     0.143 HD
ATOM     16  H   UNL d   1      -1.678   4.527  -0.352  0.00  0.00     0.143 HD
ENDBRANCH  12  14
ENDBRANCH   3  12
BRANCH  10  17
ATOM     17  C   UNL d   1      -3.542  -1.269   0.143  0.00  0.00     0.432 C 
ATOM     18  F   UNL d   1      -4.545  -0.345   0.109  0.00  0.00    -0.165 F 
ATOM     19  F   UNL d   1      -3.772  -2.111  -0.901  0.00  0.00    -0.165 F 
ATOM     20  F   UNL d   1      -3.732  -1.990   1.280  0.00  0.00    -0.165 F 
ENDBRANCH  10  17
BRANCH  11  21
ATOM     21  C   UNL d   1       3.784  -0.165  -0.025  0.00  0.00    -0.007 C 
ATOM     22  C   UNL d   1       4.301  -0.167   1.427  0.00  0.00     0.021 C 
ATOM     23  C   UNL d   1       4.333  -1.418  -0.741  0.00  0.00     0.021 C 
ATOM     24  C   UNL d   1       4.361   1.071  -0.749  0.00  0.00     0.021 C 
ENDBRANCH  11  21
TORSDOF 4
