REMARK  3 active torsions:
REMARK  status: ('A' for Active; 'I' for Inactive)
REMARK    1  A    between atoms: C_6  and  C_1 
REMARK    2  A    between atoms: C_5  and  C_2 
REMARK    3  A    between atoms: C_12  and  C_6 
ROOT
ATOM      1  C   UNL d   1       0.012  -1.208  -0.048  0.00  0.00     0.076 A 
ATOM      2  C   UNL d   1      -1.323  -0.781   0.241  0.00  0.00     0.085 A 
ATOM      3  N   UNL d   1      -1.320   0.509   0.618  0.00  0.00    -0.259 N 
ATOM      4  HN  UNL d   1      -2.119   1.046   0.953  1.00  0.00     0.195 HD
ATOM      5  O   UNL d   1      -0.034   0.964   0.463  0.00  0.00    -0.241 OA
ATOM      6  C   UNL d   1       0.761  -0.050   0.042  0.00  0.00     0.089 A 
ATOM      7  C   UNL d   1       2.171   0.311  -0.213  0.00  0.00     0.080 C 
ENDROOT
BRANCH   1   8
ATOM      8  C   UNL d   1       0.493  -2.528  -0.419  0.00  0.00     0.197 C 
ATOM      9  O   UNL d   1      -0.112  -3.221  -1.228  0.00  0.00    -0.286 OA
BRANCH   8  10
ATOM     10  C   UNL d   1       1.734  -3.062   0.230  0.00  0.00     0.015 A 
ATOM     11  C   UNL d   1       2.436  -4.093  -0.409  0.00  0.00     0.015 A 
ATOM     12  C   UNL d   1       3.610  -4.603   0.154  0.00  0.00     0.001 A 
ATOM     13  C   UNL d   1       4.088  -4.092   1.359  0.00  0.00     0.000 A 
ATOM     14  C   UNL d   1       3.383  -3.089   2.018  0.00  0.00     0.001 A 
ATOM     15  C   UNL d   1       2.201  -2.587   1.467  0.00  0.00     0.015 A 
ENDBRANCH   8  10
ENDBRANCH   1   8
BRANCH   2  16
ATOM     16  C   UNL d   1      -2.585  -1.531   0.214  0.00  0.00     0.037 A 
ATOM     17  C   UNL d   1      -2.759  -2.723   0.944  0.00  0.00     0.048 A 
ATOM     18 CL   UNL d   1      -1.547  -3.374   1.998  0.00  0.00    -0.083 Cl
ATOM     19  C   UNL d   1      -3.975  -3.424   0.905  0.00  0.00     0.025 A 
ATOM     20  C   UNL d   1      -5.053  -2.930   0.178  0.00  0.00     0.003 A 
ATOM     21  C   UNL d   1      -4.915  -1.740  -0.525  0.00  0.00     0.025 A 
ATOM     22  C   UNL d   1      -3.692  -1.053  -0.524  0.00  0.00     0.048 A 
ATOM     23 CL   UNL d   1      -3.637   0.384  -1.497  0.00  0.00    -0.083 Cl
ENDBRANCH   2  16
TORSDOF 3
