REMARK  7 active torsions:
REMARK  status: ('A' for Active; 'I' for Inactive)
REMARK    1  A    between atoms: C_8  and  C_1 
REMARK    2  A    between atoms: S_3  and  C_10 
REMARK    3  A    between atoms: C_9  and  S_3 
REMARK    4  A    between atoms: S_13  and  C_4 
REMARK    5  A    between atoms: O_19  and  C_8 
REMARK    6  A    between atoms: C_10  and  C_17 
REMARK    7  A    between atoms: C_17  and  S_13 
ROOT
ATOM      1  S   UNL d   1       0.294   2.738  -0.278  0.00  0.00    -0.093 SA
ENDROOT
BRANCH   1   2
ATOM      2  C   UNL d   1       0.110   1.015  -0.196  0.00  0.00     0.146 A 
ATOM      3  N   UNL d   1      -1.108   0.376  -0.278  0.00  0.00    -0.326 N 
ATOM      4  C   UNL d   1      -0.862  -0.988  -0.236  0.00  0.00     0.127 A 
ATOM      5  C   UNL d   1      -2.389   1.038  -0.385  0.00  0.00     0.159 C 
ATOM      6  C   UNL d   1       0.513  -1.065  -0.093  0.00  0.00     0.126 A 
ATOM      7  N   UNL d   1       1.102   0.168  -0.075  0.00  0.00    -0.344 N 
ATOM      8  HN  UNL d   1       2.095   0.382   0.014  1.00  0.00     0.167 HD
BRANCH   4   9
ATOM      9  C   UNL d   1      -1.809  -2.074  -0.325  0.00  0.00     0.311 C 
ATOM     10  O   UNL d   1      -3.022  -1.970  -0.455  0.00  0.00    -0.258 OA
BRANCH   9  11
ATOM     11  O   UNL d   1      -1.140  -3.262  -0.258  0.00  0.00    -0.321 OA
ATOM     12  C   UNL d   1      -1.965  -4.424  -0.356  0.00  0.00     0.213 C 
ENDBRANCH   9  11
ENDBRANCH   4   9
ENDBRANCH   1   2
BRANCH   1  13
ATOM     13  C   UNL d   1       2.065   2.919   0.133  0.00  0.00     0.097 C 
BRANCH  13  14
ATOM     14  C   UNL d   1       2.527   4.370   0.189  0.00  0.00     0.156 C 
BRANCH  14  15
ATOM     15  S   UNL d   1       1.951   5.221   1.644  0.00  0.00     0.176 S 
ATOM     16  O   UNL d   1       0.520   5.429   1.556  0.00  0.00    -0.223 OA
ATOM     17  O   UNL d   1       2.538   4.580   2.806  0.00  0.00    -0.223 OA
BRANCH  15  18
ATOM     18  C   UNL d   1       2.696   6.839   1.510  0.00  0.00     0.059 A 
ATOM     19  C   UNL d   1       2.047   7.829   0.769  0.00  0.00     0.024 A 
ATOM     20  C   UNL d   1       2.592   9.113   0.708  0.00  0.00     0.008 A 
ATOM     21  C   UNL d   1       3.777   9.417   1.392  0.00  0.00    -0.062 A 
ATOM     22  C   UNL d   1       4.407   8.418   2.147  0.00  0.00     0.008 A 
ATOM     23  C   UNL d   1       4.349  10.803   1.312  0.00  0.00     0.048 C 
ATOM     24  C   UNL d   1       3.868   7.130   2.213  0.00  0.00     0.024 A 
ENDBRANCH  15  18
ENDBRANCH  14  15
ENDBRANCH  13  14
ENDBRANCH   1  13
TORSDOF 7
