REMARK  8 active torsions:
REMARK  status: ('A' for Active; 'I' for Inactive)
REMARK    1  A    between atoms: O_2  and  S_1 
REMARK    2  A    between atoms: C_3  and  S_1 
REMARK    3  A    between atoms: C_11  and  O_2 
REMARK    4  A    between atoms: C_10  and  N_12 
REMARK    5  A    between atoms: C_15  and  C_11 
REMARK    6  A    between atoms: N_12  and  C_16 
REMARK    7  A    between atoms: C_16  and  C_15 
REMARK    8  A    between atoms: O_20  and  C_15 
ROOT
ATOM      1  C   UNL d   1       0.233  -3.444  -1.771  0.00  0.00     0.171 C 
ENDROOT
BRANCH   1   2
ATOM      2  C   UNL d   1       0.783  -2.024  -1.612  0.00  0.00     0.223 C 
BRANCH   2   3
ATOM      3  O   UNL d   1       0.329  -1.377  -0.431  0.00  0.00    -0.269 OA
BRANCH   3   4
ATOM      4  S   UNL d   1       0.932   0.123  -0.183  0.00  0.00     0.298 S 
ATOM      5  O   UNL d   1       0.408   0.967  -1.238  0.00  0.00    -0.193 OA
ATOM      6  O   UNL d   1       2.359   0.005   0.047  0.00  0.00    -0.193 OA
BRANCH   4   7
ATOM      7  C   UNL d   1       0.218   0.683   1.340  0.00  0.00     0.086 A 
ATOM      8  C   UNL d   1      -0.085  -0.229   2.351  0.00  0.00     0.026 A 
ATOM      9  C   UNL d   1      -0.654   0.236   3.539  0.00  0.00     0.008 A 
ATOM     10  C   UNL d   1      -0.924   1.601   3.718  0.00  0.00    -0.062 A 
ATOM     11  C   UNL d   1      -0.611   2.504   2.693  0.00  0.00     0.008 A 
ATOM     12  C   UNL d   1      -1.543   2.079   4.999  0.00  0.00     0.048 C 
ATOM     13  C   UNL d   1      -0.043   2.047   1.503  0.00  0.00     0.026 A 
ENDBRANCH   4   7
ENDBRANCH   3   4
ENDBRANCH   2   3
ENDBRANCH   1   2
BRANCH   1  14
ATOM     14  C   UNL d   1      -1.312  -3.528  -1.873  0.00  0.00     0.303 C 
BRANCH  14  15
ATOM     15  N   UNL d   1      -1.664  -4.934  -2.073  0.00  0.00     0.091 N 
ATOM     16  H   UNL d   1      -1.151  -5.307  -2.874  0.00  0.00     0.316 HD
BRANCH  15  17
ATOM     17  C   UNL d   1      -3.081  -5.278  -2.120  0.00  0.00     0.229 C 
ATOM     18  C   UNL d   1      -3.966  -4.674  -3.245  0.00  0.00     0.075 C 
ATOM     19  C   UNL d   1      -5.031  -5.730  -3.387  0.00  0.00    -0.050 A 
ATOM     20  C   UNL d   1      -6.276  -5.638  -3.988  0.00  0.00     0.007 A 
ATOM     21  C   UNL d   1      -4.593  -6.943  -2.848  0.00  0.00    -0.050 A 
ATOM     22  C   UNL d   1      -7.081  -6.786  -4.033  0.00  0.00     0.001 A 
ATOM     23  C   UNL d   1      -6.631  -8.002  -3.498  0.00  0.00     0.001 A 
ATOM     24  C   UNL d   1      -5.372  -8.091  -2.905  0.00  0.00     0.007 A 
ATOM     25  C   UNL d   1      -3.212  -6.815  -2.292  0.00  0.00     0.075 C 
ENDBRANCH  15  17
ENDBRANCH  14  15
ENDBRANCH   1  14
BRANCH   1  26
ATOM     26  O   UNL d   1       0.821  -4.024  -2.952  0.00  0.00    -0.392 OA
ATOM     27  H   UNL d   1       0.510  -3.515  -3.720  0.00  0.00     0.210 HD
ENDBRANCH   1  26
TORSDOF 8
