REMARK  5 active torsions:
REMARK  status: ('A' for Active; 'I' for Inactive)
REMARK    1  A    between atoms: C_4  and  C_1 
REMARK    2  A    between atoms: S_6  and  C_2 
REMARK       I    between atoms: C_3  and  N_5 
REMARK    3  A    between atoms: C_7  and  C_3 
REMARK    4  A    between atoms: N_5  and  C_4 
REMARK    5  A    between atoms: C_10  and  S_6 
ROOT
ATOM      1  C   UNL d   1       0.221   1.126  -0.102  0.00  0.00    -0.002 A 
ATOM      2  C   UNL d   1       1.635   1.237  -0.084  0.00  0.00     0.015 A 
ATOM      3  C   UNL d   1      -0.337  -0.170  -0.101  0.00  0.00     0.043 A 
ATOM      4 CL   UNL d   1      -2.047  -0.437  -0.161  0.00  0.00    -0.084 Cl
ATOM      5  C   UNL d   1       2.431   0.079  -0.026  0.00  0.00     0.019 A 
ATOM      6  C   UNL d   1       1.854  -1.189  -0.010  0.00  0.00     0.003 A 
ATOM      7  C   UNL d   1       0.471  -1.311  -0.050  0.00  0.00     0.024 A 
ENDROOT
BRANCH   1   8
ATOM      8  C   UNL d   1      -0.669   2.349  -0.110  0.00  0.00     0.164 C 
BRANCH   8   9
ATOM      9  N   UNL d   1      -0.987   2.799  -1.452  0.00  0.00    -0.356 N 
ATOM     10  C   UNL d   1      -1.389   4.101  -1.668  0.00  0.00     0.225 C 
ATOM     11  O   UNL d   1      -1.434   4.924  -0.757  0.00  0.00    -0.273 OA
ATOM     12  H   UNL d   1      -1.238   2.096  -2.135  0.00  0.00     0.162 HD
BRANCH  10  13
ATOM     13  C   UNL d   1      -1.792   4.457  -3.116  0.00  0.00     0.030 C 
ATOM     14  C   UNL d   1      -3.082   3.721  -3.502  0.00  0.00     0.024 C 
ATOM     15  C   UNL d   1      -2.045   5.974  -3.217  0.00  0.00     0.024 C 
ATOM     16  C   UNL d   1      -0.665   4.088  -4.094  0.00  0.00     0.024 C 
ENDBRANCH  10  13
ENDBRANCH   8   9
ENDBRANCH   1   8
BRANCH   2  17
ATOM     17  S   UNL d   1       2.473   2.825  -0.028  0.00  0.00    -0.090 SA
BRANCH  17  18
ATOM     18  C   UNL d   1       3.638   2.769  -1.378  0.00  0.00     0.005 A 
ATOM     19  C   UNL d   1       3.314   2.239  -2.632  0.00  0.00     0.020 A 
ATOM     20  C   UNL d   1       4.240   2.282  -3.680  0.00  0.00     0.025 A 
ATOM     21  C   UNL d   1       5.490   2.864  -3.480  0.00  0.00     0.034 A 
ATOM     22  C   UNL d   1       5.828   3.393  -2.237  0.00  0.00     0.025 A 
ATOM     23 CL   UNL d   1       6.614   2.946  -4.779  0.00  0.00    -0.084 Cl
ATOM     24  C   UNL d   1       4.902   3.346  -1.190  0.00  0.00     0.020 A 
ENDBRANCH  17  18
ENDBRANCH   2  17
TORSDOF 5
