REMARK  4 active torsions:
REMARK  status: ('A' for Active; 'I' for Inactive)
REMARK    1  A    between atoms: C_8  and  C_1 
REMARK    2  A    between atoms: N_7  and  C_2 
REMARK    3  A    between atoms: C_10  and  C_3 
REMARK       I    between atoms: C_9  and  N_7 
REMARK       I    between atoms: N_11  and  C_9 
REMARK    4  A    between atoms: C_18  and  N_11 
ROOT
ATOM      1  C   UNL d   1       1.682   0.569   0.451  0.00  0.00     0.147 C 
ATOM      2  C   UNL d   1       0.272  -1.144   0.522  0.00  0.00     0.139 C 
ATOM      3  C   UNL d   1       1.605  -0.856   0.264  0.00  0.00     0.053 C 
ATOM      4  N   UNL d   1       0.561   1.035   1.041  0.00  0.00    -0.292 N 
ATOM      5  HN  UNL d   1       0.372   1.987   1.354  1.00  0.00     0.187 HD
ATOM      6  N   UNL d   1      -0.250  -0.029   1.124  0.00  0.00    -0.280 N 
ATOM      7  C   UNL d   1      -1.568   0.142   1.691  0.00  0.00     0.179 C 
ENDROOT
BRANCH   2   8
ATOM      8  N   UNL d   1      -0.438  -2.198  -0.014  0.00  0.00    -0.292 N 
ATOM      9  C   UNL d   1      -1.123  -3.261   0.620  0.00  0.00     0.326 C 
ATOM     10  N   UNL d   1      -1.044  -3.305   1.977  0.00  0.00    -0.309 N 
ATOM     11  O   UNL d   1      -1.655  -4.035  -0.157  0.00  0.00    -0.247 OA
ATOM     12  H   UNL d   1      -0.646  -2.521   2.469  0.00  0.00     0.170 HD
ATOM     13  H   UNL d   1      -0.399  -2.309  -1.021  0.00  0.00     0.172 HD
BRANCH  10  14
ATOM     14  C   UNL d   1      -1.385  -4.425   2.771  0.00  0.00     0.036 A 
ATOM     15  C   UNL d   1      -1.647  -5.696   2.237  0.00  0.00     0.032 A 
ATOM     16  C   UNL d   1      -1.865  -6.789   3.080  0.00  0.00     0.044 A 
ATOM     17  C   UNL d   1      -1.842  -6.610   4.455  0.00  0.00     0.116 A 
ATOM     18  C   UNL d   1      -1.617  -5.354   5.002  0.00  0.00     0.044 A 
ATOM     19  F   UNL d   1      -2.029  -7.662   5.261  0.00  0.00    -0.206 F 
ATOM     20  C   UNL d   1      -1.382  -4.262   4.162  0.00  0.00     0.032 A 
ENDBRANCH  10  14
ENDBRANCH   2   8
BRANCH   3  21
ATOM     21  C   UNL d   1       2.658  -1.837  -0.035  0.00  0.00    -0.020 A 
ATOM     22  C   UNL d   1       2.419  -3.057  -0.686  0.00  0.00     0.015 A 
ATOM     23  C   UNL d   1       3.428  -4.023  -0.808  0.00  0.00     0.043 A 
ATOM     24  C   UNL d   1       4.693  -3.770  -0.302  0.00  0.00     0.116 A 
ATOM     25  C   UNL d   1       4.971  -2.566   0.324  0.00  0.00     0.043 A 
ATOM     26  F   UNL d   1       5.648  -4.701  -0.407  0.00  0.00    -0.206 F 
ATOM     27  C   UNL d   1       3.956  -1.613   0.468  0.00  0.00     0.015 A 
ENDBRANCH   3  21
BRANCH   1  28
ATOM     28  C   UNL d   1       2.799   1.511   0.053  0.00  0.00     0.434 C 
ATOM     29  F   UNL d   1       3.644   0.952  -0.855  0.00  0.00    -0.165 F 
ATOM     30  F   UNL d   1       2.330   2.648  -0.525  0.00  0.00    -0.165 F 
ATOM     31  F   UNL d   1       3.557   1.880   1.116  0.00  0.00    -0.165 F 
ENDBRANCH   1  28
TORSDOF 4
