REMARK  3 active torsions:
REMARK  status: ('A' for Active; 'I' for Inactive)
REMARK    1  A    between atoms: S_4  and  C_1 
REMARK    2  A    between atoms: C_6  and  C_2 
REMARK       I    between atoms: N_8  and  C_6 
REMARK    3  A    between atoms: C_12  and  N_8 
ROOT
ATOM      1  C   UNL d   1      -0.047   2.470   0.198  0.00  0.00     0.264 C 
ATOM      2  N   UNL d   1       1.056   3.284  -0.033  0.00  0.00    -0.322 N 
ATOM      3  O   UNL d   1      -1.188   2.905   0.326  0.00  0.00    -0.267 OA
ATOM      4  H   UNL d   1       1.930   2.812  -0.230  0.00  0.00     0.169 HD
ENDROOT
BRANCH   1   5
ATOM      5  C   UNL d   1       0.216   1.032   0.250  0.00  0.00     0.096 A 
ATOM      6  C   UNL d   1      -0.587   0.049   0.815  0.00  0.00     0.078 A 
ATOM      7  C   UNL d   1      -0.060  -1.263   0.607  0.00  0.00     0.088 A 
ATOM      8 CL   UNL d   1      -2.037   0.365   1.686  0.00  0.00    -0.081 Cl
ATOM      9  C   UNL d   1       1.137  -1.235  -0.078  0.00  0.00     0.075 A 
ATOM     10  S   UNL d   1       1.615   0.354  -0.474  0.00  0.00    -0.093 SA
BRANCH   7  11
ATOM     11  S   UNL d   1      -0.777  -2.735   1.183  0.00  0.00     0.174 S 
ATOM     12  O   UNL d   1       0.075  -3.781   0.650  0.00  0.00    -0.223 OA
ATOM     13  O   UNL d   1      -0.931  -2.531   2.606  0.00  0.00    -0.223 OA
ATOM     14  C   UNL d   1      -2.365  -2.860   0.404  0.00  0.00     0.167 C 
ENDBRANCH   7  11
ENDBRANCH   1   5
BRANCH   2  15
ATOM     15  C   UNL d   1       1.055   4.696  -0.120  0.00  0.00     0.036 A 
ATOM     16  C   UNL d   1      -0.033   5.495   0.247  0.00  0.00     0.053 A 
ATOM     17  C   UNL d   1       0.016   6.879   0.077  0.00  0.00     0.036 A 
ATOM     18 CL   UNL d   1      -1.343   7.842   0.516  0.00  0.00    -0.084 Cl
ATOM     19  C   UNL d   1       1.150   7.489  -0.448  0.00  0.00     0.024 A 
ATOM     20  C   UNL d   1       2.254   6.707  -0.783  0.00  0.00     0.004 A 
ATOM     21  C   UNL d   1       2.210   5.319  -0.610  0.00  0.00     0.029 A 
ENDBRANCH   2  15
TORSDOF 3
