REMARK  2 active torsions:
REMARK  status: ('A' for Active; 'I' for Inactive)
REMARK       I    between atoms: N_2  and  C_1 
REMARK    1  A    between atoms: C_3  and  C_1 
REMARK    2  A    between atoms: C_9  and  N_2 
ROOT
ATOM      1  C   UNL d   1       0.296   0.454   1.194  0.00  0.00     0.032 A 
ATOM      2  C   UNL d   1      -0.978  -0.079   1.446  0.00  0.00     0.027 A 
ATOM      3  C   UNL d   1      -1.637   0.326   2.597  0.00  0.00    -0.022 A 
ATOM      4  C   UNL d   1      -1.052   1.223   3.480  0.00  0.00     0.075 A 
ATOM      5  O   UNL d   1      -1.813   1.484   4.590  0.00  0.00    -0.350 OA
ATOM      6  C   UNL d   1       0.877   1.364   2.105  0.00  0.00     0.020 A 
ATOM      7  C   UNL d   1       0.200   1.754   3.262  0.00  0.00     0.038 A 
ATOM      8  C   UNL d   1      -3.101   0.912   4.265  0.00  0.00     0.180 C 
ATOM      9  C   UNL d   1      -2.923  -0.138   3.166  0.00  0.00     0.068 C 
ENDROOT
BRANCH   1  10
ATOM     10  C   UNL d   1       1.118   0.032   0.027  0.00  0.00     0.252 C 
ATOM     11  N   UNL d   1       0.444  -0.344  -1.118  0.00  0.00    -0.349 N 
ATOM     12  H   UNL d   1      -0.548  -0.163  -1.164  0.00  0.00     0.163 HD
ATOM     13  O   UNL d   1       2.340   0.062   0.125  0.00  0.00    -0.268 OA
BRANCH  11  14
ATOM     14  C   UNL d   1       1.123  -0.722  -2.373  0.00  0.00     0.022 C 
ATOM     15  C   UNL d   1       2.010  -1.961  -2.166  0.00  0.00     0.037 C 
ATOM     16  C   UNL d   1       0.052  -1.073  -3.422  0.00  0.00     0.037 C 
ATOM     17  C   UNL d   1       1.962   0.447  -2.917  0.00  0.00     0.037 C 
ENDBRANCH  11  14
ENDBRANCH   1  10
TORSDOF 2
