REMARK  4 active torsions:
REMARK  status: ('A' for Active; 'I' for Inactive)
REMARK    1  A    between atoms: C_2  and  C_1 
REMARK       I    between atoms: N_3  and  C_2 
REMARK       I    between atoms: C_5  and  N_3 
REMARK    2  A    between atoms: C_4  and  N_8 
REMARK       I    between atoms: N_8  and  C_5 
REMARK    3  A    between atoms: O_23  and  C_6 
REMARK    4  A    between atoms: O_24  and  C_7 
ROOT
ATOM      1  C   UNL d   1       1.015  -3.125   1.731  0.00  0.00     0.244 C 
ATOM      2  N   UNL d   1       0.144  -3.958   1.051  0.00  0.00    -0.175 NA
ATOM      3  C   UNL d   1      -1.207  -3.803   1.253  0.00  0.00     0.305 C 
ATOM      4  N   UNL d   1      -1.740  -2.684   0.684  0.00  0.00    -0.310 N 
ATOM      5  O   UNL d   1       1.523  -3.431   2.806  0.00  0.00    -0.273 OA
ATOM      6  O   UNL d   1      -1.838  -4.681   1.836  0.00  0.00    -0.253 OA
ATOM      7  H   UNL d   1       0.301  -4.873   1.465  0.00  0.00     0.141 HD
ATOM      8  H   UNL d   1      -1.286  -2.396  -0.175  0.00  0.00     0.170 HD
ENDROOT
BRANCH   1   9
ATOM      9  C   UNL d   1       1.528  -1.943   1.009  0.00  0.00     0.096 A 
ATOM     10  C   UNL d   1       0.849  -0.719   1.054  0.00  0.00     0.108 A 
ATOM     11  C   UNL d   1       1.331   0.367   0.313  0.00  0.00     0.069 A 
ATOM     12 CL   UNL d   1       0.452   1.849   0.203  0.00  0.00    -0.081 Cl
ATOM     13  C   UNL d   1       2.529   0.265  -0.394  0.00  0.00     0.048 A 
ATOM     14  C   UNL d   1       3.252  -0.929  -0.367  0.00  0.00     0.047 A 
ATOM     15  C   UNL d   1       2.766  -2.032   0.349  0.00  0.00     0.103 A 
ATOM     16 BR   UNL d   1       4.875  -0.999  -1.349  0.00  0.00    -0.048 Br
BRANCH  10  17
ATOM     17  O   UNL d   1      -0.320  -0.626   1.756  0.00  0.00    -0.353 OA
ATOM     18  C   UNL d   1      -0.189   0.115   2.968  0.00  0.00     0.210 C 
ENDBRANCH  10  17
BRANCH  15  19
ATOM     19  O   UNL d   1       3.461  -3.214   0.366  0.00  0.00    -0.353 OA
ATOM     20  C   UNL d   1       4.479  -3.200   1.377  0.00  0.00     0.210 C 
ENDBRANCH  15  19
ENDBRANCH   1   9
BRANCH   4  21
ATOM     21  C   UNL d   1      -2.968  -2.030   0.971  0.00  0.00     0.079 A 
ATOM     22  C   UNL d   1      -3.637  -2.039   2.212  0.00  0.00     0.064 A 
ATOM     23  C   UNL d   1      -4.822  -1.307   2.386  0.00  0.00     0.050 A 
ATOM     24 CL   UNL d   1      -2.998  -2.739   3.659  0.00  0.00    -0.082 Cl
ATOM     25  C   UNL d   1      -5.331  -0.532   1.350  0.00  0.00     0.037 A 
ATOM     26  C   UNL d   1      -4.668  -0.468   0.133  0.00  0.00     0.050 A 
ATOM     27 CL   UNL d   1      -6.760   0.394   1.595  0.00  0.00    -0.084 Cl
ATOM     28  C   UNL d   1      -3.496  -1.205  -0.047  0.00  0.00     0.064 A 
ATOM     29 CL   UNL d   1      -2.689  -1.055  -1.577  0.00  0.00    -0.082 Cl
ENDBRANCH   4  21
TORSDOF 4
