REMARK  2 active torsions:
REMARK  status: ('A' for Active; 'I' for Inactive)
REMARK       I    between atoms: N_2  and  C_1 
REMARK    1  A    between atoms: C_5  and  C_1 
REMARK       I    between atoms: C_4  and  N_3 
REMARK    2  A    between atoms: C_15  and  C_4 
ROOT
ATOM      1  C   UNL d   1       0.864  -0.275  -0.173  0.00  0.00     0.260 C 
ATOM      2  N   UNL d   1       0.102  -0.639   0.946  0.00  0.00    -0.344 N 
ATOM      3  N   UNL d   1      -0.078  -2.582   3.046  0.00  0.00    -0.349 N 
ATOM      4  C   UNL d   1      -0.717  -3.090   4.166  0.00  0.00     0.224 C 
ATOM      5  C   UNL d   1       1.035  -1.621   3.021  0.00  0.00     0.145 C 
ATOM      6  C   UNL d   1       0.627  -0.340   2.280  0.00  0.00     0.146 C 
ATOM      7  C   UNL d   1      -0.996  -1.623   0.938  0.00  0.00     0.146 C 
ATOM      8  C   UNL d   1      -0.616  -2.898   1.715  0.00  0.00     0.145 C 
ATOM      9  O   UNL d   1       2.006   0.160  -0.026  0.00  0.00    -0.267 OA
ATOM     10  O   UNL d   1      -1.702  -3.825   4.046  0.00  0.00    -0.273 OA
ENDROOT
BRANCH   4  11
ATOM     11  C   UNL d   1      -0.202  -2.698   5.565  0.00  0.00     0.078 C 
ATOM     12  C   UNL d   1       1.170  -3.290   5.908  0.00  0.00     0.014 C 
ATOM     13  C   UNL d   1       1.126  -4.786   6.203  0.00  0.00     0.001 C 
ATOM     14  C   UNL d   1       0.107  -5.142   7.278  0.00  0.00     0.000 C 
ATOM     15  C   UNL d   1      -1.269  -4.544   7.011  0.00  0.00     0.001 C 
ATOM     16  C   UNL d   1      -1.215  -3.054   6.671  0.00  0.00     0.014 C 
ENDBRANCH   4  11
BRANCH   1  17
ATOM     17  C   UNL d   1       0.243  -0.398  -1.489  0.00  0.00     0.072 A 
ATOM     18  S   UNL d   1       1.219  -0.831  -2.833  0.00  0.00    -0.097 SA
ATOM     19  C   UNL d   1      -0.117  -0.801  -3.900  0.00  0.00     0.050 A 
ATOM     20  C   UNL d   1      -1.279  -0.432  -3.264  0.00  0.00     0.009 A 
ATOM     21  C   UNL d   1      -1.063  -0.160  -1.881  0.00  0.00     0.025 A 
ENDBRANCH   1  17
TORSDOF 2
