REMARK  3 active torsions:
REMARK  status: ('A' for Active; 'I' for Inactive)
REMARK    1  A    between atoms: C_10  and  C_1 
REMARK    2  A    between atoms: S_17  and  C_2 
REMARK    3  A    between atoms: C_6  and  C_3 
ROOT
ATOM      1  C   UNL d   1       0.639   1.279  -0.008  0.00  0.00     0.023 A 
ATOM      2  C   UNL d   1      -0.746   1.271  -0.053  0.00  0.00     0.054 A 
ATOM      3  C   UNL d   1       0.183  -1.034   0.031  0.00  0.00     0.046 A 
ATOM      4  C   UNL d   1       1.194  -0.070   0.037  0.00  0.00    -0.028 A 
ATOM      5  S   UNL d   1      -1.372  -0.311  -0.017  0.00  0.00    -0.079 SA
ATOM      6  C   UNL d   1       2.666  -0.371   0.076  0.00  0.00     0.050 C 
ENDROOT
BRANCH   1   7
ATOM      7  C   UNL d   1       1.471   2.503   0.001  0.00  0.00     0.062 A 
ATOM      8  N   UNL d   1       1.176   3.576   0.746  0.00  0.00    -0.300 N 
ATOM      9  N   UNL d   1       2.122   4.472   0.427  0.00  0.00    -0.311 N 
ATOM     10  HN  UNL d   1       0.407   3.687   1.406  1.00  0.00     0.187 HD
ATOM     11  C   UNL d   1       3.053   3.989  -0.443  0.00  0.00     0.109 A 
ATOM     12  H   UNL d   1       2.069   5.395   0.843  0.00  0.00     0.186 HD
ATOM     13  C   UNL d   1       2.646   2.713  -0.758  0.00  0.00     0.050 A 
ENDBRANCH   1   7
BRANCH   2  14
ATOM     14  S   UNL d   1      -1.857   2.636  -0.197  0.00  0.00    -0.126 SA
ATOM     15  C   UNL d   1      -2.113   3.012   1.553  0.00  0.00     0.096 C 
ENDBRANCH   2  14
BRANCH   3  16
ATOM     16  C   UNL d   1       0.316  -2.481   0.082  0.00  0.00     0.092 A 
ATOM     17  N   UNL d   1       1.324  -3.078   0.689  0.00  0.00    -0.353 N 
ATOM     18  C   UNL d   1       1.233  -4.455   0.568  0.00  0.00     0.012 A 
ATOM     19  HN  UNL d   1       2.071  -2.590   1.182  1.00  0.00     0.166 HD
ATOM     20  C   UNL d   1       2.294  -5.298   1.174  0.00  0.00     0.068 C 
ATOM     21  C   UNL d   1       0.126  -4.898  -0.129  0.00  0.00     0.076 A 
ATOM     22  S   UNL d   1      -0.805  -3.566  -0.660  0.00  0.00    -0.081 SA
ENDBRANCH   3  16
TORSDOF 3
