REMARK  3 active torsions:
REMARK  status: ('A' for Active; 'I' for Inactive)
REMARK    1  A    between atoms: C_3  and  C_1 
REMARK    2  A    between atoms: N_12  and  C_1 
REMARK    3  A    between atoms: C_2  and  C_5 
ROOT
ATOM      1  C   UNL d   1       0.283  -1.353  -0.184  0.00  0.00     0.001 A 
ATOM      2  C   UNL d   1      -1.245  -3.741  -0.250  0.00  0.00    -0.004 A 
ATOM      3  C   UNL d   1       0.670  -2.469   0.572  0.00  0.00     0.015 A 
ATOM      4  C   UNL d   1      -0.855  -1.449  -0.994  0.00  0.00     0.015 A 
ATOM      5  C   UNL d   1      -0.088  -3.645   0.539  0.00  0.00     0.013 A 
ATOM      6  C   UNL d   1      -1.613  -2.625  -1.021  0.00  0.00     0.013 A 
ENDROOT
BRANCH   1   7
ATOM      7  C   UNL d   1       1.048  -0.075  -0.118  0.00  0.00     0.104 C 
ATOM      8  S   UNL d   1       2.699   0.065   0.127  0.00  0.00    -0.060 SA
BRANCH   7   9
ATOM      9  N   UNL d   1       0.322   1.082  -0.256  0.00  0.00    -0.390 N 
ATOM     10  H   UNL d   1      -0.689   1.109  -0.285  0.00  0.00     0.157 HD
ATOM     11  H   UNL d   1       0.810   1.968  -0.161  0.00  0.00     0.157 HD
ENDBRANCH   7   9
ENDBRANCH   1   7
BRANCH   2  12
ATOM     12  C   UNL d   1      -2.126  -4.972  -0.179  0.00  0.00     0.294 C 
ATOM     13  O   UNL d   1      -1.359  -6.172   0.011  0.00  0.00    -0.355 OA
ATOM     14  C   UNL d   1      -1.689  -7.009  -1.096  0.00  0.00     0.197 C 
ATOM     15  C   UNL d   1      -3.047  -6.526  -1.522  0.00  0.00     0.197 C 
ATOM     16  O   UNL d   1      -2.951  -5.116  -1.346  0.00  0.00    -0.355 OA
ENDBRANCH   2  12
TORSDOF 3
