REMARK  9 active torsions:
REMARK  status: ('A' for Active; 'I' for Inactive)
REMARK    1  A    between atoms: C_6  and  C_1 
REMARK    2  A    between atoms: C_10  and  C_3 
REMARK    3  A    between atoms: S_12  and  C_5 
REMARK    4  A    between atoms: O_20  and  C_6 
REMARK    5  A    between atoms: C_7  and  O_11 
REMARK    6  A    between atoms: O_11  and  C_19 
REMARK    7  A    between atoms: C_23  and  S_12 
REMARK    8  A    between atoms: C_24  and  O_20 
REMARK    9  A    between atoms: C_25  and  C_23 
ROOT
ATOM      1  C   UNL d   1       1.310  -1.273  -0.053  0.00  0.00     0.094 A 
ATOM      2  C   UNL d   1      -0.682  -0.056   0.144  0.00  0.00     0.081 A 
ATOM      3  C   UNL d   1      -0.078  -1.369   0.026  0.00  0.00     0.020 A 
ATOM      4  S   UNL d   1       1.840   0.354   0.069  0.00  0.00    -0.075 SA
ATOM      5  C   UNL d   1       0.244   0.965   0.133  0.00  0.00     0.063 A 
ATOM      6  C   UNL d   1      -2.098   0.177   0.223  0.00  0.00     0.102 C 
ATOM      7  N   UNL d   1      -3.240   0.365   0.291  0.00  0.00    -0.191 NA
ENDROOT
BRANCH   3   8
ATOM      8  C   UNL d   1      -0.787  -2.661  -0.038  0.00  0.00    -0.023 A 
ATOM      9  C   UNL d   1      -1.920  -2.816  -0.853  0.00  0.00     0.015 A 
ATOM     10  C   UNL d   1      -2.606  -4.038  -0.918  0.00  0.00     0.038 A 
ATOM     11  C   UNL d   1      -2.161  -5.127  -0.175  0.00  0.00     0.078 A 
ATOM     12  C   UNL d   1      -1.013  -4.996   0.604  0.00  0.00     0.038 A 
ATOM     13  C   UNL d   1      -0.353  -3.768   0.702  0.00  0.00     0.015 A 
BRANCH  11  14
ATOM     14  O   UNL d   1      -2.716  -6.369  -0.173  0.00  0.00    -0.255 OA
BRANCH  14  15
ATOM     15  C   UNL d   1      -4.131  -6.470  -0.249  0.00  0.00     0.530 C 
ATOM     16  F   UNL d   1      -4.774  -5.317   0.032  0.00  0.00    -0.144 F 
ATOM     17  F   UNL d   1      -4.492  -6.888  -1.481  0.00  0.00    -0.144 F 
ATOM     18  F   UNL d   1      -4.537  -7.398   0.647  0.00  0.00    -0.144 F 
ENDBRANCH  14  15
ENDBRANCH  11  14
ENDBRANCH   3   8
BRANCH   5  19
ATOM     19  S   UNL d   1      -0.016   2.711   0.069  0.00  0.00    -0.121 SA
BRANCH  19  20
ATOM     20  C   UNL d   1      -0.944   3.049   1.595  0.00  0.00     0.080 C 
BRANCH  20  21
ATOM     21  C   UNL d   1      -1.271   4.539   1.678  0.00  0.00     0.006 C 
ATOM     22  C   UNL d   1      -2.069   4.857   2.935  0.00  0.00     0.006 C 
ENDBRANCH  20  21
ENDBRANCH  19  20
ENDBRANCH   5  19
BRANCH   1  23
ATOM     23  C   UNL d   1       2.293  -2.329  -0.280  0.00  0.00     0.301 C 
ATOM     24  O   UNL d   1       2.098  -3.335  -0.946  0.00  0.00    -0.259 OA
BRANCH  23  25
ATOM     25  O   UNL d   1       3.434  -2.095   0.428  0.00  0.00    -0.317 OA
BRANCH  25  26
ATOM     26  C   UNL d   1       4.370  -3.187   0.461  0.00  0.00     0.174 C 
ATOM     27  C   UNL d   1       5.184  -3.265  -0.817  0.00  0.00     0.034 C 
ENDBRANCH  25  26
ENDBRANCH  23  25
ENDBRANCH   1  23
TORSDOF 9
