REMARK  3 active torsions:
REMARK  status: ('A' for Active; 'I' for Inactive)
REMARK    1  A    between atoms: C_7  and  C_3 
REMARK    2  A    between atoms: O_14  and  C_9 
REMARK    3  A    between atoms: O_16  and  C_11 
ROOT
ATOM      1  N   UNL d   1       2.192  -0.230   0.184  0.00  0.00    -0.336 N 
ATOM      2  C   UNL d   1       1.323   0.815   0.036  0.00  0.00     0.255 C 
ATOM      3  C   UNL d   1       1.839  -1.572  -0.168  0.00  0.00     0.196 C 
ATOM      4  N   UNL d   1       0.500  -1.867   0.304  0.00  0.00    -0.267 NA
ATOM      5  C   UNL d   1      -0.111   0.469  -0.030  0.00  0.00     0.053 A 
ATOM      6  C   UNL d   1      -0.465  -0.882   0.072  0.00  0.00     0.026 A 
ATOM      7  O   UNL d   1       1.718   1.973  -0.012  0.00  0.00    -0.268 OA
ATOM      8  C   UNL d   1      -1.081   1.470  -0.144  0.00  0.00     0.019 A 
ATOM      9  C   UNL d   1      -1.824  -1.210   0.111  0.00  0.00     0.024 A 
ATOM     10  C   UNL d   1      -2.430   1.122  -0.140  0.00  0.00     0.001 A 
ATOM     11  C   UNL d   1      -2.801  -0.216  -0.011  0.00  0.00     0.002 A 
ATOM     12  H   UNL d   1       3.165   0.033   0.132  0.00  0.00     0.164 HD
ATOM     13  H   UNL d   1       0.195  -2.801   0.047  0.00  0.00     0.130 HD
ENDROOT
BRANCH   3  14
ATOM     14  C   UNL d   1       2.793  -2.554   0.477  0.00  0.00    -0.018 A 
ATOM     15  C   UNL d   1       2.917  -2.593   1.878  0.00  0.00     0.050 A 
ATOM     16  C   UNL d   1       3.761  -3.512   2.507  0.00  0.00     0.099 A 
ATOM     17  C   UNL d   1       4.504  -4.419   1.746  0.00  0.00     0.101 A 
ATOM     18  C   UNL d   1       4.388  -4.373   0.349  0.00  0.00     0.040 A 
ATOM     19  C   UNL d   1       3.543  -3.454  -0.284  0.00  0.00     0.013 A 
BRANCH  16  20
ATOM     20  O   UNL d   1       3.825  -3.491   3.872  0.00  0.00    -0.358 OA
ATOM     21  H   UNL d   1       3.242  -2.789   4.206  0.00  0.00     0.217 HD
ENDBRANCH  16  20
BRANCH  17  22
ATOM     22  O   UNL d   1       5.363  -5.391   2.181  0.00  0.00    -0.353 OA
ATOM     23  C   UNL d   1       5.535  -5.550   3.582  0.00  0.00     0.210 C 
ENDBRANCH  17  22
ENDBRANCH   3  14
TORSDOF 3
