REMARK  3 active torsions:
REMARK  status: ('A' for Active; 'I' for Inactive)
REMARK    1  A    between atoms: C_2  and  C_1 
REMARK    2  A    between atoms: C_5  and  C_1 
REMARK    3  A    between atoms: O_7  and  N_3 
ROOT
ATOM      1  C   UNL d   1       0.839  -0.077   0.119  0.00  0.00     0.109 C 
ATOM      2  N   UNL d   1       0.234   0.811   0.862  0.00  0.00    -0.265 N 
ATOM      3  HN  UNL d   1       0.718   1.568   1.345  1.00  0.00     0.194 HD
ENDROOT
BRANCH   1   4
ATOM      4  C   UNL d   1       0.067  -1.154  -0.634  0.00  0.00     0.174 C 
ATOM      5  O   UNL d   1       0.283  -2.338  -0.403  0.00  0.00    -0.291 OA
ATOM      6  C   UNL d   1      -0.964  -0.685  -1.622  0.00  0.00     0.098 C 
ENDBRANCH   1   4
BRANCH   1   7
ATOM      7  C   UNL d   1       2.325  -0.022  -0.010  0.00  0.00    -0.004 A 
ATOM      8  C   UNL d   1       2.968   1.212   0.181  0.00  0.00     0.014 A 
ATOM      9  C   UNL d   1       4.361   1.302   0.131  0.00  0.00     0.001 A 
ATOM     10  C   UNL d   1       5.124   0.161  -0.102  0.00  0.00     0.000 A 
ATOM     11  C   UNL d   1       4.494  -1.068  -0.296  0.00  0.00     0.001 A 
ATOM     12  C   UNL d   1       3.099  -1.159  -0.255  0.00  0.00     0.014 A 
ENDBRANCH   1   7
BRANCH   2  13
ATOM     13  O   UNL d   1      -1.147   0.609   0.923  0.00  0.00    -0.289 OA
ATOM     14  H   UNL d   1      -1.429   1.277   1.576  0.00  0.00     0.244 HD
ENDBRANCH   2  13
TORSDOF 3
