REMARK  1 active torsions:
REMARK  status: ('A' for Active; 'I' for Inactive)
REMARK    1  A    between atoms: C_8  and  C_2 
ROOT
ATOM      1  C   UNL d   1      -0.022  -0.880   0.660  0.00  0.00     0.128 A 
ATOM      2  C   UNL d   1       1.090  -0.610  -0.022  0.00  0.00     0.003 A 
ATOM      3  C   UNL d   1      -0.871   0.307   0.563  0.00  0.00     0.304 A 
ATOM      4  O   UNL d   1      -0.220   1.261  -0.163  0.00  0.00    -0.312 OA
ATOM      5  C   UNL d   1      -0.366  -2.044   1.367  0.00  0.00     0.106 C 
ATOM      6  C   UNL d   1       1.035   0.744  -0.608  0.00  0.00     0.220 A 
ATOM      7  N   UNL d   1      -0.617  -3.022   1.940  0.00  0.00    -0.191 NA
ATOM      8  O   UNL d   1      -1.978   0.438   1.049  0.00  0.00    -0.258 OA
ENDROOT
BRANCH   2   9
ATOM      9  C   UNL d   1       2.258  -1.464  -0.194  0.00  0.00    -0.026 A 
ATOM     10  C   UNL d   1       2.326  -2.370  -1.259  0.00  0.00     0.014 A 
ATOM     11  C   UNL d   1       3.462  -3.168  -1.431  0.00  0.00     0.024 A 
ATOM     12  C   UNL d   1       4.525  -3.064  -0.536  0.00  0.00     0.034 A 
ATOM     13  C   UNL d   1       4.459  -2.177   0.536  0.00  0.00     0.024 A 
ATOM     14 CL   UNL d   1       5.930  -4.031  -0.760  0.00  0.00    -0.084 Cl
ATOM     15  C   UNL d   1       3.325  -1.379   0.709  0.00  0.00     0.014 A 
ENDBRANCH   2   9
TORSDOF 1
