REMARK  1 active torsions:
REMARK  status: ('A' for Active; 'I' for Inactive)
REMARK    1  A    between atoms: C_4  and  N_8 
ROOT
ATOM      1  C   UNL d   1       0.020  -1.122   0.304  0.00  0.00    -0.006 C 
ATOM      2  C   UNL d   1      -0.028  -0.001   1.393  0.00  0.00    -0.035 C 
ATOM      3  C   UNL d   1       0.002   1.109   0.310  0.00  0.00    -0.004 C 
ATOM      4  C   UNL d   1      -1.225  -0.773  -0.582  0.00  0.00     0.227 C 
ATOM      5  C   UNL d   1       1.312  -0.756  -0.480  0.00  0.00     0.012 C 
ATOM      6  C   UNL d   1      -1.203   0.771  -0.600  0.00  0.00     0.041 C 
ATOM      7  C   UNL d   1       1.271   0.780  -0.509  0.00  0.00     0.006 C 
ATOM      8  C   UNL d   1       0.022  -2.556   0.804  0.00  0.00     0.018 C 
ATOM      9  C   UNL d   1       1.171   0.040   2.364  0.00  0.00     0.016 C 
ATOM     10  C   UNL d   1      -1.289   0.019   2.282  0.00  0.00     0.016 C 
ENDROOT
BRANCH   4  11
ATOM     11  N   UNL d   1      -1.249  -1.363  -1.916  0.00  0.00     0.083 N 
ATOM     12  H   UNL d   1      -0.492  -0.985  -2.482  0.00  0.00     0.313 HD
ATOM     13  H   UNL d   1      -2.105  -1.078  -2.392  0.00  0.00     0.313 HD
ENDBRANCH   4  11
TORSDOF 1
