REMARK  3 active torsions:
REMARK  status: ('A' for Active; 'I' for Inactive)
REMARK    1  A    between atoms: O_2  and  S_1 
REMARK    2  A    between atoms: C_3  and  S_1 
REMARK    3  A    between atoms: C_4  and  O_2 
ROOT
ATOM      1  S   UNL d   1       1.054  -0.076   0.001  0.00  0.00     0.303 S 
ATOM      2  O   UNL d   1       0.463  -1.341  -0.388  0.00  0.00    -0.193 OA
ATOM      3  O   UNL d   1       2.480   0.162  -0.125  0.00  0.00    -0.193 OA
ENDROOT
BRANCH   1   4
ATOM      4  O   UNL d   1       0.588   0.258   1.533  0.00  0.00    -0.229 OA
BRANCH   4   5
ATOM      5  C   UNL d   1       0.909  -0.586   2.569  0.00  0.00     0.092 A 
ATOM      6  C   UNL d   1       2.065  -1.369   2.614  0.00  0.00     0.062 A 
ATOM      7  C   UNL d   1       2.303  -2.195   3.714  0.00  0.00     0.038 A 
ATOM      8 CL   UNL d   1       3.723  -3.166   3.754  0.00  0.00    -0.084 Cl
ATOM      9  C   UNL d   1       1.409  -2.238   4.779  0.00  0.00     0.048 A 
ATOM     10  C   UNL d   1       0.271  -1.438   4.740  0.00  0.00     0.038 A 
ATOM     11  C   UNL d   1       0.019  -0.608   3.646  0.00  0.00     0.062 A 
ATOM     12 CL   UNL d   1      -0.837  -1.473   6.056  0.00  0.00    -0.084 Cl
ENDBRANCH   4   5
ENDBRANCH   1   4
BRANCH   1  13
ATOM     13  C   UNL d   1       0.276   1.182  -0.988  0.00  0.00     0.086 A 
ATOM     14  C   UNL d   1       0.132   2.478  -0.483  0.00  0.00     0.027 A 
ATOM     15  C   UNL d   1      -0.470   3.457  -1.278  0.00  0.00     0.025 A 
ATOM     16  C   UNL d   1      -0.920   3.134  -2.561  0.00  0.00     0.034 A 
ATOM     17  C   UNL d   1      -0.773   1.840  -3.061  0.00  0.00     0.025 A 
ATOM     18 CL   UNL d   1      -1.662   4.343  -3.534  0.00  0.00    -0.084 Cl
ATOM     19  C   UNL d   1      -0.174   0.856  -2.272  0.00  0.00     0.027 A 
ENDBRANCH   1  13
TORSDOF 3
