REMARK  3 active torsions:
REMARK  status: ('A' for Active; 'I' for Inactive)
REMARK    1  A    between atoms: C_2  and  C_1 
REMARK       I    between atoms: C_4  and  N_3 
REMARK       I    between atoms: N_13  and  C_4 
REMARK    2  A    between atoms: C_14  and  C_7 
REMARK    3  A    between atoms: C_23  and  N_13 
ROOT
ATOM      1  C   UNL d   1      -0.088  -1.110   0.026  0.00  0.00     0.054 A 
ATOM      2  N   UNL d   1      -0.125   1.123   0.478  0.00  0.00    -0.259 N 
ATOM      3  HN  UNL d   1       0.139   2.061   0.781  1.00  0.00     0.195 HD
ATOM      4  C   UNL d   1       0.614   0.004   0.590  0.00  0.00     0.080 A 
ATOM      5  O   UNL d   1      -1.302   0.756  -0.124  0.00  0.00    -0.241 OA
ATOM      6  C   UNL d   1      -1.303  -0.579  -0.367  0.00  0.00     0.087 A 
ATOM      7  C   UNL d   1      -2.587  -1.098  -0.884  0.00  0.00     0.080 C 
ENDROOT
BRANCH   1   8
ATOM      8  C   UNL d   1       0.281  -2.562  -0.027  0.00  0.00     0.078 C 
ATOM      9  N   UNL d   1      -0.131  -3.507  -0.958  0.00  0.00    -0.205 N 
ATOM     10  C   UNL d   1      -0.730  -3.309  -2.223  0.00  0.00     0.342 C 
ATOM     11  N   UNL d   1       0.134  -4.784  -0.525  0.00  0.00    -0.301 N 
ATOM     12  N   UNL d   1      -1.463  -4.409  -2.606  0.00  0.00    -0.337 N 
ATOM     13  O   UNL d   1      -0.634  -2.241  -2.804  0.00  0.00    -0.245 OA
ATOM     14  H   UNL d   1      -1.397  -5.234  -2.011  0.00  0.00     0.164 HD
ATOM     15  C   UNL d   1       0.921  -4.601   0.537  0.00  0.00     0.110 C 
ATOM     16  HN  UNL d   1      -0.193  -5.664  -0.923  1.00  0.00     0.186 HD
ATOM     17  C   UNL d   1       1.050  -3.247   0.889  0.00  0.00     0.051 C 
BRANCH  12  18
ATOM     18  C   UNL d   1      -2.461  -4.327  -3.655  0.00  0.00     0.078 C 
ATOM     19  C   UNL d   1      -2.108  -5.258  -4.804  0.00  0.00     0.032 C 
ATOM     20  C   UNL d   1      -3.842  -4.639  -3.084  0.00  0.00     0.032 C 
ENDBRANCH  12  18
ENDBRANCH   1   8
BRANCH   4  21
ATOM     21  C   UNL d   1       1.932   0.092   1.218  0.00  0.00    -0.006 A 
ATOM     22  C   UNL d   1       2.104   0.909   2.349  0.00  0.00     0.015 A 
ATOM     23  C   UNL d   1       3.347   1.008   2.978  0.00  0.00     0.024 A 
ATOM     24  C   UNL d   1       4.428   0.288   2.481  0.00  0.00     0.034 A 
ATOM     25  C   UNL d   1       4.281  -0.513   1.349  0.00  0.00     0.024 A 
ATOM     26 CL   UNL d   1       5.955   0.390   3.266  0.00  0.00    -0.084 Cl
ATOM     27  C   UNL d   1       3.040  -0.599   0.710  0.00  0.00     0.015 A 
ENDBRANCH   4  21
TORSDOF 3
