REMARK  5 active torsions:
REMARK  status: ('A' for Active; 'I' for Inactive)
REMARK    1  A    between atoms: C_9  and  N_1 
REMARK    2  A    between atoms: S_2  and  C_8 
REMARK    3  A    between atoms: N_13  and  S_2 
REMARK    4  A    between atoms: C_18  and  C_7 
REMARK    5  A    between atoms: C_19  and  C_18 
ROOT
ATOM      1  C   UNL d   1       1.168  -5.035   0.032  0.00  0.00     0.074 A 
ATOM      2  C   UNL d   1       0.386  -2.335   0.068  0.00  0.00     0.059 A 
ATOM      3  C   UNL d   1      -0.159  -4.698  -0.230  0.00  0.00     0.027 A 
ATOM      4  C   UNL d   1       2.099  -4.048   0.351  0.00  0.00     0.027 A 
ATOM      5  C   UNL d   1       1.706  -2.707   0.359  0.00  0.00     0.033 A 
ATOM      6  C   UNL d   1      -0.544  -3.352  -0.208  0.00  0.00     0.033 A 
ENDROOT
BRANCH   2   7
ATOM      7  N   UNL d   1      -0.011  -0.972   0.052  0.00  0.00    -0.224 N 
ATOM      8  C   UNL d   1       0.815   0.157   0.180  0.00  0.00     0.248 A 
ATOM      9  C   UNL d   1      -0.125   1.320   0.108  0.00  0.00     0.159 A 
ATOM     10  O   UNL d   1       2.024   0.260   0.305  0.00  0.00    -0.271 OA
ATOM     11  C   UNL d   1      -1.441   0.625  -0.022  0.00  0.00     0.013 A 
ATOM     12  N   UNL d   1      -1.355  -0.668  -0.075  0.00  0.00    -0.299 N 
ATOM     13  HN  UNL d   1      -2.124  -1.329  -0.187  1.00  0.00     0.187 HD
BRANCH  11  14
ATOM     14  C   UNL d   1      -2.740   1.375  -0.045  0.00  0.00     0.054 C 
BRANCH  14  15
ATOM     15  C   UNL d   1      -2.823   2.394  -1.177  0.00  0.00     0.001 C 
ATOM     16  C   UNL d   1      -2.794   1.749  -2.555  0.00  0.00     0.005 C 
ENDBRANCH  14  15
ENDBRANCH  11  14
ENDBRANCH   2   7
BRANCH   1  17
ATOM     17  S   UNL d   1       1.688  -6.724  -0.032  0.00  0.00     0.239 S 
ATOM     18  O   UNL d   1       2.879  -6.889   0.770  0.00  0.00    -0.206 OA
ATOM     19  O   UNL d   1       0.537  -7.585   0.098  0.00  0.00    -0.206 OA
BRANCH  17  20
ATOM     20  N   UNL d   1       2.185  -6.851  -1.632  0.00  0.00    -0.225 NA
ATOM     21  H   UNL d   1       3.185  -7.047  -1.675  0.00  0.00     0.136 HD
ATOM     22  H   UNL d   1       1.603  -7.524  -2.128  0.00  0.00     0.136 HD
ENDBRANCH  17  20
ENDBRANCH   1  17
TORSDOF 5
