REMARK  2 active torsions:
REMARK  status: ('A' for Active; 'I' for Inactive)
REMARK    1  A    between atoms: C_13  and  C_8 
REMARK    2  A    between atoms: C_12  and  C_9 
ROOT
ATOM      1  C   UNL d   1       0.234  -0.749   0.024  0.00  0.00     0.151 A 
ATOM      2  N   UNL d   1       0.266   0.652   0.046  0.00  0.00    -0.242 N 
ATOM      3  C   UNL d   1       1.551  -1.155   0.002  0.00  0.00     0.104 A 
ATOM      4  N   UNL d   1       1.539   1.125   0.062  0.00  0.00    -0.294 N 
ATOM      5  HN  UNL d   1       1.842   2.099   0.095  1.00  0.00     0.187 HD
ATOM      6  N   UNL d   1      -0.938  -1.459   0.015  0.00  0.00    -0.336 N 
ATOM      7  HN  UNL d   1      -0.939  -2.479   0.012  1.00  0.00     0.167 HD
ATOM      8  C   UNL d   1       2.305   0.032   0.026  0.00  0.00     0.056 A 
ATOM      9  C   UNL d   1      -2.054  -0.777   0.012  0.00  0.00     0.120 A 
ATOM     10  C   UNL d   1      -0.932   1.386   0.038  0.00  0.00     0.034 A 
ATOM     11  C   UNL d   1      -2.106   0.726   0.016  0.00  0.00     0.061 A 
ATOM     12 CL   UNL d   1       2.130  -2.749  -0.059  0.00  0.00    -0.078 Cl
ATOM     13  C   UNL d   1      -0.884   2.883   0.040  0.00  0.00     0.070 C 
ENDROOT
BRANCH   9  14
ATOM     14  C   UNL d   1      -3.397  -1.516   0.005  0.00  0.00     0.432 C 
ATOM     15  F   UNL d   1      -4.463  -0.666  -0.002  0.00  0.00    -0.165 F 
ATOM     16  F   UNL d   1      -3.543  -2.314  -1.087  0.00  0.00    -0.165 F 
ATOM     17  F   UNL d   1      -3.555  -2.311   1.098  0.00  0.00    -0.165 F 
ENDBRANCH   9  14
BRANCH   8  18
ATOM     18  C   UNL d   1       3.832   0.078   0.003  0.00  0.00     0.039 A 
ATOM     19  C   UNL d   1       4.551   1.195   0.732  0.00  0.00     0.011 A 
ATOM     20  C   UNL d   1       4.508   1.202  -0.757  0.00  0.00     0.011 A 
ENDBRANCH   8  18
TORSDOF 2
