REMARK  10 active torsions:
REMARK  status: ('A' for Active; 'I' for Inactive)
REMARK    1  A    between atoms: C_9  and  C_1 
REMARK    2  A    between atoms: S_15  and  C_5 
REMARK    3  A    between atoms: C_8  and  C_12 
REMARK    4  A    between atoms: C_13  and  C_8 
REMARK    5  A    between atoms: N_14  and  N_10 
REMARK    6  A    between atoms: C_12  and  C_17 
REMARK    7  A    between atoms: O_25  and  C_13 
REMARK    8  A    between atoms: C_16  and  N_14 
REMARK    9  A    between atoms: C_17  and  S_15 
REMARK   10  A    between atoms: C_29  and  O_25 
ROOT
ATOM      1  C   UNL d   1       1.971  -5.380  -0.197  0.00  0.00     0.170 C 
ATOM      2  N   UNL d   1       2.289  -6.646  -0.112  0.00  0.00    -0.292 N 
ATOM      3  HN  UNL d   1       1.568  -7.350   0.046  1.00  0.00     0.187 HD
ENDROOT
BRANCH   1   4
ATOM      4  C   UNL d   1       0.497  -5.045  -0.035  0.00  0.00     0.193 C 
ATOM      5  O   UNL d   1       0.178  -3.865   0.060  0.00  0.00    -0.290 OA
BRANCH   4   6
ATOM      6  C   UNL d   1      -0.456  -6.212   0.108  0.00  0.00     0.168 C 
BRANCH   6   7
ATOM      7  S   UNL d   1      -2.159  -5.716  -0.327  0.00  0.00    -0.085 SA
BRANCH   7   8
ATOM      8  C   UNL d   1      -2.959  -7.248  -0.295  0.00  0.00     0.163 A 
ATOM      9  N   UNL d   1      -4.277  -7.430  -0.627  0.00  0.00    -0.312 N 
ATOM     10  C   UNL d   1      -4.466  -8.797  -0.642  0.00  0.00     0.209 A 
ATOM     11  C   UNL d   1      -5.231  -6.377  -0.867  0.00  0.00     0.160 C 
ATOM     12  N   UNL d   1      -3.353  -9.371  -0.208  0.00  0.00    -0.279 N 
ATOM     13  N   UNL d   1      -2.411  -8.399   0.002  0.00  0.00    -0.278 N 
ATOM     14  HN  UNL d   1      -3.220 -10.370  -0.055  1.00  0.00     0.188 HD
ATOM     15  HN  UNL d   1      -1.456  -8.546   0.329  1.00  0.00     0.189 HD
BRANCH  10  16
ATOM     16  C   UNL d   1      -5.685  -9.523  -1.090  0.00  0.00     0.450 C 
ATOM     17  F   UNL d   1      -6.593  -8.727  -1.715  0.00  0.00    -0.163 F 
ATOM     18  F   UNL d   1      -5.390 -10.509  -1.978  0.00  0.00    -0.163 F 
ATOM     19  F   UNL d   1      -6.340 -10.109  -0.055  0.00  0.00    -0.163 F 
ENDBRANCH  10  16
ENDBRANCH   7   8
ENDBRANCH   6   7
ENDBRANCH   4   6
ENDBRANCH   1   4
BRANCH   1  20
ATOM     20  C   UNL d   1       3.012  -4.282  -0.354  0.00  0.00     0.315 C 
ATOM     21  O   UNL d   1       4.097  -4.343   0.200  0.00  0.00    -0.257 OA
BRANCH  20  22
ATOM     22  O   UNL d   1       2.552  -3.284  -1.129  0.00  0.00    -0.317 OA
BRANCH  22  23
ATOM     23  C   UNL d   1       3.285  -2.053  -1.036  0.00  0.00     0.175 C 
ATOM     24  C   UNL d   1       2.806  -1.274   0.178  0.00  0.00     0.034 C 
ENDBRANCH  22  23
ENDBRANCH  20  22
ENDBRANCH   1  20
BRANCH   2  25
ATOM     25  N   UNL d   1       3.594  -7.013  -0.237  0.00  0.00    -0.298 N 
ATOM     26  H   UNL d   1       4.339  -6.305  -0.296  0.00  0.00     0.187 HD
BRANCH  25  27
ATOM     27  C   UNL d   1       4.056  -8.130   0.510  0.00  0.00     0.069 A 
ATOM     28  C   UNL d   1       5.411  -8.518   0.451  0.00  0.00     0.062 A 
ATOM     29 CL   UNL d   1       6.548  -7.622  -0.499  0.00  0.00    -0.082 Cl
ATOM     30  C   UNL d   1       5.878  -9.628   1.163  0.00  0.00     0.026 A 
ATOM     31  C   UNL d   1       4.994 -10.379   1.936  0.00  0.00     0.002 A 
ATOM     32  C   UNL d   1       3.647 -10.034   1.981  0.00  0.00     0.002 A 
ATOM     33  C   UNL d   1       3.180  -8.931   1.258  0.00  0.00     0.033 A 
ENDBRANCH  25  27
ENDBRANCH   2  25
TORSDOF 10
