REMARK  24 active torsions:
REMARK  status: ('A' for Active; 'I' for Inactive)
REMARK    1  A    between atoms: S_3  and  C_12 
REMARK    2  A    between atoms: N_26  and  S_3 
REMARK    3  A    between atoms: S_4  and  C_13 
REMARK    4  A    between atoms: N_27  and  S_4 
REMARK    5  A    between atoms: N_9  and  C_5 
REMARK    6  A    between atoms: N_10  and  C_6 
REMARK    7  A    between atoms: C_29  and  N_26 
REMARK    8  A    between atoms: C_30  and  N_27 
REMARK    9  A    between atoms: C_31  and  C_29 
REMARK   10  A    between atoms: C_32  and  C_30 
REMARK   11  A    between atoms: C_43  and  C_31 
REMARK   12  A    between atoms: C_44  and  C_32 
REMARK   13  A    between atoms: C_33  and  C_35 
REMARK   14  A    between atoms: C_34  and  C_36 
REMARK   15  A    between atoms: C_35  and  C_41 
REMARK   16  A    between atoms: C_36  and  C_42 
REMARK   17  A    between atoms: C_37  and  C_45 
REMARK   18  A    between atoms: C_39  and  C_37 
REMARK   19  A    between atoms: C_38  and  C_46 
REMARK   20  A    between atoms: C_40  and  C_38 
REMARK   21  A    between atoms: C_41  and  C_39 
REMARK   22  A    between atoms: C_42  and  C_40 
REMARK   23  A    between atoms: C_45  and  C_43 
REMARK   24  A    between atoms: C_46  and  C_44 
ROOT
ATOM      1  C   UNL d   1      -0.744   0.845   0.036  0.00  0.00     0.025 A 
ATOM      2  C   UNL d   1       0.728   0.837   0.019  0.00  0.00     0.025 A 
ATOM      3  C   UNL d   1      -1.739   1.819  -0.044  0.00  0.00     0.116 A 
ATOM      4  C   UNL d   1       1.733   1.793   0.151  0.00  0.00     0.116 A 
ATOM      5  C   UNL d   1       1.165  -0.498  -0.117  0.00  0.00     0.030 A 
ATOM      6  C   UNL d   1      -1.196  -0.493   0.035  0.00  0.00     0.030 A 
ATOM      7  C   UNL d   1      -0.018  -1.376  -0.065  0.00  0.00     0.194 A 
ATOM      8  C   UNL d   1      -3.486   0.129  -0.014  0.00  0.00     0.077 A 
ATOM      9  C   UNL d   1       3.458   0.112  -0.191  0.00  0.00     0.077 A 
ATOM     10  C   UNL d   1       3.092   1.453   0.013  0.00  0.00     0.061 A 
ATOM     11  C   UNL d   1      -3.105   1.478  -0.051  0.00  0.00     0.061 A 
ATOM     12  C   UNL d   1      -2.529  -0.884   0.021  0.00  0.00     0.041 A 
ATOM     13  C   UNL d   1       2.494  -0.893  -0.222  0.00  0.00     0.041 A 
ATOM     14  O   UNL d   1      -0.024  -2.586  -0.104  0.00  0.00    -0.287 OA
ENDROOT
BRANCH   8  15
ATOM     15  S   UNL d   1      -5.209  -0.263  -0.179  0.00  0.00     0.241 S 
ATOM     16  O   UNL d   1      -5.702   0.508  -1.299  0.00  0.00    -0.206 OA
ATOM     17  O   UNL d   1      -5.359  -1.696  -0.104  0.00  0.00    -0.206 OA
BRANCH  15  18
ATOM     18  N   UNL d   1      -5.872   0.425   1.211  0.00  0.00    -0.216 NA
ATOM     19  H   UNL d   1      -6.720   0.951   0.988  0.00  0.00     0.139 HD
BRANCH  18  20
ATOM     20  C   UNL d   1      -5.908  -0.433   2.398  0.00  0.00     0.104 C 
BRANCH  20  21
ATOM     21  C   UNL d   1      -6.496   0.315   3.593  0.00  0.00     0.015 C 
BRANCH  21  22
ATOM     22  C   UNL d   1      -6.540  -0.630   4.794  0.00  0.00     0.001 C 
BRANCH  22  23
ATOM     23  C   UNL d   1      -7.135   0.027   6.034  0.00  0.00     0.000 C 
BRANCH  23  24
ATOM     24  C   UNL d   1      -7.155  -0.961   7.201  0.00  0.00     0.000 C 
BRANCH  24  25
ATOM     25  C   UNL d   1      -7.748  -0.320   8.451  0.00  0.00     0.000 C 
BRANCH  25  26
ATOM     26  C   UNL d   1      -7.766  -1.302   9.620  0.00  0.00     0.000 C 
BRANCH  26  27
ATOM     27  C   UNL d   1      -8.359  -0.648  10.867  0.00  0.00    -0.000 C 
BRANCH  27  28
ATOM     28  C   UNL d   1      -8.384  -1.618  12.045  0.00  0.00    -0.005 C 
ATOM     29  C   UNL d   1      -8.975  -0.962  13.282  0.00  0.00     0.005 C 
ENDBRANCH  27  28
ENDBRANCH  26  27
ENDBRANCH  25  26
ENDBRANCH  24  25
ENDBRANCH  23  24
ENDBRANCH  22  23
ENDBRANCH  21  22
ENDBRANCH  20  21
ENDBRANCH  18  20
ENDBRANCH  15  18
ENDBRANCH   8  15
BRANCH   3  30
ATOM     30  N   UNL d   1      -1.444   3.202  -0.340  0.00  0.00    -0.115 N 
ATOM     31  O   UNL d   1      -0.792   3.412  -1.370  0.00  0.00    -0.532 OA
ATOM     32  O   UNL d   1      -1.898   4.054   0.430  0.00  0.00    -0.532 OA
ENDBRANCH   3  30
BRANCH   4  33
ATOM     33  N   UNL d   1       1.465   3.118   0.660  0.00  0.00    -0.115 N 
ATOM     34  O   UNL d   1       0.879   3.176   1.747  0.00  0.00    -0.532 OA
ATOM     35  O   UNL d   1       1.873   4.076  -0.006  0.00  0.00    -0.532 OA
ENDBRANCH   4  33
BRANCH   9  36
ATOM     36  S   UNL d   1       5.187  -0.286  -0.261  0.00  0.00     0.241 S 
ATOM     37  O   UNL d   1       5.814   0.415   0.839  0.00  0.00    -0.206 OA
ATOM     38  O   UNL d   1       5.321  -1.710  -0.442  0.00  0.00    -0.206 OA
BRANCH  36  39
ATOM     39  N   UNL d   1       5.684   0.492  -1.674  0.00  0.00    -0.216 NA
ATOM     40  H   UNL d   1       6.551   1.010  -1.515  0.00  0.00     0.139 HD
BRANCH  39  41
ATOM     41  C   UNL d   1       5.590  -0.287  -2.913  0.00  0.00     0.104 C 
BRANCH  41  42
ATOM     42  C   UNL d   1       6.029   0.548  -4.114  0.00  0.00     0.015 C 
BRANCH  42  43
ATOM     43  C   UNL d   1       5.943  -0.304  -5.382  0.00  0.00     0.001 C 
BRANCH  43  44
ATOM     44  C   UNL d   1       6.385   0.455  -6.629  0.00  0.00     0.000 C 
BRANCH  44  45
ATOM     45  C   UNL d   1       6.281  -0.440  -7.865  0.00  0.00     0.000 C 
BRANCH  45  46
ATOM     46  C   UNL d   1       6.717   0.304  -9.123  0.00  0.00     0.000 C 
BRANCH  46  47
ATOM     47  C   UNL d   1       6.612  -0.589 -10.359  0.00  0.00     0.000 C 
BRANCH  47  48
ATOM     48  C   UNL d   1       7.050   0.166 -11.613  0.00  0.00    -0.000 C 
BRANCH  48  49
ATOM     49  C   UNL d   1       6.950  -0.716 -12.855  0.00  0.00    -0.005 C 
ATOM     50  C   UNL d   1       7.389   0.038 -14.099  0.00  0.00     0.005 C 
ENDBRANCH  48  49
ENDBRANCH  47  48
ENDBRANCH  46  47
ENDBRANCH  45  46
ENDBRANCH  44  45
ENDBRANCH  43  44
ENDBRANCH  42  43
ENDBRANCH  41  42
ENDBRANCH  39  41
ENDBRANCH  36  39
ENDBRANCH   9  36
TORSDOF 24
