REMARK  2 active torsions:
REMARK  status: ('A' for Active; 'I' for Inactive)
REMARK    1  A    between atoms: C_3  and  C_1 
REMARK       I    between atoms: N_5  and  C_3 
REMARK    2  A    between atoms: C_6  and  N_5 
ROOT
ATOM      1  C   UNL d   1      -1.377  -1.835  -0.765  0.00  0.00     0.084 A 
ATOM      2  C   UNL d   1      -1.742  -3.192  -0.677  0.00  0.00     0.079 A 
ATOM      3  C   UNL d   1      -0.955  -1.275  -1.994  0.00  0.00     0.058 A 
ATOM      4  C   UNL d   1      -1.668  -3.995  -1.822  0.00  0.00     0.057 A 
ATOM      5  C   UNL d   1      -0.885  -2.101  -3.119  0.00  0.00     0.033 A 
ATOM      6  C   UNL d   1      -1.238  -3.450  -3.032  0.00  0.00     0.028 A 
ATOM      7 CL   UNL d   1      -1.442  -0.797   0.635  0.00  0.00    -0.080 Cl
ATOM      8 CL   UNL d   1      -2.278  -3.868   0.832  0.00  0.00    -0.081 Cl
ATOM      9 CL   UNL d   1      -2.084  -5.673  -1.816  0.00  0.00    -0.082 Cl
ENDROOT
BRANCH   3  10
ATOM     10  N   UNL d   1      -0.589   0.094  -2.028  0.00  0.00    -0.322 N 
ATOM     11  C   UNL d   1      -0.294   0.879  -3.147  0.00  0.00     0.277 C 
ATOM     12  O   UNL d   1      -0.468   0.489  -4.301  0.00  0.00    -0.268 OA
ATOM     13  H   UNL d   1      -0.577   0.557  -1.119  0.00  0.00     0.169 HD
BRANCH  11  14
ATOM     14  C   UNL d   1       0.188   2.319  -2.820  0.00  0.00     0.269 C 
ATOM     15 CL   UNL d   1       1.236   2.300  -1.369  0.00  0.00    -0.073 Cl
ATOM     16 CL   UNL d   1      -1.255   3.312  -2.494  0.00  0.00    -0.073 Cl
ATOM     17 CL   UNL d   1       1.108   2.990  -4.188  0.00  0.00    -0.073 Cl
ENDBRANCH  11  14
ENDBRANCH   3  10
TORSDOF 2
