REMARK  5 active torsions:
REMARK  status: ('A' for Active; 'I' for Inactive)
REMARK    1  A    between atoms: C_2  and  N_1 
REMARK    2  A    between atoms: N_6  and  N_14 
REMARK    3  A    between atoms: N_14  and  C_8 
REMARK    4  A    between atoms: N_12  and  C_11 
REMARK    5  A    between atoms: C_19  and  C_17 
ROOT
ATOM      1  N   UNL d   1      -2.462  -6.643   3.089  0.00  0.00    -0.309 N 
ATOM      2  HN  UNL d   1      -2.455  -7.650   3.247  1.00  0.00     0.186 HD
ATOM      3  C   UNL d   1      -2.155  -5.808   4.029  0.00  0.00     0.118 C 
ENDROOT
BRANCH   1   4
ATOM      4  N   UNL d   1      -2.790  -6.119   1.890  0.00  0.00    -0.286 N 
ATOM      5  H   UNL d   1      -2.862  -5.133   1.679  0.00  0.00     0.188 HD
BRANCH   4   6
ATOM      6  C   UNL d   1      -3.157  -6.966   0.839  0.00  0.00     0.119 A 
ATOM      7  C   UNL d   1      -3.127  -8.357   0.987  0.00  0.00     0.052 A 
ATOM      8  C   UNL d   1      -3.487  -9.185  -0.072  0.00  0.00     0.041 A 
ATOM      9  C   UNL d   1      -3.872  -8.592  -1.269  0.00  0.00     0.118 A 
ATOM     10  C   UNL d   1      -3.882  -7.209  -1.356  0.00  0.00     0.125 A 
ATOM     11  N   UNL d   1      -3.534  -6.390  -0.329  0.00  0.00    -0.349 N 
ATOM     12  HN  UNL d   1      -3.555  -5.376  -0.433  1.00  0.00     0.167 HD
BRANCH   9  13
ATOM     13  N   UNL d   1      -4.259  -9.405  -2.412  0.00  0.00    -0.114 N 
ATOM     14  O   UNL d   1      -4.604  -8.816  -3.447  0.00  0.00    -0.532 OA
ATOM     15  O   UNL d   1      -4.223 -10.636  -2.284  0.00  0.00    -0.532 OA
ENDBRANCH   9  13
ENDBRANCH   4   6
ENDBRANCH   1   4
BRANCH   3  16
ATOM     16  C   UNL d   1      -1.771  -6.312   5.363  0.00  0.00    -0.019 A 
ATOM     17  C   UNL d   1      -1.755  -7.682   5.620  0.00  0.00     0.015 A 
ATOM     18  C   UNL d   1      -1.361  -8.159   6.876  0.00  0.00     0.030 A 
ATOM     19  C   UNL d   1      -0.962  -7.299   7.910  0.00  0.00     0.029 A 
ATOM     20  C   UNL d   1      -0.999  -5.921   7.616  0.00  0.00     0.030 A 
ATOM     21  C   UNL d   1      -1.402  -5.424   6.366  0.00  0.00     0.015 A 
BRANCH  19  22
ATOM     22  N   UNL d   1      -0.494  -7.767   9.130  0.00  0.00    -0.390 N 
ATOM     23  C   UNL d   1      -0.738  -7.026  10.365  0.00  0.00     0.149 C 
ATOM     24  C   UNL d   1      -0.118  -9.165   9.327  0.00  0.00     0.149 C 
ENDBRANCH  19  22
ENDBRANCH   3  16
TORSDOF 5
