REMARK  6 active torsions:
REMARK  status: ('A' for Active; 'I' for Inactive)
REMARK    1  A    between atoms: C_18  and  N_2 
REMARK    2  A    between atoms: C_5  and  N_9 
REMARK       I    between atoms: N_9  and  C_10 
REMARK    3  A    between atoms: C_10  and  O_22 
REMARK    4  A    between atoms: C_21  and  C_11 
REMARK    5  A    between atoms: C_23  and  C_18 
REMARK    6  A    between atoms: O_22  and  C_23 
ROOT
ATOM      1  N   UNL d   1       6.985   1.182  -0.497  0.00  0.00    -0.300 N 
ATOM      2  C   UNL d   1       7.161  -0.158  -0.267  0.00  0.00     0.365 C 
ATOM      3  O   UNL d   1       8.214  -0.768  -0.176  0.00  0.00    -0.238 OA
ATOM      4  H   UNL d   1       6.141   1.519  -0.052  0.00  0.00     0.171 HD
ENDROOT
BRANCH   2   5
ATOM      5  O   UNL d   1       5.931  -0.675   0.000  0.00  0.00    -0.302 OA
BRANCH   5   6
ATOM      6  C   UNL d   1       5.881  -1.963   0.645  0.00  0.00     0.202 C 
BRANCH   6   7
ATOM      7  C   UNL d   1       5.838  -1.720   2.150  0.00  0.00     0.179 C 
BRANCH   7   8
ATOM      8  N   UNL d   1       5.672  -2.929   2.945  0.00  0.00    -0.255 N 
ATOM      9  C   UNL d   1       4.396  -3.322   3.357  0.00  0.00     0.273 A 
ATOM     10  C   UNL d   1       4.337  -4.477   4.277  0.00  0.00     0.045 A 
ATOM     11  O   UNL d   1       3.358  -2.763   3.018  0.00  0.00    -0.266 OA
ATOM     12  C   UNL d   1       5.514  -5.127   4.613  0.00  0.00    -0.004 A 
ATOM     13  C   UNL d   1       3.128  -4.912   4.829  0.00  0.00     0.018 A 
ATOM     14  C   UNL d   1       6.758  -4.615   4.056  0.00  0.00     0.119 A 
ATOM     15  C   UNL d   1       5.516  -6.223   5.477  0.00  0.00     0.014 A 
ATOM     16  N   UNL d   1       6.835  -3.583   3.278  0.00  0.00    -0.306 N 
ATOM     17  HN  UNL d   1       7.735  -3.264   2.920  1.00  0.00     0.186 HD
ATOM     18  C   UNL d   1       4.310  -6.656   6.028  0.00  0.00     0.001 A 
ATOM     19  C   UNL d   1       3.119  -5.998   5.711  0.00  0.00     0.001 A 
ENDBRANCH   7   8
ENDBRANCH   6   7
ENDBRANCH   5   6
ENDBRANCH   2   5
BRANCH   1  20
ATOM     20  C   UNL d   1       7.991   2.142  -0.759  0.00  0.00     0.071 A 
ATOM     21  C   UNL d   1       9.046   1.961  -1.666  0.00  0.00     0.039 A 
ATOM     22  C   UNL d   1      10.021   2.961  -1.835  0.00  0.00     0.029 A 
ATOM     23 BR   UNL d   1       9.129   0.510  -2.898  0.00  0.00    -0.049 Br
ATOM     24  C   UNL d   1       9.960   4.173  -1.129  0.00  0.00    -0.052 A 
ATOM     25  C   UNL d   1       8.857   4.391  -0.297  0.00  0.00     0.029 A 
ATOM     26  C   UNL d   1       7.886   3.395  -0.124  0.00  0.00     0.039 A 
ATOM     27 BR   UNL d   1       6.430   3.799   1.039  0.00  0.00    -0.049 Br
BRANCH  24  28
ATOM     28  C   UNL d   1      11.043   5.233  -1.250  0.00  0.00     0.010 C 
ATOM     29  C   UNL d   1      12.408   4.694  -0.809  0.00  0.00     0.015 C 
ATOM     30  C   UNL d   1      11.113   5.840  -2.653  0.00  0.00     0.015 C 
ENDBRANCH  24  28
ENDBRANCH   1  20
TORSDOF 6
