REMARK  3 active torsions:
REMARK  status: ('A' for Active; 'I' for Inactive)
REMARK    1  A    between atoms: C_2  and  C_1 
REMARK       I    between atoms: N_3  and  C_1 
REMARK    2  A    between atoms: C_14  and  N_3 
REMARK    3  A    between atoms: C_13  and  C_14 
ROOT
ATOM      1  C   UNL d   1       0.922   0.082   0.024  0.00  0.00     0.252 C 
ATOM      2  N   UNL d   1       0.241   0.938   0.861  0.00  0.00    -0.353 N 
ATOM      3  O   UNL d   1       0.397  -0.821  -0.612  0.00  0.00    -0.268 OA
ATOM      4  H   UNL d   1       0.749   1.568   1.465  0.00  0.00     0.163 HD
ENDROOT
BRANCH   2   5
ATOM      5  C   UNL d   1      -1.200   0.910   0.992  0.00  0.00     0.161 C 
BRANCH   5   6
ATOM      6  C   UNL d   1      -1.799   2.224   0.553  0.00  0.00    -0.037 A 
ATOM      7  C   UNL d   1      -1.681   2.643  -0.782  0.00  0.00     0.032 A 
ATOM      8  C   UNL d   1      -2.239   3.855  -1.197  0.00  0.00     0.036 A 
ATOM      9 CL   UNL d   1      -2.074   4.351  -2.835  0.00  0.00    -0.084 Cl
ATOM     10  C   UNL d   1      -2.926   4.664  -0.297  0.00  0.00     0.047 A 
ATOM     11  C   UNL d   1      -3.051   4.250   1.027  0.00  0.00     0.036 A 
ATOM     12  C   UNL d   1      -2.494   3.042   1.456  0.00  0.00     0.032 A 
ATOM     13 CL   UNL d   1      -3.907   5.238   2.148  0.00  0.00    -0.084 Cl
ENDBRANCH   5   6
ENDBRANCH   2   5
BRANCH   1  14
ATOM     14  C   UNL d   1       2.388   0.302  -0.076  0.00  0.00     0.035 A 
ATOM     15  C   UNL d   1       3.229  -0.799  -0.278  0.00  0.00     0.041 A 
ATOM     16  C   UNL d   1       4.606  -0.603  -0.384  0.00  0.00     0.036 A 
ATOM     17 CL   UNL d   1       5.647  -1.955  -0.606  0.00  0.00    -0.084 Cl
ATOM     18  C   UNL d   1       5.151   0.677  -0.310  0.00  0.00     0.047 A 
ATOM     19  C   UNL d   1       4.305   1.769  -0.136  0.00  0.00     0.036 A 
ATOM     20  C   UNL d   1       2.928   1.593  -0.019  0.00  0.00     0.041 A 
ATOM     21 CL   UNL d   1       4.963   3.357  -0.071  0.00  0.00    -0.084 Cl
ENDBRANCH   1  14
TORSDOF 3
