REMARK  0 active torsions:
REMARK  status: ('A' for Active; 'I' for Inactive)
ROOT
ATOM      1  C   UNL d   1       0.063  -1.663   0.579  0.00  0.00     0.026 A 
ATOM      2  C   UNL d   1      -0.189  -1.166  -0.688  0.00  0.00     0.026 A 
ATOM      3  C   UNL d   1      -0.490  -3.012   0.697  0.00  0.00     0.167 A 
ATOM      4  C   UNL d   1      -0.848  -2.197  -1.491  0.00  0.00     0.167 A 
ATOM      5  C   UNL d   1      -0.997  -3.446  -0.653  0.00  0.00     0.167 A 
ATOM      6  C   UNL d   1       0.229   0.092  -1.081  0.00  0.00     0.041 A 
ATOM      7  C   UNL d   1       0.802  -0.952   1.504  0.00  0.00     0.041 A 
ATOM      8  C   UNL d   1       1.300   0.297   1.110  0.00  0.00     0.056 A 
ATOM      9  C   UNL d   1       0.994   0.827  -0.167  0.00  0.00     0.056 A 
ATOM     10  O   UNL d   1      -1.181  -2.044  -2.647  0.00  0.00    -0.292 OA
ATOM     11  O   UNL d   1      -0.510  -3.646   1.732  0.00  0.00    -0.292 OA
ATOM     12 CL   UNL d   1       2.346   1.117   2.215  0.00  0.00    -0.083 Cl
ATOM     13 CL   UNL d   1       1.573   2.373  -0.679  0.00  0.00    -0.083 Cl
ENDROOT
TORSDOF 0
