REMARK  4 active torsions:
REMARK  status: ('A' for Active; 'I' for Inactive)
REMARK    1  A    between atoms: C_4  and  C_1 
REMARK    2  A    between atoms: O_8  and  C_2 
REMARK       I    between atoms: N_15  and  C_4 
REMARK    3  A    between atoms: C_7  and  O_8 
REMARK    4  A    between atoms: N_16  and  N_15 
ROOT
ATOM      1  C   UNL d   1      -0.108   1.152  -0.087  0.00  0.00     0.147 A 
ATOM      2  C   UNL d   1      -0.097  -1.048  -0.037  0.00  0.00     0.191 A 
ATOM      3  O   UNL d   1      -0.914   0.042  -0.030  0.00  0.00    -0.282 OA
ATOM      4  C   UNL d   1       1.213   0.759  -0.177  0.00  0.00     0.048 A 
ATOM      5  C   UNL d   1       1.219  -0.655  -0.173  0.00  0.00     0.067 A 
ENDROOT
BRANCH   2   6
ATOM      6  O   UNL d   1      -0.738  -2.206   0.101  0.00  0.00    -0.288 OA
BRANCH   6   7
ATOM      7  C   UNL d   1      -0.081  -3.298   0.619  0.00  0.00     0.081 A 
ATOM      8  C   UNL d   1       0.760  -3.203   1.732  0.00  0.00     0.061 A 
ATOM      9  C   UNL d   1       1.409  -4.340   2.206  0.00  0.00     0.038 A 
ATOM     10 CL   UNL d   1       2.489  -4.206   3.537  0.00  0.00    -0.084 Cl
ATOM     11  C   UNL d   1       1.196  -5.578   1.607  0.00  0.00     0.048 A 
ATOM     12  C   UNL d   1       0.318  -5.671   0.529  0.00  0.00     0.038 A 
ATOM     13  C   UNL d   1      -0.325  -4.539   0.032  0.00  0.00     0.061 A 
ATOM     14 CL   UNL d   1       0.028  -7.205  -0.197  0.00  0.00    -0.084 Cl
ENDBRANCH   6   7
ENDBRANCH   2   6
BRANCH   1  15
ATOM     15  C   UNL d   1      -0.700   2.469  -0.026  0.00  0.00     0.289 C 
ATOM     16  O   UNL d   1      -0.046   3.511   0.030  0.00  0.00    -0.264 OA
ATOM     17  N   UNL d   1      -2.092   2.474  -0.032  0.00  0.00    -0.288 N 
ATOM     18  H   UNL d   1      -2.583   1.592  -0.183  0.00  0.00     0.183 HD
BRANCH  17  19
ATOM     19  N   UNL d   1      -2.805   3.695  -0.059  0.00  0.00    -0.247 NA
ATOM     20  H   UNL d   1      -2.112   4.442  -0.213  0.00  0.00     0.143 HD
ATOM     21  H   UNL d   1      -3.155   3.875   0.886  0.00  0.00     0.143 HD
ENDBRANCH  17  19
ENDBRANCH   1  15
TORSDOF 4
