REMARK  2 active torsions:
REMARK  status: ('A' for Active; 'I' for Inactive)
REMARK    1  A    between atoms: C_7  and  C_6 
REMARK    2  A    between atoms: C_10  and  C_9 
ROOT
ATOM      1  C   UNL d   1       0.316  -0.992  -0.042  0.00  0.00     0.257 A 
ATOM      2  C   UNL d   1      -1.187  -0.842   0.016  0.00  0.00     0.044 A 
ATOM      3  N   UNL d   1       0.800   0.296  -0.198  0.00  0.00    -0.322 N 
ATOM      4  C   UNL d   1      -1.476   0.596  -0.072  0.00  0.00     0.006 A 
ATOM      5  C   UNL d   1      -0.234   1.227  -0.217  0.00  0.00     0.046 A 
ATOM      6  C   UNL d   1      -1.953  -1.942   0.085  0.00  0.00     0.018 C 
ATOM      7  O   UNL d   1       0.965  -2.018   0.022  0.00  0.00    -0.267 OA
ATOM      8  C   UNL d   1      -2.628   1.361  -0.018  0.00  0.00     0.015 A 
ATOM      9  C   UNL d   1      -0.099   2.597  -0.345  0.00  0.00     0.030 A 
ATOM     10  C   UNL d   1      -2.518   2.751  -0.146  0.00  0.00     0.001 A 
ATOM     11  C   UNL d   1      -1.264   3.363  -0.314  0.00  0.00     0.002 A 
ATOM     12  H   UNL d   1       1.784   0.503  -0.272  0.00  0.00     0.169 HD
ENDROOT
BRANCH   6  13
ATOM     13  C   UNL d   1      -3.396  -2.000   0.058  0.00  0.00     0.002 C 
ATOM     14  C   UNL d   1      -4.098  -3.139   0.153  0.00  0.00     0.011 C 
BRANCH  14  15
ATOM     15  C   UNL d   1      -5.560  -3.115   0.081  0.00  0.00    -0.036 A 
ATOM     16  C   UNL d   1      -6.203  -3.194  -1.159  0.00  0.00     0.011 A 
ATOM     17  C   UNL d   1      -7.597  -3.155  -1.231  0.00  0.00     0.001 A 
ATOM     18  C   UNL d   1      -8.353  -3.032  -0.066  0.00  0.00     0.000 A 
ATOM     19  C   UNL d   1      -7.716  -2.939   1.171  0.00  0.00     0.001 A 
ATOM     20  C   UNL d   1      -6.322  -2.978   1.245  0.00  0.00     0.011 A 
ENDBRANCH  14  15
ENDBRANCH   6  13
TORSDOF 2
