REMARK  5 active torsions:
REMARK  status: ('A' for Active; 'I' for Inactive)
REMARK       I    between atoms: N_2  and  C_1 
REMARK       I    between atoms: N_6  and  C_1 
REMARK    1  A    between atoms: C_5  and  N_2 
REMARK    2  A    between atoms: N_3  and  C_8 
REMARK    3  A    between atoms: C_12  and  N_6 
REMARK    4  A    between atoms: C_8  and  C_9 
REMARK    5  A    between atoms: C_9  and  C_12 
ROOT
ATOM      1  C   UNL d   1       2.212   1.294  -0.608  0.00  0.00     0.316 C 
ATOM      2  N   UNL d   1       2.887   1.515  -1.768  0.00  0.00    -0.335 N 
ATOM      3  O   UNL d   1       1.333   2.033  -0.174  0.00  0.00    -0.247 OA
ATOM      4  N   UNL d   1       2.576   0.205   0.110  0.00  0.00    -0.343 N 
ATOM      5  H   UNL d   1       3.757   1.013  -1.835  0.00  0.00     0.165 HD
ATOM      6  H   UNL d   1       1.992   0.107   0.929  0.00  0.00     0.164 HD
ENDROOT
BRANCH   4   7
ATOM      7  C   UNL d   1       3.377  -0.940  -0.268  0.00  0.00     0.126 C 
BRANCH   7   8
ATOM      8  C   UNL d   1       4.895  -0.745  -0.130  0.00  0.00     0.050 C 
BRANCH   8   9
ATOM      9  C   UNL d   1       5.586  -2.075  -0.462  0.00  0.00     0.274 C 
BRANCH   9  10
ATOM     10  N   UNL d   1       7.057  -2.074  -0.476  0.00  0.00     0.092 N 
ATOM     11  C   UNL d   1       7.658  -1.158  -1.472  0.00  0.00     0.298 C 
ATOM     12  C   UNL d   1       7.434  -1.594  -2.931  0.00  0.00     0.198 C 
ATOM     13  O   UNL d   1       7.927  -2.919  -3.166  0.00  0.00    -0.388 OA
ATOM     14  C   UNL d   1       7.339  -3.860  -2.256  0.00  0.00     0.198 C 
ATOM     15  C   UNL d   1       7.562  -3.439  -0.788  0.00  0.00     0.298 C 
ENDBRANCH   9  10
ENDBRANCH   8   9
ENDBRANCH   7   8
ENDBRANCH   4   7
BRANCH   2  16
ATOM     16  C   UNL d   1       2.813   2.772  -2.541  0.00  0.00     0.023 C 
ATOM     17  C   UNL d   1       3.145   3.980  -1.641  0.00  0.00     0.037 C 
ATOM     18  C   UNL d   1       3.841   2.683  -3.690  0.00  0.00     0.037 C 
ATOM     19  C   UNL d   1       1.418   2.958  -3.162  0.00  0.00     0.037 C 
ENDBRANCH   2  16
TORSDOF 5
