REMARK  7 active torsions:
REMARK  status: ('A' for Active; 'I' for Inactive)
REMARK    1  A    between atoms: C_6  and  C_1 
REMARK    2  A    between atoms: C_7  and  C_2 
REMARK    3  A    between atoms: C_16  and  N_3 
REMARK    4  A    between atoms: S_13  and  C_7 
REMARK    5  A    between atoms: C_9  and  C_11 
REMARK    6  A    between atoms: C_10  and  C_12 
REMARK    7  A    between atoms: C_14  and  S_13 
ROOT
ATOM      1  C   UNL d   1      -0.890  -2.641  -0.279  0.00  0.00     0.227 C 
ATOM      2  O   UNL d   1      -0.725  -3.354   0.699  0.00  0.00    -0.279 OA
ENDROOT
BRANCH   1   3
ATOM      3  C   UNL d   1      -0.563  -1.217  -0.270  0.00  0.00     0.072 C 
ATOM      4  C   UNL d   1       0.501  -0.588   0.372  0.00  0.00     0.156 C 
ATOM      5  N   UNL d   1       0.449   0.745  -0.001  0.00  0.00    -0.251 N 
ATOM      6  N   UNL d   1      -0.772   1.049  -0.513  0.00  0.00    -0.303 N 
ATOM      7  C   UNL d   1      -1.328  -0.136  -0.763  0.00  0.00     0.126 C 
ATOM      8  HN  UNL d   1      -1.172   1.974  -0.670  1.00  0.00     0.186 HD
BRANCH   4   9
ATOM      9  C   UNL d   1       1.451  -1.061   1.401  0.00  0.00     0.435 C 
ATOM     10  F   UNL d   1       1.436  -2.409   1.551  0.00  0.00    -0.165 F 
ATOM     11  F   UNL d   1       2.743  -0.752   1.154  0.00  0.00    -0.165 F 
ATOM     12  F   UNL d   1       1.147  -0.532   2.613  0.00  0.00    -0.165 F 
ENDBRANCH   4   9
BRANCH   5  13
ATOM     13  C   UNL d   1       1.467   1.738  -0.004  0.00  0.00     0.057 A 
ATOM     14  C   UNL d   1       2.783   1.400  -0.347  0.00  0.00     0.031 A 
ATOM     15  C   UNL d   1       3.787   2.370  -0.340  0.00  0.00     0.002 A 
ATOM     16  C   UNL d   1       3.480   3.687  -0.013  0.00  0.00     0.000 A 
ATOM     17  C   UNL d   1       2.163   4.044   0.273  0.00  0.00     0.002 A 
ATOM     18  C   UNL d   1       1.149   3.077   0.257  0.00  0.00     0.031 A 
ENDBRANCH   5  13
ENDBRANCH   1   3
BRANCH   1  19
ATOM     19  S   UNL d   1      -1.502  -3.220  -1.824  0.00  0.00    -0.047 SA
BRANCH  19  20
ATOM     20  C   UNL d   1      -1.754  -4.995  -1.778  0.00  0.00     0.010 A 
ATOM     21  C   UNL d   1      -1.632  -5.829  -0.661  0.00  0.00     0.035 A 
ATOM     22  C   UNL d   1      -1.937  -7.206  -0.729  0.00  0.00     0.050 A 
ATOM     23  C   UNL d   1      -2.328  -7.765  -1.952  0.00  0.00     0.032 A 
ATOM     24  C   UNL d   1      -2.450  -6.966  -3.094  0.00  0.00     0.050 A 
ATOM     25  C   UNL d   1      -2.166  -5.589  -2.990  0.00  0.00     0.035 A 
BRANCH  22  26
ATOM     26  C   UNL d   1      -1.866  -8.067   0.514  0.00  0.00     0.417 C 
ATOM     27  F   UNL d   1      -2.444  -9.290   0.348  0.00  0.00    -0.166 F 
ATOM     28  F   UNL d   1      -0.589  -8.309   0.914  0.00  0.00    -0.166 F 
ATOM     29  F   UNL d   1      -2.501  -7.501   1.576  0.00  0.00    -0.166 F 
ENDBRANCH  22  26
BRANCH  24  30
ATOM     30  C   UNL d   1      -2.923  -7.564  -4.400  0.00  0.00     0.417 C 
ATOM     31  F   UNL d   1      -3.037  -8.921  -4.364  0.00  0.00    -0.166 F 
ATOM     32  F   UNL d   1      -4.148  -7.098  -4.767  0.00  0.00    -0.166 F 
ATOM     33  F   UNL d   1      -2.087  -7.288  -5.438  0.00  0.00    -0.166 F 
ENDBRANCH  24  30
ENDBRANCH  19  20
ENDBRANCH   1  19
TORSDOF 7
