REMARK  8 active torsions:
REMARK  status: ('A' for Active; 'I' for Inactive)
REMARK    1  A    between atoms: C_7  and  C_1 
REMARK    2  A    between atoms: C_20  and  C_6 
REMARK    3  A    between atoms: S_14  and  C_10 
REMARK    4  A    between atoms: C_13  and  C_18 
REMARK    5  A    between atoms: C_15  and  C_13 
REMARK    6  A    between atoms: C_18  and  S_14 
REMARK    7  A    between atoms: O_16  and  C_20 
REMARK    8  A    between atoms: C_17  and  O_16 
ROOT
ATOM      1  C   UNL d   1      -0.342  -2.584  -0.082  0.00  0.00     0.054 A 
ATOM      2  N   UNL d   1       0.312  -3.274   0.878  0.00  0.00    -0.336 N 
ATOM      3  HN  UNL d   1       0.873  -2.800   1.586  1.00  0.00     0.168 HD
ATOM      4  C   UNL d   1       0.191  -4.611   0.860  0.00  0.00     0.144 A 
ATOM      5  N   UNL d   1      -0.523  -5.295  -0.045  0.00  0.00    -0.347 N 
ATOM      6  HN  UNL d   1      -0.589  -6.313  -0.016  1.00  0.00     0.167 HD
ATOM      7  C   UNL d   1      -1.084  -3.205  -1.065  0.00  0.00     0.048 A 
ATOM      8  C   UNL d   1      -1.146  -4.575  -0.993  0.00  0.00     0.092 A 
ENDROOT
BRANCH   1   9
ATOM      9  C   UNL d   1      -0.179  -1.127   0.005  0.00  0.00     0.055 A 
ATOM     10  C   UNL d   1       0.885  -0.377   0.492  0.00  0.00     0.025 A 
ATOM     11  N   UNL d   1       0.719   0.995   0.439  0.00  0.00    -0.355 N 
ATOM     12  C   UNL d   1       2.170  -0.882   1.040  0.00  0.00     0.070 C 
ATOM     13  C   UNL d   1      -0.456   1.296  -0.070  0.00  0.00     0.076 A 
ATOM     14  HN  UNL d   1       1.410   1.677   0.751  1.00  0.00     0.166 HD
ATOM     15  S   UNL d   1      -1.427  -0.048  -0.503  0.00  0.00    -0.070 SA
BRANCH  13  16
ATOM     16  C   UNL d   1      -0.882   2.699  -0.376  0.00  0.00     0.240 C 
BRANCH  16  17
ATOM     17  O   UNL d   1      -1.629   3.206   0.734  0.00  0.00    -0.343 OA
BRANCH  17  18
ATOM     18  C   UNL d   1      -1.939   4.545   0.662  0.00  0.00     0.090 A 
ATOM     19  C   UNL d   1      -3.143   4.982   1.231  0.00  0.00     0.067 A 
ATOM     20 CL   UNL d   1      -4.244   3.877   1.975  0.00  0.00    -0.081 Cl
ATOM     21  C   UNL d   1      -3.498   6.336   1.196  0.00  0.00     0.026 A 
ATOM     22  C   UNL d   1      -2.644   7.270   0.608  0.00  0.00     0.002 A 
ATOM     23  C   UNL d   1      -1.434   6.849   0.066  0.00  0.00     0.003 A 
ATOM     24  C   UNL d   1      -1.079   5.496   0.102  0.00  0.00     0.038 A 
ENDBRANCH  17  18
ENDBRANCH  16  17
ENDBRANCH  13  16
ENDBRANCH   1   9
BRANCH   4  25
ATOM     25  S   UNL d   1       1.032  -5.570   2.096  0.00  0.00    -0.086 SA
BRANCH  25  26
ATOM     26  C   UNL d   1       1.974  -4.261   2.934  0.00  0.00     0.166 C 
BRANCH  26  27
ATOM     27  C   UNL d   1       2.901  -4.800   4.013  0.00  0.00     0.169 C 
ATOM     28  O   UNL d   1       3.105  -5.996   4.210  0.00  0.00    -0.291 OA
BRANCH  27  29
ATOM     29  C   UNL d   1       3.625  -3.809   4.875  0.00  0.00     0.011 A 
ATOM     30  C   UNL d   1       3.568  -2.428   4.647  0.00  0.00     0.017 A 
ATOM     31  C   UNL d   1       4.223  -1.539   5.507  0.00  0.00     0.025 A 
ATOM     32  C   UNL d   1       4.941  -2.026   6.596  0.00  0.00     0.034 A 
ATOM     33  C   UNL d   1       5.029  -3.398   6.821  0.00  0.00     0.025 A 
ATOM     34 CL   UNL d   1       5.709  -0.928   7.673  0.00  0.00    -0.084 Cl
ATOM     35  C   UNL d   1       4.376  -4.287   5.960  0.00  0.00     0.017 A 
ENDBRANCH  27  29
ENDBRANCH  26  27
ENDBRANCH  25  26
ENDBRANCH   4  25
TORSDOF 8
