REMARK  7 active torsions:
REMARK  status: ('A' for Active; 'I' for Inactive)
REMARK    1  A    between atoms: C_11  and  N_1 
REMARK    2  A    between atoms: C_2  and  C_11 
REMARK    3  A    between atoms: S_13  and  C_5 
REMARK    4  A    between atoms: O_21  and  C_10 
REMARK    5  A    between atoms: C_18  and  S_13 
REMARK    6  A    between atoms: C_14  and  C_18 
REMARK    7  A    between atoms: C_20  and  C_14 
ROOT
ATOM      1  C   UNL d   1       1.408  -3.517   0.532  0.00  0.00     0.159 A 
ATOM      2  O   UNL d   1       2.180  -3.131   1.597  0.00  0.00    -0.270 OA
ATOM      3  C   UNL d   1       3.345  -3.821   1.368  0.00  0.00     0.203 A 
ATOM      4  N   UNL d   1       2.015  -4.394  -0.244  0.00  0.00    -0.279 N 
ATOM      5  HN  UNL d   1       1.634  -4.838  -1.080  1.00  0.00     0.189 HD
ATOM      6  N   UNL d   1       3.267  -4.593   0.302  0.00  0.00    -0.272 N 
ATOM      7  HN  UNL d   1       3.993  -5.217  -0.051  1.00  0.00     0.189 HD
ENDROOT
BRANCH   1   8
ATOM      8  C   UNL d   1       0.106  -2.823   0.321  0.00  0.00     0.217 C 
BRANCH   8   9
ATOM      9  N   UNL d   1      -1.035  -3.535   0.913  0.00  0.00    -0.315 N 
ATOM     10  C   UNL d   1      -1.814  -2.860   1.864  0.00  0.00     0.281 A 
ATOM     11  C   UNL d   1      -3.010  -3.621   2.424  0.00  0.00     0.136 A 
ATOM     12  O   UNL d   1      -1.558  -1.711   2.219  0.00  0.00    -0.265 OA
ATOM     13  C   UNL d   1      -3.262  -4.842   1.928  0.00  0.00     0.044 A 
ATOM     14  C   UNL d   1      -2.459  -5.432   0.892  0.00  0.00     0.020 A 
ATOM     15  C   UNL d   1      -1.390  -4.783   0.424  0.00  0.00     0.095 A 
BRANCH  11  16
ATOM     16  O   UNL d   1      -3.867  -3.143   3.407  0.00  0.00    -0.351 OA
ATOM     17  C   UNL d   1      -3.630  -1.841   3.925  0.00  0.00     0.210 C 
ENDBRANCH  11  16
ENDBRANCH   8   9
ENDBRANCH   1   8
BRANCH   3  18
ATOM     18  S   UNL d   1       4.750  -3.681   2.383  0.00  0.00    -0.077 SA
BRANCH  18  19
ATOM     19  C   UNL d   1       6.082  -3.836   1.146  0.00  0.00     0.166 C 
BRANCH  19  20
ATOM     20  C   UNL d   1       6.077  -2.703   0.131  0.00  0.00     0.169 C 
ATOM     21  O   UNL d   1       5.228  -1.813   0.113  0.00  0.00    -0.291 OA
BRANCH  20  22
ATOM     22  C   UNL d   1       7.170  -2.654  -0.897  0.00  0.00     0.010 A 
ATOM     23  C   UNL d   1       8.241  -3.557  -0.923  0.00  0.00     0.015 A 
ATOM     24  C   UNL d   1       9.246  -3.426  -1.891  0.00  0.00     0.001 A 
ATOM     25  C   UNL d   1       9.185  -2.405  -2.839  0.00  0.00     0.000 A 
ATOM     26  C   UNL d   1       8.118  -1.511  -2.828  0.00  0.00     0.001 A 
ATOM     27  C   UNL d   1       7.118  -1.634  -1.863  0.00  0.00     0.015 A 
ENDBRANCH  20  22
ENDBRANCH  19  20
ENDBRANCH  18  19
ENDBRANCH   3  18
TORSDOF 7
