REMARK  2 active torsions:
REMARK  status: ('A' for Active; 'I' for Inactive)
REMARK    1  A    between atoms: C_5  and  C_1 
REMARK    2  A    between atoms: C_12  and  C_4 
ROOT
ATOM      1  N   UNL d   1       2.514  -2.786  -2.068  0.00  0.00    -0.197 NA
ATOM      2  C   UNL d   1       1.618  -2.729  -1.329  0.00  0.00     0.064 C 
ATOM      3  C   UNL d   1       0.518  -2.690  -0.357  0.00  0.00     0.167 C 
ENDROOT
BRANCH   3   4
ATOM      4  C   UNL d   1       0.042  -1.309  -0.039  0.00  0.00     0.016 A 
ATOM      5  C   UNL d   1      -1.309  -0.865   0.218  0.00  0.00     0.078 A 
ATOM      6  N   UNL d   1      -1.309   0.433   0.549  0.00  0.00    -0.260 N 
ATOM      7  O   UNL d   1      -0.013   0.871   0.463  0.00  0.00    -0.242 OA
ATOM      8  HN  UNL d   1      -2.120   0.991   0.814  1.00  0.00     0.195 HD
ATOM      9  C   UNL d   1       0.797  -0.163   0.134  0.00  0.00     0.082 A 
ATOM     10  C   UNL d   1       2.233   0.185   0.045  0.00  0.00     0.079 C 
BRANCH   5  11
ATOM     11  C   UNL d   1      -2.587  -1.597   0.177  0.00  0.00     0.036 A 
ATOM     12  C   UNL d   1      -3.680  -1.102  -0.571  0.00  0.00     0.048 A 
ATOM     13 CL   UNL d   1      -3.602   0.336  -1.542  0.00  0.00    -0.083 Cl
ATOM     14  C   UNL d   1      -4.912  -1.773  -0.591  0.00  0.00     0.025 A 
ATOM     15  C   UNL d   1      -5.075  -2.969   0.099  0.00  0.00     0.003 A 
ATOM     16  C   UNL d   1      -4.014  -3.474   0.842  0.00  0.00     0.025 A 
ATOM     17  C   UNL d   1      -2.795  -2.783   0.909  0.00  0.00     0.048 A 
ATOM     18 CL   UNL d   1      -1.623  -3.448   1.998  0.00  0.00    -0.083 Cl
ENDBRANCH   5  11
ENDBRANCH   3   4
TORSDOF 2
