REMARK  3 active torsions:
REMARK  status: ('A' for Active; 'I' for Inactive)
REMARK    1  A    between atoms: N_8  and  C_1 
REMARK    2  A    between atoms: S_15  and  C_5 
REMARK    3  A    between atoms: C_11  and  N_8 
ROOT
ATOM      1  C   UNL d   1      -0.785   1.107  -0.106  0.00  0.00     0.131 A 
ATOM      2  C   UNL d   1      -1.460  -0.106  -0.178  0.00  0.00     0.122 A 
ATOM      3  N   UNL d   1       0.560   1.162  -0.026  0.00  0.00    -0.331 N 
ATOM      4  HN  UNL d   1       1.049   2.057  -0.003  1.00  0.00     0.168 HD
ATOM      5  C   UNL d   1      -0.681  -1.250  -0.112  0.00  0.00     0.095 A 
ATOM      6  N   UNL d   1       0.661  -1.204  -0.001  0.00  0.00    -0.339 N 
ATOM      7  HN  UNL d   1       1.218  -2.057   0.063  1.00  0.00     0.167 HD
ATOM      8  C   UNL d   1       1.236   0.005   0.023  0.00  0.00     0.079 A 
ATOM      9  C   UNL d   1      -2.868  -0.146  -0.386  0.00  0.00     0.106 C 
ATOM     10  N   UNL d   1      -4.018  -0.144  -0.566  0.00  0.00    -0.191 NA
ATOM     11  C   UNL d   1       2.729   0.068   0.069  0.00  0.00     0.089 C 
ENDROOT
BRANCH   1  12
ATOM     12  N   UNL d   1      -1.507   2.321  -0.119  0.00  0.00    -0.340 N 
ATOM     13  H   UNL d   1      -2.156   2.393   0.663  0.00  0.00     0.167 HD
BRANCH  12  14
ATOM     14  C   UNL d   1      -1.065   3.587  -0.567  0.00  0.00     0.055 A 
ATOM     15  C   UNL d   1      -1.492   4.773   0.062  0.00  0.00     0.062 A 
ATOM     16  C   UNL d   1      -1.172   6.028  -0.463  0.00  0.00     0.050 A 
ATOM     17 CL   UNL d   1      -2.426   4.707   1.517  0.00  0.00    -0.082 Cl
ATOM     18  C   UNL d   1      -0.421   6.106  -1.631  0.00  0.00     0.035 A 
ATOM     19  C   UNL d   1       0.051   4.950  -2.247  0.00  0.00     0.026 A 
ATOM     20 CL   UNL d   1      -0.090   7.641  -2.334  0.00  0.00    -0.084 Cl
ATOM     21  C   UNL d   1      -0.261   3.698  -1.710  0.00  0.00     0.033 A 
ENDBRANCH  12  14
ENDBRANCH   1  12
BRANCH   5  22
ATOM     22  S   UNL d   1      -1.404  -2.890  -0.203  0.00  0.00    -0.115 SA
ATOM     23  C   UNL d   1       0.052  -3.932   0.093  0.00  0.00     0.097 C 
ENDBRANCH   5  22
TORSDOF 3
