REMARK  6 active torsions:
REMARK  status: ('A' for Active; 'I' for Inactive)
REMARK    1  A    between atoms: C_3  and  C_7 
REMARK    2  A    between atoms: C_16  and  C_4 
REMARK       I    between atoms: C_5  and  N_8 
REMARK       I    between atoms: N_9  and  C_5 
REMARK    3  A    between atoms: N_8  and  C_6 
REMARK       I    between atoms: C_7  and  N_14 
REMARK    4  A    between atoms: C_15  and  N_9 
REMARK    5  A    between atoms: N_14  and  C_18 
REMARK    6  A    between atoms: C_18  and  C_16 
ROOT
ATOM      1  C   UNL d   1       0.169   1.687  -5.761  0.00  0.00     0.058 A 
ATOM      2  C   UNL d   1      -0.322   0.363  -5.770  0.00  0.00     0.052 A 
ATOM      3  C   UNL d   1       1.232   2.047  -6.601  0.00  0.00     0.019 A 
ATOM      4  C   UNL d   1       0.301  -0.592  -6.580  0.00  0.00     0.030 A 
ATOM      5  C   UNL d   1       1.821   1.091  -7.429  0.00  0.00     0.001 A 
ATOM      6  C   UNL d   1       1.364  -0.227  -7.410  0.00  0.00     0.002 A 
ENDROOT
BRANCH   2   7
ATOM      7  N   UNL d   1      -1.391   0.026  -4.916  0.00  0.00    -0.308 N 
ATOM      8  C   UNL d   1      -2.456  -0.818  -5.049  0.00  0.00     0.325 C 
ATOM      9  N   UNL d   1      -2.688  -1.325  -6.299  0.00  0.00    -0.309 N 
ATOM     10  O   UNL d   1      -3.174  -0.988  -4.063  0.00  0.00    -0.247 OA
ATOM     11  H   UNL d   1      -2.016  -1.094  -7.011  0.00  0.00     0.170 HD
ATOM     12  H   UNL d   1      -1.508   0.627  -4.096  0.00  0.00     0.170 HD
BRANCH   9  13
ATOM     13  C   UNL d   1      -3.771  -2.129  -6.707  0.00  0.00     0.036 A 
ATOM     14  C   UNL d   1      -4.898  -2.371  -5.918  0.00  0.00     0.029 A 
ATOM     15  C   UNL d   1      -5.910  -3.221  -6.369  0.00  0.00     0.002 A 
ATOM     16  C   UNL d   1      -5.806  -3.833  -7.614  0.00  0.00     0.000 A 
ATOM     17  C   UNL d   1      -4.701  -3.573  -8.424  0.00  0.00     0.002 A 
ATOM     18  C   UNL d   1      -3.696  -2.712  -7.977  0.00  0.00     0.029 A 
ENDBRANCH   9  13
ENDBRANCH   2   7
BRANCH   1  19
ATOM     19  C   UNL d   1      -0.485   2.704  -4.888  0.00  0.00     0.253 C 
ATOM     20  N   UNL d   1      -0.600   3.983  -5.393  0.00  0.00    -0.357 N 
ATOM     21  H   UNL d   1      -0.394   4.120  -6.373  0.00  0.00     0.162 HD
ATOM     22  O   UNL d   1      -0.957   2.360  -3.808  0.00  0.00    -0.268 OA
BRANCH  20  23
ATOM     23  C   UNL d   1      -1.520   4.927  -4.784  0.00  0.00     0.123 C 
BRANCH  23  24
ATOM     24  C   UNL d   1      -1.128   5.367  -3.369  0.00  0.00     0.027 C 
BRANCH  24  25
ATOM     25  C   UNL d   1      -2.100   6.380  -2.834  0.00  0.00     0.029 A 
ATOM     26  C   UNL d   1      -2.169   6.742  -1.369  0.00  0.00     0.117 A 
ATOM     27  C   UNL d   1      -3.270   5.931  -1.998  0.00  0.00     0.050 A 
ATOM     28 CL   UNL d   1      -1.125   5.955  -0.201  0.00  0.00    -0.101 Cl
ATOM     29 CL   UNL d   1      -2.519   8.423  -0.973  0.00  0.00    -0.101 Cl
ENDBRANCH  24  25
ENDBRANCH  23  24
ENDBRANCH  20  23
ENDBRANCH   1  19
TORSDOF 6
