REMARK  6 active torsions:
REMARK  status: ('A' for Active; 'I' for Inactive)
REMARK    1  A    between atoms: C_7  and  C_1 
REMARK    2  A    between atoms: S_17  and  C_10 
REMARK    3  A    between atoms: C_12  and  C_25 
REMARK       I    between atoms: N_16  and  C_12 
REMARK    4  A    between atoms: C_26  and  N_16 
REMARK    5  A    between atoms: C_25  and  S_17 
REMARK    6  A    between atoms: C_29  and  C_18 
ROOT
ATOM      1  C   UNL d   1       1.383  -3.702  -0.497  0.00  0.00     0.065 A 
ATOM      2  N   UNL d   1       1.526  -4.326   0.684  0.00  0.00    -0.335 N 
ATOM      3  HN  UNL d   1       0.967  -5.146   0.920  1.00  0.00     0.168 HD
ATOM      4  C   UNL d   1       2.427  -3.832   1.541  0.00  0.00     0.145 A 
ATOM      5  N   UNL d   1       3.163  -2.736   1.314  0.00  0.00    -0.347 N 
ATOM      6  HN  UNL d   1       3.825  -2.384   2.006  1.00  0.00     0.167 HD
ATOM      7  C   UNL d   1       2.114  -2.579  -0.826  0.00  0.00     0.049 A 
ATOM      8  C   UNL d   1       2.988  -2.125   0.133  0.00  0.00     0.092 A 
ENDROOT
BRANCH   4   9
ATOM      9  S   UNL d   1       2.726  -4.789   3.012  0.00  0.00    -0.085 SA
BRANCH   9  10
ATOM     10  C   UNL d   1       3.906  -3.680   3.810  0.00  0.00     0.185 C 
BRANCH  10  11
ATOM     11  C   UNL d   1       4.574  -4.208   5.061  0.00  0.00     0.231 C 
ATOM     12  N   UNL d   1       4.513  -5.574   5.283  0.00  0.00    -0.327 N 
ATOM     13  H   UNL d   1       4.048  -6.128   4.574  0.00  0.00     0.169 HD
ATOM     14  O   UNL d   1       5.211  -3.404   5.745  0.00  0.00    -0.272 OA
BRANCH  12  15
ATOM     15  C   UNL d   1       5.239  -6.271   6.278  0.00  0.00     0.034 A 
ATOM     16  C   UNL d   1       5.863  -5.626   7.344  0.00  0.00     0.030 A 
ATOM     17  C   UNL d   1       6.745  -6.309   8.181  0.00  0.00     0.010 A 
ATOM     18  C   UNL d   1       7.007  -7.667   7.986  0.00  0.00    -0.055 A 
ATOM     19  C   UNL d   1       6.285  -8.344   6.990  0.00  0.00     0.010 A 
ATOM     20  C   UNL d   1       5.399  -7.654   6.148  0.00  0.00     0.030 A 
BRANCH  18  21
ATOM     21  C   UNL d   1       8.139  -8.364   8.721  0.00  0.00     0.010 C 
ATOM     22  C   UNL d   1       9.444  -8.120   7.953  0.00  0.00     0.015 C 
ATOM     23  C   UNL d   1       8.305  -7.934  10.183  0.00  0.00     0.015 C 
ENDBRANCH  18  21
ENDBRANCH  12  15
ENDBRANCH  10  11
ENDBRANCH   9  10
ENDBRANCH   4   9
BRANCH   1  24
ATOM     24  C   UNL d   1       0.411  -4.310  -1.411  0.00  0.00     0.089 A 
ATOM     25  N   UNL d   1       0.028  -5.654  -1.399  0.00  0.00    -0.304 N 
ATOM     26  C   UNL d   1      -0.912  -5.814  -2.417  0.00  0.00     0.112 A 
ATOM     27  C   UNL d   1       0.429  -6.731  -0.594  0.00  0.00     0.099 A 
ATOM     28  C   UNL d   1      -1.473  -7.109  -2.612  0.00  0.00     0.049 A 
ATOM     29  N   UNL d   1      -1.136  -4.692  -3.057  0.00  0.00    -0.344 N 
ATOM     30  C   UNL d   1      -1.095  -8.133  -1.825  0.00  0.00     0.005 A 
ATOM     31  C   UNL d   1      -0.110  -7.950  -0.776  0.00  0.00     0.018 A 
ATOM     32  C   UNL d   1      -0.346  -3.752  -2.443  0.00  0.00     0.036 A 
ATOM     33  HN  UNL d   1      -1.765  -4.547  -3.847  1.00  0.00     0.167 HD
ATOM     34  C   UNL d   1      -0.432  -2.350  -2.924  0.00  0.00     0.070 C 
ENDBRANCH   1  24
TORSDOF 6
