REMARK  5 active torsions:
REMARK  status: ('A' for Active; 'I' for Inactive)
REMARK    1  A    between atoms: O_5  and  C_1 
REMARK    2  A    between atoms: N_3  and  C_2 
REMARK    3  A    between atoms: C_9  and  O_5 
REMARK    4  A    between atoms: O_8  and  C_6 
REMARK    5  A    between atoms: C_12  and  O_8 
ROOT
ATOM      1  C   UNL d   1       0.286   1.343   0.179  0.00  0.00     0.132 C 
ATOM      2  C   UNL d   1       1.685   1.188   0.197  0.00  0.00     0.138 C 
ATOM      3  C   UNL d   1      -0.523   0.180   0.164  0.00  0.00     0.114 C 
ATOM      4  C   UNL d   1       0.070  -1.085  -0.013  0.00  0.00     0.099 C 
ATOM      5  C   UNL d   1      -1.937   0.301   0.380  0.00  0.00     0.105 C 
ATOM      6  N   UNL d   1      -3.087   0.389   0.538  0.00  0.00    -0.191 NA
ATOM      7  C   UNL d   1       2.271  -0.078   0.047  0.00  0.00     0.042 C 
ATOM      8  C   UNL d   1       1.462  -1.205  -0.075  0.00  0.00     0.041 C 
ENDROOT
BRANCH   1   9
ATOM      9  O   UNL d   1      -0.397   2.539   0.246  0.00  0.00    -0.305 OA
BRANCH   9  10
ATOM     10  C   UNL d   1       0.001   3.631  -0.498  0.00  0.00     0.098 A 
ATOM     11  C   UNL d   1      -0.261   4.899   0.050  0.00  0.00     0.069 A 
ATOM     12  C   UNL d   1       0.198   6.055  -0.582  0.00  0.00     0.050 A 
ATOM     13 CL   UNL d   1      -1.126   5.069   1.536  0.00  0.00    -0.081 Cl
ATOM     14  C   UNL d   1       0.915   5.945  -1.769  0.00  0.00     0.035 A 
ATOM     15  C   UNL d   1       1.135   4.697  -2.352  0.00  0.00     0.026 A 
ATOM     16 CL   UNL d   1       1.535   7.360  -2.525  0.00  0.00    -0.084 Cl
ATOM     17  C   UNL d   1       0.650   3.539  -1.735  0.00  0.00     0.041 A 
ENDBRANCH   9  10
ENDBRANCH   1   9
BRANCH   4  18
ATOM     18  O   UNL d   1      -0.597  -2.288   0.027  0.00  0.00    -0.307 OA
BRANCH  18  19
ATOM     19  C   UNL d   1      -1.634  -2.575  -0.834  0.00  0.00     0.098 A 
ATOM     20  C   UNL d   1      -2.431  -3.687  -0.504  0.00  0.00     0.069 A 
ATOM     21  C   UNL d   1      -3.528  -4.043  -1.291  0.00  0.00     0.050 A 
ATOM     22 CL   UNL d   1      -2.076  -4.663   0.879  0.00  0.00    -0.081 Cl
ATOM     23  C   UNL d   1      -3.833  -3.286  -2.417  0.00  0.00     0.035 A 
ATOM     24  C   UNL d   1      -3.032  -2.204  -2.779  0.00  0.00     0.026 A 
ATOM     25 CL   UNL d   1      -5.198  -3.697  -3.379  0.00  0.00    -0.084 Cl
ATOM     26  C   UNL d   1      -1.918  -1.862  -2.004  0.00  0.00     0.041 A 
ENDBRANCH  18  19
ENDBRANCH   4  18
BRANCH   2  27
ATOM     27  N   UNL d   1       2.595   2.302   0.445  0.00  0.00    -0.113 N 
ATOM     28  O   UNL d   1       2.277   3.133   1.303  0.00  0.00    -0.532 OA
ATOM     29  O   UNL d   1       3.649   2.317  -0.206  0.00  0.00    -0.532 OA
ENDBRANCH   2  27
TORSDOF 5
