REMARK  5 active torsions:
REMARK  status: ('A' for Active; 'I' for Inactive)
REMARK    1  A    between atoms: C_7  and  C_1 
REMARK    2  A    between atoms: C_6  and  C_2 
REMARK    3  A    between atoms: C_10  and  N_3 
REMARK    4  A    between atoms: S_9  and  C_6 
REMARK    5  A    between atoms: C_11  and  S_9 
ROOT
ATOM      1  C   UNL d   1       0.867  -0.474  -0.451  0.00  0.00     0.156 C 
ATOM      2  C   UNL d   1      -0.229  -1.047   0.183  0.00  0.00     0.072 C 
ATOM      3  N   UNL d   1       0.713   0.884  -0.297  0.00  0.00    -0.251 N 
ATOM      4  N   UNL d   1      -0.602   1.187  -0.137  0.00  0.00    -0.303 N 
ATOM      5  HN  UNL d   1      -1.071   2.078  -0.300  1.00  0.00     0.186 HD
ATOM      6  C   UNL d   1      -1.130   0.037   0.285  0.00  0.00     0.126 C 
ENDROOT
BRANCH   2   7
ATOM      7  C   UNL d   1      -0.352  -2.440   0.594  0.00  0.00     0.229 C 
ATOM      8  O   UNL d   1       0.524  -3.265   0.385  0.00  0.00    -0.279 OA
BRANCH   7   9
ATOM      9  S   UNL d   1      -1.829  -2.903   1.421  0.00  0.00    -0.029 SA
BRANCH   9  10
ATOM     10  C   UNL d   1      -1.608  -2.130   3.012  0.00  0.00     0.077 A 
ATOM     11  N   UNL d   1      -0.800  -1.051   3.090  0.00  0.00    -0.360 N 
ATOM     12  C   UNL d   1      -0.742  -0.387   4.264  0.00  0.00     0.089 A 
ATOM     13  HN  UNL d   1      -0.250  -0.747   2.286  1.00  0.00     0.166 HD
ATOM     14  C   UNL d   1      -1.454  -0.758   5.389  0.00  0.00     0.017 A 
ATOM     15  C   UNL d   1      -2.262  -1.885   5.305  0.00  0.00     0.004 A 
ATOM     16  C   UNL d   1      -2.346  -2.582   4.100  0.00  0.00     0.037 A 
ENDBRANCH   9  10
ENDBRANCH   7   9
ENDBRANCH   2   7
BRANCH   1  17
ATOM     17  C   UNL d   1       1.990  -1.050  -1.204  0.00  0.00     0.435 C 
ATOM     18  F   UNL d   1       1.675  -2.239  -1.771  0.00  0.00    -0.165 F 
ATOM     19  F   UNL d   1       2.357  -0.242  -2.234  0.00  0.00    -0.165 F 
ATOM     20  F   UNL d   1       3.094  -1.248  -0.447  0.00  0.00    -0.165 F 
ENDBRANCH   1  17
BRANCH   3  21
ATOM     21  C   UNL d   1       1.687   1.909  -0.130  0.00  0.00     0.057 A 
ATOM     22  C   UNL d   1       1.332   3.240  -0.379  0.00  0.00     0.033 A 
ATOM     23  C   UNL d   1       2.249   4.272  -0.145  0.00  0.00     0.026 A 
ATOM     24  C   UNL d   1       3.511   3.970   0.367  0.00  0.00     0.034 A 
ATOM     25  C   UNL d   1       3.864   2.654   0.644  0.00  0.00     0.026 A 
ATOM     26 CL   UNL d   1       4.628   5.241   0.686  0.00  0.00    -0.084 Cl
ATOM     27  C   UNL d   1       2.956   1.619   0.395  0.00  0.00     0.033 A 
ENDBRANCH   3  21
TORSDOF 5
