REMARK  4 active torsions:
REMARK  status: ('A' for Active; 'I' for Inactive)
REMARK    1  A    between atoms: C_12  and  C_5 
REMARK    2  A    between atoms: O_15  and  C_7 
REMARK    3  A    between atoms: O_16  and  C_9 
REMARK    4  A    between atoms: C_11  and  C_12 
ROOT
ATOM      1  C   UNL d   1       0.684  -4.747  -1.159  0.00  0.00     0.102 A 
ATOM      2  C   UNL d   1       0.944  -5.649  -0.113  0.00  0.00     0.101 A 
ATOM      3  C   UNL d   1       1.227  -3.454  -1.086  0.00  0.00     0.047 A 
ATOM      4  C   UNL d   1       1.985  -3.035   0.020  0.00  0.00    -0.048 A 
ATOM      5  C   UNL d   1       1.698  -5.228   0.991  0.00  0.00     0.040 A 
ATOM      6  C   UNL d   1       2.216  -3.935   1.061  0.00  0.00     0.010 A 
ENDROOT
BRANCH   4   7
ATOM      7  C   UNL d   1       2.477  -1.612   0.103  0.00  0.00     0.124 C 
BRANCH   7   8
ATOM      8  C   UNL d   1       1.489  -0.694   0.741  0.00  0.00     0.148 A 
ATOM      9  N   UNL d   1       0.939   0.346   0.193  0.00  0.00    -0.278 N 
ATOM     10  N   UNL d   1       0.140   0.807   1.192  0.00  0.00    -0.243 N 
ATOM     11  HN  UNL d   1       1.073   0.722  -0.746  1.00  0.00     0.189 HD
ATOM     12  C   UNL d   1       0.233   0.025   2.310  0.00  0.00     0.385 A 
ATOM     13  H   UNL d   1      -0.449   1.623   1.092  0.00  0.00     0.192 HD
ATOM     14  O   UNL d   1       1.127  -0.955   2.018  0.00  0.00    -0.245 OA
ATOM     15  O   UNL d   1      -0.354   0.170   3.369  0.00  0.00    -0.236 OA
ENDBRANCH   7   8
ENDBRANCH   4   7
BRANCH   1  16
ATOM     16  O   UNL d   1      -0.128  -5.161  -2.182  0.00  0.00    -0.353 OA
ATOM     17  C   UNL d   1      -0.416  -4.237  -3.224  0.00  0.00     0.210 C 
ENDBRANCH   1  16
BRANCH   2  18
ATOM     18  O   UNL d   1       0.483  -6.935   0.015  0.00  0.00    -0.353 OA
ATOM     19  C   UNL d   1       0.292  -7.676  -1.182  0.00  0.00     0.210 C 
ENDBRANCH   2  18
TORSDOF 4
