REMARK  9 active torsions:
REMARK  status: ('A' for Active; 'I' for Inactive)
REMARK    1  A    between atoms: C_13  and  N_3 
REMARK    2  A    between atoms: C_8  and  C_4 
REMARK       I    between atoms: N_10  and  C_8 
REMARK    3  A    between atoms: C_9  and  N_10 
REMARK    4  A    between atoms: C_11  and  C_9 
REMARK    5  A    between atoms: C_12  and  C_9 
REMARK    6  A    between atoms: O_18  and  C_11 
REMARK    7  A    between atoms: O_17  and  C_12 
REMARK    8  A    between atoms: C_23  and  O_17 
REMARK    9  A    between atoms: C_22  and  O_18 
ROOT
ATOM      1  C   UNL d   1      -2.466  -0.181  -0.017  0.00  0.00     0.272 C 
ATOM      2  N   UNL d   1      -3.440   0.762  -0.240  0.00  0.00    -0.334 N 
ATOM      3  O   UNL d   1      -1.271   0.094  -0.073  0.00  0.00    -0.266 OA
ATOM      4  H   UNL d   1      -4.413   0.491  -0.115  0.00  0.00     0.164 HD
ENDROOT
BRANCH   1   5
ATOM      5  C   UNL d   1      -2.964  -1.526   0.279  0.00  0.00     0.141 A 
ATOM      6  N   UNL d   1      -4.275  -1.847   0.269  0.00  0.00    -0.272 N 
ATOM      7  N   UNL d   1      -4.251  -3.184   0.535  0.00  0.00    -0.196 N 
ATOM      8  HN  UNL d   1      -5.080  -1.242   0.105  1.00  0.00     0.189 HD
ATOM      9  N   UNL d   1      -3.027  -3.717   0.785  0.00  0.00    -0.281 N 
ATOM     10  C   UNL d   1      -2.206  -2.684   0.576  0.00  0.00     0.057 A 
ATOM     11  HN  UNL d   1      -2.793  -4.670   1.063  1.00  0.00     0.189 HD
ATOM     12  C   UNL d   1      -0.741  -2.884   0.645  0.00  0.00     0.072 C 
BRANCH   7  13
ATOM     13  C   UNL d   1      -5.411  -4.002   0.493  0.00  0.00     0.074 A 
ATOM     14  C   UNL d   1      -6.644  -3.472   0.092  0.00  0.00     0.033 A 
ATOM     15  C   UNL d   1      -7.760  -4.309  -0.004  0.00  0.00     0.002 A 
ATOM     16  C   UNL d   1      -7.653  -5.665   0.311  0.00  0.00     0.000 A 
ATOM     17  C   UNL d   1      -6.433  -6.191   0.729  0.00  0.00     0.002 A 
ATOM     18  C   UNL d   1      -5.312  -5.365   0.819  0.00  0.00     0.033 A 
ENDBRANCH   7  13
ENDBRANCH   1   5
BRANCH   2  19
ATOM     19  C   UNL d   1      -3.090   2.155  -0.544  0.00  0.00     0.285 C 
BRANCH  19  20
ATOM     20  C   UNL d   1      -4.125   2.724  -1.492  0.00  0.00     0.291 C 
ATOM     21  O   UNL d   1      -5.326   2.480  -1.431  0.00  0.00    -0.262 OA
BRANCH  20  22
ATOM     22  O   UNL d   1      -3.524   3.476  -2.457  0.00  0.00    -0.320 OA
BRANCH  22  23
ATOM     23  C   UNL d   1      -4.348   3.882  -3.558  0.00  0.00     0.174 C 
ATOM     24  C   UNL d   1      -5.127   5.139  -3.230  0.00  0.00     0.034 C 
ENDBRANCH  22  23
ENDBRANCH  20  22
ENDBRANCH  19  20
BRANCH  19  25
ATOM     25  C   UNL d   1      -2.880   3.050   0.668  0.00  0.00     0.291 C 
ATOM     26  O   UNL d   1      -2.696   4.262   0.601  0.00  0.00    -0.262 OA
BRANCH  25  27
ATOM     27  O   UNL d   1      -2.800   2.325   1.822  0.00  0.00    -0.320 OA
BRANCH  27  28
ATOM     28  C   UNL d   1      -2.264   2.995   2.974  0.00  0.00     0.174 C 
ATOM     29  C   UNL d   1      -0.782   2.678   3.066  0.00  0.00     0.034 C 
ENDBRANCH  27  28
ENDBRANCH  25  27
ENDBRANCH  19  25
ENDBRANCH   2  19
TORSDOF 9
