REMARK  6 active torsions:
REMARK  status: ('A' for Active; 'I' for Inactive)
REMARK    1  A    between atoms: C_2  and  C_1 
REMARK       I    between atoms: N_3  and  C_2 
REMARK       I    between atoms: C_4  and  N_3 
REMARK       I    between atoms: N_16  and  C_4 
REMARK    2  A    between atoms: C_5  and  C_9 
REMARK    3  A    between atoms: C_6  and  C_10 
REMARK    4  A    between atoms: O_30  and  C_7 
REMARK    5  A    between atoms: O_29  and  C_8 
REMARK    6  A    between atoms: C_15  and  N_16 
ROOT
ATOM      1  C   UNL d   1       1.314  -3.837   1.367  0.00  0.00     0.244 C 
ATOM      2  N   UNL d   1       0.214  -4.652   1.123  0.00  0.00    -0.175 NA
ATOM      3  C   UNL d   1      -1.080  -4.191   1.121  0.00  0.00     0.305 C 
ATOM      4  N   UNL d   1      -1.330  -3.086   0.350  0.00  0.00    -0.313 N 
ATOM      5  O   UNL d   1       1.522  -2.785   0.771  0.00  0.00    -0.273 OA
ATOM      6  O   UNL d   1      -1.900  -4.811   1.791  0.00  0.00    -0.253 OA
ATOM      7  H   UNL d   1       0.206  -5.489   1.696  0.00  0.00     0.141 HD
ATOM      8  H   UNL d   1      -0.555  -2.783  -0.230  0.00  0.00     0.170 HD
ENDROOT
BRANCH   4   9
ATOM      9  C   UNL d   1      -2.565  -2.403   0.234  0.00  0.00     0.037 A 
ATOM     10  C   UNL d   1      -3.642  -2.606   1.107  0.00  0.00     0.045 A 
ATOM     11  C   UNL d   1      -4.838  -1.876   0.983  0.00  0.00     0.050 A 
ATOM     12  C   UNL d   1      -4.957  -0.941  -0.051  0.00  0.00     0.032 A 
ATOM     13  C   UNL d   1      -3.894  -0.720  -0.943  0.00  0.00     0.050 A 
ATOM     14  C   UNL d   1      -2.704  -1.456  -0.787  0.00  0.00     0.045 A 
BRANCH  11  15
ATOM     15  C   UNL d   1      -5.954  -2.089   1.980  0.00  0.00     0.417 C 
ATOM     16  F   UNL d   1      -7.058  -1.332   1.722  0.00  0.00    -0.166 F 
ATOM     17  F   UNL d   1      -6.388  -3.377   2.023  0.00  0.00    -0.166 F 
ATOM     18  F   UNL d   1      -5.579  -1.772   3.251  0.00  0.00    -0.166 F 
ENDBRANCH  11  15
BRANCH  13  19
ATOM     19  C   UNL d   1      -4.058   0.282  -2.062  0.00  0.00     0.417 C 
ATOM     20  F   UNL d   1      -4.699   1.415  -1.661  0.00  0.00    -0.166 F 
ATOM     21  F   UNL d   1      -2.877   0.693  -2.598  0.00  0.00    -0.166 F 
ATOM     22  F   UNL d   1      -4.790  -0.214  -3.098  0.00  0.00    -0.166 F 
ENDBRANCH  13  19
ENDBRANCH   4   9
BRANCH   1  23
ATOM     23  C   UNL d   1       2.288  -4.398   2.365  0.00  0.00     0.096 A 
ATOM     24  C   UNL d   1       1.782  -4.784   3.623  0.00  0.00     0.103 A 
ATOM     25  C   UNL d   1       2.590  -5.460   4.532  0.00  0.00     0.047 A 
ATOM     26 BR   UNL d   1       1.906  -6.160   6.157  0.00  0.00    -0.048 Br
ATOM     27  C   UNL d   1       3.936  -5.638   4.251  0.00  0.00     0.048 A 
ATOM     28  C   UNL d   1       4.485  -5.168   3.046  0.00  0.00     0.069 A 
ATOM     29  C   UNL d   1       3.665  -4.570   2.062  0.00  0.00     0.108 A 
ATOM     30 CL   UNL d   1       6.197  -5.407   2.941  0.00  0.00    -0.081 Cl
BRANCH  24  31
ATOM     31  O   UNL d   1       0.475  -4.530   3.948  0.00  0.00    -0.353 OA
ATOM     32  C   UNL d   1       0.371  -3.257   4.601  0.00  0.00     0.210 C 
ENDBRANCH  24  31
BRANCH  29  33
ATOM     33  O   UNL d   1       4.017  -4.152   0.809  0.00  0.00    -0.353 OA
ATOM     34  C   UNL d   1       5.349  -4.255   0.334  0.00  0.00     0.210 C 
ENDBRANCH  29  33
ENDBRANCH   1  23
TORSDOF 6
