REMARK  5 active torsions:
REMARK  status: ('A' for Active; 'I' for Inactive)
REMARK    1  A    between atoms: O_5  and  N_1 
REMARK    2  A    between atoms: C_6  and  C_3 
REMARK    3  A    between atoms: C_7  and  C_3 
REMARK    4  A    between atoms: C_4  and  O_5 
REMARK    5  A    between atoms: C_8  and  C_4 
ROOT
ATOM      1  N   UNL d   1       0.928   0.002  -0.143  0.00  0.00    -0.256 N 
ATOM      2  HN  UNL d   1       0.386   0.753  -0.571  1.00  0.00     0.195 HD
ATOM      3  C   UNL d   1       0.367  -1.001   0.475  0.00  0.00     0.075 C 
ENDROOT
BRANCH   3   4
ATOM      4  C   UNL d   1       1.094  -2.117   1.172  0.00  0.00    -0.007 A 
ATOM      5  C   UNL d   1       0.618  -2.601   2.404  0.00  0.00     0.017 A 
ATOM      6  C   UNL d   1       1.248  -3.677   3.035  0.00  0.00     0.043 A 
ATOM      7  C   UNL d   1       2.386  -4.232   2.465  0.00  0.00     0.116 A 
ATOM      8  C   UNL d   1       2.893  -3.746   1.267  0.00  0.00     0.043 A 
ATOM      9  F   UNL d   1       2.998  -5.255   3.075  0.00  0.00    -0.206 F 
ATOM     10  C   UNL d   1       2.233  -2.706   0.607  0.00  0.00     0.017 A 
ENDBRANCH   3   4
BRANCH   3  11
ATOM     11  C   UNL d   1      -1.146  -1.005   0.501  0.00  0.00    -0.007 A 
ATOM     12  C   UNL d   1      -1.880  -2.201   0.546  0.00  0.00     0.017 A 
ATOM     13  C   UNL d   1      -3.277  -2.173   0.610  0.00  0.00     0.043 A 
ATOM     14  C   UNL d   1      -3.942  -0.953   0.593  0.00  0.00     0.116 A 
ATOM     15  C   UNL d   1      -3.235   0.240   0.510  0.00  0.00     0.043 A 
ATOM     16  F   UNL d   1      -5.280  -0.931   0.652  0.00  0.00    -0.206 F 
ATOM     17  C   UNL d   1      -1.837   0.217   0.463  0.00  0.00     0.017 A 
ENDBRANCH   3  11
BRANCH   1  18
ATOM     18  O   UNL d   1       2.335  -0.024  -0.177  0.00  0.00    -0.194 OA
BRANCH  18  19
ATOM     19  C   UNL d   1       2.822   1.245  -0.316  0.00  0.00     0.315 C 
ATOM     20  O   UNL d   1       2.249   2.289  -0.023  0.00  0.00    -0.257 OA
BRANCH  19  21
ATOM     21  C   UNL d   1       4.200   1.230  -0.888  0.00  0.00     0.041 A 
ATOM     22  C   UNL d   1       4.902   2.447  -0.939  0.00  0.00     0.021 A 
ATOM     23  C   UNL d   1       6.173   2.514  -1.522  0.00  0.00     0.043 A 
ATOM     24  C   UNL d   1       6.740   1.364  -2.056  0.00  0.00     0.116 A 
ATOM     25  C   UNL d   1       6.065   0.150  -2.014  0.00  0.00     0.043 A 
ATOM     26  F   UNL d   1       7.951   1.429  -2.626  0.00  0.00    -0.206 F 
ATOM     27  C   UNL d   1       4.794   0.078  -1.432  0.00  0.00     0.021 A 
ENDBRANCH  19  21
ENDBRANCH  18  19
ENDBRANCH   1  18
TORSDOF 5
