REMARK  5 active torsions:
REMARK  status: ('A' for Active; 'I' for Inactive)
REMARK    1  A    between atoms: C_6  and  C_1 
REMARK    2  A    between atoms: C_12  and  N_2 
REMARK    3  A    between atoms: S_8  and  C_6 
REMARK    4  A    between atoms: C_11  and  S_8 
REMARK    5  A    between atoms: O_19  and  C_13 
ROOT
ATOM      1  C   UNL d   1      -0.493  -2.588  -0.691  0.00  0.00     0.243 C 
ATOM      2  O   UNL d   1       0.325  -3.443  -1.008  0.00  0.00    -0.278 OA
ENDROOT
BRANCH   1   3
ATOM      3  C   UNL d   1      -0.143  -1.206  -0.419  0.00  0.00     0.127 C 
ATOM      4  N   UNL d   1       1.157  -0.771  -0.211  0.00  0.00    -0.287 N 
ATOM      5  N   UNL d   1       1.240   0.499   0.234  0.00  0.00    -0.301 N 
ATOM      6  C   UNL d   1       0.010   0.986   0.079  0.00  0.00     0.042 C 
ATOM      7  HN  UNL d   1       2.061   0.978   0.605  1.00  0.00     0.187 HD
ATOM      8  C   UNL d   1      -0.873  -0.025  -0.358  0.00  0.00     0.067 C 
ATOM      9  C   UNL d   1      -0.238   2.426   0.334  0.00  0.00     0.071 C 
ATOM     10 BR   UNL d   1      -2.666   0.342  -0.795  0.00  0.00    -0.046 Br
BRANCH   4  11
ATOM     11  C   UNL d   1       2.423  -1.432  -0.494  0.00  0.00     0.145 C 
ATOM     12  C   UNL d   1       3.122  -0.787  -1.685  0.00  0.00     0.028 C 
ENDBRANCH   4  11
ENDBRANCH   1   3
BRANCH   1  13
ATOM     13  S   UNL d   1      -2.189  -3.026  -0.459  0.00  0.00    -0.046 SA
BRANCH  13  14
ATOM     14  C   UNL d   1      -2.161  -4.802  -0.570  0.00  0.00     0.008 A 
ATOM     15  C   UNL d   1      -2.548  -5.566   0.537  0.00  0.00     0.021 A 
ATOM     16  C   UNL d   1      -2.510  -6.965   0.488  0.00  0.00     0.038 A 
ATOM     17  C   UNL d   1      -2.084  -7.614  -0.670  0.00  0.00     0.068 A 
ATOM     18  C   UNL d   1      -1.742  -6.853  -1.790  0.00  0.00     0.038 A 
ATOM     19  C   UNL d   1      -1.788  -5.457  -1.745  0.00  0.00     0.021 A 
BRANCH  17  20
ATOM     20  O   UNL d   1      -1.961  -8.965  -0.838  0.00  0.00    -0.356 OA
ATOM     21  C   UNL d   1      -2.118  -9.772   0.322  0.00  0.00     0.210 C 
ENDBRANCH  17  20
ENDBRANCH  13  14
ENDBRANCH   1  13
TORSDOF 5
