REMARK  5 active torsions:
REMARK  status: ('A' for Active; 'I' for Inactive)
REMARK    1  A    between atoms: C_2  and  C_1 
REMARK    2  A    between atoms: O_8  and  C_2 
REMARK    3  A    between atoms: C_5  and  C_7 
REMARK    4  A    between atoms: C_10  and  O_8 
REMARK    5  A    between atoms: N_9  and  C_11 
ROOT
ATOM      1  C   UNL d   1      -4.359   0.911   1.140  0.00  0.00     0.300 C 
ATOM      2  O   UNL d   1      -5.438   1.409   1.409  0.00  0.00    -0.259 OA
ENDROOT
BRANCH   1   3
ATOM      3  C   UNL d   1      -3.791  -0.276   1.824  0.00  0.00     0.062 A 
ATOM      4  C   UNL d   1      -2.427  -0.481   2.039  0.00  0.00     0.022 A 
ATOM      5  N   UNL d   1      -1.954  -1.602   2.654  0.00  0.00    -0.355 N 
ATOM      6  C   UNL d   1      -1.352   0.490   1.641  0.00  0.00     0.069 C 
ATOM      7  C   UNL d   1      -2.835  -2.534   3.112  0.00  0.00     0.117 A 
ATOM      8  HN  UNL d   1      -0.950  -1.741   2.769  1.00  0.00     0.166 HD
ATOM      9  C   UNL d   1      -4.210  -2.358   2.984  0.00  0.00     0.035 A 
ATOM     10  C   UNL d   1      -4.692  -1.220   2.334  0.00  0.00     0.022 A 
BRANCH   7  11
ATOM     11  C   UNL d   1      -2.298  -3.795   3.777  0.00  0.00     0.432 C 
ATOM     12  F   UNL d   1      -0.941  -3.918   3.736  0.00  0.00    -0.165 F 
ATOM     13  F   UNL d   1      -2.641  -3.878   5.096  0.00  0.00    -0.165 F 
ATOM     14  F   UNL d   1      -2.789  -4.932   3.201  0.00  0.00    -0.165 F 
ENDBRANCH   7  11
ENDBRANCH   1   3
BRANCH   1  15
ATOM     15  O   UNL d   1      -3.504   1.275   0.122  0.00  0.00    -0.273 OA
BRANCH  15  16
ATOM     16  C   UNL d   1      -3.243   2.618  -0.296  0.00  0.00     0.106 A 
ATOM     17  C   UNL d   1      -2.290   2.755  -1.336  0.00  0.00     0.064 A 
ATOM     18  C   UNL d   1      -1.772   4.044  -1.528  0.00  0.00     0.032 A 
ATOM     19  C   UNL d   1      -2.191   5.132  -0.751  0.00  0.00     0.002 A 
ATOM     20  C   UNL d   1      -3.162   4.964   0.231  0.00  0.00     0.003 A 
ATOM     21  C   UNL d   1      -3.693   3.701   0.466  0.00  0.00     0.040 A 
BRANCH  17  22
ATOM     22  N   UNL d   1      -1.826   1.664  -2.051  0.00  0.00    -0.375 N 
ATOM     23  C   UNL d   1      -2.770   0.685  -2.621  0.00  0.00     0.149 C 
ATOM     24  C   UNL d   1      -2.153  -0.714  -2.467  0.00  0.00     0.187 C 
ATOM     25  O   UNL d   1      -0.880  -0.791  -3.135  0.00  0.00    -0.388 OA
ATOM     26  C   UNL d   1       0.036   0.183  -2.600  0.00  0.00     0.187 C 
ATOM     27  C   UNL d   1      -0.512   1.622  -2.706  0.00  0.00     0.149 C 
ENDBRANCH  17  22
ENDBRANCH  15  16
ENDBRANCH   1  15
TORSDOF 5
