REMARK  5 active torsions:
REMARK  status: ('A' for Active; 'I' for Inactive)
REMARK    1  A    between atoms: N_4  and  C_1 
REMARK    2  A    between atoms: C_11  and  C_7 
REMARK    3  A    between atoms: C_20  and  N_8 
REMARK    4  A    between atoms: C_14  and  C_16 
REMARK    5  A    between atoms: C_16  and  C_20 
ROOT
ATOM      1  N   UNL d   1      -2.033  -5.215   0.443  0.00  0.00    -0.323 N 
ATOM      2  HN  UNL d   1      -1.132  -5.226   0.921  1.00  0.00     0.169 HD
ATOM      3  C   UNL d   1      -2.808  -6.235   0.114  0.00  0.00     0.182 A 
ATOM      4  N   UNL d   1      -3.921  -4.442  -0.584  0.00  0.00    -0.247 N 
ATOM      5  HN  UNL d   1      -4.617  -3.809  -0.979  1.00  0.00     0.196 HD
ATOM      6  C   UNL d   1      -2.748  -4.136  -0.020  0.00  0.00     0.105 A 
ATOM      7  O   UNL d   1      -3.965  -5.829  -0.502  0.00  0.00    -0.217 OA
ENDROOT
BRANCH   6   8
ATOM      8  C   UNL d   1      -2.299  -2.725   0.093  0.00  0.00     0.098 C 
BRANCH   8   9
ATOM      9  C   UNL d   1      -0.785  -2.557   0.040  0.00  0.00     0.137 C 
BRANCH   9  10
ATOM     10  N   UNL d   1      -0.393  -1.156   0.095  0.00  0.00    -0.343 N 
ATOM     11  C   UNL d   1      -0.203  -0.346  -0.997  0.00  0.00     0.147 A 
ATOM     12  C   UNL d   1       0.163   0.876  -0.472  0.00  0.00     0.190 A 
ATOM     13  N   UNL d   1       0.199   0.825   0.904  0.00  0.00    -0.326 N 
ATOM     14  C   UNL d   1      -0.132  -0.411   1.225  0.00  0.00     0.081 A 
ATOM     15  HN  UNL d   1       0.433   1.586   1.542  1.00  0.00     0.169 HD
ATOM     16  C   UNL d   1      -0.216  -0.938   2.611  0.00  0.00     0.089 C 
BRANCH  12  17
ATOM     17  N   UNL d   1       0.482   2.091  -1.191  0.00  0.00    -0.096 N 
ATOM     18  O   UNL d   1       0.419   2.034  -2.429  0.00  0.00    -0.530 OA
ATOM     19  O   UNL d   1       0.792   3.090  -0.532  0.00  0.00    -0.530 OA
ENDBRANCH  12  17
ENDBRANCH   9  10
ENDBRANCH   8   9
ENDBRANCH   6   8
BRANCH   3  20
ATOM     20  C   UNL d   1      -2.488  -7.677   0.341  0.00  0.00     0.024 A 
ATOM     21  C   UNL d   1      -1.351  -8.117   0.983  0.00  0.00     0.065 A 
ATOM     22  S   UNL d   1      -1.274  -9.830   1.048  0.00  0.00    -0.113 SA
ATOM     23  C   UNL d   1      -2.763  -9.987   0.218  0.00  0.00     0.050 A 
ATOM     24  C   UNL d   1      -3.311  -8.761  -0.092  0.00  0.00     0.023 A 
ENDBRANCH   3  20
TORSDOF 5
