REMARK  4 active torsions:
REMARK  status: ('A' for Active; 'I' for Inactive)
REMARK    1  A    between atoms: S_5  and  C_1 
REMARK    2  A    between atoms: C_10  and  S_5 
REMARK    3  A    between atoms: C_7  and  C_10 
REMARK    4  A    between atoms: C_9  and  C_7 
ROOT
ATOM      1  C   UNL d   1       2.534   4.370   0.057  0.00  0.00     0.169 C 
ATOM      2  O   UNL d   1       1.791   5.316  -0.194  0.00  0.00    -0.291 OA
ENDROOT
BRANCH   1   3
ATOM      3  C   UNL d   1       2.102   2.912   0.017  0.00  0.00     0.166 C 
BRANCH   3   4
ATOM      4  S   UNL d   1       0.393   2.711  -0.570  0.00  0.00    -0.086 SA
BRANCH   4   5
ATOM      5  C   UNL d   1       0.189   1.005  -0.349  0.00  0.00     0.146 A 
ATOM      6  N   UNL d   1      -0.943   0.321  -0.704  0.00  0.00    -0.341 N 
ATOM      7  C   UNL d   1      -0.757  -0.989  -0.336  0.00  0.00     0.109 A 
ATOM      8  C   UNL d   1      -2.142   0.807  -1.343  0.00  0.00     0.158 C 
ATOM      9  C   UNL d   1       0.503  -1.032   0.211  0.00  0.00     0.107 A 
ATOM     10  N   UNL d   1       1.084   0.208   0.194  0.00  0.00    -0.345 N 
ATOM     11  HN  UNL d   1       2.014   0.461   0.531  1.00  0.00     0.167 HD
ENDBRANCH   4   5
ENDBRANCH   3   4
ENDBRANCH   1   3
BRANCH   1  12
ATOM     12  C   UNL d   1       3.957   4.671   0.431  0.00  0.00     0.011 A 
ATOM     13  C   UNL d   1       4.864   3.672   0.812  0.00  0.00     0.017 A 
ATOM     14  C   UNL d   1       6.188   4.005   1.129  0.00  0.00     0.025 A 
ATOM     15  C   UNL d   1       6.608   5.332   1.071  0.00  0.00     0.034 A 
ATOM     16  C   UNL d   1       5.715   6.336   0.707  0.00  0.00     0.025 A 
ATOM     17 CL   UNL d   1       8.239   5.731   1.446  0.00  0.00    -0.084 Cl
ATOM     18  C   UNL d   1       4.393   6.005   0.390  0.00  0.00     0.017 A 
ENDBRANCH   1  12
TORSDOF 4
