REMARK  3 active torsions:
REMARK  status: ('A' for Active; 'I' for Inactive)
REMARK    1  A    between atoms: C_2  and  S_1 
REMARK    2  A    between atoms: C_7  and  S_1 
REMARK    3  A    between atoms: N_3  and  C_10 
ROOT
ATOM      1  S   UNL d   1       0.948   0.101   0.031  0.00  0.00     0.208 S 
ATOM      2  O   UNL d   1       0.246  -0.168  -1.210  0.00  0.00    -0.217 OA
ATOM      3  O   UNL d   1       2.389   0.254   0.068  0.00  0.00    -0.217 OA
ENDROOT
BRANCH   1   4
ATOM      4  C   UNL d   1       0.567  -1.247   1.115  0.00  0.00     0.087 A 
ATOM      5  C   UNL d   1      -0.154  -1.036   2.297  0.00  0.00     0.051 A 
ATOM      6  C   UNL d   1      -0.465  -2.125   3.122  0.00  0.00     0.057 A 
ATOM      7 CL   UNL d   1      -1.365  -1.805   4.562  0.00  0.00    -0.083 Cl
ATOM      8  C   UNL d   1      -0.055  -3.418   2.773  0.00  0.00     0.057 A 
ATOM      9  C   UNL d   1       0.673  -3.619   1.600  0.00  0.00     0.051 A 
ATOM     10 CL   UNL d   1      -0.417  -4.802   3.739  0.00  0.00    -0.082 Cl
ATOM     11  C   UNL d   1       0.987  -2.539   0.769  0.00  0.00     0.057 A 
ATOM     12 CL   UNL d   1       1.899  -2.905  -0.651  0.00  0.00    -0.083 Cl
ENDBRANCH   1   4
BRANCH   1  13
ATOM     13  C   UNL d   1       0.283   1.656   0.620  0.00  0.00     0.064 A 
ATOM     14  C   UNL d   1       1.116   2.539   1.321  0.00  0.00     0.026 A 
ATOM     15  C   UNL d   1       0.685   3.845   1.579  0.00  0.00     0.037 A 
ATOM     16  C   UNL d   1      -0.574   4.264   1.124  0.00  0.00     0.102 A 
ATOM     17  C   UNL d   1      -1.417   3.374   0.443  0.00  0.00     0.037 A 
ATOM     18  C   UNL d   1      -0.984   2.069   0.185  0.00  0.00     0.026 A 
BRANCH  16  19
ATOM     19  N   UNL d   1      -0.992   5.660   1.319  0.00  0.00    -0.116 N 
ATOM     20  O   UNL d   1      -2.115   5.986   0.909  0.00  0.00    -0.532 OA
ATOM     21  O   UNL d   1      -0.195   6.427   1.878  0.00  0.00    -0.532 OA
ENDBRANCH  16  19
ENDBRANCH   1  13
TORSDOF 3
