REMARK  6 active torsions:
REMARK  status: ('A' for Active; 'I' for Inactive)
REMARK    1  A    between atoms: C_2  and  C_1 
REMARK    2  A    between atoms: N_8  and  C_12 
REMARK    3  A    between atoms: C_14  and  C_9 
REMARK    4  A    between atoms: O_13  and  C_11 
REMARK    5  A    between atoms: C_21  and  O_13 
REMARK    6  A    between atoms: C_19  and  C_20 
ROOT
ATOM      1  C   UNL d   1      -0.766  -2.446  -0.158  0.00  0.00     0.053 A 
ATOM      2  C   UNL d   1      -2.110  -2.632  -0.539  0.00  0.00     0.054 A 
ATOM      3  C   UNL d   1       0.003  -3.585   0.167  0.00  0.00     0.090 A 
ATOM      4  C   UNL d   1      -2.648  -3.925  -0.648  0.00  0.00     0.104 A 
ATOM      5  C   UNL d   1      -0.528  -4.875  -0.023  0.00  0.00     0.041 A 
ATOM      6  C   UNL d   1      -1.854  -5.049  -0.412  0.00  0.00     0.039 A 
ENDROOT
BRANCH   1   7
ATOM      7  C   UNL d   1      -0.179  -1.107  -0.212  0.00  0.00     0.177 A 
ATOM      8  O   UNL d   1      -1.017  -0.026  -0.032  0.00  0.00    -0.273 OA
ATOM      9  C   UNL d   1      -0.172   1.029  -0.288  0.00  0.00     0.174 A 
ATOM     10  N   UNL d   1       1.047   0.632  -0.598  0.00  0.00    -0.277 N 
ATOM     11  N   UNL d   1       1.047  -0.744  -0.526  0.00  0.00    -0.277 N 
ATOM     12  HN  UNL d   1       1.837   1.229  -0.843  1.00  0.00     0.189 HD
ATOM     13  HN  UNL d   1       1.843  -1.361  -0.686  1.00  0.00     0.189 HD
BRANCH   9  14
ATOM     14  C   UNL d   1      -0.706   2.386  -0.213  0.00  0.00     0.017 A 
ATOM     15  C   UNL d   1      -1.790   2.727   0.600  0.00  0.00     0.016 A 
ATOM     16  C   UNL d   1      -2.212   4.064   0.710  0.00  0.00     0.009 A 
ATOM     17  C   UNL d   1      -1.583   5.105  -0.003  0.00  0.00    -0.051 A 
ATOM     18  C   UNL d   1      -0.515   4.742  -0.837  0.00  0.00     0.009 A 
ATOM     19  C   UNL d   1      -0.083   3.412  -0.936  0.00  0.00     0.016 A 
BRANCH  17  20
ATOM     20  C   UNL d   1      -2.056   6.564   0.154  0.00  0.00    -0.024 C 
ATOM     21  C   UNL d   1      -1.302   7.566  -0.753  0.00  0.00     0.019 C 
ATOM     22  C   UNL d   1      -3.555   6.676  -0.200  0.00  0.00     0.019 C 
ATOM     23  C   UNL d   1      -1.849   7.031   1.611  0.00  0.00     0.019 C 
ENDBRANCH  17  20
ENDBRANCH   9  14
ENDBRANCH   1   7
BRANCH   3  24
ATOM     24  O   UNL d   1       1.293  -3.402   0.637  0.00  0.00    -0.308 OA
BRANCH  24  25
ATOM     25  C   UNL d   1       1.818  -4.321   1.518  0.00  0.00     0.093 A 
ATOM     26  C   UNL d   1       1.109  -4.885   2.582  0.00  0.00     0.064 A 
ATOM     27  C   UNL d   1       1.723  -5.857   3.366  0.00  0.00     0.052 A 
ATOM     28 CL   UNL d   1       0.850  -6.645   4.617  0.00  0.00    -0.083 Cl
ATOM     29  C   UNL d   1       3.041  -6.194   3.097  0.00  0.00     0.111 A 
ATOM     30  N   UNL d   1       3.775  -5.623   2.111  0.00  0.00    -0.371 N 
ATOM     31  C   UNL d   1       3.146  -4.694   1.348  0.00  0.00     0.124 A 
ATOM     32  HN  UNL d   1       4.749  -5.880   1.950  1.00  0.00     0.164 HD
ENDBRANCH  24  25
ENDBRANCH   3  24
BRANCH   4  33
ATOM     33  N   UNL d   1      -4.050  -4.106  -1.042  0.00  0.00    -0.116 N 
ATOM     34  O   UNL d   1      -4.722  -3.086  -1.256  0.00  0.00    -0.532 OA
ATOM     35  O   UNL d   1      -4.480  -5.263  -1.129  0.00  0.00    -0.532 OA
ENDBRANCH   4  33
TORSDOF 6
