REMARK  3 active torsions:
REMARK  status: ('A' for Active; 'I' for Inactive)
REMARK       I    between atoms: N_2  and  C_1 
REMARK    1  A    between atoms: C_5  and  C_1 
REMARK       I    between atoms: C_3  and  N_2 
REMARK       I    between atoms: N_4  and  C_3 
REMARK    2  A    between atoms: C_8  and  N_4 
REMARK    3  A    between atoms: C_6  and  C_7 
ROOT
ATOM      1  C   UNL d   1       0.995  -0.020  -0.209  0.00  0.00     0.263 C 
ATOM      2  N   UNL d   1       0.464   1.066   0.470  0.00  0.00    -0.275 N 
ATOM      3  C   UNL d   1       1.094   2.007   1.252  0.00  0.00     0.328 C 
ATOM      4  N   UNL d   1       2.460   2.041   1.183  0.00  0.00    -0.293 N 
ATOM      5  O   UNL d   1       2.201  -0.197  -0.339  0.00  0.00    -0.267 OA
ATOM      6  O   UNL d   1       0.389   2.756   1.924  0.00  0.00    -0.247 OA
ATOM      7  H   UNL d   1      -0.538   1.110   0.605  0.00  0.00     0.173 HD
ATOM      8  H   UNL d   1       2.833   1.768   0.281  0.00  0.00     0.172 HD
ENDROOT
BRANCH   4   9
ATOM      9  C   UNL d   1       3.176   3.067   1.813  0.00  0.00     0.131 A 
ATOM     10  N   UNL d   1       3.972   3.782   0.980  0.00  0.00    -0.350 N 
ATOM     11  C   UNL d   1       4.561   4.893   1.483  0.00  0.00     0.106 A 
ATOM     12  HN  UNL d   1       4.121   3.495   0.013  1.00  0.00     0.166 HD
ATOM     13  C   UNL d   1       4.435   5.313   2.799  0.00  0.00     0.065 A 
ATOM     14  C   UNL d   1       3.697   4.502   3.667  0.00  0.00     0.045 A 
ATOM     15  C   UNL d   1       3.063   3.360   3.178  0.00  0.00     0.079 A 
ATOM     16 CL   UNL d   1       2.287   2.321   4.320  0.00  0.00    -0.080 Cl
BRANCH  13  17
ATOM     17  C   UNL d   1       5.068   6.597   3.236  0.00  0.00     0.418 C 
ATOM     18  F   UNL d   1       4.875   6.876   4.556  0.00  0.00    -0.166 F 
ATOM     19  F   UNL d   1       6.414   6.607   3.045  0.00  0.00    -0.166 F 
ATOM     20  F   UNL d   1       4.585   7.670   2.554  0.00  0.00    -0.166 F 
ENDBRANCH  13  17
ENDBRANCH   4   9
BRANCH   1  21
ATOM     21  C   UNL d   1       0.005  -0.947  -0.846  0.00  0.00     0.075 A 
ATOM     22  C   UNL d   1       0.271  -1.502  -2.114  0.00  0.00     0.051 A 
ATOM     23 CL   UNL d   1       1.679  -1.136  -3.053  0.00  0.00    -0.083 Cl
ATOM     24  C   UNL d   1      -0.651  -2.367  -2.724  0.00  0.00     0.025 A 
ATOM     25  C   UNL d   1      -1.852  -2.681  -2.098  0.00  0.00     0.003 A 
ATOM     26  C   UNL d   1      -2.129  -2.145  -0.847  0.00  0.00     0.025 A 
ATOM     27  C   UNL d   1      -1.206  -1.298  -0.215  0.00  0.00     0.051 A 
ATOM     28 CL   UNL d   1      -1.656  -0.763   1.370  0.00  0.00    -0.083 Cl
ENDBRANCH   1  21
TORSDOF 3
