REMARK  2 active torsions:
REMARK  status: ('A' for Active; 'I' for Inactive)
REMARK    1  A    between atoms: C_7  and  C_1 
REMARK    2  A    between atoms: N_11  and  C_10 
ROOT
ATOM      1  C   UNL d   1       2.403  -0.624  -0.065  0.00  0.00     0.088 C 
ATOM      2  S   UNL d   1       2.643   1.090  -0.256  0.00  0.00    -0.059 SA
ATOM      3  N   UNL d   1       1.264  -1.205   0.125  0.00  0.00    -0.349 N 
ATOM      4  HN  UNL d   1       1.258  -2.209   0.304  1.00  0.00     0.166 HD
ATOM      5  C   UNL d   1       1.069   1.743   0.142  0.00  0.00     0.086 C 
ATOM      6  C   UNL d   1      -0.119   0.856   0.080  0.00  0.00     0.019 A 
ATOM      7  C   UNL d   1       0.044  -0.531   0.099  0.00  0.00     0.045 A 
ATOM      8  S   UNL d   1       1.000   3.393   0.513  0.00  0.00    -0.071 SA
ATOM      9  C   UNL d   1      -1.423   1.391  -0.004  0.00  0.00     0.016 A 
ATOM     10  C   UNL d   1      -1.095  -1.352   0.057  0.00  0.00     0.030 A 
ATOM     11  C   UNL d   1      -2.543   0.560  -0.057  0.00  0.00     0.001 A 
ATOM     12  C   UNL d   1      -2.379  -0.817  -0.021  0.00  0.00     0.002 A 
ENDROOT
BRANCH   1  13
ATOM     13  C   UNL d   1       3.636  -1.474  -0.185  0.00  0.00     0.019 A 
ATOM     14  C   UNL d   1       3.778  -2.654   0.578  0.00  0.00     0.019 A 
ATOM     15  C   UNL d   1       4.925  -3.442   0.390  0.00  0.00     0.024 A 
ATOM     16  C   UNL d   1       5.868  -3.127  -0.591  0.00  0.00     0.002 A 
ATOM     17  C   UNL d   1       5.705  -1.987  -1.369  0.00  0.00     0.001 A 
ATOM     18  C   UNL d   1       4.598  -1.164  -1.166  0.00  0.00     0.016 A 
BRANCH  14  19
ATOM     19  N   UNL d   1       2.944  -2.950   1.678  0.00  0.00    -0.302 NA
ATOM     20  H   UNL d   1       2.008  -2.557   1.551  0.00  0.00     0.124 HD
ATOM     21  H   UNL d   1       2.905  -3.938   1.904  0.00  0.00     0.124 HD
ENDBRANCH  14  19
ENDBRANCH   1  13
TORSDOF 2
