REMARK  7 active torsions:
REMARK  status: ('A' for Active; 'I' for Inactive)
REMARK    1  A    between atoms: C_2  and  C_1 
REMARK    2  A    between atoms: C_3  and  C_1 
REMARK    3  A    between atoms: C_6  and  C_1 
REMARK       I    between atoms: N_4  and  C_2 
REMARK    4  A    between atoms: N_5  and  C_3 
REMARK    5  A    between atoms: C_12  and  N_5 
REMARK    6  A    between atoms: N_7  and  C_6 
REMARK    7  A    between atoms: O_20  and  C_16 
ROOT
ATOM      1  C   UNL d   1       0.936  -0.006   0.077  0.00  0.00     0.227 C 
ENDROOT
BRANCH   1   2
ATOM      2  C   UNL d   1       0.456   0.432   1.463  0.00  0.00     0.243 C 
ATOM      3  N   UNL d   1      -0.261   1.586   1.758  0.00  0.00    -0.351 N 
ATOM      4  C   UNL d   1      -0.401   1.976   3.175  0.00  0.00     0.126 C 
ATOM      5  C   UNL d   1      -0.884   2.562   0.871  0.00  0.00     0.126 C 
ATOM      6  C   UNL d   1       0.228   3.352   3.430  0.00  0.00     0.024 C 
ATOM      7  C   UNL d   1      -0.277   4.428   2.450  0.00  0.00    -0.015 C 
ATOM      8  C   UNL d   1      -0.183   3.919   1.007  0.00  0.00     0.024 C 
ATOM      9  C   UNL d   1       0.513   5.727   2.605  0.00  0.00     0.010 C 
ATOM     10  O   UNL d   1       0.748  -0.341   2.395  0.00  0.00    -0.271 OA
ENDBRANCH   1   2
BRANCH   1  11
ATOM     11  C   UNL d   1       0.649   0.873  -1.188  0.00  0.00     0.103 C 
ATOM     12  S   UNL d   1       1.593   2.268  -1.561  0.00  0.00    -0.063 SA
BRANCH  11  13
ATOM     13  N   UNL d   1      -0.411   0.446  -2.008  0.00  0.00    -0.349 N 
ATOM     14  H   UNL d   1      -1.264   0.168  -1.532  0.00  0.00     0.166 HD
BRANCH  13  15
ATOM     15  C   UNL d   1      -0.570   0.944  -3.332  0.00  0.00     0.035 A 
ATOM     16  C   UNL d   1       0.501   0.858  -4.235  0.00  0.00     0.066 A 
ATOM     17  C   UNL d   1       0.470   1.547  -5.446  0.00  0.00     0.070 A 
ATOM     18  C   UNL d   1      -0.680   2.257  -5.787  0.00  0.00     0.037 A 
ATOM     19  C   UNL d   1      -1.785   2.275  -4.928  0.00  0.00     0.005 A 
ATOM     20  C   UNL d   1      -1.740   1.605  -3.701  0.00  0.00     0.029 A 
BRANCH  17  21
ATOM     21  O   UNL d   1       1.501   1.619  -6.343  0.00  0.00    -0.356 OA
ATOM     22  C   UNL d   1       2.765   1.131  -5.895  0.00  0.00     0.210 C 
ENDBRANCH  17  21
ENDBRANCH  13  15
ENDBRANCH  11  13
ENDBRANCH   1  11
BRANCH   1  23
ATOM     23  C   UNL d   1       2.456  -0.006   0.077  0.00  0.00    -0.056 C 
BRANCH  23  24
ATOM     24  N   UNL d   1       3.717  -0.006   0.077  0.00  0.00    -0.369 N 
ATOM     25  HN2 UNL d   1       2.697  -0.006   0.077  1.00  0.00     0.165 HD
ATOM     26  HN1 UNL d   1       4.737  -0.006   0.077  1.00  0.00     0.165 HD
ENDBRANCH  23  24
ENDBRANCH   1  23
TORSDOF 7
