REMARK  7 active torsions:
REMARK  status: ('A' for Active; 'I' for Inactive)
REMARK    1  A    between atoms: C_4  and  S_1 
REMARK    2  A    between atoms: C_5  and  S_1 
REMARK       I    between atoms: C_2  and  N_3 
REMARK       I    between atoms: N_7  and  C_2 
REMARK    3  A    between atoms: N_3  and  C_6 
REMARK    4  A    between atoms: C_15  and  C_5 
REMARK    5  A    between atoms: C_17  and  N_7 
REMARK    6  A    between atoms: C_11  and  S_14 
REMARK    7  A    between atoms: S_14  and  C_15 
ROOT
ATOM      1  C   UNL d   1       0.324  -6.674  -1.894  0.00  0.00     0.053 C 
ATOM      2  C   UNL d   1      -0.229  -5.395  -2.120  0.00  0.00     0.027 C 
ATOM      3  C   UNL d   1       0.550  -7.529  -2.983  0.00  0.00     0.031 C 
ATOM      4  C   UNL d   1      -0.222  -4.904  -3.432  0.00  0.00     0.021 C 
ATOM      5  C   UNL d   1       0.543  -7.032  -4.282  0.00  0.00     0.002 C 
ATOM      6  C   UNL d   1       0.229  -5.697  -4.494  0.00  0.00     0.002 C 
ENDROOT
BRANCH   2   7
ATOM      7  S   UNL d   1      -1.200  -4.589  -0.836  0.00  0.00    -0.127 SA
BRANCH   7   8
ATOM      8  C   UNL d   1      -0.557  -2.886  -0.666  0.00  0.00     0.095 C 
BRANCH   8   9
ATOM      9  C   UNL d   1      -0.833  -1.810  -1.699  0.00  0.00     0.156 C 
BRANCH   9  10
ATOM     10  S   UNL d   1      -2.502  -1.442  -2.140  0.00  0.00     0.176 S 
ATOM     11  O   UNL d   1      -2.462  -0.205  -2.902  0.00  0.00    -0.223 OA
ATOM     12  O   UNL d   1      -3.092  -2.624  -2.743  0.00  0.00    -0.223 OA
BRANCH  10  13
ATOM     13  C   UNL d   1      -3.426  -1.077  -0.658  0.00  0.00     0.059 A 
ATOM     14  C   UNL d   1      -3.544   0.249  -0.222  0.00  0.00     0.025 A 
ATOM     15  C   UNL d   1      -4.421   0.562   0.825  0.00  0.00     0.025 A 
ATOM     16  C   UNL d   1      -5.181  -0.444   1.420  0.00  0.00     0.034 A 
ATOM     17  C   UNL d   1      -5.068  -1.763   0.982  0.00  0.00     0.025 A 
ATOM     18 CL   UNL d   1      -6.293  -0.049   2.673  0.00  0.00    -0.084 Cl
ATOM     19  C   UNL d   1      -4.197  -2.084  -0.064  0.00  0.00     0.025 A 
ENDBRANCH  10  13
ENDBRANCH   9  10
ENDBRANCH   8   9
ENDBRANCH   7   8
ENDBRANCH   2   7
BRANCH   1  20
ATOM     20  N   UNL d   1       0.697  -7.070  -0.579  0.00  0.00    -0.307 N 
ATOM     21  C   UNL d   1       1.806  -7.790  -0.157  0.00  0.00     0.325 C 
ATOM     22  N   UNL d   1       2.675  -8.188  -1.142  0.00  0.00    -0.309 N 
ATOM     23  O   UNL d   1       1.967  -7.975   1.047  0.00  0.00    -0.247 OA
ATOM     24  H   UNL d   1       2.469  -7.861  -2.064  0.00  0.00     0.170 HD
ATOM     25  H   UNL d   1       0.263  -6.554   0.180  0.00  0.00     0.170 HD
BRANCH  22  26
ATOM     26  C   UNL d   1       3.895  -8.883  -1.078  0.00  0.00     0.036 A 
ATOM     27  C   UNL d   1       4.620  -9.102   0.088  0.00  0.00     0.029 A 
ATOM     28  C   UNL d   1       5.872  -9.729   0.017  0.00  0.00     0.002 A 
ATOM     29  C   UNL d   1       6.383 -10.166  -1.209  0.00  0.00     0.000 A 
ATOM     30  C   UNL d   1       5.644  -9.979  -2.371  0.00  0.00     0.002 A 
ATOM     31  C   UNL d   1       4.413  -9.329  -2.305  0.00  0.00     0.029 A 
ENDBRANCH  22  26
ENDBRANCH   1  20
TORSDOF 7
