REMARK  5 active torsions:
REMARK  status: ('A' for Active; 'I' for Inactive)
REMARK    1  A    between atoms: C_8  and  C_1 
REMARK    2  A    between atoms: S_11  and  C_5 
REMARK    3  A    between atoms: C_16  and  S_11 
REMARK    4  A    between atoms: C_15  and  C_16 
REMARK    5  A    between atoms: C_18  and  C_15 
ROOT
ATOM      1  C   UNL d   1      -0.015   0.488   0.254  0.00  0.00     0.132 A 
ATOM      2  N   UNL d   1       0.605  -0.585  -0.352  0.00  0.00    -0.317 N 
ATOM      3  N   UNL d   1      -0.996   0.016   1.012  0.00  0.00    -0.285 N 
ATOM      4  HN  UNL d   1      -1.603   0.577   1.609  1.00  0.00     0.188 HD
ATOM      5  C   UNL d   1      -0.097  -1.694   0.057  0.00  0.00     0.162 A 
ATOM      6  N   UNL d   1      -1.064  -1.342   0.866  0.00  0.00    -0.278 N 
ATOM      7  HN  UNL d   1      -1.742  -1.964   1.306  1.00  0.00     0.189 HD
ATOM      8  C   UNL d   1       1.756  -0.616  -1.215  0.00  0.00     0.160 C 
ENDROOT
BRANCH   1   9
ATOM      9  C   UNL d   1       0.287   1.970   0.142  0.00  0.00     0.222 C 
ATOM     10  O   UNL d   1       0.965   2.325  -1.081  0.00  0.00    -0.333 OA
ATOM     11  C   UNL d   1       0.111   2.419  -2.152  0.00  0.00     0.103 C 
ATOM     12  C   UNL d   1       0.685   2.545  -3.414  0.00  0.00     0.040 C 
ATOM     13  C   UNL d   1      -1.276   2.322  -2.019  0.00  0.00     0.102 C 
ATOM     14  C   UNL d   1      -0.118   2.414  -4.548  0.00  0.00     0.003 C 
ATOM     15  C   UNL d   1      -1.480   2.136  -4.410  0.00  0.00     0.003 C 
ATOM     16  C   UNL d   1      -2.064   2.110  -3.143  0.00  0.00     0.039 C 
ATOM     17  O   UNL d   1      -1.917   2.414  -0.811  0.00  0.00    -0.345 OA
ATOM     18  C   UNL d   1      -1.004   2.792   0.236  0.00  0.00     0.216 C 
ENDBRANCH   1   9
BRANCH   5  19
ATOM     19  S   UNL d   1       0.335  -3.321  -0.338  0.00  0.00    -0.085 SA
BRANCH  19  20
ATOM     20  C   UNL d   1      -1.252  -3.975  -0.945  0.00  0.00     0.166 C 
BRANCH  20  21
ATOM     21  C   UNL d   1      -1.537  -3.549  -2.376  0.00  0.00     0.169 C 
ATOM     22  O   UNL d   1      -0.909  -2.656  -2.955  0.00  0.00    -0.291 OA
BRANCH  21  23
ATOM     23  C   UNL d   1      -2.636  -4.241  -3.130  0.00  0.00     0.010 A 
ATOM     24  C   UNL d   1      -3.315  -5.359  -2.631  0.00  0.00     0.015 A 
ATOM     25  C   UNL d   1      -4.312  -5.976  -3.397  0.00  0.00     0.001 A 
ATOM     26  C   UNL d   1      -4.638  -5.482  -4.654  0.00  0.00     0.000 A 
ATOM     27  C   UNL d   1      -3.978  -4.366  -5.157  0.00  0.00     0.001 A 
ATOM     28  C   UNL d   1      -2.978  -3.747  -4.402  0.00  0.00     0.015 A 
ENDBRANCH  21  23
ENDBRANCH  20  21
ENDBRANCH  19  20
ENDBRANCH   5  19
TORSDOF 5
