REMARK  6 active torsions:
REMARK  status: ('A' for Active; 'I' for Inactive)
REMARK    1  A    between atoms: C_7  and  N_2 
REMARK    2  A    between atoms: C_4  and  C_10 
REMARK    3  A    between atoms: C_9  and  C_7 
REMARK    4  A    between atoms: C_8  and  C_9 
REMARK    5  A    between atoms: S_12  and  C_8 
REMARK    6  A    between atoms: C_19  and  S_12 
ROOT
ATOM      1  C   UNL d   1       3.864  -4.045   0.179  0.00  0.00     0.192 C 
ATOM      2  O   UNL d   1       2.940  -4.795   0.472  0.00  0.00    -0.285 OA
ENDROOT
BRANCH   1   3
ATOM      3  C   UNL d   1       3.702  -2.540   0.096  0.00  0.00     0.111 C 
BRANCH   3   4
ATOM      4  C   UNL d   1       2.220  -2.185   0.173  0.00  0.00     0.143 C 
BRANCH   4   5
ATOM      5  N   UNL d   1       1.881  -0.773   0.145  0.00  0.00    -0.290 N 
ATOM      6  C   UNL d   1       2.585   0.272  -0.427  0.00  0.00     0.372 A 
ATOM      7  O   UNL d   1       1.810   1.439  -0.486  0.00  0.00    -0.259 OA
ATOM      8  O   UNL d   1       3.732   0.225  -0.855  0.00  0.00    -0.237 OA
ATOM      9  C   UNL d   1       0.586   1.011  -0.004  0.00  0.00     0.107 A 
ATOM     10  C   UNL d   1      -0.563   1.771   0.052  0.00  0.00     0.040 A 
ATOM     11  C   UNL d   1       0.601  -0.310   0.385  0.00  0.00     0.073 A 
ATOM     12  C   UNL d   1      -1.723   1.151   0.528  0.00  0.00     0.003 A 
ATOM     13  C   UNL d   1      -1.702  -0.198   0.934  0.00  0.00     0.002 A 
ATOM     14  C   UNL d   1      -0.525  -0.948   0.862  0.00  0.00     0.033 A 
ENDBRANCH   4   5
ENDBRANCH   3   4
ENDBRANCH   1   3
BRANCH   1  15
ATOM     15  S   UNL d   1       5.484  -4.601  -0.221  0.00  0.00    -0.053 SA
BRANCH  15  16
ATOM     16  C   UNL d   1       5.663  -6.275   0.370  0.00  0.00     0.008 A 
ATOM     17  C   UNL d   1       4.630  -7.202   0.528  0.00  0.00     0.020 A 
ATOM     18  C   UNL d   1       4.893  -8.517   0.939  0.00  0.00     0.017 A 
ATOM     19  C   UNL d   1       6.204  -8.947   1.173  0.00  0.00     0.048 A 
ATOM     20  C   UNL d   1       7.245  -8.025   1.014  0.00  0.00     0.017 A 
ATOM     21  C   UNL d   1       6.975  -6.709   0.618  0.00  0.00     0.020 A 
BRANCH  19  22
ATOM     22  C   UNL d   1       6.502 -10.367   1.591  0.00  0.00     0.417 C 
ATOM     23  F   UNL d   1       5.447 -11.214   1.431  0.00  0.00    -0.166 F 
ATOM     24  F   UNL d   1       7.529 -10.917   0.885  0.00  0.00    -0.166 F 
ATOM     25  F   UNL d   1       6.859 -10.458   2.902  0.00  0.00    -0.166 F 
ENDBRANCH  19  22
ENDBRANCH  15  16
ENDBRANCH   1  15
TORSDOF 6
