REMARK  3 active torsions:
REMARK  status: ('A' for Active; 'I' for Inactive)
REMARK    1  A    between atoms: C_5  and  C_1 
REMARK       I    between atoms: N_10  and  C_5 
REMARK    2  A    between atoms: N_8  and  N_10 
REMARK    3  A    between atoms: C_13  and  C_12 
ROOT
ATOM      1  C   UNL d   1      -2.615  -1.417   0.015  0.00  0.00     0.288 C 
ATOM      2  N   UNL d   1      -3.878  -0.836   0.023  0.00  0.00    -0.265 N 
ATOM      3  O   UNL d   1      -1.561  -0.779   0.006  0.00  0.00    -0.264 OA
ATOM      4  H   UNL d   1      -4.704  -1.429   0.031  0.00  0.00     0.190 HD
ENDROOT
BRANCH   1   5
ATOM      5  C   UNL d   1      -2.600  -2.880   0.017  0.00  0.00     0.126 A 
ATOM      6  N   UNL d   1      -3.713  -3.635   0.033  0.00  0.00    -0.256 N 
ATOM      7  O   UNL d   1      -3.272  -4.954   0.030  0.00  0.00    -0.242 OA
ATOM      8  HN  UNL d   1      -4.680  -3.308   0.046  1.00  0.00     0.195 HD
ATOM      9  C   UNL d   1      -1.912  -4.982   0.012  0.00  0.00     0.075 A 
ATOM     10  C   UNL d   1      -1.439  -3.697   0.004  0.00  0.00     0.071 A 
ATOM     11  C   UNL d   1      -1.264  -6.306   0.002  0.00  0.00     0.079 C 
ENDBRANCH   1   5
BRANCH   2  12
ATOM     12  N   UNL d   1      -3.970   0.524   0.042  0.00  0.00    -0.312 N 
ATOM     13  C   UNL d   1      -5.148   1.055   0.041  0.00  0.00     0.088 C 
ATOM     14  HN  UNL d   1      -3.133   1.106   0.057  1.00  0.00     0.185 HD
BRANCH  13  15
ATOM     15  C   UNL d   1      -5.303   2.577   0.034  0.00  0.00    -0.018 C 
ATOM     16  C   UNL d   1      -5.381   3.047  -1.423  0.00  0.00     0.020 C 
ATOM     17  C   UNL d   1      -6.596   2.953   0.768  0.00  0.00     0.020 C 
ATOM     18  C   UNL d   1      -4.112   3.251   0.732  0.00  0.00     0.020 C 
ENDBRANCH  13  15
ENDBRANCH   2  12
TORSDOF 3
