REMARK  2 active torsions:
REMARK  status: ('A' for Active; 'I' for Inactive)
REMARK    1  A    between atoms: C_6  and  C_2 
REMARK    2  A    between atoms: S_15  and  C_3 
ROOT
ATOM      1  C   UNL d   1       1.430  -0.362  -0.001  0.00  0.00     0.107 A 
ATOM      2  C   UNL d   1       0.353  -1.404  -0.002  0.00  0.00     0.089 A 
ATOM      3  C   UNL d   1       1.092   0.964  -0.002  0.00  0.00     0.094 A 
ATOM      4  N   UNL d   1      -0.218   1.413  -0.004  0.00  0.00    -0.340 N 
ATOM      5  HN  UNL d   1      -0.437   2.409  -0.006  1.00  0.00     0.167 HD
ATOM      6  N   UNL d   1      -0.928  -0.835  -0.003  0.00  0.00    -0.343 N 
ATOM      7  C   UNL d   1      -1.156   0.518  -0.005  0.00  0.00     0.078 A 
ATOM      8  C   UNL d   1       2.811  -0.734   0.001  0.00  0.00     0.104 C 
ATOM      9  N   UNL d   1       3.930  -1.041   0.003  0.00  0.00    -0.191 NA
ATOM     10  C   UNL d   1      -2.589   0.993  -0.009  0.00  0.00     0.089 C 
ATOM     11  H   UNL d   1      -1.741  -1.447  -0.005  0.00  0.00     0.167 HD
ENDROOT
BRANCH   2  12
ATOM     12  C   UNL d   1       0.532  -2.757  -0.001  0.00  0.00     0.152 C 
ATOM     13  C   UNL d   1       1.781  -3.442  -0.002  0.00  0.00     0.113 C 
ATOM     14  N   UNL d   1       2.760  -4.060  -0.003  0.00  0.00    -0.191 NA
ATOM     15  C   UNL d   1      -0.605  -3.620   0.001  0.00  0.00     0.113 C 
ATOM     16  N   UNL d   1      -1.571  -4.262   0.002  0.00  0.00    -0.191 NA
ENDBRANCH   2  12
BRANCH   3  17
ATOM     17  S   UNL d   1       2.392   2.180  -0.001  0.00  0.00    -0.115 SA
ATOM     18  C   UNL d   1       1.474   3.730  -0.003  0.00  0.00     0.097 C 
ENDBRANCH   3  17
TORSDOF 2
