REMARK  3 active torsions:
REMARK  status: ('A' for Active; 'I' for Inactive)
REMARK    1  A    between atoms: N_2  and  S_1 
REMARK    2  A    between atoms: C_3  and  S_1 
REMARK    3  A    between atoms: C_7  and  N_2 
ROOT
ATOM      1  S   UNL d   1       1.069  -0.022   0.239  0.00  0.00     0.259 S 
ATOM      2  O   UNL d   1       0.295   0.391   1.386  0.00  0.00    -0.201 OA
ATOM      3  O   UNL d   1       2.514   0.028   0.235  0.00  0.00    -0.201 OA
ENDROOT
BRANCH   1   4
ATOM      4  N   UNL d   1       0.508   0.905  -1.052  0.00  0.00    -0.310 N 
ATOM      5  H   UNL d   1       0.004   1.718  -0.690  0.00  0.00     0.172 HD
BRANCH   4   6
ATOM      6  C   UNL d   1       1.393   1.140  -2.214  0.00  0.00     0.103 C 
ATOM      7  C   UNL d   1       1.631  -0.136  -3.013  0.00  0.00     0.036 C 
ATOM      8  C   UNL d   1       2.301   0.261  -4.316  0.00  0.00     0.076 C 
ATOM      9  S   UNL d   1       1.567   1.851  -4.778  0.00  0.00    -0.167 SA
ATOM     10  C   UNL d   1       0.722   2.108  -3.194  0.00  0.00     0.099 C 
ENDBRANCH   4   6
ENDBRANCH   1   4
BRANCH   1  11
ATOM     11  C   UNL d   1       0.549  -1.671  -0.174  0.00  0.00     0.079 A 
ATOM     12  C   UNL d   1       1.504  -2.652  -0.462  0.00  0.00     0.027 A 
ATOM     13  C   UNL d   1       1.093  -3.961  -0.727  0.00  0.00     0.025 A 
ATOM     14  C   UNL d   1      -0.264  -4.283  -0.686  0.00  0.00     0.034 A 
ATOM     15  C   UNL d   1      -1.216  -3.306  -0.393  0.00  0.00     0.025 A 
ATOM     16 CL   UNL d   1      -0.763  -5.902  -0.979  0.00  0.00    -0.084 Cl
ATOM     17  C   UNL d   1      -0.813  -1.992  -0.136  0.00  0.00     0.027 A 
ENDBRANCH   1  11
TORSDOF 3
