REMARK  3 active torsions:
REMARK  status: ('A' for Active; 'I' for Inactive)
REMARK    1  A    between atoms: N_5  and  S_1 
REMARK    2  A    between atoms: C_7  and  S_1 
REMARK    3  A    between atoms: C_4  and  N_5 
ROOT
ATOM      1  N   UNL d   1      16.616  -9.119   3.880  0.00  0.00    -0.310 N 
ATOM      2  H   UNL d   1      17.110  -9.693   4.564  0.00  0.00     0.172 HD
ENDROOT
BRANCH   1   3
ATOM      3  S   UNL d   1      17.167  -9.537   2.338  0.00  0.00     0.259 S 
ATOM      4  O   UNL d   1      16.048  -9.987   1.550  0.00  0.00    -0.201 OA
ATOM      5  O   UNL d   1      18.330 -10.370   2.558  0.00  0.00    -0.201 OA
BRANCH   3   6
ATOM      6  C   UNL d   1      17.766  -7.981   1.720  0.00  0.00     0.079 C 
ATOM      7  C   UNL d   1      18.809  -7.346   2.405  0.00  0.00     0.026 C 
ATOM      8  C   UNL d   1      19.052  -5.990   2.173  0.00  0.00     0.008 C 
ATOM      9  C   UNL d   1      18.255  -5.276   1.267  0.00  0.00    -0.062 C 
ATOM     10  C   UNL d   1      17.320  -5.964   0.483  0.00  0.00     0.008 C 
ATOM     11  C   UNL d   1      18.382  -3.783   1.173  0.00  0.00     0.048 C 
ATOM     12  C   UNL d   1      17.088  -7.324   0.694  0.00  0.00     0.026 C 
ENDBRANCH   3   6
ENDBRANCH   1   3
BRANCH   1  13
ATOM     13  C   UNL d   1      15.197  -8.825   4.209  0.00  0.00     0.102 C 
ATOM     14  C   UNL d   1      14.590  -7.476   3.684  0.00  0.00    -0.016 C 
ATOM     15  C   UNL d   1      13.523  -7.090   4.774  0.00  0.00    -0.035 C 
ATOM     16  C   UNL d   1      15.635  -6.354   3.904  0.00  0.00     0.012 C 
ATOM     17  C   UNL d   1      13.988  -7.548   2.292  0.00  0.00     0.018 C 
ATOM     18  C   UNL d   1      14.571  -7.172   5.900  0.00  0.00    -0.004 C 
ATOM     19  C   UNL d   1      12.886  -5.688   4.609  0.00  0.00     0.016 C 
ATOM     20  C   UNL d   1      12.347  -8.070   4.943  0.00  0.00     0.016 C 
ATOM     21  C   UNL d   1      15.127  -8.607   5.753  0.00  0.00     0.032 C 
ATOM     22  C   UNL d   1      15.674  -6.202   5.432  0.00  0.00     0.006 C 
ENDBRANCH   1  13
TORSDOF 3
