REMARK  3 active torsions:
REMARK  status: ('A' for Active; 'I' for Inactive)
REMARK       I    between atoms: N_2  and  C_1 
REMARK       I    between atoms: N_7  and  C_1 
REMARK    1  A    between atoms: N_4  and  N_2 
REMARK    2  A    between atoms: C_9  and  C_8 
REMARK    3  A    between atoms: O_15  and  C_10 
ROOT
ATOM      1  N   UNL d   1       0.908   1.198  -2.156  0.00  0.00    -0.309 N 
ATOM      2  HN  UNL d   1       1.751   0.737  -2.499  1.00  0.00     0.186 HD
ATOM      3  C   UNL d   1       0.515   2.373  -2.531  0.00  0.00     0.118 C 
ENDROOT
BRANCH   1   4
ATOM      4  N   UNL d   1       0.031   0.641  -1.219  0.00  0.00    -0.277 N 
ATOM      5  C   UNL d   1       0.372  -0.571  -0.905  0.00  0.00     0.163 C 
ATOM      6  N   UNL d   1      -0.328  -1.326  -0.035  0.00  0.00    -0.375 N 
ATOM      7  N   UNL d   1       1.438  -1.232  -1.426  0.00  0.00    -0.273 NA
ATOM      8  H   UNL d   1      -1.009  -0.800   0.498  0.00  0.00     0.158 HD
ATOM      9  H   UNL d   1       0.178  -2.019   0.492  0.00  0.00     0.158 HD
ATOM     10  H   UNL d   1       1.947  -0.556  -1.995  0.00  0.00     0.127 HD
ATOM     11  H   UNL d   1       2.046  -1.649  -0.739  0.00  0.00     0.127 HD
ATOM     12  HN  UNL d   1      -0.777   1.128  -0.831  1.00  0.00     0.189 HD
ENDBRANCH   1   4
BRANCH   3  13
ATOM     13  C   UNL d   1       1.265   3.132  -3.550  0.00  0.00    -0.019 A 
ATOM     14  C   UNL d   1       2.349   2.545  -4.209  0.00  0.00     0.015 A 
ATOM     15  C   UNL d   1       3.060   3.265  -5.170  0.00  0.00     0.037 A 
ATOM     16  C   UNL d   1       2.695   4.578  -5.469  0.00  0.00     0.068 A 
ATOM     17  C   UNL d   1       1.590   5.151  -4.832  0.00  0.00     0.037 A 
ATOM     18  C   UNL d   1       0.875   4.436  -3.866  0.00  0.00     0.015 A 
BRANCH  16  19
ATOM     19  O   UNL d   1       3.323   5.374  -6.388  0.00  0.00    -0.356 OA
ATOM     20  C   UNL d   1       4.702   5.085  -6.601  0.00  0.00     0.210 C 
ENDBRANCH  16  19
ENDBRANCH   3  13
TORSDOF 3
