REMARK  9 active torsions:
REMARK  status: ('A' for Active; 'I' for Inactive)
REMARK    1  A    between atoms: S_4  and  C_1 
REMARK    2  A    between atoms: C_2  and  N_5 
REMARK    3  A    between atoms: N_6  and  C_2 
REMARK    4  A    between atoms: C_3  and  C_13 
REMARK       I    between atoms: N_7  and  C_3 
REMARK    5  A    between atoms: C_16  and  S_4 
REMARK    6  A    between atoms: N_5  and  N_7 
REMARK    7  A    between atoms: C_15  and  N_6 
REMARK    8  A    between atoms: C_13  and  O_14 
REMARK    9  A    between atoms: O_14  and  C_17 
ROOT
ATOM      1  C   UNL d   1       2.623  -5.596   7.066  0.00  0.00     0.260 C 
ATOM      2  N   UNL d   1       2.541  -6.670   6.199  0.00  0.00    -0.266 N 
ATOM      3  O   UNL d   1       3.078  -5.691   8.208  0.00  0.00    -0.269 OA
ATOM      4  H   UNL d   1       2.338  -6.540   5.212  0.00  0.00     0.190 HD
ENDROOT
BRANCH   1   5
ATOM      5  C   UNL d   1       2.174  -4.273   6.450  0.00  0.00     0.280 C 
BRANCH   5   6
ATOM      6  O   UNL d   1       0.758  -4.176   6.450  0.00  0.00    -0.342 OA
BRANCH   6   7
ATOM      7  C   UNL d   1       0.224  -2.976   6.063  0.00  0.00     0.069 A 
ATOM      8  C   UNL d   1      -1.153  -2.849   6.263  0.00  0.00     0.038 A 
ATOM      9  C   UNL d   1      -1.822  -1.663   5.932  0.00  0.00     0.021 A 
ATOM     10  C   UNL d   1      -1.119  -0.591   5.378  0.00  0.00     0.009 A 
ATOM     11  C   UNL d   1       0.258  -0.723   5.170  0.00  0.00     0.021 A 
ATOM     12  C   UNL d   1       0.926  -1.909   5.504  0.00  0.00     0.038 A 
BRANCH  10  13
ATOM     13  S   UNL d   1      -1.892   0.978   5.048  0.00  0.00    -0.016 SA
BRANCH  13  14
ATOM     14  C   UNL d   1      -3.063   0.553   3.752  0.00  0.00     0.448 C 
ATOM     15  F   UNL d   1      -3.035  -0.751   3.392  0.00  0.00    -0.160 F 
ATOM     16  F   UNL d   1      -2.821   1.280   2.633  0.00  0.00    -0.160 F 
ATOM     17  F   UNL d   1      -4.331   0.834   4.140  0.00  0.00    -0.160 F 
ENDBRANCH  13  14
ENDBRANCH  10  13
ENDBRANCH   6   7
ENDBRANCH   5   6
ENDBRANCH   1   5
BRANCH   2  18
ATOM     18  N   UNL d   1       3.226  -7.847   6.536  0.00  0.00    -0.273 N 
ATOM     19  H   UNL d   1       3.743  -7.816   7.413  0.00  0.00     0.189 HD
BRANCH  18  20
ATOM     20  C   UNL d   1       2.817  -9.073   6.082  0.00  0.00     0.191 C 
ATOM     21  S   UNL d   1       1.308  -9.403   5.439  0.00  0.00    -0.039 SA
BRANCH  20  22
ATOM     22  N   UNL d   1       3.728 -10.097   6.155  0.00  0.00    -0.332 N 
ATOM     23  H   UNL d   1       3.317 -11.013   6.004  0.00  0.00     0.168 HD
BRANCH  22  24
ATOM     24  C   UNL d   1       5.141 -10.056   6.188  0.00  0.00     0.034 A 
ATOM     25  C   UNL d   1       5.892  -8.886   6.009  0.00  0.00     0.032 A 
ATOM     26  C   UNL d   1       7.285  -8.918   6.046  0.00  0.00     0.044 A 
ATOM     27  C   UNL d   1       7.938 -10.127   6.236  0.00  0.00     0.116 A 
ATOM     28  C   UNL d   1       7.220 -11.306   6.367  0.00  0.00     0.044 A 
ATOM     29  F   UNL d   1       9.276 -10.155   6.273  0.00  0.00    -0.206 F 
ATOM     30  C   UNL d   1       5.821 -11.272   6.338  0.00  0.00     0.032 A 
ENDBRANCH  22  24
ENDBRANCH  20  22
ENDBRANCH  18  20
ENDBRANCH   2  18
TORSDOF 9
