REMARK  0 active torsions:
REMARK  status: ('A' for Active; 'I' for Inactive)
ROOT
ATOM      1  N   UNL d   1      -0.432   0.158  -0.001  0.00  0.00    -0.256 N 
ATOM      2  C   UNL d   1      -0.045  -1.171  -0.001  0.00  0.00     0.160 A 
ATOM      3  C   UNL d   1       0.511   1.179  -0.000  0.00  0.00     0.270 A 
ATOM      4  N   UNL d   1       1.165  -1.609  -0.002  0.00  0.00    -0.335 N 
ATOM      5  HN  UNL d   1       1.372  -2.608  -0.002  1.00  0.00     0.168 HD
ATOM      6  C   UNL d   1      -1.844   0.332  -0.001  0.00  0.00     0.063 A 
ATOM      7  C   UNL d   1       1.927   0.728   0.000  0.00  0.00     0.098 A 
ATOM      8  S   UNL d   1      -1.417  -2.260  -0.001  0.00  0.00    -0.051 SA
ATOM      9  C   UNL d   1       2.183  -0.648  -0.001  0.00  0.00     0.053 A 
ATOM     10  C   UNL d   1      -2.533  -0.890  -0.000  0.00  0.00     0.035 A 
ATOM     11  C   UNL d   1      -2.564   1.522  -0.001  0.00  0.00     0.055 A 
ATOM     12  O   UNL d   1       0.252   2.378   0.001  0.00  0.00    -0.266 OA
ATOM     13  C   UNL d   1       2.997   1.624   0.001  0.00  0.00     0.134 A 
ATOM     14  C   UNL d   1      -3.917  -0.959   0.001  0.00  0.00     0.023 A 
ATOM     15  C   UNL d   1      -3.963   1.461   0.000  0.00  0.00     0.036 A 
ATOM     16  F   UNL d   1       2.802   2.950   0.003  0.00  0.00    -0.205 F 
ATOM     17  C   UNL d   1      -4.638   0.233   0.001  0.00  0.00     0.025 A 
ATOM     18  C   UNL d   1       3.506  -1.105  -0.001  0.00  0.00     0.031 A 
ATOM     19 CL   UNL d   1      -4.880   2.918   0.000  0.00  0.00    -0.084 Cl
ATOM     20  C   UNL d   1       4.571  -0.206   0.000  0.00  0.00     0.005 A 
ATOM     21  C   UNL d   1       4.313   1.163   0.002  0.00  0.00     0.043 A 
ENDROOT
TORSDOF 0
