REMARK  5 active torsions:
REMARK  status: ('A' for Active; 'I' for Inactive)
REMARK    1  A    between atoms: C_2  and  N_1 
REMARK    2  A    between atoms: C_12  and  C_5 
REMARK    3  A    between atoms: N_15  and  C_6 
REMARK    4  A    between atoms: O_19  and  C_12 
REMARK    5  A    between atoms: C_22  and  O_19 
ROOT
ATOM      1  N   UNL d   1       0.996  -0.772   0.029  0.00  0.00    -0.217 N 
ATOM      2  N   UNL d   1       1.204   0.574  -0.066  0.00  0.00    -0.285 N 
ATOM      3  HN  UNL d   1       2.076   1.055  -0.288  1.00  0.00     0.188 HD
ATOM      4  C   UNL d   1       0.004   1.126   0.196  0.00  0.00     0.127 A 
ATOM      5  C   UNL d   1      -0.315  -1.065   0.408  0.00  0.00     0.125 A 
ATOM      6  C   UNL d   1      -0.967   0.135   0.497  0.00  0.00     0.087 A 
ENDROOT
BRANCH   1   7
ATOM      7  C   UNL d   1       1.970  -1.697  -0.375  0.00  0.00     0.173 C 
ATOM      8  N   UNL d   1       1.735  -2.995  -0.384  0.00  0.00    -0.334 N 
ATOM      9  C   UNL d   1       2.684  -3.617  -1.165  0.00  0.00     0.053 A 
ATOM     10  HN  UNL d   1       0.974  -3.462   0.108  1.00  0.00     0.168 HD
ATOM     11  C   UNL d   1       2.651  -4.970  -1.549  0.00  0.00     0.054 A 
ATOM     12  C   UNL d   1       3.701  -2.787  -1.646  0.00  0.00     0.035 A 
ATOM     13  C   UNL d   1       3.600  -5.438  -2.454  0.00  0.00     0.036 A 
ATOM     14 CL   UNL d   1       3.491  -7.059  -3.023  0.00  0.00    -0.084 Cl
ATOM     15  C   UNL d   1       4.608  -4.604  -2.932  0.00  0.00     0.025 A 
ATOM     16  C   UNL d   1       4.694  -3.271  -2.514  0.00  0.00     0.023 A 
ATOM     17  S   UNL d   1       3.451  -1.187  -1.039  0.00  0.00    -0.050 SA
ENDBRANCH   1   7
BRANCH   5  18
ATOM     18  N   UNL d   1      -0.795  -2.323   0.576  0.00  0.00    -0.384 N 
ATOM     19  H   UNL d   1      -0.210  -3.115   0.288  0.00  0.00     0.157 HD
ATOM     20  H   UNL d   1      -1.789  -2.516   0.502  0.00  0.00     0.157 HD
ENDBRANCH   5  18
BRANCH   4  21
ATOM     21  C   UNL d   1      -0.287   2.569   0.154  0.00  0.00     0.311 C 
ATOM     22  O   UNL d   1      -1.398   3.019   0.403  0.00  0.00    -0.258 OA
BRANCH  21  23
ATOM     23  O   UNL d   1       0.787   3.340  -0.205  0.00  0.00    -0.317 OA
BRANCH  23  24
ATOM     24  C   UNL d   1       0.531   4.750  -0.248  0.00  0.00     0.175 C 
ATOM     25  C   UNL d   1      -0.060   5.147  -1.590  0.00  0.00     0.034 C 
ENDBRANCH  23  24
ENDBRANCH  21  23
ENDBRANCH   4  21
TORSDOF 5
