REMARK  4 active torsions:
REMARK  status: ('A' for Active; 'I' for Inactive)
REMARK    1  A    between atoms: C_5  and  C_1 
REMARK    2  A    between atoms: C_13  and  N_2 
REMARK    3  A    between atoms: S_8  and  C_5 
REMARK    4  A    between atoms: C_10  and  S_8 
ROOT
ATOM      1  C   UNL d   1      -0.542  -2.646   0.373  0.00  0.00     0.241 C 
ATOM      2  O   UNL d   1       0.444  -3.370   0.460  0.00  0.00    -0.278 OA
ENDROOT
BRANCH   1   3
ATOM      3  C   UNL d   1      -0.476  -1.220   0.149  0.00  0.00     0.110 A 
ATOM      4  N   UNL d   1       0.577  -0.578  -0.467  0.00  0.00    -0.288 N 
ATOM      5  N   UNL d   1       0.457   0.765  -0.484  0.00  0.00    -0.303 N 
ATOM      6  C   UNL d   1      -0.732   1.001   0.070  0.00  0.00     0.024 A 
ATOM      7  HN  UNL d   1       1.126   1.447  -0.841  1.00  0.00     0.186 HD
ATOM      8  C   UNL d   1      -1.355  -0.198   0.475  0.00  0.00     0.061 A 
ATOM      9  C   UNL d   1      -1.227   2.392   0.197  0.00  0.00     0.070 C 
BRANCH   4  10
ATOM     10  C   UNL d   1       1.678  -1.157  -1.220  0.00  0.00     0.145 C 
ATOM     11  C   UNL d   1       1.373  -1.166  -2.709  0.00  0.00     0.028 C 
ENDBRANCH   4  10
ENDBRANCH   1   3
BRANCH   1  12
ATOM     12  S   UNL d   1      -2.166  -3.290   0.585  0.00  0.00    -0.046 SA
BRANCH  12  13
ATOM     13  C   UNL d   1      -2.267  -4.702  -0.510  0.00  0.00     0.010 A 
ATOM     14  C   UNL d   1      -3.538  -5.040  -0.999  0.00  0.00     0.038 A 
ATOM     15  C   UNL d   1      -3.710  -6.155  -1.824  0.00  0.00     0.012 A 
ATOM     16 BR   UNL d   1      -5.437  -6.603  -2.449  0.00  0.00    -0.051 Br
ATOM     17  C   UNL d   1      -2.623  -6.948  -2.180  0.00  0.00     0.019 A 
ATOM     18  C   UNL d   1      -1.359  -6.628  -1.697  0.00  0.00     0.003 A 
ATOM     19  C   UNL d   1      -1.185  -5.519  -0.860  0.00  0.00     0.019 A 
ENDBRANCH  12  13
ENDBRANCH   1  12
TORSDOF 4
