REMARK  4 active torsions:
REMARK  status: ('A' for Active; 'I' for Inactive)
REMARK    1  A    between atoms: C_2  and  C_1 
REMARK    2  A    between atoms: C_6  and  C_2 
REMARK    3  A    between atoms: O_9  and  C_3 
REMARK    4  A    between atoms: O_10  and  C_4 
ROOT
ATOM      1  C   UNL d   1       1.490  -0.516   0.286  0.00  0.00     0.081 A 
ATOM      2  C   UNL d   1       0.422  -1.391   0.541  0.00  0.00     0.085 A 
ATOM      3  C   UNL d   1       1.222   0.822  -0.047  0.00  0.00     0.085 A 
ATOM      4  C   UNL d   1      -1.153   0.412   0.143  0.00  0.00     0.005 A 
ATOM      5  C   UNL d   1      -0.893  -0.911   0.495  0.00  0.00     0.038 A 
ATOM      6  C   UNL d   1      -0.098   1.276  -0.142  0.00  0.00     0.038 A 
ENDROOT
BRANCH   1   7
ATOM      7  C   UNL d   1       2.891  -0.981   0.309  0.00  0.00     0.198 C 
ATOM      8  O   UNL d   1       3.520  -0.979  -0.747  0.00  0.00    -0.286 OA
BRANCH   7   9
ATOM      9  C   UNL d   1       3.544  -1.473   1.551  0.00  0.00     0.018 A 
ATOM     10  C   UNL d   1       2.904  -1.513   2.789  0.00  0.00     0.032 A 
ATOM     11  C   UNL d   1       3.601  -2.037   3.865  0.00  0.00     0.088 A 
ATOM     12  N   UNL d   1       4.872  -2.485   3.793  0.00  0.00    -0.375 N 
ATOM     13  C   UNL d   1       5.478  -2.417   2.589  0.00  0.00     0.088 A 
ATOM     14  HN  UNL d   1       5.353  -2.859   4.611  1.00  0.00     0.164 HD
ATOM     15  C   UNL d   1       4.864  -1.924   1.453  0.00  0.00     0.032 A 
ENDBRANCH   7   9
ENDBRANCH   1   7
BRANCH   2  16
ATOM     16  O   UNL d   1       0.550  -2.699   0.926  0.00  0.00    -0.355 OA
ATOM     17  C   UNL d   1       1.242  -3.521  -0.017  0.00  0.00     0.210 C 
ENDBRANCH   2  16
BRANCH   3  18
ATOM     18  O   UNL d   1       2.210   1.715  -0.370  0.00  0.00    -0.355 OA
ATOM     19  C   UNL d   1       2.774   2.305   0.799  0.00  0.00     0.210 C 
ENDBRANCH   3  18
TORSDOF 4
