REMARK  8 active torsions:
REMARK  status: ('A' for Active; 'I' for Inactive)
REMARK    1  A    between atoms: C_2  and  C_11 
REMARK    2  A    between atoms: O_13  and  C_2 
REMARK    3  A    between atoms: C_3  and  C_12 
REMARK    4  A    between atoms: O_14  and  C_3 
REMARK    5  A    between atoms: C_9  and  C_5 
REMARK    6  A    between atoms: C_10  and  C_6 
REMARK    7  A    between atoms: C_11  and  C_9 
REMARK    8  A    between atoms: C_12  and  C_10 
ROOT
ATOM      1  C   UNL d   1      -1.987  -0.196  -0.023  0.00  0.00     0.135 C 
ATOM      2  O   UNL d   1      -2.266   0.104  -1.190  0.00  0.00    -0.297 OA
ATOM      3  C   UNL d   1      -1.753   0.936   1.025  0.00  0.00     0.056 C 
ATOM      4  C   UNL d   1      -1.962  -1.688   0.393  0.00  0.00     0.056 C 
ATOM      5  C   UNL d   1      -1.161   2.198   0.332  0.00  0.00     0.012 C 
ATOM      6  C   UNL d   1      -0.527  -2.225   0.580  0.00  0.00     0.012 C 
ATOM      7  C   UNL d   1       0.183   2.018  -0.399  0.00  0.00     0.001 C 
ATOM      8  C   UNL d   1       0.362  -2.148  -0.668  0.00  0.00     0.001 C 
ATOM      9  C   UNL d   1       2.659   0.150  -0.767  0.00  0.00     0.000 C 
ATOM     10  C   UNL d   1       2.717   1.573  -0.191  0.00  0.00     0.000 C 
ATOM     11  C   UNL d   1       1.435   2.085   0.483  0.00  0.00     0.000 C 
ATOM     12  C   UNL d   1       1.857  -2.244  -0.326  0.00  0.00     0.000 C 
ATOM     13  C   UNL d   1       2.449  -0.957   0.275  0.00  0.00     0.000 C 
ENDROOT
BRANCH   3  14
ATOM     14  C   UNL d   1      -0.980   0.494   2.269  0.00  0.00     0.022 C 
BRANCH  14  15
ATOM     15  C   UNL d   1      -0.735   1.534   3.366  0.00  0.00     0.110 C 
BRANCH  15  16
ATOM     16  C   UNL d   1       0.181   0.948   4.422  0.00  0.00     0.139 C 
ATOM     17  O   UNL d   1       0.634  -0.189   4.411  0.00  0.00    -0.650 OA
BRANCH  16  18
ATOM     18  O   UNL d   1       0.475   1.822   5.408  0.00  0.00    -0.776 OA
ATOM     19  H   UNL d   1       0.061   2.701   5.297  0.00  0.00     0.167 HD
ENDBRANCH  16  18
ENDBRANCH  15  16
ENDBRANCH  14  15
ENDBRANCH   3  14
BRANCH   4  20
ATOM     20  C   UNL d   1      -2.770  -2.548  -0.614  0.00  0.00     0.022 C 
BRANCH  20  21
ATOM     21  C   UNL d   1      -2.859  -4.022  -0.218  0.00  0.00     0.110 C 
BRANCH  21  22
ATOM     22  C   UNL d   1      -3.693  -4.809  -1.197  0.00  0.00     0.139 C 
ATOM     23  O   UNL d   1      -4.891  -5.005  -1.068  0.00  0.00    -0.650 OA
BRANCH  22  24
ATOM     24  O   UNL d   1      -2.985  -5.278  -2.248  0.00  0.00    -0.776 OA
ATOM     25  H   UNL d   1      -2.039  -5.037  -2.235  0.00  0.00     0.167 HD
ENDBRANCH  22  24
ENDBRANCH  21  22
ENDBRANCH  20  21
ENDBRANCH   4  20
TORSDOF 8
