REMARK  5 active torsions:
REMARK  status: ('A' for Active; 'I' for Inactive)
REMARK    1  A    between atoms: C_3  and  C_1 
REMARK    2  A    between atoms: C_8  and  C_2 
REMARK       I    between atoms: N_16  and  C_8 
REMARK    3  A    between atoms: C_10  and  C_18 
REMARK       I    between atoms: C_15  and  N_17 
REMARK    4  A    between atoms: C_19  and  C_15 
REMARK    5  A    between atoms: N_17  and  N_16 
ROOT
ATOM      1  C   UNL d   1      -2.711  -1.553   0.008  0.00  0.00     0.289 C 
ATOM      2  N   UNL d   1      -3.913  -0.878  -0.049  0.00  0.00    -0.262 N 
ATOM      3  O   UNL d   1      -2.692  -2.784   0.077  0.00  0.00    -0.264 OA
ATOM      4  H   UNL d   1      -3.970   0.138  -0.161  0.00  0.00     0.190 HD
ENDROOT
BRANCH   1   5
ATOM      5  C   UNL d   1      -1.490  -0.729   0.008  0.00  0.00     0.139 A 
ATOM      6  C   UNL d   1      -1.189   0.553  -0.556  0.00  0.00     0.057 A 
ATOM      7  C   UNL d   1       0.132   0.780  -0.231  0.00  0.00     0.087 A 
ATOM      8  O   UNL d   1       0.607  -0.287   0.456  0.00  0.00    -0.241 OA
ATOM      9  C   UNL d   1       1.089   1.884  -0.448  0.00  0.00     0.080 C 
ATOM     10  N   UNL d   1      -0.384  -1.229   0.593  0.00  0.00    -0.255 N 
ATOM     11  HN  UNL d   1      -0.298  -2.136   1.052  1.00  0.00     0.195 HD
BRANCH   6  12
ATOM     12  C   UNL d   1      -2.055   1.432  -1.339  0.00  0.00     0.054 A 
ATOM     13  N   UNL d   1      -3.395   1.510  -1.015  0.00  0.00    -0.353 N 
ATOM     14  C   UNL d   1      -4.004   2.367  -1.810  0.00  0.00     0.047 A 
ATOM     15  HN  UNL d   1      -3.847   0.981  -0.269  1.00  0.00     0.166 HD
ATOM     16  C   UNL d   1      -5.453   2.708  -1.754  0.00  0.00     0.076 C 
ATOM     17  S   UNL d   1      -3.006   3.111  -2.995  0.00  0.00    -0.087 SA
ATOM     18  C   UNL d   1      -1.663   2.239  -2.387  0.00  0.00     0.082 A 
ENDBRANCH   6  12
ENDBRANCH   1   5
BRANCH   2  19
ATOM     19  N   UNL d   1      -5.117  -1.599  -0.159  0.00  0.00    -0.263 N 
ATOM     20  C   UNL d   1      -6.292  -0.888  -0.025  0.00  0.00     0.270 C 
ATOM     21  O   UNL d   1      -6.316   0.315   0.219  0.00  0.00    -0.266 OA
ATOM     22  H   UNL d   1      -5.048  -2.610  -0.073  0.00  0.00     0.190 HD
BRANCH  20  23
ATOM     23  C   UNL d   1      -7.577  -1.619  -0.185  0.00  0.00     0.033 A 
ATOM     24  C   UNL d   1      -8.740  -0.989   0.286  0.00  0.00     0.018 A 
ATOM     25  C   UNL d   1      -9.986  -1.601   0.152  0.00  0.00     0.017 A 
ATOM     26  C   UNL d   1     -10.096  -2.853  -0.465  0.00  0.00     0.048 A 
ATOM     27  C   UNL d   1      -8.934  -3.468  -0.965  0.00  0.00     0.017 A 
ATOM     28  C   UNL d   1      -7.681  -2.855  -0.830  0.00  0.00     0.018 A 
BRANCH  26  29
ATOM     29  C   UNL d   1     -11.437  -3.538  -0.594  0.00  0.00     0.417 C 
ATOM     30  F   UNL d   1     -12.463  -2.834  -0.040  0.00  0.00    -0.166 F 
ATOM     31  F   UNL d   1     -11.788  -3.754  -1.891  0.00  0.00    -0.166 F 
ATOM     32  F   UNL d   1     -11.454  -4.758   0.009  0.00  0.00    -0.166 F 
ENDBRANCH  26  29
ENDBRANCH  20  23
ENDBRANCH   2  19
TORSDOF 5
