REMARK  3 active torsions:
REMARK  status: ('A' for Active; 'I' for Inactive)
REMARK       I    between atoms: N_2  and  C_1 
REMARK    1  A    between atoms: O_4  and  C_1 
REMARK    2  A    between atoms: C_5  and  N_2 
REMARK    3  A    between atoms: C_6  and  C_5 
ROOT
ATOM      1  C   UNL d   1       0.905   1.792   1.728  0.00  0.00     0.163 C 
ENDROOT
BRANCH   1   2
ATOM      2  N   UNL d   1       0.219   0.846   0.880  0.00  0.00    -0.333 N 
ATOM      3  C   UNL d   1       0.450  -0.495   0.816  0.00  0.00     0.360 C 
ATOM      4  O   UNL d   1      -0.099  -1.203  -0.016  0.00  0.00    -0.239 OA
ATOM      5  H   UNL d   1      -0.416   1.196   0.177  0.00  0.00     0.165 HD
BRANCH   3   6
ATOM      6  O   UNL d   1       1.324  -0.934   1.756  0.00  0.00    -0.309 OA
ATOM      7  C   UNL d   1       1.560  -2.342   1.724  0.00  0.00     0.215 C 
ENDBRANCH   3   6
ENDBRANCH   1   2
BRANCH   1   8
ATOM      8  C   UNL d   1      -0.048   2.630   2.543  0.00  0.00    -0.040 A 
ATOM      9  C   UNL d   1      -0.961   2.025   3.420  0.00  0.00     0.009 A 
ATOM     10  C   UNL d   1      -1.772   2.803   4.250  0.00  0.00     0.001 A 
ATOM     11  C   UNL d   1      -1.680   4.193   4.213  0.00  0.00     0.000 A 
ATOM     12  C   UNL d   1      -0.787   4.806   3.336  0.00  0.00     0.001 A 
ATOM     13  C   UNL d   1       0.024   4.030   2.505  0.00  0.00     0.009 A 
ENDBRANCH   1   8
TORSDOF 3
