REMARK  2 active torsions:
REMARK  status: ('A' for Active; 'I' for Inactive)
REMARK    1  A    between atoms: N_2  and  C_1 
REMARK       I    between atoms: C_3  and  N_2 
REMARK       I    between atoms: N_6  and  C_3 
REMARK    2  A    between atoms: C_8  and  N_6 
ROOT
ATOM      1  N   UNL d   1       3.281  -1.391  -0.410  0.00  0.00    -0.303 N 
ATOM      2  C   UNL d   1       4.386  -0.601  -0.297  0.00  0.00     0.325 C 
ATOM      3  N   UNL d   1       4.266   0.731  -0.557  0.00  0.00    -0.306 N 
ATOM      4  O   UNL d   1       5.418  -1.173   0.055  0.00  0.00    -0.247 OA
ATOM      5  H   UNL d   1       3.534  -2.361  -0.269  0.00  0.00     0.171 HD
ATOM      6  H   UNL d   1       3.314   1.067  -0.601  0.00  0.00     0.171 HD
ENDROOT
BRANCH   1   7
ATOM      7  C   UNL d   1       1.930  -1.129  -0.495  0.00  0.00     0.079 A 
ATOM      8  S   UNL d   1       1.276   0.429  -0.500  0.00  0.00    -0.072 SA
ATOM      9  C   UNL d   1      -0.339  -0.155  -0.377  0.00  0.00     0.017 A 
ATOM     10  C   UNL d   1      -1.516   0.606  -0.235  0.00  0.00     0.020 A 
ATOM     11  C   UNL d   1      -0.373  -1.550  -0.418  0.00  0.00    -0.016 A 
ATOM     12  C   UNL d   1      -2.738  -0.060  -0.110  0.00  0.00     0.001 A 
ATOM     13  C   UNL d   1      -2.796  -1.446  -0.156  0.00  0.00     0.001 A 
ATOM     14  C   UNL d   1      -1.629  -2.196  -0.322  0.00  0.00     0.013 A 
ATOM     15  C   UNL d   1       0.949  -2.093  -0.520  0.00  0.00     0.050 A 
ENDBRANCH   1   7
BRANCH   3  16
ATOM     16  C   UNL d   1       5.288   1.704  -0.485  0.00  0.00     0.075 A 
ATOM     17  C   UNL d   1       6.664   1.437  -0.576  0.00  0.00     0.146 A 
ATOM     18  C   UNL d   1       7.609   2.445  -0.402  0.00  0.00     0.086 A 
ATOM     19  F   UNL d   1       7.130   0.227  -0.912  0.00  0.00    -0.204 F 
ATOM     20  C   UNL d   1       7.182   3.741  -0.169  0.00  0.00     0.119 A 
ATOM     21  C   UNL d   1       5.828   4.050  -0.135  0.00  0.00     0.044 A 
ATOM     22  F   UNL d   1       8.085   4.713   0.012  0.00  0.00    -0.206 F 
ATOM     23  C   UNL d   1       4.881   3.035  -0.305  0.00  0.00     0.036 A 
ENDBRANCH   3  16
TORSDOF 2
