REMARK  4 active torsions:
REMARK  status: ('A' for Active; 'I' for Inactive)
REMARK    1  A    between atoms: C_9  and  C_5 
REMARK    2  A    between atoms: N_7  and  C_10 
REMARK    3  A    between atoms: N_8  and  C_15 
REMARK       I    between atoms: N_13  and  C_9 
REMARK    4  A    between atoms: C_16  and  N_13 
ROOT
ATOM      1  C   UNL d   1      -0.551   0.837   0.025  0.00  0.00     0.005 A 
ATOM      2  C   UNL d   1      -1.026  -0.498   0.106  0.00  0.00     0.029 A 
ATOM      3  C   UNL d   1       1.310  -0.576  -0.154  0.00  0.00     0.028 A 
ATOM      4  C   UNL d   1       0.903   0.777  -0.149  0.00  0.00    -0.010 A 
ATOM      5  C   UNL d   1      -1.509   1.848   0.040  0.00  0.00     0.046 A 
ATOM      6  C   UNL d   1       0.121  -1.415   0.021  0.00  0.00     0.194 A 
ATOM      7  C   UNL d   1      -3.292   0.142   0.156  0.00  0.00     0.104 A 
ATOM      8  C   UNL d   1      -2.354  -0.882   0.168  0.00  0.00     0.052 A 
ATOM      9  C   UNL d   1      -2.881   1.490   0.108  0.00  0.00     0.054 A 
ATOM     10  C   UNL d   1       2.608  -1.020  -0.342  0.00  0.00     0.052 A 
ATOM     11  C   UNL d   1       3.571  -0.034  -0.532  0.00  0.00     0.103 A 
ATOM     12  C   UNL d   1       1.879   1.741  -0.342  0.00  0.00     0.016 A 
ATOM     13  O   UNL d   1       0.085  -2.623   0.072  0.00  0.00    -0.287 OA
ATOM     14  C   UNL d   1       3.218   1.335  -0.527  0.00  0.00     0.037 A 
ENDROOT
BRANCH   5  15
ATOM     15  C   UNL d   1      -1.265   3.295  -0.169  0.00  0.00     0.257 C 
ATOM     16  N   UNL d   1      -0.354   3.923   0.664  0.00  0.00    -0.321 N 
ATOM     17  H   UNL d   1      -0.187   3.482   1.561  0.00  0.00     0.169 HD
ATOM     18  O   UNL d   1      -1.998   3.864  -0.970  0.00  0.00    -0.267 OA
BRANCH  16  19
ATOM     19  C   UNL d   1      -0.079   5.317   0.566  0.00  0.00     0.057 A 
ATOM     20  C   UNL d   1       0.085   6.024  -0.647  0.00  0.00     0.062 A 
ATOM     21  C   UNL d   1       0.260   7.413  -0.645  0.00  0.00     0.050 A 
ATOM     22 CL   UNL d   1       0.290   5.239  -2.180  0.00  0.00    -0.082 Cl
ATOM     23  C   UNL d   1       0.324   8.102   0.561  0.00  0.00     0.035 A 
ATOM     24  C   UNL d   1       0.233   7.413   1.768  0.00  0.00     0.026 A 
ATOM     25 CL   UNL d   1       0.555   9.806   0.561  0.00  0.00    -0.084 Cl
ATOM     26  C   UNL d   1       0.042   6.026   1.771  0.00  0.00     0.033 A 
ENDBRANCH  16  19
ENDBRANCH   5  15
BRANCH   7  27
ATOM     27  N   UNL d   1      -4.723  -0.185   0.142  0.00  0.00    -0.116 N 
ATOM     28  O   UNL d   1      -5.036  -1.375   0.002  0.00  0.00    -0.532 OA
ATOM     29  O   UNL d   1      -5.526   0.747   0.275  0.00  0.00    -0.532 OA
ENDBRANCH   7  27
BRANCH  11  30
ATOM     30  N   UNL d   1       4.966  -0.432  -0.759  0.00  0.00    -0.116 N 
ATOM     31  O   UNL d   1       5.267  -1.618  -0.561  0.00  0.00    -0.532 OA
ATOM     32  O   UNL d   1       5.758   0.445  -1.132  0.00  0.00    -0.532 OA
ENDBRANCH  11  30
TORSDOF 4
