REMARK  5 active torsions:
REMARK  status: ('A' for Active; 'I' for Inactive)
REMARK    1  A    between atoms: C_10  and  C_3 
REMARK    2  A    between atoms: N_19  and  C_10 
REMARK    3  A    between atoms: O_17  and  N_12 
REMARK    4  A    between atoms: C_15  and  O_17 
REMARK       I    between atoms: N_16  and  C_15 
REMARK    5  A    between atoms: C_20  and  N_16 
ROOT
ATOM      1  C   UNL d   1       2.322  -2.525   0.007  0.00  0.00     0.114 C 
ATOM      2  N   UNL d   1       1.531  -3.511  -0.277  0.00  0.00    -0.244 N 
ATOM      3  HN  UNL d   1       1.817  -4.390  -0.708  1.00  0.00     0.196 HD
ENDROOT
BRANCH   1   4
ATOM      4  C   UNL d   1       3.757  -2.734  -0.056  0.00  0.00     0.067 A 
ATOM      5  C   UNL d   1       4.771  -1.802   0.116  0.00  0.00     0.142 A 
ATOM      6  N   UNL d   1       5.980  -2.514   0.088  0.00  0.00    -0.244 N 
ATOM      7  N   UNL d   1       4.730  -0.443   0.320  0.00  0.00    -0.344 N 
ATOM      8  N   UNL d   1       5.771  -3.830  -0.171  0.00  0.00    -0.302 N 
ATOM      9  C   UNL d   1       7.202  -1.863   0.316  0.00  0.00     0.034 A 
ATOM     10  C   UNL d   1       4.446  -3.949  -0.253  0.00  0.00     0.126 A 
ATOM     11  HN  UNL d   1       6.472  -4.564  -0.279  1.00  0.00     0.186 HD
ATOM     12  C   UNL d   1       8.475  -2.650   0.328  0.00  0.00     0.070 C 
ATOM     13  C   UNL d   1       7.206  -0.532   0.534  0.00  0.00     0.051 A 
ATOM     14  C   UNL d   1       5.875   0.151   0.511  0.00  0.00     0.009 A 
ATOM     15  C   UNL d   1       5.875   1.641   0.746  0.00  0.00     0.068 C 
ATOM     16  HN  UNL d   1       3.850   0.074   0.322  1.00  0.00     0.167 HD
ENDBRANCH   1   4
BRANCH   1  17
ATOM     17  N   UNL d   1       1.948  -1.268   0.394  0.00  0.00    -0.286 NA
ATOM     18  H   UNL d   1       2.658  -0.551   0.243  0.00  0.00     0.125 HD
ATOM     19  H   UNL d   1       1.036  -1.006   0.043  0.00  0.00     0.125 HD
ENDBRANCH   1  17
BRANCH   2  20
ATOM     20  O   UNL d   1       0.210  -3.179   0.102  0.00  0.00    -0.179 OA
BRANCH  20  21
ATOM     21  C   UNL d   1      -0.707  -3.738  -0.741  0.00  0.00     0.387 C 
ATOM     22  N   UNL d   1      -1.808  -4.308  -0.133  0.00  0.00    -0.301 N 
ATOM     23  H   UNL d   1      -2.442  -4.676  -0.831  0.00  0.00     0.171 HD
ATOM     24  O   UNL d   1      -0.623  -3.717  -1.966  0.00  0.00    -0.236 OA
BRANCH  22  25
ATOM     25  C   UNL d   1      -1.885  -4.880   1.155  0.00  0.00     0.037 C 
ATOM     26  C   UNL d   1      -1.049  -4.545   2.223  0.00  0.00     0.031 C 
ATOM     27  C   UNL d   1      -1.012  -5.341   3.373  0.00  0.00     0.026 C 
ATOM     28  C   UNL d   1      -1.836  -6.457   3.471  0.00  0.00     0.034 C 
ATOM     29  C   UNL d   1      -2.757  -6.734   2.466  0.00  0.00     0.026 C 
ATOM     30 CL   UNL d   1      -1.690  -7.512   4.821  0.00  0.00    -0.084 Cl
ATOM     31  C   UNL d   1      -2.795  -5.935   1.320  0.00  0.00     0.031 C 
ENDBRANCH  22  25
ENDBRANCH  20  21
ENDBRANCH   2  20
TORSDOF 5
