REMARK  4 active torsions:
REMARK  status: ('A' for Active; 'I' for Inactive)
REMARK    1  A    between atoms: C_2  and  C_1 
REMARK       I    between atoms: N_5  and  C_1 
REMARK    2  A    between atoms: N_6  and  C_3 
REMARK       I    between atoms: C_4  and  N_6 
REMARK    3  A    between atoms: C_7  and  C_4 
REMARK    4  A    between atoms: C_8  and  N_5 
ROOT
ATOM      1  C   UNL d   1       0.158  -1.365  -0.246  0.00  0.00     0.097 A 
ATOM      2  C   UNL d   1      -0.646  -0.812  -1.257  0.00  0.00     0.053 A 
ATOM      3  C   UNL d   1       0.351  -2.753  -0.208  0.00  0.00     0.134 A 
ATOM      4  F   UNL d   1       1.090  -3.318   0.757  0.00  0.00    -0.205 F 
ATOM      5  C   UNL d   1      -1.316  -1.678  -2.140  0.00  0.00     0.031 A 
ATOM      6  C   UNL d   1      -1.131  -3.059  -2.077  0.00  0.00     0.005 A 
ATOM      7  C   UNL d   1      -0.273  -3.595  -1.125  0.00  0.00     0.043 A 
ENDROOT
BRANCH   1   8
ATOM      8  C   UNL d   1       0.490  -0.643   0.999  0.00  0.00     0.261 C 
ATOM      9  N   UNL d   1       1.816  -0.666   1.383  0.00  0.00    -0.320 N 
ATOM     10  H   UNL d   1       2.513  -0.756   0.650  0.00  0.00     0.169 HD
ATOM     11  O   UNL d   1      -0.436  -0.125   1.621  0.00  0.00    -0.267 OA
BRANCH   9  12
ATOM     12  C   UNL d   1       2.290  -0.334   2.670  0.00  0.00     0.074 A 
ATOM     13  C   UNL d   1       3.624   0.068   2.812  0.00  0.00     0.146 A 
ATOM     14  C   UNL d   1       4.148   0.413   4.054  0.00  0.00     0.086 A 
ATOM     15  F   UNL d   1       4.414   0.147   1.730  0.00  0.00    -0.204 F 
ATOM     16  C   UNL d   1       3.338   0.311   5.176  0.00  0.00     0.119 A 
ATOM     17  C   UNL d   1       2.022  -0.127   5.072  0.00  0.00     0.044 A 
ATOM     18  F   UNL d   1       3.833   0.631   6.379  0.00  0.00    -0.206 F 
ATOM     19  C   UNL d   1       1.494  -0.442   3.816  0.00  0.00     0.036 A 
ENDBRANCH   9  12
ENDBRANCH   1   8
BRANCH   2  20
ATOM     20  N   UNL d   1      -0.853   0.562  -1.495  0.00  0.00    -0.321 N 
ATOM     21  C   UNL d   1       0.063   1.583  -1.291  0.00  0.00     0.263 C 
ATOM     22  O   UNL d   1       1.198   1.395  -0.860  0.00  0.00    -0.267 OA
ATOM     23  H   UNL d   1      -1.637   0.817  -2.084  0.00  0.00     0.169 HD
BRANCH  21  24
ATOM     24  C   UNL d   1      -0.395   2.900  -1.748  0.00  0.00     0.072 A 
ATOM     25  S   UNL d   1      -1.940   3.129  -2.471  0.00  0.00    -0.097 SA
ATOM     26  C   UNL d   1      -1.675   4.801  -2.688  0.00  0.00     0.050 A 
ATOM     27  C   UNL d   1      -0.437   5.190  -2.235  0.00  0.00     0.009 A 
ATOM     28  C   UNL d   1       0.304   4.093  -1.700  0.00  0.00     0.025 A 
ENDBRANCH  21  24
ENDBRANCH   2  20
TORSDOF 4
