REMARK  7 active torsions:
REMARK  status: ('A' for Active; 'I' for Inactive)
REMARK    1  A    between atoms: C_6  and  C_1 
REMARK    2  A    between atoms: O_9  and  C_2 
REMARK    3  A    between atoms: C_11  and  N_4 
REMARK    4  A    between atoms: O_10  and  C_6 
REMARK    5  A    between atoms: C_12  and  O_10 
REMARK    6  A    between atoms: C_13  and  C_11 
REMARK    7  A    between atoms: C_14  and  C_13 
ROOT
ATOM      1  C   UNL d   1      -0.773   1.368  -0.029  0.00  0.00     0.073 A 
ATOM      2  C   UNL d   1       0.439   0.804  -0.075  0.00  0.00     0.148 A 
ATOM      3  C   UNL d   1       0.224  -0.661  -0.096  0.00  0.00     0.278 A 
ATOM      4  N   UNL d   1      -1.148  -0.856  -0.090  0.00  0.00    -0.342 N 
ATOM      5  C   UNL d   1      -1.881   0.383  -0.022  0.00  0.00     0.174 A 
ATOM      6  O   UNL d   1       1.093  -1.511  -0.101  0.00  0.00    -0.265 OA
ENDROOT
BRANCH   1   7
ATOM      7  C   UNL d   1      -0.948   2.807   0.097  0.00  0.00     0.293 C 
ATOM      8  O   UNL d   1      -0.008   3.583   0.149  0.00  0.00    -0.259 OA
BRANCH   7   9
ATOM      9  O   UNL d   1      -2.260   3.107   0.242  0.00  0.00    -0.318 OA
BRANCH   9  10
ATOM     10  C   UNL d   1      -2.523   4.421   0.758  0.00  0.00     0.174 C 
ATOM     11  C   UNL d   1      -2.555   4.330   2.273  0.00  0.00     0.034 C 
ENDBRANCH   9  10
ENDBRANCH   7   9
ENDBRANCH   1   7
BRANCH   2  12
ATOM     12  O   UNL d   1       1.666   1.408  -0.045  0.00  0.00    -0.355 OA
ATOM     13  H   UNL d   1       1.525   2.376   0.007  0.00  0.00     0.218 HD
ENDBRANCH   2  12
BRANCH   4  14
ATOM     14  C   UNL d   1      -1.781  -2.161  -0.050  0.00  0.00     0.126 C 
BRANCH  14  15
ATOM     15  C   UNL d   1      -2.732  -2.411  -1.221  0.00  0.00     0.020 C 
BRANCH  15  16
ATOM     16  C   UNL d   1      -2.029  -2.344  -2.578  0.00  0.00    -0.003 C 
ATOM     17  C   UNL d   1      -3.002  -2.605  -3.716  0.00  0.00     0.005 C 
ENDBRANCH  15  16
ENDBRANCH  14  15
ENDBRANCH   4  14
TORSDOF 7
