REMARK  5 active torsions:
REMARK  status: ('A' for Active; 'I' for Inactive)
REMARK    1  A    between atoms: S_14  and  C_2 
REMARK    2  A    between atoms: C_6  and  C_4 
REMARK       I    between atoms: N_9  and  C_6 
REMARK       I    between atoms: C_8  and  N_10 
REMARK    3  A    between atoms: C_11  and  C_8 
REMARK    4  A    between atoms: N_10  and  N_9 
REMARK    5  A    between atoms: O_23  and  N_12 
ROOT
ATOM      1  C   UNL d   1       0.438   0.701  -0.066  0.00  0.00     0.020 A 
ATOM      2  C   UNL d   1       1.806   0.921  -0.084  0.00  0.00     0.054 A 
ATOM      3  C   UNL d   1       0.147  -0.727  -0.000  0.00  0.00    -0.021 A 
ATOM      4  C   UNL d   1       1.288  -1.519   0.073  0.00  0.00     0.082 A 
ATOM      5  S   UNL d   1       2.692  -0.553  -0.006  0.00  0.00    -0.076 SA
ATOM      6  C   UNL d   1      -0.666   1.684  -0.073  0.00  0.00     0.044 C 
ATOM      7  N   UNL d   1      -0.442   2.931  -0.365  0.00  0.00    -0.271 N 
ATOM      8  HN  UNL d   1       0.470   3.313  -0.615  1.00  0.00     0.194 HD
ATOM      9  C   UNL d   1      -1.268  -1.244   0.035  0.00  0.00     0.041 C 
ATOM     10  C   UNL d   1      -2.047   1.134   0.288  0.00  0.00     0.060 C 
ATOM     11  C   UNL d   1      -2.278  -0.195  -0.419  0.00  0.00     0.011 C 
ENDROOT
BRANCH   4  12
ATOM     12  C   UNL d   1       1.337  -2.982   0.204  0.00  0.00     0.277 C 
ATOM     13  N   UNL d   1       2.582  -3.590   0.288  0.00  0.00    -0.263 N 
ATOM     14  H   UNL d   1       3.459  -3.077   0.340  0.00  0.00     0.190 HD
ATOM     15  O   UNL d   1       0.327  -3.687   0.249  0.00  0.00    -0.265 OA
BRANCH  13  16
ATOM     16  N   UNL d   1       2.631  -4.988   0.478  0.00  0.00    -0.263 N 
ATOM     17  C   UNL d   1       3.860  -5.605   0.577  0.00  0.00     0.270 C 
ATOM     18  O   UNL d   1       4.916  -4.989   0.506  0.00  0.00    -0.266 OA
ATOM     19  H   UNL d   1       1.754  -5.490   0.348  0.00  0.00     0.190 HD
BRANCH  17  20
ATOM     20  C   UNL d   1       3.867  -7.083   0.761  0.00  0.00     0.033 A 
ATOM     21  C   UNL d   1       4.955  -7.814   0.260  0.00  0.00     0.019 A 
ATOM     22  C   UNL d   1       5.039  -9.196   0.464  0.00  0.00     0.025 A 
ATOM     23  C   UNL d   1       4.040  -9.850   1.181  0.00  0.00     0.034 A 
ATOM     24  C   UNL d   1       2.953  -9.136   1.686  0.00  0.00     0.025 A 
ATOM     25 CL   UNL d   1       4.159 -11.544   1.463  0.00  0.00    -0.084 Cl
ATOM     26  C   UNL d   1       2.861  -7.753   1.475  0.00  0.00     0.019 A 
ENDBRANCH  17  20
ENDBRANCH  13  16
ENDBRANCH   4  12
BRANCH   2  27
ATOM     27  S   UNL d   1       2.687   2.450  -0.071  0.00  0.00    -0.126 SA
ATOM     28  C   UNL d   1       2.862   2.762  -1.843  0.00  0.00     0.096 C 
ENDBRANCH   2  27
BRANCH   7  29
ATOM     29  O   UNL d   1      -1.629   3.681  -0.290  0.00  0.00    -0.285 OA
ATOM     30  C   UNL d   1      -1.369   5.035  -0.629  0.00  0.00     0.237 C 
ENDBRANCH   7  29
TORSDOF 5
