REMARK  3 active torsions:
REMARK  status: ('A' for Active; 'I' for Inactive)
REMARK       I    between atoms: N_3  and  C_1 
REMARK       I    between atoms: N_4  and  C_1 
REMARK    1  A    between atoms: C_2  and  C_6 
REMARK    2  A    between atoms: C_12  and  N_4 
REMARK    3  A    between atoms: C_6  and  N_5 
ROOT
ATOM      1  C   UNL d   1       0.778   0.491   0.065  0.00  0.00     0.322 C 
ATOM      2  N   UNL d   1       0.288  -0.379   1.046  0.00  0.00    -0.332 N 
ATOM      3  N   UNL d   1       1.715   1.395   0.513  0.00  0.00    -0.309 N 
ATOM      4  N   UNL d   1      -2.051  -1.490   2.796  0.00  0.00     0.094 N 
ATOM      5  O   UNL d   1       0.398   0.415  -1.101  0.00  0.00    -0.247 OA
ATOM      6  C   UNL d   1      -0.658  -1.420   0.621  0.00  0.00     0.157 C 
ATOM      7  C   UNL d   1      -2.019  -1.373   1.331  0.00  0.00     0.292 C 
ATOM      8  C   UNL d   1      -0.023  -0.041   3.517  0.00  0.00     0.050 C 
ATOM      9  C   UNL d   1       0.850  -0.562   2.380  0.00  0.00     0.129 C 
ATOM     10  C   UNL d   1      -1.536  -0.290   3.451  0.00  0.00     0.274 C 
ATOM     11  H   UNL d   1       1.712   1.585   1.500  0.00  0.00     0.170 HD
ENDROOT
BRANCH   3  12
ATOM     12  C   UNL d   1       2.584   2.195  -0.263  0.00  0.00     0.036 A 
ATOM     13  C   UNL d   1       2.660   2.146  -1.656  0.00  0.00     0.029 A 
ATOM     14  C   UNL d   1       3.580   2.942  -2.348  0.00  0.00     0.002 A 
ATOM     15  C   UNL d   1       4.441   3.786  -1.652  0.00  0.00     0.000 A 
ATOM     16  C   UNL d   1       4.378   3.841  -0.262  0.00  0.00     0.002 A 
ATOM     17  C   UNL d   1       3.451   3.052   0.428  0.00  0.00     0.029 A 
ENDBRANCH   3  12
BRANCH   4  18
ATOM     18  C   UNL d   1      -1.562  -2.748   3.368  0.00  0.00     0.316 C 
BRANCH  18  19
ATOM     19  C   UNL d   1      -2.285  -3.988   2.896  0.00  0.00     0.030 A 
ATOM     20  C   UNL d   1      -1.605  -4.909   2.087  0.00  0.00     0.126 A 
ATOM     21  F   UNL d   1      -0.331  -4.678   1.737  0.00  0.00    -0.205 F 
ATOM     22  C   UNL d   1      -2.206  -6.080   1.630  0.00  0.00     0.043 A 
ATOM     23  C   UNL d   1      -3.520  -6.359   1.982  0.00  0.00     0.005 A 
ATOM     24  C   UNL d   1      -4.221  -5.465   2.790  0.00  0.00     0.024 A 
ATOM     25  C   UNL d   1      -3.610  -4.287   3.244  0.00  0.00     0.045 A 
ATOM     26 CL   UNL d   1      -4.543  -3.257   4.270  0.00  0.00    -0.084 Cl
ENDBRANCH  18  19
ENDBRANCH   4  18
TORSDOF 3
