REMARK  3 active torsions:
REMARK  status: ('A' for Active; 'I' for Inactive)
REMARK    1  A    between atoms: C_9  and  C_3 
REMARK    2  A    between atoms: C_8  and  C_4 
REMARK    3  A    between atoms: S_14  and  C_7 
ROOT
ATOM      1  N   UNL d   1      -1.273  -0.038  -0.015  0.00  0.00    -0.355 N 
ATOM      2  HN  UNL d   1      -2.292  -0.079  -0.028  1.00  0.00     0.166 HD
ATOM      3  C   UNL d   1      -0.630   1.159  -0.031  0.00  0.00     0.044 A 
ATOM      4  C   UNL d   1      -0.536  -1.180   0.018  0.00  0.00     0.044 A 
ATOM      5  C   UNL d   1       0.761   1.242  -0.006  0.00  0.00     0.049 A 
ATOM      6  C   UNL d   1       0.856  -1.147   0.007  0.00  0.00     0.049 A 
ATOM      7  C   UNL d   1       1.518   0.077  -0.006  0.00  0.00     0.004 A 
ENDROOT
BRANCH   3   8
ATOM      8  C   UNL d   1      -1.484   2.369  -0.045  0.00  0.00    -0.009 A 
ATOM      9  C   UNL d   1      -2.750   2.374   0.571  0.00  0.00     0.015 A 
ATOM     10  C   UNL d   1      -3.541   3.530   0.608  0.00  0.00     0.024 A 
ATOM     11  C   UNL d   1      -3.081   4.704   0.021  0.00  0.00     0.034 A 
ATOM     12  C   UNL d   1      -1.847   4.727  -0.619  0.00  0.00     0.024 A 
ATOM     13 CL   UNL d   1      -4.036   6.132   0.084  0.00  0.00    -0.084 Cl
ATOM     14  C   UNL d   1      -1.062   3.568  -0.655  0.00  0.00     0.015 A 
ENDBRANCH   3   8
BRANCH   4  15
ATOM     15  C   UNL d   1      -1.293  -2.454   0.057  0.00  0.00    -0.009 A 
ATOM     16  C   UNL d   1      -2.564  -2.562  -0.537  0.00  0.00     0.015 A 
ATOM     17  C   UNL d   1      -3.263  -3.777  -0.548  0.00  0.00     0.024 A 
ATOM     18  C   UNL d   1      -2.704  -4.905   0.047  0.00  0.00     0.034 A 
ATOM     19  C   UNL d   1      -1.464  -4.824   0.665  0.00  0.00     0.024 A 
ATOM     20 CL   UNL d   1      -3.550  -6.402   0.015  0.00  0.00    -0.084 Cl
ATOM     21  C   UNL d   1      -0.769  -3.609   0.672  0.00  0.00     0.015 A 
ENDBRANCH   4  15
BRANCH   7  22
ATOM     22  S   UNL d   1       3.304   0.059   0.053  0.00  0.00    -0.134 SA
ATOM     23  C   UNL d   1       3.736   1.527  -0.920  0.00  0.00     0.095 C 
ENDBRANCH   7  22
TORSDOF 3
