REMARK  5 active torsions:
REMARK  status: ('A' for Active; 'I' for Inactive)
REMARK    1  A    between atoms: C_11  and  C_2 
REMARK    2  A    between atoms: C_8  and  C_12 
REMARK    3  A    between atoms: N_20  and  C_11 
REMARK    4  A    between atoms: C_12  and  O_17 
REMARK    5  A    between atoms: O_17  and  N_13 
ROOT
ATOM      1  C   UNL d   1      -3.547  -1.462   0.015  0.00  0.00     0.109 C 
ATOM      2  N   UNL d   1      -3.681  -2.735   0.244  0.00  0.00    -0.246 N 
ATOM      3  HN  UNL d   1      -4.566  -3.185   0.481  1.00  0.00     0.196 HD
ENDROOT
BRANCH   1   4
ATOM      4  C   UNL d   1      -4.778  -0.598   0.039  0.00  0.00     0.006 A 
ATOM      5  C   UNL d   1      -4.793   0.564  -0.766  0.00  0.00     0.048 A 
ATOM      6  C   UNL d   1      -5.979   1.318  -0.696  0.00  0.00     0.086 A 
ATOM      7  C   UNL d   1      -7.104   0.932   0.144  0.00  0.00     0.085 A 
ATOM      8  N   UNL d   1      -6.299   2.451  -1.330  0.00  0.00    -0.240 N 
ATOM      9  N   UNL d   1      -8.071   1.845  -0.003  0.00  0.00    -0.240 N 
ATOM     10  C   UNL d   1      -7.081  -0.228   0.942  0.00  0.00     0.035 A 
ATOM     11  O   UNL d   1      -7.580   2.772  -0.908  0.00  0.00    -0.156 OA
ATOM     12  HN  UNL d   1      -8.981   1.857   0.457  1.00  0.00     0.197 HD
ATOM     13  C   UNL d   1      -5.886  -0.978   0.855  0.00  0.00     0.017 A 
ATOM     14  HN  UNL d   1      -5.719   2.972  -1.988  1.00  0.00     0.197 HD
ENDBRANCH   1   4
BRANCH   1  15
ATOM     15  N   UNL d   1      -2.335  -0.863  -0.244  0.00  0.00    -0.286 NA
ATOM     16  H   UNL d   1      -2.220   0.079   0.114  0.00  0.00     0.125 HD
ATOM     17  H   UNL d   1      -1.551  -1.460   0.007  0.00  0.00     0.125 HD
ENDBRANCH   1  15
BRANCH   2  18
ATOM     18  O   UNL d   1      -2.446  -3.421   0.124  0.00  0.00    -0.193 OA
BRANCH  18  19
ATOM     19  C   UNL d   1      -2.614  -4.743   0.422  0.00  0.00     0.316 C 
ATOM     20  O   UNL d   1      -3.650  -5.295   0.778  0.00  0.00    -0.257 OA
BRANCH  19  21
ATOM     21  C   UNL d   1      -1.376  -5.532   0.170  0.00  0.00     0.063 A 
ATOM     22  C   UNL d   1      -0.065  -5.082   0.376  0.00  0.00     0.050 A 
ATOM     23 CL   UNL d   1       0.325  -3.511   0.985  0.00  0.00    -0.083 Cl
ATOM     24  C   UNL d   1       1.018  -5.945   0.135  0.00  0.00     0.025 A 
ATOM     25  C   UNL d   1       0.806  -7.255  -0.295  0.00  0.00     0.002 A 
ATOM     26  C   UNL d   1      -0.491  -7.716  -0.488  0.00  0.00     0.001 A 
ATOM     27  C   UNL d   1      -1.572  -6.862  -0.257  0.00  0.00     0.019 A 
ENDBRANCH  19  21
ENDBRANCH  18  19
ENDBRANCH   2  18
TORSDOF 5
