REMARK  3 active torsions:
REMARK  status: ('A' for Active; 'I' for Inactive)
REMARK    1  A    between atoms: C_2  and  C_1 
REMARK       I    between atoms: N_3  and  C_1 
REMARK    2  A    between atoms: C_16  and  N_3 
REMARK    3  A    between atoms: C_6  and  C_16 
ROOT
ATOM      1  C   UNL d   1       0.995   0.052   0.134  0.00  0.00     0.252 C 
ATOM      2  N   UNL d   1       1.615  -1.045  -0.419  0.00  0.00    -0.351 N 
ATOM      3  O   UNL d   1       1.019   0.323   1.326  0.00  0.00    -0.268 OA
ATOM      4  H   UNL d   1       1.313  -1.365  -1.331  0.00  0.00     0.163 HD
ENDROOT
BRANCH   1   5
ATOM      5  C   UNL d   1       0.240   0.900  -0.836  0.00  0.00     0.032 A 
ATOM      6  C   UNL d   1      -0.924   1.560  -0.414  0.00  0.00     0.027 A 
ATOM      7  C   UNL d   1      -1.638   2.285  -1.356  0.00  0.00    -0.022 A 
ATOM      8  C   UNL d   1      -2.882   3.076  -1.211  0.00  0.00     0.068 C 
ATOM      9  C   UNL d   1      -1.185   2.395  -2.663  0.00  0.00     0.075 A 
ATOM     10  C   UNL d   1      -3.207   3.292  -2.691  0.00  0.00     0.180 C 
ATOM     11  O   UNL d   1      -1.995   3.153  -3.468  0.00  0.00    -0.350 OA
ATOM     12  C   UNL d   1      -0.017   1.800  -3.088  0.00  0.00     0.038 A 
ATOM     13  C   UNL d   1       0.699   1.039  -2.163  0.00  0.00     0.020 A 
ENDBRANCH   1   5
BRANCH   2  14
ATOM     14  C   UNL d   1       2.345  -1.997   0.384  0.00  0.00     0.187 C 
BRANCH  14  15
ATOM     15  C   UNL d   1       2.885  -3.045  -0.521  0.00  0.00     0.070 A 
ATOM     16  O   UNL d   1       1.965  -3.786  -1.210  0.00  0.00    -0.325 OA
ATOM     17  C   UNL d   1       2.656  -4.664  -1.981  0.00  0.00     0.142 A 
ATOM     18  C   UNL d   1       4.009  -4.495  -1.807  0.00  0.00     0.027 A 
ATOM     19  C   UNL d   1       4.159  -3.448  -0.864  0.00  0.00     0.036 A 
ENDBRANCH  14  15
ENDBRANCH   2  14
TORSDOF 3
