REMARK  12 active torsions:
REMARK  status: ('A' for Active; 'I' for Inactive)
REMARK    1  A    between atoms: C_1  and  C_2 
REMARK    2  A    between atoms: C_12  and  C_3 
REMARK    3  A    between atoms: C_4  and  O_14 
REMARK    4  A    between atoms: C_6  and  O_15 
REMARK    5  A    between atoms: C_13  and  C_20 
REMARK    6  A    between atoms: C_16  and  O_14 
REMARK    7  A    between atoms: C_17  and  O_15 
REMARK    8  A    between atoms: C_24  and  C_16 
REMARK    9  A    between atoms: C_23  and  C_17 
REMARK   10  A    between atoms: C_18  and  O_19 
REMARK   11  A    between atoms: C_26  and  C_18 
REMARK   12  A    between atoms: O_19  and  C_20 
ROOT
ATOM      1  C   UNL d   1       0.305  -1.210   0.144  0.00  0.00     0.230 C 
ATOM      2  C   UNL d   1      -1.138  -0.760  -0.128  0.00  0.00     0.201 C 
ATOM      3  C   UNL d   1      -1.093   0.703   0.313  0.00  0.00     0.196 C 
ATOM      4  O   UNL d   1       1.139  -0.045  -0.074  0.00  0.00    -0.365 OA
ATOM      5  C   UNL d   1       0.274   1.101  -0.249  0.00  0.00     0.179 C 
ENDROOT
BRANCH   1   6
ATOM      6  C   UNL d   1       0.524  -1.671   1.550  0.00  0.00     0.172 A 
ATOM      7  O   UNL d   1       0.883  -2.982   1.746  0.00  0.00    -0.271 OA
ATOM      8  C   UNL d   1       0.911  -3.069   3.122  0.00  0.00     0.249 A 
ATOM      9  N   UNL d   1       0.595  -1.923   3.698  0.00  0.00    -0.274 N 
ATOM     10  N   UNL d   1       0.350  -1.023   2.684  0.00  0.00    -0.279 N 
ATOM     11  HN  UNL d   1       0.543  -1.740   4.700  1.00  0.00     0.189 HD
ATOM     12  HN  UNL d   1       0.085  -0.044   2.791  1.00  0.00     0.189 HD
BRANCH   8  13
ATOM     13  C   UNL d   1       1.257  -4.377   3.742  0.00  0.00     0.457 C 
ATOM     14  F   UNL d   1       1.546  -5.340   2.824  0.00  0.00    -0.163 F 
ATOM     15  F   UNL d   1       2.342  -4.291   4.559  0.00  0.00    -0.163 F 
ATOM     16  F   UNL d   1       0.240  -4.869   4.502  0.00  0.00    -0.163 F 
ENDBRANCH   8  13
ENDBRANCH   1   6
BRANCH   2  17
ATOM     17  O   UNL d   1      -2.157  -1.509   0.549  0.00  0.00    -0.306 OA
BRANCH  17  18
ATOM     18  C   UNL d   1      -2.249  -2.811   0.178  0.00  0.00     0.293 C 
ATOM     19  O   UNL d   1      -1.552  -3.354  -0.668  0.00  0.00    -0.259 OA
BRANCH  18  20
ATOM     20  C   UNL d   1      -3.324  -3.498   0.931  0.00  0.00     0.039 A 
ATOM     21  C   UNL d   1      -3.791  -3.009   2.158  0.00  0.00     0.017 A 
ATOM     22  C   UNL d   1      -4.816  -3.680   2.828  0.00  0.00     0.001 A 
ATOM     23  C   UNL d   1      -5.371  -4.837   2.280  0.00  0.00     0.000 A 
ATOM     24  C   UNL d   1      -4.894  -5.338   1.069  0.00  0.00     0.001 A 
ATOM     25  C   UNL d   1      -3.867  -4.675   0.397  0.00  0.00     0.017 A 
ENDBRANCH  18  20
ENDBRANCH  17  18
ENDBRANCH   2  17
BRANCH   3  26
ATOM     26  O   UNL d   1      -2.162   1.479  -0.267  0.00  0.00    -0.307 OA
BRANCH  26  27
ATOM     27  C   UNL d   1      -3.052   2.002   0.618  0.00  0.00     0.293 C 
ATOM     28  O   UNL d   1      -3.024   1.839   1.831  0.00  0.00    -0.259 OA
BRANCH  27  29
ATOM     29  C   UNL d   1      -4.091   2.849  -0.034  0.00  0.00     0.039 A 
ATOM     30  C   UNL d   1      -5.099   3.390   0.782  0.00  0.00     0.017 A 
ATOM     31  C   UNL d   1      -6.085   4.220   0.244  0.00  0.00     0.001 A 
ATOM     32  C   UNL d   1      -6.070   4.520  -1.116  0.00  0.00     0.000 A 
ATOM     33  C   UNL d   1      -5.077   3.983  -1.936  0.00  0.00     0.001 A 
ATOM     34  C   UNL d   1      -4.087   3.148  -1.401  0.00  0.00     0.017 A 
ENDBRANCH  27  29
ENDBRANCH  26  27
ENDBRANCH   3  26
BRANCH   5  35
ATOM     35  C   UNL d   1       0.904   2.326   0.414  0.00  0.00     0.213 C 
BRANCH  35  36
ATOM     36  O   UNL d   1       0.092   3.502   0.285  0.00  0.00    -0.315 OA
BRANCH  36  37
ATOM     37  C   UNL d   1       0.221   4.183  -0.881  0.00  0.00     0.293 C 
ATOM     38  O   UNL d   1       0.919   3.851  -1.825  0.00  0.00    -0.259 OA
BRANCH  37  39
ATOM     39  C   UNL d   1      -0.642   5.396  -0.880  0.00  0.00     0.039 A 
ATOM     40  C   UNL d   1      -0.637   6.217  -2.018  0.00  0.00     0.017 A 
ATOM     41  C   UNL d   1      -1.462   7.342  -2.079  0.00  0.00     0.001 A 
ATOM     42  C   UNL d   1      -2.293   7.656  -1.004  0.00  0.00     0.000 A 
ATOM     43  C   UNL d   1      -2.291   6.855   0.137  0.00  0.00     0.001 A 
ATOM     44  C   UNL d   1      -1.466   5.730   0.204  0.00  0.00     0.017 A 
ENDBRANCH  37  39
ENDBRANCH  36  37
ENDBRANCH  35  36
ENDBRANCH   5  35
TORSDOF 12
