REMARK  8 active torsions:
REMARK  status: ('A' for Active; 'I' for Inactive)
REMARK    1  A    between atoms: C_3  and  C_1 
REMARK    2  A    between atoms: C_7  and  CA_2 
REMARK       I    between atoms: N_5  and  C_3 
REMARK    3  A    between atoms: C_4  and  C_8 
REMARK    4  A    between atoms: C_6  and  N_5 
REMARK    5  A    between atoms: OXT_24  and  C_7 
REMARK    6  A    between atoms: O_15  and  C_9 
REMARK    7  A    between atoms: C_23  and  O_15 
REMARK    8  A    between atoms: O_30  and  C_25 
ROOT
ATOM      1  C   UNL d   1       0.285  -3.825   0.107  0.00  0.00     0.070 C 
ATOM      2  C   UNL d   1       2.327  -5.122  -0.278  0.00  0.00     0.050 C 
ATOM      3  C   UNL d   1       0.915  -3.159   1.176  0.00  0.00     0.102 C 
ATOM      4  C   UNL d   1       0.974  -4.859  -0.549  0.00  0.00     0.048 C 
ATOM      5  C   UNL d   1       2.977  -4.367   0.704  0.00  0.00     0.019 C 
ATOM      6  C   UNL d   1       2.271  -3.413   1.435  0.00  0.00     0.040 C 
ENDROOT
BRANCH   1   7
ATOM      7  N   UNL d   1      -0.993  -3.529  -0.419  0.00  0.00    -0.319 N 
ATOM      8  C   UNL d   1      -1.470  -2.242  -0.627  0.00  0.00     0.275 C 
ATOM      9  O   UNL d   1      -0.888  -1.205  -0.350  0.00  0.00    -0.266 OA
ATOM     10  H   UNL d   1      -1.485  -4.258  -0.922  0.00  0.00     0.169 HD
BRANCH   8  11
ATOM     11  C   UNL d   1      -2.826  -2.185  -1.245  0.00  0.00     0.134 A 
ATOM     12  CA  UNL d   1      -3.274  -1.098  -1.975  0.00  0.00     0.139 A 
ATOM     13  N   UNL d   1      -4.598  -0.944  -2.334  0.00  0.00    -0.357 N 
ATOM     14  C   UNL d   1      -5.417  -1.959  -1.976  0.00  0.00     0.105 A 
ATOM     15  HN  UNL d   1      -4.935  -0.121  -2.834  1.00  0.00     0.165 HD
ATOM     16  C   UNL d   1      -4.955  -3.087  -1.319  0.00  0.00     0.105 A 
ATOM     17  N   UNL d   1      -3.661  -3.237  -0.941  0.00  0.00    -0.358 N 
ATOM     18  HN  UNL d   1      -3.328  -4.074  -0.463  1.00  0.00     0.165 HD
BRANCH  12  19
ATOM     19  C   UNL d   1      -2.371  -0.093  -2.607  0.00  0.00     0.196 C 
ATOM     20  O   UNL d   1      -1.185  -0.229  -2.839  0.00  0.00    -0.645 OA
BRANCH  19  21
ATOM     21  OXT UNL d   1      -3.101   0.964  -3.053  0.00  0.00    -0.772 OA
ATOM     22  HXT UNL d   1      -4.060   0.785  -2.912  0.00  0.00     0.167 HD
ENDBRANCH  19  21
ENDBRANCH  12  19
ENDBRANCH   8  11
ENDBRANCH   1   7
BRANCH   3  23
ATOM     23  O   UNL d   1       0.371  -2.248   2.057  0.00  0.00    -0.309 OA
BRANCH  23  24
ATOM     24  C   UNL d   1      -0.941  -2.343   2.453  0.00  0.00     0.076 C 
ATOM     25  C   UNL d   1      -1.639  -3.536   2.634  0.00  0.00     0.040 C 
ATOM     26  C   UNL d   1      -3.022  -3.505   2.848  0.00  0.00     0.039 C 
ATOM     27  C   UNL d   1      -3.696  -2.283   2.927  0.00  0.00     0.068 C 
ATOM     28  C   UNL d   1      -2.966  -1.095   2.881  0.00  0.00     0.039 C 
ATOM     29  C   UNL d   1      -1.591  -1.125   2.654  0.00  0.00     0.040 C 
BRANCH  27  30
ATOM     30  O   UNL d   1      -5.048  -2.118   3.042  0.00  0.00    -0.356 OA
ATOM     31  C   UNL d   1      -5.846  -3.273   2.817  0.00  0.00     0.210 C 
ENDBRANCH  27  30
ENDBRANCH  23  24
ENDBRANCH   3  23
BRANCH   2  32
ATOM     32  C   UNL d   1       3.094  -6.150  -1.070  0.00  0.00     0.417 C 
ATOM     33  F   UNL d   1       2.313  -6.870  -1.924  0.00  0.00    -0.166 F 
ATOM     34  F   UNL d   1       4.072  -5.595  -1.837  0.00  0.00    -0.166 F 
ATOM     35  F   UNL d   1       3.715  -7.065  -0.275  0.00  0.00    -0.166 F 
ENDBRANCH   2  32
TORSDOF 8
