REMARK  4 active torsions:
REMARK  status: ('A' for Active; 'I' for Inactive)
REMARK    1  A    between atoms: C_5  and  C_1 
REMARK    2  A    between atoms: C_9  and  C_4 
REMARK       I    between atoms: N_15  and  C_5 
REMARK    3  A    between atoms: N_8  and  C_10 
REMARK    4  A    between atoms: N_18  and  N_15 
ROOT
ATOM      1  C   UNL d   1       1.251   0.841   0.323  0.00  0.00     0.109 A 
ATOM      2  N   UNL d   1       1.286  -0.545   0.535  0.00  0.00    -0.345 N 
ATOM      3  HN  UNL d   1       2.021  -1.038   1.041  1.00  0.00     0.167 HD
ATOM      4  C   UNL d   1       0.230  -1.119  -0.016  0.00  0.00     0.085 A 
ATOM      5  S   UNL d   1      -0.900  -0.017  -0.720  0.00  0.00    -0.081 SA
ATOM      6  C   UNL d   1       0.125   1.290  -0.339  0.00  0.00     0.087 A 
ENDROOT
BRANCH   4   7
ATOM      7  C   UNL d   1      -0.033  -2.573  -0.038  0.00  0.00    -0.000 A 
ATOM      8  C   UNL d   1       0.428  -3.391   1.014  0.00  0.00     0.044 A 
ATOM      9  C   UNL d   1       0.190  -4.780   1.018  0.00  0.00     0.039 A 
ATOM     10  C   UNL d   1      -0.513  -5.348  -0.054  0.00  0.00     0.030 A 
ATOM     11  C   UNL d   1      -0.960  -4.553  -1.107  0.00  0.00     0.003 A 
ATOM     12  C   UNL d   1      -0.720  -3.181  -1.101  0.00  0.00     0.014 A 
BRANCH   9  13
ATOM     13  N   UNL d   1       0.658  -5.607   2.090  0.00  0.00    -0.333 N 
ATOM     14  C   UNL d   1       0.521  -6.983   2.192  0.00  0.00     0.096 A 
ATOM     15  C   UNL d   1       1.125  -7.423   3.349  0.00  0.00     0.019 A 
ATOM     16  C   UNL d   1       1.641  -6.289   4.002  0.00  0.00     0.019 A 
ATOM     17  C   UNL d   1       1.338  -5.195   3.222  0.00  0.00     0.096 A 
ENDBRANCH   9  13
ENDBRANCH   4   7
BRANCH   1  18
ATOM     18  C   UNL d   1       2.330   1.733   0.753  0.00  0.00     0.282 C 
ATOM     19  O   UNL d   1       2.338   2.944   0.532  0.00  0.00    -0.265 OA
ATOM     20  N   UNL d   1       3.353   1.081   1.429  0.00  0.00    -0.288 N 
ATOM     21  H   UNL d   1       3.236   0.088   1.636  0.00  0.00     0.183 HD
BRANCH  20  22
ATOM     22  N   UNL d   1       4.452   1.808   1.945  0.00  0.00    -0.247 NA
ATOM     23  H   UNL d   1       4.222   2.808   1.853  0.00  0.00     0.143 HD
ATOM     24  H   UNL d   1       5.242   1.676   1.307  0.00  0.00     0.143 HD
ENDBRANCH  20  22
ENDBRANCH   1  18
TORSDOF 4
