REMARK  13 active torsions:
REMARK  status: ('A' for Active; 'I' for Inactive)
REMARK       I    between atoms: N_2  and  C_1 
REMARK    1  A    between atoms: O_7  and  C_1 
REMARK    2  A    between atoms: C_4  and  N_2 
REMARK    3  A    between atoms: O_8  and  C_3 
REMARK    4  A    between atoms: C_4  and  C_3 
REMARK    5  A    between atoms: C_14  and  C_4 
REMARK    6  A    between atoms: C_5  and  C_16 
REMARK       I    between atoms: N_17  and  C_5 
REMARK    7  A    between atoms: C_6  and  C_15 
REMARK    8  A    between atoms: O_21  and  C_6 
REMARK    9  A    between atoms: C_13  and  O_7 
REMARK   10  A    between atoms: C_18  and  O_8 
REMARK   11  A    between atoms: C_16  and  C_14 
REMARK   12  A    between atoms: C_15  and  C_19 
REMARK   13  A    between atoms: C_20  and  C_18 
ROOT
ATOM      1  C   UNL d   1       1.000  -1.501   2.406  0.00  0.00     0.187 C 
ENDROOT
BRANCH   1   2
ATOM      2  C   UNL d   1       2.201  -0.900   3.165  0.00  0.00     0.045 C 
BRANCH   2   3
ATOM      3  C   UNL d   1       3.270  -0.197   2.324  0.00  0.00     0.105 C 
BRANCH   3   4
ATOM      4  C   UNL d   1       2.841   1.117   1.714  0.00  0.00     0.215 C 
ATOM      5  O   UNL d   1       1.728   1.611   1.829  0.00  0.00    -0.274 OA
ATOM      6  N   UNL d   1       3.822   1.747   1.006  0.00  0.00    -0.370 N 
ATOM      7  H   UNL d   1       4.782   1.432   1.000  0.00  0.00     0.159 HD
ATOM      8  H   UNL d   1       3.609   2.652   0.605  0.00  0.00     0.159 HD
ENDBRANCH   3   4
ENDBRANCH   2   3
ENDBRANCH   1   2
BRANCH   1   9
ATOM      9  N   UNL d   1       1.407  -2.222   1.201  0.00  0.00    -0.323 N 
ATOM     10  C   UNL d   1       1.869  -3.505   1.256  0.00  0.00     0.362 C 
ATOM     11  O   UNL d   1       2.049  -4.114   2.298  0.00  0.00    -0.238 OA
ATOM     12  H   UNL d   1       1.103  -1.879   0.296  0.00  0.00     0.165 HD
BRANCH  10  13
ATOM     13  O   UNL d   1       2.056  -3.982   0.006  0.00  0.00    -0.294 OA
BRANCH  13  14
ATOM     14  C   UNL d   1       2.183  -5.406  -0.282  0.00  0.00     0.061 C 
ATOM     15  C   UNL d   1       0.767  -5.946  -0.504  0.00  0.00     0.046 C 
ATOM     16  C   UNL d   1       2.973  -5.497  -1.598  0.00  0.00     0.046 C 
ATOM     17  C   UNL d   1       2.918  -6.250   0.767  0.00  0.00     0.046 C 
ENDBRANCH  13  14
ENDBRANCH  10  13
ENDBRANCH   1   9
BRANCH   1  18
ATOM     18  C   UNL d   1      -0.132  -0.492   2.145  0.00  0.00     0.282 C 
ATOM     19  O   UNL d   1      -0.662  -0.316   1.053  0.00  0.00    -0.263 OA
BRANCH  18  20
ATOM     20  O   UNL d   1      -0.499   0.100   3.317  0.00  0.00    -0.315 OA
BRANCH  20  21
ATOM     21  C   UNL d   1      -1.446   1.172   3.233  0.00  0.00     0.217 C 
BRANCH  21  22
ATOM     22  C   UNL d   1      -2.339   1.136   4.455  0.00  0.00    -0.034 A 
ATOM     23  C   UNL d   1      -1.795   1.135   5.749  0.00  0.00     0.010 A 
ATOM     24  C   UNL d   1      -2.625   1.143   6.875  0.00  0.00     0.008 A 
ATOM     25  C   UNL d   1      -4.019   1.147   6.732  0.00  0.00    -0.048 A 
ATOM     26  C   UNL d   1      -4.563   1.154   5.442  0.00  0.00     0.008 A 
ATOM     27  C   UNL d   1      -3.732   1.149   4.317  0.00  0.00     0.010 A 
BRANCH  25  28
ATOM     28  C   UNL d   1      -4.923   1.184   7.945  0.00  0.00     0.148 C 
BRANCH  28  29
ATOM     29  C   UNL d   1      -4.760   0.046   8.931  0.00  0.00     0.143 C 
ATOM     30  O   UNL d   1      -4.971   0.170  10.127  0.00  0.00    -0.650 OA
BRANCH  29  31
ATOM     31  O   UNL d   1      -4.442  -1.153   8.389  0.00  0.00    -0.776 OA
ATOM     32  H   UNL d   1      -4.297  -1.126   7.422  0.00  0.00     0.167 HD
ENDBRANCH  29  31
ENDBRANCH  28  29
ENDBRANCH  25  28
ENDBRANCH  21  22
ENDBRANCH  20  21
ENDBRANCH  18  20
ENDBRANCH   1  18
TORSDOF 13
