REMARK  2 active torsions:
REMARK  status: ('A' for Active; 'I' for Inactive)
REMARK    1  A    between atoms: O_11  and  C_3 
REMARK    2  A    between atoms: S_10  and  C_4 
ROOT
ATOM      1  N   UNL d   1      -0.656   1.227  -0.009  0.00  0.00    -0.315 N 
ATOM      2  HN  UNL d   1      -1.142   2.123  -0.015  1.00  0.00     0.170 HD
ATOM      3  C   UNL d   1      -1.300   0.051  -0.006  0.00  0.00     0.166 A 
ATOM      4  C   UNL d   1       0.684   1.124  -0.005  0.00  0.00     0.160 A 
ATOM      5  N   UNL d   1       0.661  -1.226   0.005  0.00  0.00    -0.299 N 
ATOM      6  HN  UNL d   1       1.152  -2.120   0.010  1.00  0.00     0.186 HD
ATOM      7  C   UNL d   1      -0.684  -1.182   0.001  0.00  0.00     0.072 A 
ATOM      8  N   UNL d   1       1.353  -0.052   0.002  0.00  0.00    -0.280 N 
ATOM      9  HN  UNL d   1       2.372  -0.060   0.004  1.00  0.00     0.189 HD
ATOM     10  C   UNL d   1      -1.415  -2.480   0.005  0.00  0.00     0.074 C 
ENDROOT
BRANCH   3  11
ATOM     11  O   UNL d   1      -2.652   0.183  -0.011  0.00  0.00    -0.345 OA
ATOM     12  H   UNL d   1      -2.741   1.153  -0.015  0.00  0.00     0.219 HD
ENDBRANCH   3  11
BRANCH   4  13
ATOM     13  S   UNL d   1       1.600   2.647  -0.008  0.00  0.00    -0.097 SA
ATOM     14  C   UNL d   1       3.291   1.999  -0.000  0.00  0.00     0.099 C 
ENDBRANCH   4  13
TORSDOF 2
