REMARK  8 active torsions:
REMARK  status: ('A' for Active; 'I' for Inactive)
REMARK    1  A    between atoms: S_6  and  C_1 
REMARK    2  A    between atoms: C_8  and  C_5 
REMARK    3  A    between atoms: C_7  and  S_6 
REMARK    4  A    between atoms: C_10  and  C_7 
REMARK    5  A    between atoms: O_16  and  C_8 
REMARK    6  A    between atoms: O_17  and  C_10 
REMARK    7  A    between atoms: C_20  and  O_16 
REMARK    8  A    between atoms: C_21  and  O_17 
ROOT
ATOM      1  C   UNL d   1       1.756   0.917  -0.119  0.00  0.00     0.087 A 
ATOM      2  C   UNL d   1       0.395   0.681  -0.094  0.00  0.00     0.044 A 
ATOM      3  C   UNL d   1       0.106  -0.733   0.072  0.00  0.00    -0.019 A 
ATOM      4  S   UNL d   1       2.653  -0.516   0.091  0.00  0.00    -0.073 SA
ATOM      5  C   UNL d   1       1.258  -1.496   0.211  0.00  0.00     0.088 A 
ATOM      6  C   UNL d   1      -0.689   1.654  -0.236  0.00  0.00     0.162 C 
ATOM      7  O   UNL d   1      -0.507   2.812  -0.590  0.00  0.00    -0.292 OA
ATOM      8  C   UNL d   1      -1.306  -1.258   0.105  0.00  0.00     0.042 C 
ATOM      9  C   UNL d   1      -2.067   1.161   0.171  0.00  0.00     0.084 C 
ATOM     10  C   UNL d   1      -2.319  -0.228  -0.408  0.00  0.00     0.012 C 
ENDROOT
BRANCH   1  11
ATOM     11  S   UNL d   1       2.564   2.442  -0.424  0.00  0.00     0.067 S 
ATOM     12  O   UNL d   1       4.038   2.179  -0.285  0.00  0.00    -0.252 OA
BRANCH  11  13
ATOM     13  C   UNL d   1       2.050   3.410   1.013  0.00  0.00     0.225 C 
BRANCH  13  14
ATOM     14  C   UNL d   1       2.726   4.757   0.961  0.00  0.00     0.270 C 
ATOM     15  O   UNL d   1       2.974   5.394  -0.050  0.00  0.00    -0.264 OA
BRANCH  14  16
ATOM     16  O   UNL d   1       3.010   5.171   2.231  0.00  0.00    -0.321 OA
BRANCH  16  17
ATOM     17  C   UNL d   1       3.975   6.229   2.331  0.00  0.00     0.174 C 
ATOM     18  C   UNL d   1       5.331   5.588   2.560  0.00  0.00     0.034 C 
ENDBRANCH  16  17
ENDBRANCH  14  16
ENDBRANCH  13  14
ENDBRANCH  11  13
ENDBRANCH   1  11
BRANCH   5  19
ATOM     19  C   UNL d   1       1.353  -2.930   0.470  0.00  0.00     0.300 C 
ATOM     20  O   UNL d   1       0.393  -3.667   0.654  0.00  0.00    -0.259 OA
BRANCH  19  21
ATOM     21  O   UNL d   1       2.653  -3.329   0.555  0.00  0.00    -0.317 OA
BRANCH  21  22
ATOM     22  C   UNL d   1       2.878  -4.606   1.166  0.00  0.00     0.174 C 
ATOM     23  C   UNL d   1       2.889  -4.421   2.674  0.00  0.00     0.034 C 
ENDBRANCH  21  22
ENDBRANCH  19  21
ENDBRANCH   5  19
TORSDOF 8
