REMARK  3 active torsions:
REMARK  status: ('A' for Active; 'I' for Inactive)
REMARK       I    between atoms: N_2  and  C_1 
REMARK    1  A    between atoms: C_3  and  C_1 
REMARK    2  A    between atoms: C_4  and  N_2 
REMARK    3  A    between atoms: O_8  and  C_7 
ROOT
ATOM      1  C   UNL d   1       0.990   1.385   2.063  0.00  0.00     0.037 A 
ATOM      2  C   UNL d   1       2.090   2.192   1.757  0.00  0.00     0.066 A 
ATOM      3  C   UNL d   1       2.604   3.095   2.689  0.00  0.00     0.070 A 
ATOM      4  C   UNL d   1       0.894   2.412   4.259  0.00  0.00     0.005 A 
ATOM      5  C   UNL d   1       0.381   1.518   3.317  0.00  0.00     0.029 A 
ATOM      6  C   UNL d   1       2.006   3.193   3.945  0.00  0.00     0.037 A 
ENDROOT
BRANCH   1   7
ATOM      7  N   UNL d   1       0.443   0.447   1.157  0.00  0.00    -0.326 N 
ATOM      8  C   UNL d   1       1.037  -0.007  -0.012  0.00  0.00     0.229 C 
ATOM      9  O   UNL d   1       2.180   0.276  -0.371  0.00  0.00    -0.272 OA
ATOM     10  H   UNL d   1      -0.423   0.012   1.440  0.00  0.00     0.169 HD
BRANCH   8  11
ATOM     11  C   UNL d   1       0.152  -0.934  -0.872  0.00  0.00     0.030 C 
ATOM     12  C   UNL d   1      -1.111  -0.183  -1.314  0.00  0.00     0.025 C 
ATOM     13  C   UNL d   1       0.942  -1.349  -2.130  0.00  0.00     0.025 C 
ATOM     14  C   UNL d   1      -0.226  -2.203  -0.095  0.00  0.00     0.025 C 
ENDBRANCH   8  11
ENDBRANCH   1   7
BRANCH   3  15
ATOM     15  O   UNL d   1       3.672   3.928   2.487  0.00  0.00    -0.356 OA
ATOM     16  C   UNL d   1       4.294   3.864   1.206  0.00  0.00     0.210 C 
ENDBRANCH   3  15
TORSDOF 3
