REMARK  2 active torsions:
REMARK  status: ('A' for Active; 'I' for Inactive)
REMARK    1  A    between atoms: N_11  and  N_6 
REMARK    2  A    between atoms: C_12  and  N_11 
ROOT
ATOM      1  S   UNL d   1      -1.070  -1.538   0.060  0.00  0.00     0.285 S 
ATOM      2  C   UNL d   1      -2.405  -0.508   0.546  0.00  0.00     0.215 C 
ATOM      3  N   UNL d   1      -1.588  -1.942  -1.503  0.00  0.00    -0.274 N 
ATOM      4  C   UNL d   1      -2.616   0.622  -0.406  0.00  0.00     0.225 C 
ATOM      5  C   UNL d   1      -2.409   0.387  -1.861  0.00  0.00     0.045 A 
ATOM      6  N   UNL d   1      -3.196  -0.850   1.521  0.00  0.00    -0.285 N 
ATOM      7  HN  UNL d   1      -3.001  -1.678   2.084  1.00  0.00     0.188 HD
ATOM      8  C   UNL d   1      -1.933  -0.841  -2.372  0.00  0.00     0.059 A 
ATOM      9  O   UNL d   1       0.098  -0.689  -0.051  0.00  0.00    -0.198 OA
ATOM     10  O   UNL d   1      -1.075  -2.731   0.885  0.00  0.00    -0.198 OA
ATOM     11  O   UNL d   1      -3.004   1.701   0.030  0.00  0.00    -0.284 OA
ATOM     12  C   UNL d   1      -1.383  -3.310  -1.985  0.00  0.00     0.170 C 
ATOM     13  C   UNL d   1      -2.744   1.436  -2.733  0.00  0.00     0.018 A 
ATOM     14  C   UNL d   1      -1.852  -0.995  -3.764  0.00  0.00     0.031 A 
ATOM     15  C   UNL d   1      -2.639   1.266  -4.111  0.00  0.00     0.001 A 
ATOM     16  C   UNL d   1      -2.201   0.050  -4.625  0.00  0.00     0.002 A 
ENDROOT
BRANCH   6  17
ATOM     17  N   UNL d   1      -4.284  -0.082   1.774  0.00  0.00    -0.297 N 
ATOM     18  H   UNL d   1      -4.391   0.877   1.420  0.00  0.00     0.187 HD
BRANCH  17  19
ATOM     19  C   UNL d   1      -5.453  -0.712   2.246  0.00  0.00     0.086 A 
ATOM     20  C   UNL d   1      -6.620   0.028   2.473  0.00  0.00     0.144 A 
ATOM     21  F   UNL d   1      -6.634   1.344   2.206  0.00  0.00    -0.204 F 
ATOM     22  C   UNL d   1      -7.783  -0.569   2.961  0.00  0.00     0.045 A 
ATOM     23  C   UNL d   1      -7.797  -1.934   3.239  0.00  0.00     0.003 A 
ATOM     24  C   UNL d   1      -6.646  -2.691   3.034  0.00  0.00     0.002 A 
ATOM     25  C   UNL d   1      -5.484  -2.082   2.550  0.00  0.00     0.034 A 
ENDBRANCH  17  19
ENDBRANCH   6  17
TORSDOF 2
