REMARK  3 active torsions:
REMARK  status: ('A' for Active; 'I' for Inactive)
REMARK       I    between atoms: N_2  and  C_1 
REMARK    1  A    between atoms: C_3  and  C_1 
REMARK    2  A    between atoms: C_5  and  N_2 
REMARK    3  A    between atoms: C_10  and  C_5 
ROOT
ATOM      1  C   UNL d   1       0.850  -0.619  -0.286  0.00  0.00     0.259 C 
ATOM      2  N   UNL d   1       0.232  -0.727   0.942  0.00  0.00    -0.348 N 
ATOM      3  O   UNL d   1       1.982  -1.063  -0.479  0.00  0.00    -0.267 OA
ATOM      4  H   UNL d   1      -0.636  -0.226   1.077  0.00  0.00     0.163 HD
ENDROOT
BRANCH   2   5
ATOM      5  C   UNL d   1       0.884  -1.339   2.086  0.00  0.00     0.114 C 
ATOM      6  C   UNL d   1      -0.135  -2.082   2.951  0.00  0.00     0.037 C 
BRANCH   5   7
ATOM      7  C   UNL d   1       1.652  -0.320   2.907  0.00  0.00    -0.036 A 
ATOM      8  C   UNL d   1       1.014   0.772   3.519  0.00  0.00     0.009 A 
ATOM      9  C   UNL d   1       1.737   1.667   4.311  0.00  0.00     0.001 A 
ATOM     10  C   UNL d   1       3.105   1.485   4.501  0.00  0.00     0.000 A 
ATOM     11  C   UNL d   1       3.754   0.413   3.894  0.00  0.00     0.001 A 
ATOM     12  C   UNL d   1       3.034  -0.480   3.098  0.00  0.00     0.009 A 
ENDBRANCH   5   7
ENDBRANCH   2   5
BRANCH   1  13
ATOM     13  C   UNL d   1       0.083   0.034  -1.340  0.00  0.00     0.072 A 
ATOM     14  S   UNL d   1      -1.533   0.566  -1.119  0.00  0.00    -0.097 SA
ATOM     15  C   UNL d   1      -1.628   1.171  -2.716  0.00  0.00     0.050 A 
ATOM     16  C   UNL d   1      -0.468   0.951  -3.422  0.00  0.00     0.009 A 
ATOM     17  C   UNL d   1       0.515   0.291  -2.630  0.00  0.00     0.025 A 
ENDBRANCH   1  13
TORSDOF 3
