REMARK  6 active torsions:
REMARK  status: ('A' for Active; 'I' for Inactive)
REMARK    1  A    between atoms: C_10  and  N_2 
REMARK    2  A    between atoms: C_4  and  C_7 
REMARK    3  A    between atoms: C_5  and  C_8 
REMARK    4  A    between atoms: C_14  and  C_10 
REMARK    5  A    between atoms: C_12  and  N_15 
REMARK    6  A    between atoms: C_13  and  C_14 
REMARK       I    between atoms: N_15  and  C_13 
ROOT
ATOM      1  C   UNL d   1       4.097  -3.896   0.005  0.00  0.00     0.223 C 
ATOM      2  N   UNL d   1       3.182  -4.902  -0.253  0.00  0.00    -0.327 N 
ATOM      3  O   UNL d   1       5.298  -4.056   0.209  0.00  0.00    -0.273 OA
ATOM      4  H   UNL d   1       2.265  -4.628  -0.586  0.00  0.00     0.169 HD
ENDROOT
BRANCH   2   5
ATOM      5  C   UNL d   1       3.414  -6.297  -0.118  0.00  0.00     0.036 A 
ATOM      6  C   UNL d   1       4.553  -6.829   0.497  0.00  0.00     0.045 A 
ATOM      7  C   UNL d   1       4.710  -8.212   0.703  0.00  0.00     0.050 A 
ATOM      8  C   UNL d   1       3.695  -9.081   0.286  0.00  0.00     0.032 A 
ATOM      9  C   UNL d   1       2.544  -8.585  -0.347  0.00  0.00     0.050 A 
ATOM     10  C   UNL d   1       2.426  -7.194  -0.563  0.00  0.00     0.045 A 
BRANCH   7  11
ATOM     11  C   UNL d   1       5.950  -8.729   1.395  0.00  0.00     0.417 C 
ATOM     12  F   UNL d   1       5.937 -10.078   1.587  0.00  0.00    -0.166 F 
ATOM     13  F   UNL d   1       7.089  -8.464   0.699  0.00  0.00    -0.166 F 
ATOM     14  F   UNL d   1       6.123  -8.182   2.629  0.00  0.00    -0.166 F 
ENDBRANCH   7  11
BRANCH   9  15
ATOM     15  C   UNL d   1       1.431  -9.527  -0.752  0.00  0.00     0.417 C 
ATOM     16  F   UNL d   1       1.640 -10.814  -0.360  0.00  0.00    -0.166 F 
ATOM     17  F   UNL d   1       0.233  -9.166  -0.213  0.00  0.00    -0.166 F 
ATOM     18  F   UNL d   1       1.242  -9.570  -2.098  0.00  0.00    -0.166 F 
ENDBRANCH   9  15
ENDBRANCH   2   5
BRANCH   1  19
ATOM     19  C   UNL d   1       3.520  -2.491   0.071  0.00  0.00     0.123 C 
BRANCH  19  20
ATOM     20  C   UNL d   1       4.261  -1.560  -0.891  0.00  0.00     0.144 C 
BRANCH  20  21
ATOM     21  N   UNL d   1       3.812  -0.184  -0.788  0.00  0.00    -0.290 N 
ATOM     22  C   UNL d   1       2.842   0.419  -1.566  0.00  0.00     0.372 A 
ATOM     23  O   UNL d   1       2.477   1.667  -1.045  0.00  0.00    -0.259 OA
ATOM     24  O   UNL d   1       2.319  -0.068  -2.565  0.00  0.00    -0.237 OA
ATOM     25  C   UNL d   1       3.206   1.725   0.130  0.00  0.00     0.107 A 
ATOM     26  C   UNL d   1       3.074   2.680   1.116  0.00  0.00     0.040 A 
ATOM     27  C   UNL d   1       4.048   0.644   0.286  0.00  0.00     0.073 A 
ATOM     28  C   UNL d   1       3.833   2.513   2.280  0.00  0.00     0.003 A 
ATOM     29  C   UNL d   1       4.727   1.432   2.410  0.00  0.00     0.002 A 
ATOM     30  C   UNL d   1       4.853   0.484   1.394  0.00  0.00     0.033 A 
ENDBRANCH  20  21
ENDBRANCH  19  20
ENDBRANCH   1  19
TORSDOF 6
