REMARK  4 active torsions:
REMARK  status: ('A' for Active; 'I' for Inactive)
REMARK    1  A    between atoms: C_10  and  N_1 
REMARK    2  A    between atoms: C_9  and  C_4 
REMARK    3  A    between atoms: C_6  and  C_11 
REMARK    4  A    between atoms: O_18  and  C_9 
ROOT
ATOM      1  N   UNL d   1       0.120   5.866  -0.427  0.00  0.00    -0.355 N 
ATOM      2  HN  UNL d   1       0.145   5.937   0.590  1.00  0.00     0.166 HD
ATOM      3  C   UNL d   1       0.116   5.668  -3.189  0.00  0.00     0.052 A 
ATOM      4  C   UNL d   1       0.199   6.978  -1.185  0.00  0.00     0.044 A 
ATOM      5  C   UNL d   1       0.009   4.656  -1.022  0.00  0.00     0.044 A 
ATOM      6  C   UNL d   1       0.193   6.946  -2.594  0.00  0.00     0.008 A 
ATOM      7  C   UNL d   1       0.004   4.524  -2.400  0.00  0.00     0.049 A 
ATOM      8  C   UNL d   1       0.251   8.170  -3.304  0.00  0.00     0.015 A 
ATOM      9  C   UNL d   1       0.267   8.211  -0.544  0.00  0.00     0.037 A 
ATOM     10  C   UNL d   1       0.299   9.393  -2.637  0.00  0.00     0.007 A 
ATOM     11  C   UNL d   1       0.316   9.425  -1.246  0.00  0.00    -0.060 A 
ATOM     12  C   UNL d   1       0.337  10.740  -0.525  0.00  0.00     0.048 C 
ENDROOT
BRANCH   5  13
ATOM     13  C   UNL d   1      -0.200   3.494  -0.137  0.00  0.00    -0.007 A 
ATOM     14  C   UNL d   1       0.312   2.224  -0.461  0.00  0.00     0.049 A 
ATOM     15  C   UNL d   1      -0.022   1.097   0.307  0.00  0.00     0.103 A 
ATOM     16  C   UNL d   1      -0.844   1.218   1.430  0.00  0.00     0.036 A 
ATOM     17  C   UNL d   1      -1.313   2.480   1.794  0.00  0.00     0.003 A 
ATOM     18  C   UNL d   1      -0.990   3.601   1.022  0.00  0.00     0.014 A 
BRANCH  15  19
ATOM     19  N   UNL d   1       0.466  -0.223  -0.106  0.00  0.00    -0.116 N 
ATOM     20  O   UNL d   1       1.173  -0.282  -1.124  0.00  0.00    -0.532 OA
ATOM     21  O   UNL d   1       0.135  -1.203   0.577  0.00  0.00    -0.532 OA
ENDBRANCH  15  19
ENDBRANCH   5  13
BRANCH   3  22
ATOM     22  C   UNL d   1       0.054   5.483  -4.657  0.00  0.00     0.177 C 
ATOM     23  O   UNL d   1      -0.637   6.161  -5.397  0.00  0.00    -0.646 OA
BRANCH  22  24
ATOM     24  O   UNL d   1       0.829   4.468  -5.100  0.00  0.00    -0.773 OA
ATOM     25  H   UNL d   1       1.435   4.076  -4.444  0.00  0.00     0.167 HD
ENDBRANCH  22  24
ENDBRANCH   3  22
TORSDOF 4
