REMARK  5 active torsions:
REMARK  status: ('A' for Active; 'I' for Inactive)
REMARK    1  A    between atoms: C_10  and  C_1 
REMARK    2  A    between atoms: C_9  and  C_2 
REMARK    3  A    between atoms: N_4  and  C_3 
REMARK       I    between atoms: N_21  and  C_10 
REMARK    4  A    between atoms: C_13  and  C_20 
REMARK    5  A    between atoms: N_15  and  N_21 
ROOT
ATOM      1  C   UNL d   1       0.205   2.701  -0.128  0.00  0.00     0.274 C 
ATOM      2  N   UNL d   1      -0.687   3.581   0.487  0.00  0.00    -0.266 N 
ATOM      3  O   UNL d   1       1.239   3.062  -0.689  0.00  0.00    -0.266 OA
ATOM      4  H   UNL d   1      -1.607   3.239   0.748  0.00  0.00     0.190 HD
ENDROOT
BRANCH   1   5
ATOM      5  C   UNL d   1      -0.124   1.290  -0.014  0.00  0.00     0.086 A 
ATOM      6  C   UNL d   1      -1.351   0.638  -0.057  0.00  0.00     0.083 A 
ATOM      7  N   UNL d   1      -1.060  -0.688   0.146  0.00  0.00    -0.298 N 
ATOM      8  N   UNL d   1       0.245  -0.960   0.252  0.00  0.00    -0.304 N 
ATOM      9  H   UNL d   1      -1.717  -1.461   0.178  0.00  0.00     0.187 HD
ATOM     10  C   UNL d   1       0.830   0.235   0.124  0.00  0.00     0.040 A 
ATOM     11  HN  UNL d   1       0.689  -1.866   0.396  1.00  0.00     0.186 HD
ATOM     12  C   UNL d   1       2.313   0.342   0.156  0.00  0.00     0.071 C 
BRANCH   6  13
ATOM     13  C   UNL d   1      -2.692   1.069  -0.332  0.00  0.00     0.034 A 
ATOM     14  S   UNL d   1      -4.043   0.278   0.374  0.00  0.00    -0.100 SA
ATOM     15  C   UNL d   1      -5.154   1.265  -0.468  0.00  0.00     0.050 A 
ATOM     16  C   UNL d   1      -4.518   2.191  -1.262  0.00  0.00     0.008 A 
ATOM     17  C   UNL d   1      -3.098   2.078  -1.185  0.00  0.00     0.021 A 
ENDBRANCH   6  13
ENDBRANCH   1   5
BRANCH   2  18
ATOM     18  N   UNL d   1      -0.591   4.957   0.380  0.00  0.00    -0.308 N 
ATOM     19  C   UNL d   1       0.603   5.458   0.496  0.00  0.00     0.126 C 
ATOM     20  HN  UNL d   1      -1.409   5.544   0.220  1.00  0.00     0.186 HD
BRANCH  19  21
ATOM     21  C   UNL d   1       0.862   6.853   0.233  0.00  0.00     0.024 A 
ATOM     22  S   UNL d   1       2.484   7.406   0.272  0.00  0.00    -0.065 SA
ATOM     23  C   UNL d   1       2.029   8.963  -0.227  0.00  0.00     0.144 A 
ATOM     24  C   UNL d   1       0.664   9.095  -0.379  0.00  0.00     0.045 A 
ATOM     25  C   UNL d   1      -0.013   7.867  -0.105  0.00  0.00     0.023 A 
BRANCH  23  26
ATOM     26  N   UNL d   1       3.024   9.976  -0.463  0.00  0.00    -0.108 N 
ATOM     27  O   UNL d   1       2.618  11.039  -0.954  0.00  0.00    -0.531 OA
ATOM     28  O   UNL d   1       4.199   9.728  -0.163  0.00  0.00    -0.531 OA
ENDBRANCH  23  26
ENDBRANCH  19  21
ENDBRANCH   2  18
TORSDOF 5
