REMARK  4 active torsions:
REMARK  status: ('A' for Active; 'I' for Inactive)
REMARK    1  A    between atoms: C_5  and  C_1 
REMARK    2  A    between atoms: O_6  and  C_1 
REMARK    3  A    between atoms: C_7  and  C_5 
REMARK    4  A    between atoms: C_8  and  C_7 
ROOT
ATOM      1  N   UNL d   1      -3.449  -1.481   3.869  0.00  0.00    -0.375 N 
ATOM      2  HN  UNL d   1      -4.029  -1.007   4.561  1.00  0.00     0.164 HD
ATOM      3  C   UNL d   1      -2.006  -1.388   1.920  0.00  0.00    -0.042 A 
ATOM      4  C   UNL d   1      -2.829  -0.801   2.879  0.00  0.00     0.094 A 
ATOM      5  C   UNL d   1      -3.263  -2.817   3.895  0.00  0.00     0.087 A 
ATOM      6  C   UNL d   1      -1.848  -2.775   1.976  0.00  0.00     0.010 A 
ATOM      7  C   UNL d   1      -2.485  -3.503   2.978  0.00  0.00     0.018 A 
ENDROOT
BRANCH   3   8
ATOM      8  C   UNL d   1      -1.322  -0.562   0.864  0.00  0.00     0.050 C 
BRANCH   8   9
ATOM      9  C   UNL d   1      -0.317   0.420   1.467  0.00  0.00     0.114 C 
BRANCH   9  10
ATOM     10  C   UNL d   1       0.386   1.216   0.397  0.00  0.00     0.139 C 
ATOM     11  O   UNL d   1       0.210   1.095  -0.803  0.00  0.00    -0.650 OA
BRANCH  10  12
ATOM     12  O   UNL d   1       1.261   2.111   0.915  0.00  0.00    -0.776 OA
ATOM     13  H   UNL d   1       1.305   2.106   1.890  0.00  0.00     0.167 HD
ENDBRANCH  10  12
ENDBRANCH   9  10
ENDBRANCH   8   9
ENDBRANCH   3   8
TORSDOF 4
