REMARK  5 active torsions:
REMARK  status: ('A' for Active; 'I' for Inactive)
REMARK    1  A    between atoms: C_5  and  C_1 
REMARK       I    between atoms: N_18  and  C_5 
REMARK    2  A    between atoms: C_23  and  C_14 
REMARK    3  A    between atoms: C_17  and  O_21 
REMARK    4  A    between atoms: C_22  and  N_18 
REMARK    5  A    between atoms: O_21  and  C_23 
ROOT
ATOM      1  C   UNL d   1       1.260   0.741  -0.073  0.00  0.00     0.108 A 
ATOM      2  N   UNL d   1       1.453  -0.604   0.258  0.00  0.00    -0.347 N 
ATOM      3  HN  UNL d   1       2.318  -1.002   0.624  1.00  0.00     0.166 HD
ATOM      4  C   UNL d   1      -0.021   1.046  -0.503  0.00  0.00     0.086 A 
ATOM      5  C   UNL d   1       0.338  -1.281   0.022  0.00  0.00     0.075 A 
ATOM      6  S   UNL d   1      -1.013  -0.339  -0.483  0.00  0.00    -0.084 SA
ENDROOT
BRANCH   5   7
ATOM      7  C   UNL d   1       0.209  -2.777   0.050  0.00  0.00     0.240 C 
BRANCH   7   8
ATOM      8  O   UNL d   1      -0.203  -3.173   1.361  0.00  0.00    -0.345 OA
BRANCH   8   9
ATOM      9  C   UNL d   1      -0.406  -4.528   1.529  0.00  0.00     0.071 A 
ATOM     10  C   UNL d   1      -1.351  -4.848   2.524  0.00  0.00     0.070 A 
ATOM     11  C   UNL d   1      -1.552  -6.226   2.730  0.00  0.00     0.087 A 
ATOM     12  N   UNL d   1      -2.375  -6.849   3.583  0.00  0.00    -0.239 N 
ATOM     13  C   UNL d   1      -0.828  -7.240   1.978  0.00  0.00     0.085 A 
ATOM     14  O   UNL d   1      -2.175  -8.205   3.380  0.00  0.00    -0.156 OA
ATOM     15  HN  UNL d   1      -3.017  -6.414   4.246  1.00  0.00     0.197 HD
ATOM     16  N   UNL d   1      -1.229  -8.445   2.397  0.00  0.00    -0.240 N 
ATOM     17  HN  UNL d   1      -0.905  -9.353   2.063  1.00  0.00     0.197 HD
ATOM     18  C   UNL d   1       0.121  -6.910   0.997  0.00  0.00     0.036 A 
ATOM     19  C   UNL d   1       0.308  -5.525   0.804  0.00  0.00     0.039 A 
ENDBRANCH   8   9
ENDBRANCH   7   8
ENDBRANCH   5   7
BRANCH   1  20
ATOM     20  C   UNL d   1       2.306   1.767   0.004  0.00  0.00     0.273 C 
ATOM     21  N   UNL d   1       3.404   1.422   0.774  0.00  0.00    -0.322 N 
ATOM     22  H   UNL d   1       3.421   0.458   1.095  0.00  0.00     0.169 HD
ATOM     23  O   UNL d   1       2.150   2.841  -0.575  0.00  0.00    -0.266 OA
BRANCH  21  24
ATOM     24  C   UNL d   1       4.429   2.297   1.205  0.00  0.00     0.035 A 
ATOM     25  C   UNL d   1       4.405   3.678   0.967  0.00  0.00     0.031 A 
ATOM     26  C   UNL d   1       5.400   4.518   1.476  0.00  0.00     0.026 A 
ATOM     27  C   UNL d   1       6.439   3.984   2.226  0.00  0.00     0.034 A 
ATOM     28  C   UNL d   1       6.495   2.609   2.456  0.00  0.00     0.026 A 
ATOM     29 CL   UNL d   1       7.641   5.021   2.883  0.00  0.00    -0.084 Cl
ATOM     30  C   UNL d   1       5.488   1.769   1.952  0.00  0.00     0.031 A 
ENDBRANCH  21  24
ENDBRANCH   1  20
TORSDOF 5
