REMARK  2 active torsions:
REMARK  status: ('A' for Active; 'I' for Inactive)
REMARK    1  A    between atoms: C_7  and  N_1 
REMARK    2  A    between atoms: N_4  and  C_9 
ROOT
ATOM      1  N   UNL d   1       1.927  -0.022  -0.091  0.00  0.00    -0.244 N 
ATOM      2  C   UNL d   1       1.160   1.123   0.006  0.00  0.00     0.266 A 
ATOM      3  C   UNL d   1       1.120  -1.139  -0.145  0.00  0.00     0.266 A 
ATOM      4  C   UNL d   1      -0.260  -0.676  -0.074  0.00  0.00     0.048 A 
ATOM      5  C   UNL d   1      -0.239   0.700   0.003  0.00  0.00     0.048 A 
ATOM      6  O   UNL d   1       1.473   2.298   0.052  0.00  0.00    -0.267 OA
ATOM      7  O   UNL d   1       1.385  -2.328  -0.197  0.00  0.00    -0.267 OA
ATOM      8  C   UNL d   1      -1.440  -1.395  -0.071  0.00  0.00     0.018 A 
ATOM      9  C   UNL d   1      -1.403   1.442   0.058  0.00  0.00     0.018 A 
ATOM     10  C   UNL d   1      -2.614   0.740   0.050  0.00  0.00     0.001 A 
ATOM     11  C   UNL d   1      -2.631  -0.669  -0.006  0.00  0.00     0.001 A 
ENDROOT
BRANCH   1  12
ATOM     12  C   UNL d   1       3.352  -0.056  -0.108  0.00  0.00     0.048 A 
ATOM     13  C   UNL d   1       4.116   1.003   0.406  0.00  0.00     0.066 A 
ATOM     14  C   UNL d   1       5.519   0.919   0.436  0.00  0.00     0.105 A 
ATOM     15  C   UNL d   1       6.183  -0.198  -0.083  0.00  0.00     0.036 A 
ATOM     16  C   UNL d   1       5.436  -1.239  -0.621  0.00  0.00     0.005 A 
ATOM     17  C   UNL d   1       4.039  -1.170  -0.623  0.00  0.00     0.030 A 
BRANCH  14  18
ATOM     18  N   UNL d   1       6.303   1.996   1.054  0.00  0.00    -0.116 N 
ATOM     19  O   UNL d   1       5.686   2.944   1.561  0.00  0.00    -0.532 OA
ATOM     20  O   UNL d   1       7.538   1.888   1.045  0.00  0.00    -0.532 OA
ENDBRANCH  14  18
ENDBRANCH   1  12
TORSDOF 2
