REMARK  8 active torsions:
REMARK  status: ('A' for Active; 'I' for Inactive)
REMARK    1  A    between atoms: C_3  and  S_10 
REMARK    2  A    between atoms: S_11  and  C_4 
REMARK    3  A    between atoms: C_8  and  C_13 
REMARK    4  A    between atoms: C_12  and  C_9 
REMARK    5  A    between atoms: S_10  and  C_12 
REMARK    6  A    between atoms: C_13  and  S_11 
REMARK    7  A    between atoms: BR_26  and  BR_26 
REMARK    8  A    between atoms: BR_27  and  BR_27 
ROOT
ATOM      1 BR   UNL d   2       1.825   0.946  -3.270  0.00  0.00     0.000 Br
ENDROOT
TORSDOF 8
