REMARK  4 active torsions:
REMARK  status: ('A' for Active; 'I' for Inactive)
REMARK    1  A    between atoms: N_3  and  C_1 
REMARK    2  A    between atoms: S_4  and  C_1 
REMARK    3  A    between atoms: C_2  and  C_5 
REMARK    4  A    between atoms: C_5  and  S_4 
ROOT
ATOM      1  S   UNL d   1       0.112   0.235  -1.458  0.00  0.00    -0.096 SA
ENDROOT
BRANCH   1   2
ATOM      2  C   UNL d   1       0.949  -0.027   0.090  0.00  0.00     0.137 C 
ATOM      3  S   UNL d   1       2.529   0.531   0.309  0.00  0.00    -0.053 SA
BRANCH   2   4
ATOM      4  N   UNL d   1       0.181  -0.632   1.111  0.00  0.00    -0.365 N 
ATOM      5  C   UNL d   1       0.711  -0.835   2.483  0.00  0.00     0.134 C 
ATOM      6  C   UNL d   1      -0.168  -0.211   3.573  0.00  0.00     0.093 C 
ATOM      7  S   UNL d   1      -1.839  -0.928   3.594  0.00  0.00    -0.166 SA
ATOM      8  C   UNL d   1      -2.231  -0.675   1.833  0.00  0.00     0.093 C 
ATOM      9  C   UNL d   1      -1.150  -1.252   0.913  0.00  0.00     0.134 C 
ENDBRANCH   2   4
ENDBRANCH   1   2
BRANCH   1  10
ATOM     10  C   UNL d   1       1.429  -0.015  -2.688  0.00  0.00     0.125 C 
BRANCH  10  11
ATOM     11  C   UNL d   1       0.936   0.149  -4.106  0.00  0.00     0.012 A 
ATOM     12  C   UNL d   1       0.997   1.417  -4.702  0.00  0.00     0.125 A 
ATOM     13  F   UNL d   1       1.464   2.460  -3.998  0.00  0.00    -0.205 F 
ATOM     14  C   UNL d   1       0.599   1.638  -6.018  0.00  0.00     0.043 A 
ATOM     15  C   UNL d   1       0.125   0.577  -6.780  0.00  0.00     0.005 A 
ATOM     16  C   UNL d   1       0.039  -0.693  -6.210  0.00  0.00     0.024 A 
ATOM     17  C   UNL d   1       0.438  -0.906  -4.882  0.00  0.00     0.044 A 
ATOM     18 CL   UNL d   1       0.298  -2.511  -4.258  0.00  0.00    -0.084 Cl
ENDBRANCH  10  11
ENDBRANCH   1  10
TORSDOF 4
