REMARK  4 active torsions:
REMARK  status: ('A' for Active; 'I' for Inactive)
REMARK    1  A    between atoms: C_2  and  S_1 
REMARK    2  A    between atoms: N_7  and  S_1 
REMARK    3  A    between atoms: C_9  and  N_7 
REMARK    4  A    between atoms: C_8  and  C_10 
ROOT
ATOM      1  N   UNL d   1       0.608  -1.576   0.798  0.00  0.00    -0.278 N 
ATOM      2  H   UNL d   1       0.057  -1.642   1.655  0.00  0.00     0.179 HD
ENDROOT
BRANCH   1   3
ATOM      3  S   UNL d   1       0.170  -0.247  -0.139  0.00  0.00     0.269 S 
ATOM      4  O   UNL d   1      -0.236   0.792   0.778  0.00  0.00    -0.200 OA
ATOM      5  O   UNL d   1       1.161  -0.019  -1.167  0.00  0.00    -0.200 OA
BRANCH   3   6
ATOM      6  C   UNL d   1      -1.309  -0.626  -1.058  0.00  0.00     0.123 A 
ATOM      7  S   UNL d   1      -2.672  -1.142  -0.156  0.00  0.00    -0.063 SA
ATOM      8  C   UNL d   1      -3.606  -1.310  -1.565  0.00  0.00     0.093 A 
ATOM      9 CL   UNL d   1      -5.221  -1.881  -1.429  0.00  0.00    -0.075 Cl
ATOM     10  C   UNL d   1      -2.922  -0.953  -2.695  0.00  0.00     0.041 A 
ATOM     11  C   UNL d   1      -1.592  -0.549  -2.412  0.00  0.00     0.054 A 
ATOM     12 BR   UNL d   1      -3.582  -0.968  -4.463  0.00  0.00    -0.049 Br
ENDBRANCH   3   6
ENDBRANCH   1   3
BRANCH   1  13
ATOM     13  C   UNL d   1       0.983  -2.807   0.172  0.00  0.00     0.064 A 
ATOM     14  C   UNL d   1       2.296  -3.072  -0.246  0.00  0.00     0.062 A 
ATOM     15  C   UNL d   1       2.632  -4.333  -0.755  0.00  0.00     0.042 A 
ATOM     16 CL   UNL d   1       3.571  -1.924  -0.045  0.00  0.00    -0.082 Cl
ATOM     17  C   UNL d   1       1.666  -5.346  -0.859  0.00  0.00     0.049 A 
ATOM     18  C   UNL d   1       0.347  -5.057  -0.478  0.00  0.00     0.018 A 
ATOM     19  C   UNL d   1       0.010  -3.801   0.035  0.00  0.00     0.032 A 
BRANCH  17  20
ATOM     20  C   UNL d   1       2.026  -6.737  -1.326  0.00  0.00     0.417 C 
ATOM     21  F   UNL d   1       3.343  -6.885  -1.636  0.00  0.00    -0.166 F 
ATOM     22  F   UNL d   1       1.756  -7.679  -0.380  0.00  0.00    -0.166 F 
ATOM     23  F   UNL d   1       1.331  -7.110  -2.434  0.00  0.00    -0.166 F 
ENDBRANCH  17  20
ENDBRANCH   1  13
TORSDOF 4
