REMARK  6 active torsions:
REMARK  status: ('A' for Active; 'I' for Inactive)
REMARK       I    between atoms: C_3  and  N_1 
REMARK    1  A    between atoms: N_7  and  C_2 
REMARK    2  A    between atoms: O_15  and  C_3 
REMARK    3  A    between atoms: C_4  and  N_8 
REMARK    4  A    between atoms: N_8  and  N_7 
REMARK    5  A    between atoms: O_19  and  C_10 
REMARK    6  A    between atoms: C_21  and  O_15 
ROOT
ATOM      1  N   UNL d   1      -1.313   2.393  -0.561  0.00  0.00    -0.131 N 
ATOM      2  H   UNL d   1      -0.710   3.225  -0.534  0.00  0.00     0.205 HD
ENDROOT
BRANCH   1   3
ATOM      3  C   UNL d   1      -0.648   1.223  -0.243  0.00  0.00     0.699 C 
ATOM      4  N   UNL d   1       0.747   1.255  -0.124  0.00  0.00    -0.125 N 
ATOM      5  C   UNL d   1       1.461   2.447  -0.220  0.00  0.00     0.381 C 
ATOM      6  C   UNL d   1       1.457   0.021   0.175  0.00  0.00     0.155 C 
ATOM      7  O   UNL d   1       0.947   3.543  -0.456  0.00  0.00    -0.237 OA
ATOM      8  C   UNL d   1       0.707  -1.184  -0.342  0.00  0.00     0.041 C 
ATOM      9  C   UNL d   1      -0.690  -1.128   0.227  0.00  0.00     0.139 C 
ATOM     10  N   UNL d   1      -1.338   0.134  -0.087  0.00  0.00    -0.224 N 
ATOM     11  HN  UNL d   1      -2.353   0.164  -0.187  1.00  0.00     0.177 HD
BRANCH   5  12
ATOM     12  O   UNL d   1       2.808   2.284  -0.098  0.00  0.00    -0.304 OA
BRANCH  12  13
ATOM     13  C   UNL d   1       3.594   3.340  -0.669  0.00  0.00     0.176 C 
ATOM     14  C   UNL d   1       3.736   3.064  -2.156  0.00  0.00     0.034 C 
ENDBRANCH  12  13
ENDBRANCH   5  12
ENDBRANCH   1   3
BRANCH   1  15
ATOM     15  N   UNL d   1      -2.582   2.615  -0.089  0.00  0.00    -0.284 N 
ATOM     16  H   UNL d   1      -3.183   1.786  -0.170  0.00  0.00     0.187 HD
BRANCH  15  17
ATOM     17  C   UNL d   1      -3.291   3.799  -0.389  0.00  0.00     0.083 A 
ATOM     18  C   UNL d   1      -3.032   4.491  -1.587  0.00  0.00     0.057 A 
ATOM     19  C   UNL d   1      -3.739   5.650  -1.910  0.00  0.00     0.036 A 
ATOM     20 CL   UNL d   1      -3.409   6.469  -3.387  0.00  0.00    -0.084 Cl
ATOM     21  C   UNL d   1      -4.713   6.141  -1.050  0.00  0.00     0.026 A 
ATOM     22  C   UNL d   1      -5.000   5.452   0.128  0.00  0.00     0.041 A 
ATOM     23  C   UNL d   1      -4.298   4.285   0.467  0.00  0.00     0.096 A 
BRANCH  23  24
ATOM     24  O   UNL d   1      -4.725   3.713   1.640  0.00  0.00    -0.354 OA
ATOM     25  C   UNL d   1      -3.736   3.075   2.442  0.00  0.00     0.210 C 
ENDBRANCH  23  24
ENDBRANCH  15  17
ENDBRANCH   1  15
TORSDOF 6
