REMARK  4 active torsions:
REMARK  status: ('A' for Active; 'I' for Inactive)
REMARK    1  A    between atoms: S_5  and  C_1 
REMARK    2  A    between atoms: C_7  and  S_5 
REMARK       I    between atoms: C_8  and  N_9 
REMARK    3  A    between atoms: C_16  and  C_8 
REMARK    4  A    between atoms: N_9  and  C_11 
ROOT
ATOM      1  C   UNL d   1       3.519   3.130   0.003  0.00  0.00     0.103 A 
ATOM      2  C   UNL d   1       3.168   3.890   1.138  0.00  0.00     0.069 A 
ATOM      3  N   UNL d   1       4.069   3.693  -1.108  0.00  0.00    -0.358 N 
ATOM      4  HN  UNL d   1       4.345   3.122  -1.907  1.00  0.00     0.166 HD
ATOM      5  C   UNL d   1       3.440   5.259   1.121  0.00  0.00     0.034 A 
ATOM      6  C   UNL d   1       4.237   5.030  -1.114  0.00  0.00     0.089 A 
ATOM      7  C   UNL d   1       3.961   5.844  -0.029  0.00  0.00     0.019 A 
ENDROOT
BRANCH   1   8
ATOM      8  S   UNL d   1       3.662   1.350   0.102  0.00  0.00    -0.045 SA
BRANCH   8   9
ATOM      9  C   UNL d   1       2.494   0.848  -1.100  0.00  0.00     0.120 A 
ATOM     10  S   UNL d   1       2.277  -0.833  -1.415  0.00  0.00    -0.045 SA
ATOM     11  C   UNL d   1       1.061  -0.446  -2.536  0.00  0.00     0.103 A 
ATOM     12  N   UNL d   1       0.378  -1.388  -3.220  0.00  0.00    -0.358 N 
ATOM     13  C   UNL d   1       0.902   0.935  -2.614  0.00  0.00     0.067 A 
ATOM     14  C   UNL d   1      -0.553  -0.869  -4.049  0.00  0.00     0.089 A 
ATOM     15  HN  UNL d   1       0.548  -2.389  -3.120  1.00  0.00     0.166 HD
ATOM     16  C   UNL d   1      -0.817   0.482  -4.225  0.00  0.00     0.019 A 
ATOM     17  C   UNL d   1      -0.077   1.415  -3.498  0.00  0.00     0.034 A 
ATOM     18  N   UNL d   1       1.738   1.669  -1.795  0.00  0.00    -0.343 N 
ATOM     19  HN  UNL d   1       1.764   2.687  -1.739  1.00  0.00     0.167 HD
ENDBRANCH   8   9
ENDBRANCH   1   8
BRANCH   2  20
ATOM     20  N   UNL d   1       2.599   3.344   2.320  0.00  0.00    -0.320 N 
ATOM     21  C   UNL d   1       1.387   2.669   2.259  0.00  0.00     0.256 C 
ATOM     22  O   UNL d   1       0.695   2.558   1.258  0.00  0.00    -0.267 OA
ATOM     23  H   UNL d   1       2.767   3.841   3.185  0.00  0.00     0.169 HD
BRANCH  21  24
ATOM     24  C   UNL d   1       0.881   2.110   3.543  0.00  0.00     0.032 A 
ATOM     25  C   UNL d   1      -0.506   2.025   3.738  0.00  0.00     0.020 A 
ATOM     26  C   UNL d   1      -1.018   1.393   4.872  0.00  0.00     0.043 A 
ATOM     27  C   UNL d   1      -0.141   0.842   5.801  0.00  0.00     0.116 A 
ATOM     28  C   UNL d   1       1.238   0.935   5.628  0.00  0.00     0.043 A 
ATOM     29  F   UNL d   1      -0.630   0.198   6.868  0.00  0.00    -0.206 F 
ATOM     30  C   UNL d   1       1.755   1.574   4.498  0.00  0.00     0.020 A 
ENDBRANCH  21  24
ENDBRANCH   2  20
TORSDOF 4
