REMARK  6 active torsions:
REMARK  status: ('A' for Active; 'I' for Inactive)
REMARK    1  A    between atoms: C_5  and  C_1 
REMARK    2  A    between atoms: N_2  and  C_9 
REMARK    3  A    between atoms: N_7  and  C_3 
REMARK       I    between atoms: N_10  and  C_5 
REMARK       I    between atoms: C_6  and  N_7 
REMARK    4  A    between atoms: C_9  and  C_6 
REMARK    5  A    between atoms: C_22  and  N_10 
REMARK    6  A    between atoms: C_12  and  C_22 
ROOT
ATOM      1  C   UNL d   1       2.724   2.483  -1.373  0.00  0.00     0.060 C 
ATOM      2  C   UNL d   1       2.291   1.328  -0.678  0.00  0.00     0.050 C 
ATOM      3  C   UNL d   1       1.829   3.162  -2.211  0.00  0.00     0.043 C 
ATOM      4  C   UNL d   1       1.032   0.787  -0.980  0.00  0.00     0.032 C 
ATOM      5  C   UNL d   1       0.538   2.669  -2.394  0.00  0.00     0.035 C 
ATOM      6  C   UNL d   1       0.151   1.462  -1.822  0.00  0.00     0.026 C 
ATOM      7 CL   UNL d   1      -0.573   3.529  -3.387  0.00  0.00    -0.084 Cl
ENDROOT
BRANCH   2   8
ATOM      8  N   UNL d   1       3.031   0.609   0.281  0.00  0.00    -0.325 N 
ATOM      9  C   UNL d   1       3.894   1.018   1.267  0.00  0.00     0.235 C 
ATOM     10  O   UNL d   1       4.498   0.135   1.891  0.00  0.00    -0.272 OA
ATOM     11  H   UNL d   1       2.875  -0.393   0.328  0.00  0.00     0.169 HD
BRANCH   9  12
ATOM     12  C   UNL d   1       4.017   2.495   1.675  0.00  0.00     0.198 C 
BRANCH  12  13
ATOM     13  N   UNL d   1       3.274   2.866   2.916  0.00  0.00    -0.274 NA
ATOM     14  C   UNL d   1       3.407   4.253   3.192  0.00  0.00     0.017 A 
ATOM     15  C   UNL d   1       4.088   4.733   4.327  0.00  0.00    -0.036 A 
ATOM     16  C   UNL d   1       2.836   5.191   2.317  0.00  0.00     0.025 A 
ATOM     17  C   UNL d   1       4.186   6.118   4.558  0.00  0.00     0.015 A 
ATOM     18  C   UNL d   1       4.682   3.794   5.344  0.00  0.00     0.041 C 
ATOM     19  C   UNL d   1       3.626   7.042   3.668  0.00  0.00    -0.061 A 
ATOM     20  C   UNL d   1       2.941   6.566   2.550  0.00  0.00     0.008 A 
ATOM     21  C   UNL d   1       3.681   8.511   3.963  0.00  0.00     0.048 C 
ATOM     22  C   UNL d   1       4.711   2.348   4.869  0.00  0.00     0.019 C 
ATOM     23  C   UNL d   1       3.437   2.021   4.109  0.00  0.00     0.096 C 
ENDBRANCH  12  13
ENDBRANCH   9  12
ENDBRANCH   2   8
BRANCH   1  24
ATOM     24  C   UNL d   1       4.178   2.764  -1.491  0.00  0.00     0.254 C 
ATOM     25  N   UNL d   1       4.725   4.013  -1.472  0.00  0.00    -0.352 N 
ATOM     26  H   UNL d   1       5.734   3.965  -1.575  0.00  0.00     0.163 HD
ATOM     27  O   UNL d   1       4.953   1.816  -1.586  0.00  0.00    -0.268 OA
BRANCH  25  28
ATOM     28  C   UNL d   1       4.188   5.345  -1.288  0.00  0.00     0.169 C 
BRANCH  28  29
ATOM     29  C   UNL d   1       4.725   6.166  -2.419  0.00  0.00     0.000 A 
ATOM     30  S   UNL d   1       3.823   6.347  -3.865  0.00  0.00    -0.105 SA
ATOM     31  C   UNL d   1       5.098   7.187  -4.633  0.00  0.00     0.050 A 
ATOM     32  C   UNL d   1       6.173   7.373  -3.795  0.00  0.00     0.008 A 
ATOM     33  C   UNL d   1       5.953   6.796  -2.510  0.00  0.00     0.017 A 
ENDBRANCH  28  29
ENDBRANCH  25  28
ENDBRANCH   1  24
TORSDOF 6
