REMARK  2 active torsions:
REMARK  status: ('A' for Active; 'I' for Inactive)
REMARK    1  A    between atoms: O_12  and  S_1 
REMARK    2  A    between atoms: C_10  and  O_12 
ROOT
ATOM      1  C   UNL d   1       0.340   3.029  -3.576  0.00  0.00     0.088 A 
ATOM      2  C   UNL d   1       1.700   3.512  -3.770  0.00  0.00     0.085 A 
ATOM      3  C   UNL d   1       0.053   1.841  -2.874  0.00  0.00     0.072 A 
ATOM      4  O   UNL d   1       0.303   4.885  -4.705  0.00  0.00    -0.156 OA
ATOM      5  N   UNL d   1      -0.497   3.890  -4.165  0.00  0.00    -0.239 N 
ATOM      6  HN  UNL d   1      -1.514   3.828  -4.207  1.00  0.00     0.197 HD
ATOM      7  N   UNL d   1       1.647   4.652  -4.466  0.00  0.00    -0.240 N 
ATOM      8  HN  UNL d   1       2.433   5.230  -4.761  1.00  0.00     0.197 HD
ATOM      9  C   UNL d   1       1.185   1.171  -2.364  0.00  0.00     0.091 A 
ATOM     10  C   UNL d   1       2.819   2.822  -3.275  0.00  0.00     0.037 A 
ATOM     11  C   UNL d   1       2.513   1.637  -2.576  0.00  0.00     0.040 A 
ENDROOT
BRANCH   9  12
ATOM     12  O   UNL d   1       0.915   0.001  -1.678  0.00  0.00    -0.233 OA
BRANCH  12  13
ATOM     13  S   UNL d   1       1.843  -0.452  -0.409  0.00  0.00     0.266 S 
ATOM     14  O   UNL d   1       1.804   0.585   0.604  0.00  0.00    -0.199 OA
ATOM     15  O   UNL d   1       3.092  -1.000  -0.895  0.00  0.00    -0.199 OA
ATOM     16  C   UNL d   1       0.839  -1.805   0.149  0.00  0.00     0.194 C 
ENDBRANCH  12  13
ENDBRANCH   9  12
TORSDOF 2
