REMARK  5 active torsions:
REMARK  status: ('A' for Active; 'I' for Inactive)
REMARK    1  A    between atoms: N_2  and  C_1 
REMARK       I    between atoms: N_3  and  C_5 
REMARK       I    between atoms: C_4  and  N_3 
REMARK       I    between atoms: N_11  and  C_4 
REMARK    2  A    between atoms: C_5  and  C_8 
REMARK    3  A    between atoms: O_10  and  C_6 
REMARK    4  A    between atoms: C_9  and  O_10 
REMARK    5  A    between atoms: N_23  and  N_11 
ROOT
ATOM      1  C   UNL d   1       1.358  -0.312   0.798  0.00  0.00     0.137 A 
ATOM      2  C   UNL d   1       0.568  -1.441   0.562  0.00  0.00     0.109 A 
ATOM      3  C   UNL d   1       0.790   0.969   0.927  0.00  0.00     0.056 A 
ATOM      4  C   UNL d   1      -0.589   1.147   0.769  0.00  0.00     0.035 A 
ATOM      5  C   UNL d   1      -0.810  -1.243   0.388  0.00  0.00     0.041 A 
ATOM      6  C   UNL d   1      -1.387   0.035   0.481  0.00  0.00     0.020 A 
ENDROOT
BRANCH   4   7
ATOM      7  C   UNL d   1      -1.130   2.541   0.836  0.00  0.00     0.259 C 
ATOM      8  N   UNL d   1      -2.487   2.690   1.055  0.00  0.00    -0.274 N 
ATOM      9  C   UNL d   1      -3.245   3.843   0.984  0.00  0.00     0.337 C 
ATOM     10  H   UNL d   1      -3.071   1.884   1.209  0.00  0.00     0.173 HD
ATOM     11  N   UNL d   1      -2.526   5.013   0.828  0.00  0.00    -0.271 N 
ATOM     12  O   UNL d   1      -4.466   3.742   1.057  0.00  0.00    -0.246 OA
ATOM     13  H   UNL d   1      -1.508   4.928   0.801  0.00  0.00     0.185 HD
ATOM     14  O   UNL d   1      -0.353   3.487   0.726  0.00  0.00    -0.267 OA
BRANCH  11  15
ATOM     15  N   UNL d   1      -3.066   6.310   0.754  0.00  0.00    -0.236 NA
ATOM     16  C   UNL d   1      -4.193   6.576   1.645  0.00  0.00     0.135 C 
ATOM     17  C   UNL d   1      -3.342   6.733  -0.617  0.00  0.00     0.135 C 
ENDBRANCH  11  15
ENDBRANCH   4   7
BRANCH   1  18
ATOM     18  N   UNL d   1       2.800  -0.370   0.840  0.00  0.00    -0.113 N 
ATOM     19  O   UNL d   1       3.383  -0.770  -0.178  0.00  0.00    -0.532 OA
ATOM     20  O   UNL d   1       3.344   0.019   1.879  0.00  0.00    -0.532 OA
ENDBRANCH   1  18
BRANCH   2  21
ATOM     21  O   UNL d   1       0.954  -2.744   0.355  0.00  0.00    -0.308 OA
BRANCH  21  22
ATOM     22  C   UNL d   1       2.013  -3.311   1.016  0.00  0.00     0.079 A 
ATOM     23  C   UNL d   1       2.361  -3.053   2.341  0.00  0.00     0.061 A 
ATOM     24  C   UNL d   1       3.503  -3.652   2.877  0.00  0.00     0.038 A 
ATOM     25 CL   UNL d   1       3.995  -3.259   4.479  0.00  0.00    -0.084 Cl
ATOM     26  C   UNL d   1       4.260  -4.554   2.130  0.00  0.00     0.048 A 
ATOM     27  C   UNL d   1       3.856  -4.867   0.836  0.00  0.00     0.038 A 
ATOM     28  C   UNL d   1       2.738  -4.253   0.278  0.00  0.00     0.061 A 
ATOM     29 CL   UNL d   1       4.744  -6.020  -0.082  0.00  0.00    -0.084 Cl
ENDBRANCH  21  22
ENDBRANCH   2  21
TORSDOF 5
