REMARK  0 active torsions:
REMARK  status: ('A' for Active; 'I' for Inactive)
ROOT
ATOM      1  S   UNL d   1      -2.207   1.210   0.414  0.00  0.00     0.240 S 
ATOM      2  C   UNL d   1       0.321   0.597  -0.092  0.00  0.00     0.100 A 
ATOM      3  N   UNL d   1      -0.688   1.613  -0.201  0.00  0.00    -0.273 N 
ATOM      4  C   UNL d   1       0.039  -0.754   0.030  0.00  0.00     0.052 A 
ATOM      5  S   UNL d   1       1.991   0.906  -0.153  0.00  0.00    -0.075 SA
ATOM      6  C   UNL d   1      -1.342  -1.255   0.070  0.00  0.00     0.178 C 
ATOM      7  C   UNL d   1      -2.453  -0.352  -0.343  0.00  0.00     0.247 C 
ATOM      8  C   UNL d   1       1.258  -1.548   0.075  0.00  0.00    -0.033 A 
ATOM      9  C   UNL d   1       2.385  -0.741   0.003  0.00  0.00    -0.012 A 
ATOM     10  O   UNL d   1      -3.174   2.123  -0.155  0.00  0.00    -0.205 OA
ATOM     11  O   UNL d   1      -2.102   1.042   1.847  0.00  0.00    -0.205 OA
ATOM     12  O   UNL d   1      -1.599  -2.433   0.324  0.00  0.00    -0.291 OA
ATOM     13  C   UNL d   1      -0.406   3.050  -0.334  0.00  0.00     0.170 C 
ATOM     14  C   UNL d   1       1.349  -3.043   0.163  0.00  0.00     0.050 C 
ATOM     15  C   UNL d   1       3.821  -1.162   0.026  0.00  0.00     0.057 C 
ENDROOT
TORSDOF 0
