REMARK  4 active torsions:
REMARK  status: ('A' for Active; 'I' for Inactive)
REMARK    1  A    between atoms: C_2  and  C_1 
REMARK    2  A    between atoms: O_11  and  C_2 
REMARK    3  A    between atoms: O_9  and  C_5 
REMARK    4  A    between atoms: C_12  and  O_9 
ROOT
ATOM      1  C   UNL d   1       0.770   1.288  -0.073  0.00  0.00     0.053 A 
ATOM      2  N   UNL d   1      -1.299   0.043  -0.106  0.00  0.00    -0.346 N 
ATOM      3  HN  UNL d   1      -2.318   0.023  -0.142  1.00  0.00     0.167 HD
ATOM      4  C   UNL d   1      -0.571  -1.098  -0.084  0.00  0.00     0.147 A 
ATOM      5  C   UNL d   1      -0.616   1.209  -0.078  0.00  0.00     0.108 A 
ATOM      6  C   UNL d   1       1.501   0.096  -0.094  0.00  0.00     0.024 A 
ATOM      7  C   UNL d   1       0.816  -1.120  -0.110  0.00  0.00     0.057 A 
ENDROOT
BRANCH   4   8
ATOM      8  O   UNL d   1      -1.221  -2.323  -0.023  0.00  0.00    -0.294 OA
BRANCH   8   9
ATOM      9  C   UNL d   1      -2.400  -2.373   0.690  0.00  0.00     0.077 A 
ATOM     10  C   UNL d   1      -3.418  -3.175   0.171  0.00  0.00     0.037 A 
ATOM     11  C   UNL d   1      -4.638  -3.274   0.843  0.00  0.00     0.003 A 
ATOM     12  C   UNL d   1      -4.835  -2.585   2.040  0.00  0.00     0.000 A 
ATOM     13  C   UNL d   1      -3.807  -1.814   2.579  0.00  0.00     0.003 A 
ATOM     14  C   UNL d   1      -2.584  -1.722   1.914  0.00  0.00     0.037 A 
ENDBRANCH   8   9
ENDBRANCH   4   8
BRANCH   1  15
ATOM     15  C   UNL d   1       1.387   2.625   0.024  0.00  0.00     0.177 C 
ATOM     16  O   UNL d   1       0.854   3.552   0.606  0.00  0.00    -0.646 OA
BRANCH  15  17
ATOM     17  O   UNL d   1       2.573   2.731  -0.609  0.00  0.00    -0.773 OA
ATOM     18  H   UNL d   1       2.812   1.984  -1.187  0.00  0.00     0.167 HD
ENDBRANCH  15  17
ENDBRANCH   1  15
TORSDOF 4
