REMARK  4 active torsions:
REMARK  status: ('A' for Active; 'I' for Inactive)
REMARK    1  A    between atoms: C_3  and  S_1 
REMARK    2  A    between atoms: C_7  and  S_1 
REMARK    3  A    between atoms: C_2  and  C_4 
REMARK    4  A    between atoms: C_16  and  C_7 
ROOT
ATOM      1  C   UNL d   1       0.546  -1.456  -0.642  0.00  0.00     0.128 A 
ATOM      2  C   UNL d   1      -0.560  -3.801  -1.491  0.00  0.00     0.063 A 
ATOM      3  N   UNL d   1      -0.308  -2.089   0.204  0.00  0.00    -0.356 N 
ATOM      4  HN  UNL d   1      -0.536  -1.711   1.124  1.00  0.00     0.166 HD
ATOM      5  C   UNL d   1      -0.840  -3.248  -0.247  0.00  0.00     0.105 A 
ATOM      6  C   UNL d   1       0.346  -3.120  -2.320  0.00  0.00     0.020 A 
ATOM      7  C   UNL d   1       0.913  -1.922  -1.894  0.00  0.00     0.042 A 
ENDROOT
BRANCH   1   8
ATOM      8  S   UNL d   1       1.175   0.112  -0.052  0.00  0.00     0.195 S 
ATOM      9  O   UNL d   1       0.631   1.119  -0.948  0.00  0.00    -0.221 OA
ATOM     10  O   UNL d   1       2.611  -0.069   0.091  0.00  0.00    -0.221 OA
BRANCH   8  11
ATOM     11  C   UNL d   1       0.427   0.286   1.562  0.00  0.00     0.185 C 
BRANCH  11  12
ATOM     12  C   UNL d   1       0.793   1.599   2.211  0.00  0.00    -0.044 A 
ATOM     13  C   UNL d   1      -0.209   2.539   2.502  0.00  0.00     0.008 A 
ATOM     14  C   UNL d   1       0.094   3.718   3.187  0.00  0.00     0.001 A 
ATOM     15  C   UNL d   1       1.403   3.976   3.585  0.00  0.00     0.000 A 
ATOM     16  C   UNL d   1       2.410   3.058   3.295  0.00  0.00     0.001 A 
ATOM     17  C   UNL d   1       2.107   1.875   2.618  0.00  0.00     0.008 A 
ENDBRANCH  11  12
ENDBRANCH   8  11
ENDBRANCH   1   8
BRANCH   2  18
ATOM     18  C   UNL d   1      -1.229  -5.069  -1.931  0.00  0.00     0.418 C 
ATOM     19  F   UNL d   1      -2.082  -5.583  -1.001  0.00  0.00    -0.166 F 
ATOM     20  F   UNL d   1      -1.971  -4.898  -3.060  0.00  0.00    -0.166 F 
ATOM     21  F   UNL d   1      -0.341  -6.059  -2.212  0.00  0.00    -0.166 F 
ENDBRANCH   2  18
TORSDOF 4
