REMARK  6 active torsions:
REMARK  status: ('A' for Active; 'I' for Inactive)
REMARK    1  A    between atoms: C_2  and  C_1 
REMARK    2  A    between atoms: O_9  and  C_2 
REMARK    3  A    between atoms: S_4  and  C_3 
REMARK    4  A    between atoms: C_8  and  S_4 
REMARK    5  A    between atoms: C_5  and  C_8 
REMARK    6  A    between atoms: O_10  and  C_5 
ROOT
ATOM      1  C   UNL d   1       1.446  -0.218   0.064  0.00  0.00     0.054 A 
ATOM      2  C   UNL d   1       0.637  -1.369  -0.001  0.00  0.00     0.018 A 
ATOM      3  C   UNL d   1       0.839   1.055   0.076  0.00  0.00     0.020 A 
ATOM      4  C   UNL d   1      -0.760  -1.207  -0.083  0.00  0.00     0.019 A 
ATOM      5  C   UNL d   1      -0.547   1.192   0.003  0.00  0.00     0.001 A 
ATOM      6  C   UNL d   1      -1.346   0.061  -0.076  0.00  0.00     0.001 A 
ENDROOT
BRANCH   2   7
ATOM      7  S   UNL d   1       1.203  -3.073  -0.101  0.00  0.00    -0.118 SA
BRANCH   7   8
ATOM      8  C   UNL d   1       2.060  -3.307   1.502  0.00  0.00     0.189 C 
BRANCH   8   9
ATOM      9  C   UNL d   1       1.147  -3.181   2.701  0.00  0.00     0.149 C 
ATOM     10  O   UNL d   1       1.548  -2.853   3.811  0.00  0.00    -0.649 OA
BRANCH   9  11
ATOM     11  O   UNL d   1      -0.135  -3.545   2.488  0.00  0.00    -0.776 OA
ATOM     12  H   UNL d   1      -0.295  -3.796   1.555  0.00  0.00     0.167 HD
ENDBRANCH   9  11
ENDBRANCH   8   9
ENDBRANCH   7   8
ENDBRANCH   2   7
BRANCH   1  13
ATOM     13  C   UNL d   1       2.936  -0.205   0.114  0.00  0.00     0.177 C 
ATOM     14  O   UNL d   1       3.565   0.683   0.665  0.00  0.00    -0.646 OA
BRANCH  13  15
ATOM     15  O   UNL d   1       3.535  -1.213  -0.546  0.00  0.00    -0.773 OA
ATOM     16  H   UNL d   1       2.925  -1.842  -0.978  0.00  0.00     0.167 HD
ENDBRANCH  13  15
ENDBRANCH   1  13
TORSDOF 6
