REMARK  3 active torsions:
REMARK  status: ('A' for Active; 'I' for Inactive)
REMARK    1  A    between atoms: C_3  and  C_1 
REMARK    2  A    between atoms: C_7  and  C_2 
REMARK    3  A    between atoms: C_4  and  C_3 
ROOT
ATOM      1  C   UNL d   1       0.253  -3.358  -1.217  0.00  0.00     0.076 A 
ATOM      2  C   UNL d   1       1.256  -4.072  -1.978  0.00  0.00     0.085 A 
ATOM      3  N   UNL d   1       0.836  -4.273  -3.238  0.00  0.00    -0.259 N 
ATOM      4  HN  UNL d   1       1.351  -4.743  -3.983  1.00  0.00     0.195 HD
ATOM      5  O   UNL d   1      -0.416  -3.730  -3.333  0.00  0.00    -0.241 OA
ATOM      6  C   UNL d   1      -0.751  -3.157  -2.156  0.00  0.00     0.089 A 
ATOM      7  C   UNL d   1      -2.073  -2.484  -2.144  0.00  0.00     0.080 C 
ENDROOT
BRANCH   1   8
ATOM      8  C   UNL d   1       0.119  -2.877   0.173  0.00  0.00     0.198 C 
ATOM      9  O   UNL d   1      -0.747  -2.039   0.423  0.00  0.00    -0.286 OA
BRANCH   8  10
ATOM     10  C   UNL d   1       0.959  -3.389   1.324  0.00  0.00     0.028 C 
ATOM     11  C   UNL d   1       1.441  -2.494   2.333  0.00  0.00    -0.041 C 
ATOM     12  C   UNL d   1       2.384  -2.955   3.301  0.00  0.00    -0.049 C 
ATOM     13  C   UNL d   1       0.986  -1.052   2.461  0.00  0.00     0.050 C 
ATOM     14  C   UNL d   1       2.968  -2.024   4.352  0.00  0.00     0.049 C 
ATOM     15  C   UNL d   1       2.765  -4.319   3.331  0.00  0.00    -0.049 C 
ATOM     16  C   UNL d   1       2.205  -5.226   2.402  0.00  0.00    -0.049 C 
ATOM     17  C   UNL d   1       3.718  -4.789   4.415  0.00  0.00     0.049 C 
ATOM     18  C   UNL d   1       1.242  -4.776   1.450  0.00  0.00    -0.041 C 
ATOM     19  C   UNL d   1       2.638  -6.676   2.451  0.00  0.00     0.049 C 
ATOM     20  C   UNL d   1       0.447  -5.826   0.707  0.00  0.00     0.050 C 
ENDBRANCH   8  10
ENDBRANCH   1   8
BRANCH   2  21
ATOM     21  C   UNL d   1       2.571  -4.585  -1.580  0.00  0.00     0.037 A 
ATOM     22  C   UNL d   1       2.919  -5.945  -1.760  0.00  0.00     0.048 A 
ATOM     23 CL   UNL d   1       1.907  -7.102  -2.573  0.00  0.00    -0.083 Cl
ATOM     24  C   UNL d   1       4.099  -6.468  -1.213  0.00  0.00     0.025 A 
ATOM     25  C   UNL d   1       4.966  -5.652  -0.504  0.00  0.00     0.003 A 
ATOM     26  C   UNL d   1       4.681  -4.282  -0.386  0.00  0.00     0.025 A 
ATOM     27  C   UNL d   1       3.513  -3.753  -0.952  0.00  0.00     0.048 A 
ATOM     28 CL   UNL d   1       3.325  -2.032  -0.863  0.00  0.00    -0.083 Cl
ENDBRANCH   2  21
TORSDOF 3
