REMARK  5 active torsions:
REMARK  status: ('A' for Active; 'I' for Inactive)
REMARK    1  A    between atoms: S_3  and  C_1 
REMARK    2  A    between atoms: N_7  and  C_2 
REMARK    3  A    between atoms: C_13  and  S_3 
REMARK    4  A    between atoms: C_8  and  C_4 
REMARK       I    between atoms: N_15  and  C_8 
REMARK    5  A    between atoms: N_18  and  N_15 
ROOT
ATOM      1  C   UNL d   1       1.492  -0.645  -0.009  0.00  0.00     0.094 A 
ATOM      2  C   UNL d   1       1.516   0.812   0.005  0.00  0.00     0.083 A 
ATOM      3  C   UNL d   1       0.215   1.333   0.079  0.00  0.00     0.102 A 
ATOM      4  S   UNL d   1      -0.969   0.084   0.105  0.00  0.00    -0.093 SA
ATOM      5  C   UNL d   1       0.199  -1.133   0.003  0.00  0.00     0.076 A 
ENDROOT
BRANCH   3   6
ATOM      6  C   UNL d   1      -0.271   2.716   0.044  0.00  0.00     0.275 C 
ATOM      7  O   UNL d   1       0.320   3.648  -0.503  0.00  0.00    -0.266 OA
ATOM      8  N   UNL d   1      -1.478   2.938   0.717  0.00  0.00    -0.289 N 
ATOM      9  H   UNL d   1      -2.029   2.131   1.004  0.00  0.00     0.183 HD
BRANCH   8  10
ATOM     10  N   UNL d   1      -2.083   4.215   0.707  0.00  0.00    -0.247 NA
ATOM     11  H   UNL d   1      -1.391   4.877   0.329  0.00  0.00     0.143 HD
ATOM     12  H   UNL d   1      -2.236   4.513   1.673  0.00  0.00     0.143 HD
ENDBRANCH   8  10
ENDBRANCH   3   6
BRANCH   2  13
ATOM     13  N   UNL d   1       2.689   1.653  -0.026  0.00  0.00    -0.330 N 
ATOM     14  C   UNL d   1       3.868   1.429  -0.704  0.00  0.00     0.097 A 
ATOM     15  C   UNL d   1       4.743   2.472  -0.482  0.00  0.00     0.019 A 
ATOM     16  C   UNL d   1       4.083   3.391   0.351  0.00  0.00     0.019 A 
ATOM     17  C   UNL d   1       2.845   2.859   0.634  0.00  0.00     0.097 A 
ENDBRANCH   2  13
BRANCH   1  18
ATOM     18  S   UNL d   1       2.815  -1.795   0.049  0.00  0.00     0.181 S 
ATOM     19  O   UNL d   1       2.169  -3.073   0.309  0.00  0.00    -0.222 OA
ATOM     20  O   UNL d   1       3.535  -1.582  -1.185  0.00  0.00    -0.222 OA
BRANCH  18  21
ATOM     21  C   UNL d   1       3.823  -1.384   1.476  0.00  0.00     0.105 C 
ATOM     22  C   UNL d   1       3.049  -1.566   2.780  0.00  0.00     0.026 C 
ATOM     23  C   UNL d   1       5.072  -2.268   1.489  0.00  0.00     0.026 C 
ENDBRANCH  18  21
ENDBRANCH   1  18
TORSDOF 5
