REMARK  7 active torsions:
REMARK  status: ('A' for Active; 'I' for Inactive)
REMARK    1  A    between atoms: C6_9  and  C1_1 
REMARK    2  A    between atoms: C2_2  and  C3_3 
REMARK    3  A    between atoms: O2_10  and  C2_2 
REMARK    4  A    between atoms: C3_3  and  C7_13 
REMARK    5  A    between atoms: C3_3  and  N1_8 
REMARK    6  A    between atoms: S1_7  and  C6_9 
REMARK    7  A    between atoms: C7_13  and  S1_7 
ROOT
ATOM      1  S1  <1> d   1      -1.693   3.225  -0.471  0.00  0.00    -0.162 SA
ENDROOT
BRANCH   1   2
ATOM      2  C6  <1> d   1      -0.153   2.354  -0.042  0.00  0.00     0.117 C 
BRANCH   2   3
ATOM      3  C1  <1> d   1      -0.367   0.865   0.032  0.00  0.00     0.011 A 
ATOM      4  C4  <1> d   1      -0.068   0.074  -1.085  0.00  0.00     0.125 A 
ATOM      5  F1  <1> d   1       0.422   0.645  -2.195  0.00  0.00    -0.205 F 
ATOM      6  C10 <1> d   1      -0.255  -1.308  -1.084  0.00  0.00     0.043 A 
ATOM      7  C8  <1> d   1      -0.758  -1.935   0.050  0.00  0.00     0.005 A 
ATOM      8  C9  <1> d   1      -1.074  -1.172   1.174  0.00  0.00     0.024 A 
ATOM      9  C5  <1> d   1      -0.883   0.217   1.165  0.00  0.00     0.044 A 
ATOM     10 Cl1  <1> d   1      -1.301   1.082   2.603  0.00  0.00    -0.084 Cl
ENDBRANCH   2   3
ENDBRANCH   1   2
BRANCH   1  11
ATOM     11  C7  <1> d   1      -1.067   4.946  -0.472  0.00  0.00     0.120 C 
BRANCH  11  12
ATOM     12  C3  <1> d   1      -2.177   5.942  -0.859  0.00  0.00     0.323 C 
BRANCH  12  13
ATOM     13  C2  <1> d   1      -1.666   7.379  -0.676  0.00  0.00     0.174 C 
ATOM     14  O1  <1> d   1      -0.497   7.723  -0.765  0.00  0.00    -0.648 OA
BRANCH  13  15
ATOM     15  O2  <1> d   1      -2.671   8.268  -0.492  0.00  0.00    -0.775 OA
ATOM     16  H6  <1> d   1      -3.555   7.855  -0.463  0.00  0.00     0.167 HD
ENDBRANCH  13  15
ENDBRANCH  12  13
BRANCH  12  17
ATOM     17  N1  <1> d   1      -2.659   5.781  -2.249  0.00  0.00     0.093 N 
ATOM     18  H2  <1> d   1      -1.866   5.867  -2.888  0.00  0.00     0.314 HD
ATOM     19  H3  <1> d   1      -3.307   6.523  -2.505  0.00  0.00     0.314 HD
ENDBRANCH  12  17
ENDBRANCH  11  12
ENDBRANCH   1  11
TORSDOF 7
