REMARK  2 active torsions:
REMARK  status: ('A' for Active; 'I' for Inactive)
REMARK    1  A    between atoms: C_4  and  N_1 
REMARK    2  A    between atoms: N_11  and  C_10 
ROOT
ATOM      1  C   UNL d   1      -0.763  -2.453   0.015  0.00  0.00     0.056 A 
ATOM      2  C   UNL d   1      -0.278  -3.326   0.997  0.00  0.00     0.033 A 
ATOM      3  C   UNL d   1      -1.663  -2.938  -0.942  0.00  0.00     0.033 A 
ATOM      4  C   UNL d   1      -1.538  -5.167   0.031  0.00  0.00     0.005 A 
ATOM      5  C   UNL d   1      -0.685  -4.665   1.016  0.00  0.00     0.025 A 
ATOM      6  C   UNL d   1      -2.058  -4.281  -0.915  0.00  0.00     0.025 A 
ENDROOT
BRANCH   1   7
ATOM      7  N   UNL d   1      -0.351  -1.091   0.020  0.00  0.00    -0.268 N 
ATOM      8  N   UNL d   1       0.555  -0.635   0.926  0.00  0.00    -0.305 N 
ATOM      9  C   UNL d   1       0.707   0.657   0.637  0.00  0.00     0.109 A 
ATOM     10  HN  UNL d   1       1.017  -1.165   1.665  1.00  0.00     0.186 HD
ATOM     11  C   UNL d   1      -0.089   1.065  -0.440  0.00  0.00     0.038 A 
ATOM     12  C   UNL d   1      -0.760  -0.073  -0.820  0.00  0.00     0.118 A 
ENDBRANCH   1   7
BRANCH   4  13
ATOM     13  N   UNL d   1      -2.044  -6.468   0.131  0.00  0.00    -0.303 NA
ATOM     14  H   UNL d   1      -2.377  -6.847  -0.750  0.00  0.00     0.124 HD
ATOM     15  H   UNL d   1      -1.427  -7.110   0.617  0.00  0.00     0.124 HD
ENDBRANCH   4  13
TORSDOF 2
