REMARK  4 active torsions:
REMARK  status: ('A' for Active; 'I' for Inactive)
REMARK    1  A    between atoms: C_10  and  C_1 
REMARK    2  A    between atoms: C_6  and  C_2 
REMARK    3  A    between atoms: C_16  and  N_3 
REMARK    4  A    between atoms: C_15  and  C_9 
ROOT
ATOM      1  C   UNL d   1       1.013  -0.950  -0.044  0.00  0.00     0.156 A 
ATOM      2  C   UNL d   1      -0.314  -1.351  -0.064  0.00  0.00     0.068 A 
ATOM      3  N   UNL d   1       0.987   0.439  -0.032  0.00  0.00    -0.251 N 
ATOM      4  N   UNL d   1      -0.288   0.905   0.091  0.00  0.00    -0.303 N 
ATOM      5  HN  UNL d   1      -0.583   1.872   0.227  1.00  0.00     0.186 HD
ATOM      6  C   UNL d   1      -1.063  -0.171  -0.004  0.00  0.00     0.126 A 
ENDROOT
BRANCH   2   7
ATOM      7  C   UNL d   1      -0.877  -2.725  -0.066  0.00  0.00     0.186 A 
ATOM      8  N   UNL d   1      -0.162  -3.825  -0.026  0.00  0.00    -0.318 N 
ATOM      9  C   UNL d   1      -1.106  -4.822   0.046  0.00  0.00     0.138 A 
ATOM     10  HN  UNL d   1       0.854  -3.917  -0.045  1.00  0.00     0.169 HD
ATOM     11  N   UNL d   1      -2.369  -4.371  -0.005  0.00  0.00    -0.242 N 
ATOM     12  O   UNL d   1      -2.222  -2.988  -0.074  0.00  0.00    -0.217 OA
ATOM     13  HN  UNL d   1      -3.233  -4.914   0.004  1.00  0.00     0.196 HD
BRANCH   9  14
ATOM     14  C   UNL d   1      -0.739  -6.229   0.183  0.00  0.00     0.010 A 
ATOM     15  C   UNL d   1       0.602  -6.596   0.381  0.00  0.00     0.017 A 
ATOM     16  C   UNL d   1       0.963  -7.942   0.508  0.00  0.00     0.025 A 
ATOM     17  C   UNL d   1      -0.016  -8.930   0.440  0.00  0.00     0.034 A 
ATOM     18  C   UNL d   1      -1.352  -8.585   0.254  0.00  0.00     0.025 A 
ATOM     19 CL   UNL d   1       0.427 -10.586   0.584  0.00  0.00    -0.084 Cl
ATOM     20  C   UNL d   1      -1.712  -7.239   0.129  0.00  0.00     0.017 A 
ENDBRANCH   9  14
ENDBRANCH   2   7
BRANCH   1  21
ATOM     21  C   UNL d   1       2.267  -1.711   0.066  0.00  0.00     0.435 C 
ATOM     22  F   UNL d   1       2.107  -2.997   0.458  0.00  0.00    -0.165 F 
ATOM     23  F   UNL d   1       2.933  -1.763  -1.114  0.00  0.00    -0.165 F 
ATOM     24  F   UNL d   1       3.110  -1.165   0.980  0.00  0.00    -0.165 F 
ENDBRANCH   1  21
BRANCH   3  25
ATOM     25  C   UNL d   1       2.048   1.392  -0.094  0.00  0.00     0.057 A 
ATOM     26  C   UNL d   1       3.219   1.163  -0.818  0.00  0.00     0.031 A 
ATOM     27  C   UNL d   1       4.252   2.105  -0.813  0.00  0.00     0.002 A 
ATOM     28  C   UNL d   1       4.117   3.288  -0.094  0.00  0.00     0.000 A 
ATOM     29  C   UNL d   1       2.933   3.548   0.595  0.00  0.00     0.002 A 
ATOM     30  C   UNL d   1       1.892   2.615   0.583  0.00  0.00     0.031 A 
ENDBRANCH   3  25
TORSDOF 4
