REMARK  5 active torsions:
REMARK  status: ('A' for Active; 'I' for Inactive)
REMARK    1  A    between atoms: C_10  and  C_1 
REMARK    2  A    between atoms: C_7  and  C_3 
REMARK    3  A    between atoms: N_13  and  C_6 
REMARK    4  A    between atoms: O_20  and  C_10 
REMARK    5  A    between atoms: C_23  and  O_20 
ROOT
ATOM      1  C   UNL d   1       2.593   0.660   0.187  0.00  0.00     0.072 A 
ATOM      2  C   UNL d   1       0.148   0.818   0.124  0.00  0.00     0.030 A 
ATOM      3  C   UNL d   1       2.491  -0.720   0.092  0.00  0.00     0.133 A 
ATOM      4  N   UNL d   1       1.265  -1.324  -0.022  0.00  0.00    -0.351 N 
ATOM      5  HN  UNL d   1       1.204  -2.339  -0.106  1.00  0.00     0.166 HD
ATOM      6  C   UNL d   1      -1.101   1.503   0.133  0.00  0.00     0.094 A 
ATOM      7  C   UNL d   1       1.419   1.417   0.267  0.00  0.00     0.037 A 
ATOM      8  C   UNL d   1       0.142  -0.581  -0.025  0.00  0.00     0.047 A 
ATOM      9  N   UNL d   1      -2.264   0.827  -0.007  0.00  0.00    -0.356 N 
ATOM     10  HN  UNL d   1      -3.155   1.321  -0.003  1.00  0.00     0.166 HD
ATOM     11  C   UNL d   1      -1.056  -1.240  -0.163  0.00  0.00     0.047 A 
ATOM     12  C   UNL d   1      -2.223  -0.510  -0.153  0.00  0.00     0.091 A 
ENDROOT
BRANCH   1  13
ATOM     13  C   UNL d   1       3.863   1.403   0.117  0.00  0.00     0.295 C 
ATOM     14  O   UNL d   1       4.125   2.355   0.829  0.00  0.00    -0.259 OA
BRANCH  13  15
ATOM     15  O   UNL d   1       4.526   0.971  -0.976  0.00  0.00    -0.318 OA
BRANCH  15  16
ATOM     16  C   UNL d   1       5.642   1.768  -1.406  0.00  0.00     0.174 C 
ATOM     17  C   UNL d   1       5.285   2.373  -2.750  0.00  0.00     0.034 C 
ENDBRANCH  15  16
ENDBRANCH  13  15
ENDBRANCH   1  13
BRANCH   3  18
ATOM     18  C   UNL d   1       3.710  -1.626   0.138  0.00  0.00     0.433 C 
ATOM     19  F   UNL d   1       4.842  -1.040   0.624  0.00  0.00    -0.165 F 
ATOM     20  F   UNL d   1       3.518  -2.713   0.945  0.00  0.00    -0.165 F 
ATOM     21  F   UNL d   1       4.044  -2.131  -1.084  0.00  0.00    -0.165 F 
ENDBRANCH   3  18
BRANCH   6  22
ATOM     22  N   UNL d   1      -1.167   2.892   0.371  0.00  0.00    -0.277 NA
ATOM     23  C   UNL d   1      -2.495   3.338   0.810  0.00  0.00     0.118 C 
ATOM     24  C   UNL d   1      -0.600   3.739  -0.681  0.00  0.00     0.118 C 
ENDBRANCH   6  22
TORSDOF 5
