REMARK  3 active torsions:
REMARK  status: ('A' for Active; 'I' for Inactive)
REMARK    1  A    between atoms: C_13  and  C_8 
REMARK    2  A    between atoms: O_18  and  C_9 
REMARK    3  A    between atoms: C_12  and  C_11 
ROOT
ATOM      1  C   UNL d   1       0.161  -0.812   0.013  0.00  0.00     0.149 A 
ATOM      2  N   UNL d   1       0.215   0.584   0.009  0.00  0.00    -0.216 N 
ATOM      3  C   UNL d   1       1.467  -1.234   0.013  0.00  0.00     0.081 A 
ATOM      4  N   UNL d   1       1.505   1.026   0.011  0.00  0.00    -0.292 N 
ATOM      5  HN  UNL d   1       1.820   1.996   0.011  1.00  0.00     0.187 HD
ATOM      6  N   UNL d   1      -1.016  -1.508   0.013  0.00  0.00    -0.336 N 
ATOM      7  HN  UNL d   1      -1.030  -2.528   0.017  1.00  0.00     0.167 HD
ATOM      8  C   UNL d   1       2.278  -0.074   0.012  0.00  0.00     0.055 A 
ATOM      9  C   UNL d   1      -0.981   1.344   0.004  0.00  0.00     0.167 A 
ATOM     10  C   UNL d   1      -2.158   0.688   0.002  0.00  0.00     0.092 A 
ATOM     11  C   UNL d   1      -2.121  -0.813   0.009  0.00  0.00     0.122 A 
ATOM     12 BR   UNL d   1       2.003  -3.033   0.010  0.00  0.00    -0.045 Br
ENDROOT
BRANCH   8  13
ATOM     13  C   UNL d   1       3.804   0.062   0.005  0.00  0.00    -0.006 C 
ATOM     14  C   UNL d   1       4.405  -0.572  -1.267  0.00  0.00     0.021 C 
ATOM     15  C   UNL d   1       4.255   1.544   0.023  0.00  0.00     0.021 C 
ATOM     16  C   UNL d   1       4.426  -0.603   1.251  0.00  0.00     0.021 C 
ENDBRANCH   8  13
BRANCH   9  17
ATOM     17  O   UNL d   1      -0.851   2.724  -0.000  0.00  0.00    -0.339 OA
ATOM     18  C   UNL d   1      -2.038   3.510  -0.005  0.00  0.00     0.211 C 
ENDBRANCH   9  17
BRANCH  11  19
ATOM     19  C   UNL d   1      -3.470  -1.538   0.011  0.00  0.00     0.432 C 
ATOM     20  F   UNL d   1      -4.528  -0.676   0.005  0.00  0.00    -0.165 F 
ATOM     21  F   UNL d   1      -3.630  -2.337  -1.077  0.00  0.00    -0.165 F 
ATOM     22  F   UNL d   1      -3.632  -2.325   1.108  0.00  0.00    -0.165 F 
ENDBRANCH  11  19
TORSDOF 3
