REMARK  4 active torsions:
REMARK  status: ('A' for Active; 'I' for Inactive)
REMARK       I    between atoms: N_2  and  C_1 
REMARK    1  A    between atoms: S_3  and  C_1 
REMARK    2  A    between atoms: C_6  and  N_2 
REMARK    3  A    between atoms: C_5  and  S_3 
REMARK    4  A    between atoms: C_7  and  C_5 
ROOT
ATOM      1  C   UNL d   1       0.973  -0.077   0.063  0.00  0.00     0.280 C 
ATOM      2  N   UNL d   1       0.305   0.761  -0.789  0.00  0.00    -0.347 N 
ATOM      3  O   UNL d   1       2.187  -0.182   0.157  0.00  0.00    -0.260 OA
ATOM      4  H   UNL d   1      -0.695   0.837  -0.642  0.00  0.00     0.163 HD
ENDROOT
BRANCH   1   5
ATOM      5  S   UNL d   1      -0.145  -0.990   1.046  0.00  0.00    -0.065 SA
BRANCH   5   6
ATOM      6  C   UNL d   1       1.001  -1.510   2.361  0.00  0.00     0.122 C 
BRANCH   6   7
ATOM      7  C   UNL d   1       0.343  -2.421   3.373  0.00  0.00    -0.048 A 
ATOM      8  C   UNL d   1       0.423  -3.816   3.236  0.00  0.00     0.008 A 
ATOM      9  C   UNL d   1      -0.163  -4.659   4.184  0.00  0.00     0.001 A 
ATOM     10  C   UNL d   1      -0.841  -4.120   5.276  0.00  0.00     0.000 A 
ATOM     11  C   UNL d   1      -0.937  -2.738   5.418  0.00  0.00     0.001 A 
ATOM     12  C   UNL d   1      -0.351  -1.893   4.472  0.00  0.00     0.008 A 
ENDBRANCH   6   7
ENDBRANCH   5   6
ENDBRANCH   1   5
BRANCH   2  13
ATOM     13  C   UNL d   1       1.010   1.738  -1.610  0.00  0.00     0.085 C 
ATOM     14  C   UNL d   1       1.281   3.030  -0.827  0.00  0.00     0.025 C 
ATOM     15  C   UNL d   1       0.030   3.892  -0.662  0.00  0.00     0.002 C 
ATOM     16  C   UNL d   1      -0.605   4.209  -2.010  0.00  0.00     0.000 C 
ATOM     17  C   UNL d   1      -0.940   2.934  -2.779  0.00  0.00     0.002 C 
ATOM     18  C   UNL d   1       0.277   2.021  -2.929  0.00  0.00     0.025 C 
ENDBRANCH   2  13
TORSDOF 4
