REMARK  3 active torsions:
REMARK  status: ('A' for Active; 'I' for Inactive)
REMARK    1  A    between atoms: C_5  and  C_1 
REMARK    2  A    between atoms: C_9  and  N_4 
REMARK    3  A    between atoms: C_11  and  C_5 
ROOT
ATOM      1  C   UNL d   1       1.168   0.620  -0.144  0.00  0.00     0.150 C 
ATOM      2  N   UNL d   1       1.134  -0.685  -0.170  0.00  0.00    -0.287 N 
ATOM      3  HN  UNL d   1       1.986  -1.225  -0.318  1.00  0.00     0.188 HD
ATOM      4  N   UNL d   1      -0.071  -1.314   0.007  0.00  0.00    -0.267 N 
ATOM      5  C   UNL d   1      -0.084   1.441   0.055  0.00  0.00     0.205 C 
ATOM      6  C   UNL d   1      -1.362   0.719   0.018  0.00  0.00     0.076 C 
ATOM      7  C   UNL d   1      -1.259  -0.613   0.013  0.00  0.00     0.120 C 
ATOM      8  O   UNL d   1      -0.033   2.640   0.275  0.00  0.00    -0.286 OA
ENDROOT
BRANCH   1   9
ATOM      9  C   UNL d   1       2.522   1.250  -0.341  0.00  0.00     0.214 C 
ATOM     10  O   UNL d   1       2.638   2.130  -1.184  0.00  0.00    -0.285 OA
BRANCH   9  11
ATOM     11  C   UNL d   1       3.697   0.717   0.398  0.00  0.00     0.017 A 
ATOM     12  C   UNL d   1       4.970   0.915  -0.153  0.00  0.00     0.015 A 
ATOM     13  C   UNL d   1       6.094   0.355   0.457  0.00  0.00     0.001 A 
ATOM     14  C   UNL d   1       5.954  -0.392   1.625  0.00  0.00     0.000 A 
ATOM     15  C   UNL d   1       4.693  -0.567   2.195  0.00  0.00     0.001 A 
ATOM     16  C   UNL d   1       3.565  -0.011   1.588  0.00  0.00     0.015 A 
ENDBRANCH   9  11
ENDBRANCH   1   9
BRANCH   4  17
ATOM     17  C   UNL d   1       0.018  -2.735   0.168  0.00  0.00     0.056 A 
ATOM     18  C   UNL d   1      -0.977  -3.477   0.831  0.00  0.00     0.033 A 
ATOM     19  C   UNL d   1      -0.866  -4.864   0.991  0.00  0.00     0.026 A 
ATOM     20  C   UNL d   1       0.245  -5.534   0.489  0.00  0.00     0.034 A 
ATOM     21  C   UNL d   1       1.252  -4.829  -0.159  0.00  0.00     0.026 A 
ATOM     22 CL   UNL d   1       0.377  -7.238   0.681  0.00  0.00    -0.084 Cl
ATOM     23  C   UNL d   1       1.139  -3.443  -0.312  0.00  0.00     0.033 A 
ENDBRANCH   4  17
TORSDOF 3
