REMARK  4 active torsions:
REMARK  status: ('A' for Active; 'I' for Inactive)
REMARK    1  A    between atoms: C_20  and  C_1 
REMARK    2  A    between atoms: C_19  and  C_2 
REMARK    3  A    between atoms: C_21  and  C_5 
REMARK    4  A    between atoms: C_22  and  C_6 
ROOT
ATOM      1  C   UNL d   1       2.393   2.530   0.025  0.00  0.00     0.029 A 
ATOM      2  C   UNL d   1      -2.576   2.354  -0.015  0.00  0.00     0.029 A 
ATOM      3  C   UNL d   1       2.789   1.236  -0.011  0.00  0.00     0.046 A 
ATOM      4  C   UNL d   1      -2.875   1.034  -0.016  0.00  0.00     0.046 A 
ATOM      5  C   UNL d   1       2.532  -2.383  -0.007  0.00  0.00     0.029 A 
ATOM      6  C   UNL d   1      -2.350  -2.557   0.040  0.00  0.00     0.029 A 
ATOM      7  C   UNL d   1       1.022   2.970   0.023  0.00  0.00     0.046 A 
ATOM      8  C   UNL d   1      -1.242   2.890   0.035  0.00  0.00     0.046 A 
ATOM      9  C   UNL d   1      -1.044  -2.885   0.082  0.00  0.00     0.046 A 
ATOM     10  C   UNL d   1       1.253  -2.803   0.067  0.00  0.00     0.046 A 
ATOM     11  N   UNL d   1       2.002   0.095  -0.025  0.00  0.00    -0.355 N 
ATOM     12  HN  UNL d   1       0.983   0.050  -0.024  1.00  0.00     0.166 HD
ATOM     13  N   UNL d   1      -2.006  -0.046   0.023  0.00  0.00    -0.355 N 
ATOM     14  HN  UNL d   1      -0.986  -0.014   0.044  1.00  0.00     0.166 HD
ATOM     15  C   UNL d   1       2.836  -0.914  -0.039  0.00  0.00     0.046 A 
ATOM     16  C   UNL d   1      -2.762  -1.114   0.026  0.00  0.00     0.046 A 
ATOM     17  N   UNL d   1       0.078  -2.091   0.101  0.00  0.00    -0.355 N 
ATOM     18  N   UNL d   1      -0.082   2.135   0.011  0.00  0.00    -0.355 N 
ATOM     19  C   UNL d   1      -4.219   0.498  -0.048  0.00  0.00     0.033 A 
ATOM     20  C   UNL d   1       4.170   0.800  -0.034  0.00  0.00     0.033 A 
ATOM     21  C   UNL d   1      -0.855   4.219   0.095  0.00  0.00     0.033 A 
ATOM     22  C   UNL d   1      -0.516  -4.247   0.105  0.00  0.00     0.033 A 
ATOM     23  C   UNL d   1       0.826  -4.198   0.109  0.00  0.00     0.033 A 
ATOM     24  C   UNL d   1       0.542   4.269   0.040  0.00  0.00     0.033 A 
ATOM     25  C   UNL d   1       4.255  -0.525  -0.072  0.00  0.00     0.033 A 
ATOM     26  C   UNL d   1      -4.206  -0.829  -0.002  0.00  0.00     0.033 A 
ATOM     27  H   UNL d   1       0.042  -1.078   0.029  0.00  0.00     0.166 HD
ATOM     28  H   UNL d   1      -0.047   1.120  -0.014  0.00  0.00     0.166 HD
ENDROOT
BRANCH   1  29
ATOM     29  C   UNL d   1       3.457   3.588   0.095  0.00  0.00     0.000 A 
ATOM     30  C   UNL d   1       3.936   4.096   1.317  0.00  0.00     0.045 A 
ATOM     31 CL   UNL d   1       3.438   3.446   2.840  0.00  0.00    -0.083 Cl
ATOM     32  C   UNL d   1       4.836   5.166   1.334  0.00  0.00     0.024 A 
ATOM     33  C   UNL d   1       5.280   5.730   0.137  0.00  0.00     0.002 A 
ATOM     34  C   UNL d   1       4.827   5.225  -1.079  0.00  0.00     0.001 A 
ATOM     35  C   UNL d   1       3.916   4.166  -1.103  0.00  0.00     0.014 A 
ENDBRANCH   1  29
BRANCH   5  36
ATOM     36  C   UNL d   1       3.631  -3.382  -0.047  0.00  0.00     0.000 A 
ATOM     37  C   UNL d   1       4.105  -3.943  -1.246  0.00  0.00     0.045 A 
ATOM     38 CL   UNL d   1       3.485  -3.462  -2.786  0.00  0.00    -0.083 Cl
ATOM     39  C   UNL d   1       5.112  -4.913  -1.227  0.00  0.00     0.024 A 
ATOM     40  C   UNL d   1       5.671  -5.322  -0.012  0.00  0.00     0.002 A 
ATOM     41  C   UNL d   1       5.220  -4.763   1.179  0.00  0.00     0.001 A 
ATOM     42  C   UNL d   1       4.204  -3.804   1.166  0.00  0.00     0.014 A 
ENDBRANCH   5  36
BRANCH   2  43
ATOM     43  C   UNL d   1      -3.715   3.333  -0.076  0.00  0.00     0.000 A 
ATOM     44  C   UNL d   1      -4.218   3.834  -1.290  0.00  0.00     0.045 A 
ATOM     45 CL   UNL d   1      -3.657   3.264  -2.822  0.00  0.00    -0.083 Cl
ATOM     46  C   UNL d   1      -5.201   4.830  -1.289  0.00  0.00     0.024 A 
ATOM     47  C   UNL d   1      -5.700   5.326  -0.085  0.00  0.00     0.002 A 
ATOM     48  C   UNL d   1      -5.221   4.826   1.124  0.00  0.00     0.001 A 
ATOM     49  C   UNL d   1      -4.231   3.840   1.131  0.00  0.00     0.014 A 
ENDBRANCH   2  43
BRANCH   6  50
ATOM     50  C   UNL d   1      -3.377  -3.629  -0.023  0.00  0.00     0.000 A 
ATOM     51  C   UNL d   1      -3.947  -4.209   1.124  0.00  0.00     0.045 A 
ATOM     52 CL   UNL d   1      -3.520  -3.690   2.716  0.00  0.00    -0.083 Cl
ATOM     53  C   UNL d   1      -4.900  -5.226   1.005  0.00  0.00     0.024 A 
ATOM     54  C   UNL d   1      -5.306  -5.665  -0.256  0.00  0.00     0.002 A 
ATOM     55  C   UNL d   1      -4.757  -5.092  -1.401  0.00  0.00     0.001 A 
ATOM     56  C   UNL d   1      -3.794  -4.085  -1.287  0.00  0.00     0.014 A 
ENDBRANCH   6  50
TORSDOF 4
