REMARK  4 active torsions:
REMARK  status: ('A' for Active; 'I' for Inactive)
REMARK    1  A    between atoms: C_11  and  C_3 
REMARK    2  A    between atoms: O_9  and  C_4 
REMARK       I    between atoms: C_8  and  N_10 
REMARK    3  A    between atoms: C_14  and  O_9 
REMARK    4  A    between atoms: N_10  and  C_13 
ROOT
ATOM      1  N   UNL d   1      -1.134  -4.350  -0.773  0.00  0.00    -0.315 N 
ATOM      2  HN  UNL d   1      -0.635  -5.104  -0.301  1.00  0.00     0.170 HD
ATOM      3  C   UNL d   1      -2.319  -4.492  -1.497  0.00  0.00     0.124 A 
ATOM      4  C   UNL d   1      -0.767  -3.089  -0.797  0.00  0.00     0.210 A 
ATOM      5  N   UNL d   1      -2.855  -3.397  -2.057  0.00  0.00    -0.308 N 
ATOM      6  HN  UNL d   1      -3.700  -3.359  -2.628  1.00  0.00     0.176 HD
ATOM      7  S   UNL d   1      -1.877  -2.107  -1.645  0.00  0.00     0.032 SA
ENDROOT
BRANCH   4   8
ATOM      8  O   UNL d   1       0.340  -2.609  -0.230  0.00  0.00    -0.287 OA
BRANCH   8   9
ATOM      9  C   UNL d   1       1.445  -3.412  -0.068  0.00  0.00     0.078 A 
ATOM     10  C   UNL d   1       1.824  -4.380  -0.999  0.00  0.00     0.039 A 
ATOM     11  C   UNL d   1       2.985  -5.130  -0.798  0.00  0.00     0.032 A 
ATOM     12  C   UNL d   1       3.796  -4.904   0.319  0.00  0.00     0.034 A 
ATOM     13  C   UNL d   1       3.419  -3.923   1.240  0.00  0.00     0.032 A 
ATOM     14  C   UNL d   1       2.250  -3.176   1.044  0.00  0.00     0.039 A 
BRANCH  12  15
ATOM     15  N   UNL d   1       4.964  -5.688   0.425  0.00  0.00    -0.328 N 
ATOM     16  C   UNL d   1       5.931  -5.626   1.406  0.00  0.00     0.218 C 
ATOM     17  O   UNL d   1       5.939  -4.887   2.386  0.00  0.00    -0.274 OA
ATOM     18  C   UNL d   1       7.070  -6.590   1.174  0.00  0.00     0.117 C 
ATOM     19  H   UNL d   1       5.108  -6.358  -0.319  0.00  0.00     0.169 HD
ENDBRANCH  12  15
ENDBRANCH   8   9
ENDBRANCH   4   8
BRANCH   3  20
ATOM     20  C   UNL d   1      -2.935  -5.818  -1.613  0.00  0.00     0.009 A 
ATOM     21  C   UNL d   1      -2.357  -6.923  -0.967  0.00  0.00     0.015 A 
ATOM     22  C   UNL d   1      -2.953  -8.186  -1.039  0.00  0.00     0.001 A 
ATOM     23  C   UNL d   1      -4.129  -8.359  -1.763  0.00  0.00     0.000 A 
ATOM     24  C   UNL d   1      -4.707  -7.275  -2.422  0.00  0.00     0.001 A 
ATOM     25  C   UNL d   1      -4.113  -6.012  -2.349  0.00  0.00     0.015 A 
ENDBRANCH   3  20
TORSDOF 4
