REMARK  5 active torsions:
REMARK  status: ('A' for Active; 'I' for Inactive)
REMARK    1  A    between atoms: C_6  and  C_1 
REMARK    2  A    between atoms: C_9  and  N_2 
REMARK    3  A    between atoms: C_12  and  C_3 
REMARK       I    between atoms: N_8  and  C_6 
REMARK    4  A    between atoms: C_11  and  N_8 
REMARK    5  A    between atoms: C_21  and  C_12 
ROOT
ATOM      1  C   UNL d   1      -0.172   1.119   0.037  0.00  0.00     0.073 C 
ATOM      2  N   UNL d   1       0.844  -0.874   0.122  0.00  0.00    -0.260 N 
ATOM      3  C   UNL d   1       1.096   0.516   0.053  0.00  0.00     0.051 C 
ATOM      4  N   UNL d   1      -0.472  -1.127   0.313  0.00  0.00    -0.304 N 
ATOM      5  HN  UNL d   1      -0.906  -2.023   0.537  1.00  0.00     0.186 HD
ATOM      6  C   UNL d   1      -1.071   0.037   0.147  0.00  0.00     0.126 C 
ENDROOT
BRANCH   1   7
ATOM      7  C   UNL d   1      -0.696   2.491  -0.015  0.00  0.00     0.259 C 
ATOM      8  N   UNL d   1       0.188   3.529   0.177  0.00  0.00    -0.323 N 
ATOM      9  H   UNL d   1       1.159   3.293   0.285  0.00  0.00     0.169 HD
ATOM     10  O   UNL d   1      -1.899   2.646  -0.219  0.00  0.00    -0.267 OA
BRANCH   8  11
ATOM     11  C   UNL d   1      -0.118   4.912   0.158  0.00  0.00     0.035 A 
ATOM     12  C   UNL d   1      -1.421   5.426   0.140  0.00  0.00     0.032 A 
ATOM     13  C   UNL d   1      -1.645   6.806   0.081  0.00  0.00     0.044 A 
ATOM     14  C   UNL d   1      -0.567   7.675   0.043  0.00  0.00     0.116 A 
ATOM     15  C   UNL d   1       0.734   7.191   0.084  0.00  0.00     0.044 A 
ATOM     16  F   UNL d   1      -0.781   8.995  -0.033  0.00  0.00    -0.206 F 
ATOM     17  C   UNL d   1       0.958   5.812   0.153  0.00  0.00     0.032 A 
ENDBRANCH   8  11
ENDBRANCH   1   7
BRANCH   3  18
ATOM     18  C   UNL d   1       2.478   1.099   0.196  0.00  0.00     0.060 C 
BRANCH  18  19
ATOM     19  C   UNL d   1       3.209   1.534  -1.080  0.00  0.00     0.002 C 
ATOM     20  C   UNL d   1       2.498   2.526  -1.980  0.00  0.00     0.005 C 
ENDBRANCH  18  19
ENDBRANCH   3  18
BRANCH   2  21
ATOM     21  C   UNL d   1       1.691  -2.018   0.002  0.00  0.00     0.056 A 
ATOM     22  C   UNL d   1       1.298  -3.212   0.638  0.00  0.00     0.031 A 
ATOM     23  C   UNL d   1       2.009  -4.397   0.439  0.00  0.00     0.002 A 
ATOM     24  C   UNL d   1       3.110  -4.410  -0.410  0.00  0.00     0.000 A 
ATOM     25  C   UNL d   1       3.508  -3.234  -1.044  0.00  0.00     0.002 A 
ATOM     26  C   UNL d   1       2.805  -2.042  -0.835  0.00  0.00     0.031 A 
ENDBRANCH   2  21
TORSDOF 5
