REMARK  12 active torsions:
REMARK  status: ('A' for Active; 'I' for Inactive)
REMARK    1  A    between atoms: C_1  and  O_5 
REMARK    2  A    between atoms: C_1  and  C_3 
REMARK    3  A    between atoms: C_1  and  C_2 
REMARK    4  A    between atoms: C_2  and  O_8 
REMARK    5  A    between atoms: C_2  and  C_4 
REMARK    6  A    between atoms: S_6  and  C_3 
REMARK    7  A    between atoms: S_7  and  C_3 
REMARK    8  A    between atoms: C_4  and  O_9 
REMARK    9  A    between atoms: C_11  and  C_4 
REMARK   10  A    between atoms: C_12  and  S_6 
REMARK   11  A    between atoms: C_13  and  S_7 
REMARK   12  A    between atoms: O_10  and  C_11 
ROOT
ATOM      1  C   UNL d   1       1.053  -0.052  -0.132  0.00  0.00     0.173 C 
ENDROOT
BRANCH   1   2
ATOM      2  O   UNL d   1       0.856   1.331  -0.508  0.00  0.00    -0.391 OA
ATOM      3  H   UNL d   1       1.413   1.514  -1.287  0.00  0.00     0.210 HD
ENDBRANCH   1   2
BRANCH   1   4
ATOM      4  C   UNL d   1       0.545  -0.989  -1.280  0.00  0.00     0.139 C 
BRANCH   4   5
ATOM      5  S   UNL d   1      -1.315  -0.967  -1.462  0.00  0.00    -0.151 SA
BRANCH   5   6
ATOM      6  C   UNL d   1      -1.657   0.797  -1.732  0.00  0.00     0.070 C 
ATOM      7  C   UNL d   1      -3.088   0.967  -2.218  0.00  0.00     0.016 C 
ENDBRANCH   5   6
ENDBRANCH   4   5
BRANCH   4   8
ATOM      8  S   UNL d   1       0.987  -2.766  -1.038  0.00  0.00    -0.151 SA
BRANCH   8   9
ATOM      9  C   UNL d   1       0.748  -3.406  -2.723  0.00  0.00     0.070 C 
ATOM     10  C   UNL d   1       1.218  -4.851  -2.778  0.00  0.00     0.016 C 
ENDBRANCH   8   9
ENDBRANCH   4   8
ENDBRANCH   1   4
BRANCH   1  11
ATOM     11  C   UNL d   1       2.547  -0.181   0.274  0.00  0.00     0.179 C 
BRANCH  11  12
ATOM     12  O   UNL d   1       2.900  -1.452   0.827  0.00  0.00    -0.390 OA
ATOM     13  H   UNL d   1       2.303  -1.610   1.592  0.00  0.00     0.210 HD
ENDBRANCH  11  12
BRANCH  11  14
ATOM     14  C   UNL d   1       2.994   0.913   1.281  0.00  0.00     0.173 C 
BRANCH  14  15
ATOM     15  O   UNL d   1       4.363   0.664   1.636  0.00  0.00    -0.391 OA
ATOM     16  H   UNL d   1       4.387  -0.291   1.859  0.00  0.00     0.210 HD
ENDBRANCH  14  15
BRANCH  14  17
ATOM     17  C   UNL d   1       2.167   0.979   2.576  0.00  0.00     0.198 C 
BRANCH  17  18
ATOM     18  O   UNL d   1       2.074  -0.311   3.186  0.00  0.00    -0.398 OA
ATOM     19  H   UNL d   1       1.803  -0.154   4.111  0.00  0.00     0.209 HD
ENDBRANCH  17  18
ENDBRANCH  14  17
ENDBRANCH  11  14
ENDBRANCH   1  11
TORSDOF 12
