REMARK  4 active torsions:
REMARK  status: ('A' for Active; 'I' for Inactive)
REMARK    1  A    between atoms: C_13  and  N_2 
REMARK    2  A    between atoms: C_15  and  C_5 
REMARK    3  A    between atoms: C_11  and  C_14 
REMARK    4  A    between atoms: C_14  and  C_13 
ROOT
ATOM      1  N   UNL d   1       4.423  -6.119  -0.420  0.00  0.00    -0.277 N 
ATOM      2  HN  UNL d   1       4.281  -7.074  -0.750  1.00  0.00     0.189 HD
ATOM      3  C   UNL d   1       5.442  -5.678   0.293  0.00  0.00     0.174 A 
ATOM      4  O   UNL d   1       5.339  -4.335   0.574  0.00  0.00    -0.277 OA
ATOM      5  N   UNL d   1       3.591  -5.045  -0.635  0.00  0.00    -0.281 N 
ATOM      6  HN  UNL d   1       2.714  -5.047  -1.155  1.00  0.00     0.189 HD
ATOM      7  C   UNL d   1       4.150  -4.016  -0.036  0.00  0.00     0.142 A 
ENDROOT
BRANCH   7   8
ATOM      8  C   UNL d   1       3.692  -2.607   0.017  0.00  0.00     0.106 C 
BRANCH   8   9
ATOM      9  C   UNL d   1       2.163  -2.520  -0.013  0.00  0.00     0.142 C 
BRANCH   9  10
ATOM     10  N   UNL d   1       1.680  -1.159  -0.064  0.00  0.00    -0.290 N 
ATOM     11  C   UNL d   1       1.433  -0.346   1.025  0.00  0.00     0.372 A 
ATOM     12  O   UNL d   1       0.971   0.914   0.621  0.00  0.00    -0.259 OA
ATOM     13  O   UNL d   1       1.598  -0.655   2.198  0.00  0.00    -0.237 OA
ATOM     14  C   UNL d   1       0.973   0.804  -0.760  0.00  0.00     0.107 A 
ATOM     15  C   UNL d   1       0.593   1.796  -1.640  0.00  0.00     0.040 A 
ATOM     16  C   UNL d   1       1.402  -0.433  -1.200  0.00  0.00     0.073 A 
ATOM     17  C   UNL d   1       0.664   1.506  -3.005  0.00  0.00     0.003 A 
ATOM     18  C   UNL d   1       1.108   0.244  -3.451  0.00  0.00     0.002 A 
ATOM     19  C   UNL d   1       1.485  -0.748  -2.538  0.00  0.00     0.033 A 
ENDBRANCH   9  10
ENDBRANCH   8   9
ENDBRANCH   7   8
BRANCH   3  20
ATOM     20  C   UNL d   1       6.598  -6.412   0.797  0.00  0.00     0.018 A 
ATOM     21  C   UNL d   1       6.721  -7.778   0.491  0.00  0.00     0.039 A 
ATOM     22  C   UNL d   1       7.793  -8.524   0.982  0.00  0.00     0.035 A 
ATOM     23 CL   UNL d   1       7.912 -10.199   0.604  0.00  0.00    -0.084 Cl
ATOM     24  C   UNL d   1       8.762  -7.925   1.781  0.00  0.00     0.024 A 
ATOM     25  C   UNL d   1       8.662  -6.567   2.083  0.00  0.00     0.003 A 
ATOM     26  C   UNL d   1       7.587  -5.814   1.593  0.00  0.00     0.016 A 
ENDBRANCH   3  20
TORSDOF 4
