REMARK  4 active torsions:
REMARK  status: ('A' for Active; 'I' for Inactive)
REMARK    1  A    between atoms: C_2  and  S_1 
REMARK    2  A    between atoms: N_3  and  S_1 
REMARK       I    between atoms: C_6  and  N_10 
REMARK    3  A    between atoms: C_16  and  C_6 
REMARK    4  A    between atoms: N_10  and  C_17 
ROOT
ATOM      1  N   UNL d   1       0.195  -0.520   1.519  0.00  0.00    -0.307 N 
ATOM      2  C   UNL d   1      -1.004   0.253   1.899  0.00  0.00     0.137 C 
ATOM      3  C   UNL d   1       0.157  -1.974   1.819  0.00  0.00     0.137 C 
ATOM      4  C   UNL d   1      -1.589  -1.501   3.611  0.00  0.00     0.087 C 
ATOM      5  C   UNL d   1      -1.366  -0.014   3.356  0.00  0.00     0.045 C 
ATOM      6  C   UNL d   1      -0.320  -2.271   3.236  0.00  0.00     0.045 C 
ENDROOT
BRANCH   1   7
ATOM      7  S   UNL d   1       0.979  -0.067   0.067  0.00  0.00     0.262 S 
ATOM      8  O   UNL d   1       0.793   1.345  -0.159  0.00  0.00    -0.200 OA
ATOM      9  O   UNL d   1       2.317  -0.620   0.127  0.00  0.00    -0.200 OA
BRANCH   7  10
ATOM     10  C   UNL d   1       0.130  -0.982  -1.214  0.00  0.00     0.103 A 
ATOM     11  C   UNL d   1       0.703  -2.212  -1.597  0.00  0.00     0.052 A 
ATOM     12  C   UNL d   1       0.162  -2.962  -2.645  0.00  0.00     0.057 A 
ATOM     13 CL   UNL d   1       0.877  -4.494  -2.993  0.00  0.00    -0.083 Cl
ATOM     14  C   UNL d   1      -0.930  -2.464  -3.355  0.00  0.00     0.057 A 
ATOM     15  C   UNL d   1      -1.494  -1.239  -2.986  0.00  0.00     0.051 A 
ATOM     16 CL   UNL d   1      -1.636  -3.312  -4.684  0.00  0.00    -0.082 Cl
ATOM     17  C   UNL d   1      -0.981  -0.499  -1.908  0.00  0.00     0.059 A 
ATOM     18 CL   UNL d   1      -1.846   0.935  -1.504  0.00  0.00    -0.083 Cl
ENDBRANCH   7  10
ENDBRANCH   1   7
BRANCH   4  19
ATOM     19  N   UNL d   1      -2.771  -1.990   2.904  0.00  0.00    -0.356 N 
ATOM     20  C   UNL d   1      -3.560  -3.017   3.383  0.00  0.00     0.222 C 
ATOM     21  O   UNL d   1      -3.330  -3.587   4.447  0.00  0.00    -0.273 OA
ATOM     22  H   UNL d   1      -2.946  -1.679   1.959  0.00  0.00     0.162 HD
BRANCH  20  23
ATOM     23  C   UNL d   1      -4.711  -3.396   2.440  0.00  0.00     0.078 C 
ATOM     24  C   UNL d   1      -5.697  -2.240   2.205  0.00  0.00     0.014 C 
ATOM     25  C   UNL d   1      -6.650  -2.014   3.377  0.00  0.00     0.001 C 
ATOM     26  C   UNL d   1      -7.376  -3.289   3.788  0.00  0.00     0.000 C 
ATOM     27  C   UNL d   1      -6.417  -4.445   4.042  0.00  0.00     0.001 C 
ATOM     28  C   UNL d   1      -5.448  -4.668   2.882  0.00  0.00     0.014 C 
ENDBRANCH  20  23
ENDBRANCH   4  19
TORSDOF 4
