REMARK  3 active torsions:
REMARK  status: ('A' for Active; 'I' for Inactive)
REMARK       I    between atoms: C_2  and  N_1 
REMARK       I    between atoms: C_3  and  N_1 
REMARK       I    between atoms: N_7  and  C_2 
REMARK    1  A    between atoms: C_14  and  C_3 
REMARK    2  A    between atoms: C_6  and  C_11 
REMARK    3  A    between atoms: C_17  and  N_7 
ROOT
ATOM      1  N   UNL d   1       0.013  -1.915  -0.438  0.00  0.00    -0.175 NA
ATOM      2  C   UNL d   1       0.329  -1.307   0.763  0.00  0.00     0.305 C 
ATOM      3  C   UNL d   1      -1.301  -1.921  -0.867  0.00  0.00     0.239 C 
ATOM      4  N   UNL d   1       0.521  -2.224   1.766  0.00  0.00    -0.313 N 
ATOM      5  O   UNL d   1       0.527  -0.101   0.821  0.00  0.00    -0.253 OA
ATOM      6  O   UNL d   1      -1.598  -1.311  -1.893  0.00  0.00    -0.274 OA
ATOM      7  H   UNL d   1       0.435  -1.309  -1.139  0.00  0.00     0.141 HD
ATOM      8  H   UNL d   1       0.409  -3.188   1.491  0.00  0.00     0.170 HD
ENDROOT
BRANCH   4   9
ATOM      9  C   UNL d   1       0.822  -1.999   3.119  0.00  0.00     0.035 A 
ATOM     10  C   UNL d   1       1.232  -0.774   3.636  0.00  0.00     0.030 A 
ATOM     11  C   UNL d   1       1.455  -0.630   5.013  0.00  0.00     0.016 A 
ATOM     12  C   UNL d   1       1.244  -1.698   5.897  0.00  0.00    -0.001 A 
ATOM     13  C   UNL d   1       0.865  -2.934   5.361  0.00  0.00     0.016 A 
ATOM     14  C   UNL d   1       0.671  -3.087   3.985  0.00  0.00     0.030 A 
BRANCH  12  15
ATOM     15  C   UNL d   1       1.371  -1.532   7.338  0.00  0.00     0.102 A 
ATOM     16  O   UNL d   1       1.928  -0.365   7.795  0.00  0.00    -0.304 OA
ATOM     17  C   UNL d   1       1.888  -0.487   9.149  0.00  0.00     0.233 A 
ATOM     18  N   UNL d   1       1.369  -1.607   9.597  0.00  0.00    -0.354 N 
ATOM     19  C   UNL d   1       1.036  -2.279   8.448  0.00  0.00     0.127 A 
ATOM     20  HN  UNL d   1       1.245  -1.905  10.565  1.00  0.00     0.166 HD
ENDBRANCH  12  15
ENDBRANCH   4   9
BRANCH   3  21
ATOM     21  C   UNL d   1      -2.359  -2.652  -0.111  0.00  0.00     0.026 A 
ATOM     22  C   UNL d   1      -3.688  -2.235  -0.280  0.00  0.00     0.016 A 
ATOM     23  C   UNL d   1      -4.729  -2.884   0.389  0.00  0.00     0.001 A 
ATOM     24  C   UNL d   1      -4.450  -3.951   1.240  0.00  0.00     0.000 A 
ATOM     25  C   UNL d   1      -3.138  -4.395   1.388  0.00  0.00     0.001 A 
ATOM     26  C   UNL d   1      -2.100  -3.767   0.691  0.00  0.00     0.016 A 
ENDBRANCH   3  21
TORSDOF 3
