REMARK  3 active torsions:
REMARK  status: ('A' for Active; 'I' for Inactive)
REMARK    1  A    between atoms: C_7  and  C_1 
REMARK    2  A    between atoms: N_6  and  C_2 
REMARK    3  A    between atoms: C_8  and  C_4 
ROOT
ATOM      1  C   UNL d   1       0.499   1.259   0.072  0.00  0.00     0.057 C 
ATOM      2  C   UNL d   1       1.805   0.819  -0.113  0.00  0.00     0.167 C 
ATOM      3  C   UNL d   1      -0.301   0.081   0.188  0.00  0.00     0.095 C 
ATOM      4  C   UNL d   1       0.530  -1.014  -0.002  0.00  0.00     0.116 C 
ATOM      5  O   UNL d   1       1.792  -0.543  -0.268  0.00  0.00    -0.289 OA
ATOM      6  C   UNL d   1      -1.716  -0.004   0.356  0.00  0.00     0.103 C 
ATOM      7  N   UNL d   1      -2.867  -0.099   0.495  0.00  0.00    -0.191 NA
ENDROOT
BRANCH   1   8
ATOM      8  C   UNL d   1       0.017   2.684   0.066  0.00  0.00     0.021 A 
ATOM      9  S   UNL d   1      -1.332   3.248   0.953  0.00  0.00    -0.101 SA
ATOM     10  C   UNL d   1      -1.103   4.855   0.420  0.00  0.00     0.050 A 
ATOM     11  C   UNL d   1      -0.054   4.959  -0.464  0.00  0.00     0.008 A 
ATOM     12  C   UNL d   1       0.576   3.700  -0.687  0.00  0.00     0.020 A 
ENDBRANCH   1   8
BRANCH   4  13
ATOM     13  C   UNL d   1       0.233  -2.426   0.041  0.00  0.00     0.040 A 
ATOM     14  S   UNL d   1       1.167  -3.552  -0.856  0.00  0.00    -0.099 SA
ATOM     15  C   UNL d   1       0.243  -4.878  -0.298  0.00  0.00     0.050 A 
ATOM     16  C   UNL d   1      -0.750  -4.484   0.568  0.00  0.00     0.008 A 
ATOM     17  C   UNL d   1      -0.753  -3.071   0.767  0.00  0.00     0.022 A 
ENDBRANCH   4  13
BRANCH   2  18
ATOM     18  N   UNL d   1       2.992   1.565  -0.105  0.00  0.00    -0.312 N 
ATOM     19  C   UNL d   1       4.160   1.216  -0.755  0.00  0.00     0.098 C 
ATOM     20  C   UNL d   1       5.082   2.229  -0.599  0.00  0.00     0.019 C 
ATOM     21  C   UNL d   1       4.510   3.185   0.267  0.00  0.00     0.019 C 
ATOM     22  C   UNL d   1       3.250   2.733   0.588  0.00  0.00     0.098 C 
ENDBRANCH   2  18
TORSDOF 3
