REMARK  5 active torsions:
REMARK  status: ('A' for Active; 'I' for Inactive)
REMARK    1  A    between atoms: S_9  and  C_1 
REMARK    2  A    between atoms: C_17  and  N_4 
REMARK    3  A    between atoms: C_14  and  S_9 
REMARK    4  A    between atoms: C_12  and  C_14 
REMARK    5  A    between atoms: O_18  and  C_12 
ROOT
ATOM      1  C   UNL d   1       2.445   0.109   0.069  0.00  0.00     0.148 A 
ATOM      2  N   UNL d   1       1.696   1.189   0.152  0.00  0.00    -0.335 N 
ATOM      3  HN  UNL d   1       2.008   2.156   0.241  1.00  0.00     0.168 HD
ATOM      4  N   UNL d   1       1.694  -1.039   0.020  0.00  0.00    -0.326 N 
ATOM      5  C   UNL d   1       0.365  -0.666   0.044  0.00  0.00     0.065 A 
ATOM      6  C   UNL d   1       0.397   0.728   0.094  0.00  0.00     0.063 A 
ATOM      7  C   UNL d   1      -0.830  -1.398   0.021  0.00  0.00     0.057 A 
ATOM      8  C   UNL d   1      -0.814   1.441   0.077  0.00  0.00     0.057 A 
ATOM      9  C   UNL d   1      -2.029  -0.674   0.016  0.00  0.00     0.058 A 
ATOM     10  C   UNL d   1      -2.023   0.728   0.034  0.00  0.00     0.058 A 
ATOM     11 CL   UNL d   1      -3.496  -1.590  -0.021  0.00  0.00    -0.082 Cl
ATOM     12 CL   UNL d   1      -3.484   1.651  -0.004  0.00  0.00    -0.082 Cl
ENDROOT
BRANCH   1  13
ATOM     13  S   UNL d   1       4.174   0.094   0.049  0.00  0.00    -0.083 SA
BRANCH  13  14
ATOM     14  C   UNL d   1       4.580   1.674   0.822  0.00  0.00     0.192 C 
BRANCH  14  15
ATOM     15  C   UNL d   1       4.115   1.716   2.258  0.00  0.00     0.149 C 
ATOM     16  O   UNL d   1       4.799   1.361   3.209  0.00  0.00    -0.649 OA
BRANCH  15  17
ATOM     17  O   UNL d   1       2.852   2.180   2.412  0.00  0.00    -0.776 OA
ATOM     18  H   UNL d   1       2.365   2.240   1.556  0.00  0.00     0.167 HD
ENDBRANCH  15  17
ENDBRANCH  14  15
ENDBRANCH  13  14
ENDBRANCH   1  13
BRANCH   4  19
ATOM     19  C   UNL d   1       2.169  -2.408  -0.075  0.00  0.00     0.127 C 
ATOM     20  C   UNL d   1       2.359  -3.055   1.286  0.00  0.00     0.027 C 
ENDBRANCH   4  19
TORSDOF 5
