REMARK  6 active torsions:
REMARK  status: ('A' for Active; 'I' for Inactive)
REMARK    1  A    between atoms: C_8  and  N_1 
REMARK    2  A    between atoms: C_2  and  C_7 
REMARK       I    between atoms: N_5  and  C_2 
REMARK    3  A    between atoms: C_4  and  C_3 
REMARK    4  A    between atoms: C_11  and  C_4 
REMARK    5  A    between atoms: C_6  and  N_5 
REMARK    6  A    between atoms: C_13  and  C_8 
ROOT
ATOM      1  C   UNL d   1      -1.996  -1.514   0.507  0.00  0.00     0.235 C 
ATOM      2  N   UNL d   1      -3.066  -0.636   0.650  0.00  0.00    -0.227 NA
ATOM      3  O   UNL d   1      -2.110  -2.738   0.579  0.00  0.00    -0.277 OA
ATOM      4  H   UNL d   1      -2.805   0.133   1.268  0.00  0.00     0.136 HD
ENDROOT
BRANCH   2   5
ATOM      5  C   UNL d   1      -4.331  -1.172   0.990  0.00  0.00     0.029 A 
ATOM      6  C   UNL d   1      -4.764  -1.249   2.325  0.00  0.00     0.036 A 
ATOM      7  C   UNL d   1      -6.080  -1.647   2.594  0.00  0.00     0.017 A 
ATOM      8  C   UNL d   1      -6.939  -1.987   1.544  0.00  0.00     0.001 A 
ATOM      9  C   UNL d   1      -6.489  -1.946   0.224  0.00  0.00     0.002 A 
ATOM     10  C   UNL d   1      -5.182  -1.547  -0.056  0.00  0.00     0.025 A 
BRANCH   6  11
ATOM     11  C   UNL d   1      -3.836  -0.878   3.430  0.00  0.00     0.194 C 
ATOM     12  O   UNL d   1      -3.047   0.049   3.240  0.00  0.00    -0.287 OA
BRANCH  11  13
ATOM     13  C   UNL d   1      -3.826  -1.583   4.747  0.00  0.00     0.015 A 
ATOM     14  C   UNL d   1      -3.376  -0.867   5.869  0.00  0.00     0.015 A 
ATOM     15  C   UNL d   1      -3.338  -1.479   7.125  0.00  0.00     0.001 A 
ATOM     16  C   UNL d   1      -3.726  -2.810   7.269  0.00  0.00     0.000 A 
ATOM     17  C   UNL d   1      -4.148  -3.532   6.154  0.00  0.00     0.001 A 
ATOM     18  C   UNL d   1      -4.183  -2.922   4.892  0.00  0.00     0.015 A 
ENDBRANCH  11  13
ENDBRANCH   6  11
ENDBRANCH   2   5
BRANCH   1  19
ATOM     19  C   UNL d   1      -0.635  -0.853   0.226  0.00  0.00     0.309 C 
ATOM     20  N   UNL d   1      -0.355  -0.558  -1.225  0.00  0.00     0.105 N 
ATOM     21  C   UNL d   1       0.899   0.217  -1.140  0.00  0.00     0.274 C 
ATOM     22  C   UNL d   1       0.970   0.882   0.233  0.00  0.00     0.033 C 
ATOM     23  C   UNL d   1      -0.302   0.453   0.940  0.00  0.00     0.047 C 
BRANCH  20  24
ATOM     24  C   UNL d   1      -1.482   0.154  -1.870  0.00  0.00     0.312 C 
BRANCH  24  25
ATOM     25  C   UNL d   1      -1.354   0.645  -3.305  0.00  0.00    -0.030 A 
ATOM     26  C   UNL d   1      -0.244   0.436  -4.127  0.00  0.00     0.009 A 
ATOM     27  C   UNL d   1      -0.148   1.065  -5.373  0.00  0.00     0.001 A 
ATOM     28  C   UNL d   1      -1.193   1.855  -5.846  0.00  0.00     0.000 A 
ATOM     29  C   UNL d   1      -2.351   1.989  -5.089  0.00  0.00     0.001 A 
ATOM     30  C   UNL d   1      -2.431   1.388  -3.831  0.00  0.00     0.009 A 
ENDBRANCH  24  25
ENDBRANCH  20  24
ENDBRANCH   1  19
TORSDOF 6
