REMARK  4 active torsions:
REMARK  status: ('A' for Active; 'I' for Inactive)
REMARK    1  A    between atoms: C_6  and  C_1 
REMARK    2  A    between atoms: S_8  and  C_2 
REMARK    3  A    between atoms: C_7  and  C_4 
REMARK       I    between atoms: N_11  and  C_6 
REMARK    4  A    between atoms: O_12  and  C_7 
ROOT
ATOM      1  C   UNL d   1       1.669   0.709  -0.026  0.00  0.00     0.057 A 
ATOM      2  C   UNL d   1       0.430   1.284  -0.273  0.00  0.00     0.057 A 
ATOM      3  C   UNL d   1       1.524  -0.708   0.206  0.00  0.00     0.044 A 
ATOM      4  C   UNL d   1       0.235  -1.172   0.043  0.00  0.00     0.082 A 
ATOM      5  S   UNL d   1      -0.832   0.120  -0.272  0.00  0.00    -0.076 SA
ENDROOT
BRANCH   1   6
ATOM      6  C   UNL d   1       2.974   1.362   0.008  0.00  0.00     0.251 C 
ATOM      7  O   UNL d   1       3.918   0.924   0.658  0.00  0.00    -0.268 OA
ATOM      8  N   UNL d   1       3.134   2.463  -0.778  0.00  0.00    -0.366 N 
ATOM      9  H   UNL d   1       2.399   2.804  -1.384  0.00  0.00     0.159 HD
ATOM     10  H   UNL d   1       4.050   2.884  -0.825  0.00  0.00     0.159 HD
ENDBRANCH   1   6
BRANCH   2  11
ATOM     11  S   UNL d   1       0.015   2.971  -0.597  0.00  0.00    -0.126 SA
ATOM     12  C   UNL d   1       0.511   3.762   0.952  0.00  0.00     0.096 C 
ENDBRANCH   2  11
BRANCH   4  13
ATOM     13  C   UNL d   1      -0.270  -2.534   0.084  0.00  0.00     0.299 C 
ATOM     14  O   UNL d   1      -1.444  -2.878   0.024  0.00  0.00    -0.259 OA
BRANCH  13  15
ATOM     15  O   UNL d   1       0.780  -3.405   0.159  0.00  0.00    -0.322 OA
ATOM     16  C   UNL d   1       0.408  -4.781   0.089  0.00  0.00     0.213 C 
ENDBRANCH  13  15
ENDBRANCH   4  13
TORSDOF 4
