REMARK  8 active torsions:
REMARK  status: ('A' for Active; 'I' for Inactive)
REMARK    1  A    between atoms: C_2  and  S_1 
REMARK    2  A    between atoms: C_15  and  S_1 
REMARK    3  A    between atoms: C_3  and  C_2 
REMARK    4  A    between atoms: N_12  and  C_3 
REMARK    5  A    between atoms: C_4  and  O_10 
REMARK       I    between atoms: N_7  and  C_4 
REMARK    6  A    between atoms: O_10  and  N_5 
REMARK    7  A    between atoms: C_13  and  N_7 
REMARK    8  A    between atoms: C_21  and  C_15 
ROOT
ATOM      1  C   UNL d   1       0.913  -2.000  -1.475  0.00  0.00     0.089 C 
ATOM      2  N   UNL d   1       1.775  -1.537  -2.327  0.00  0.00    -0.248 N 
ATOM      3  HN  UNL d   1       2.233  -2.107  -3.038  1.00  0.00     0.196 HD
ENDROOT
BRANCH   2   4
ATOM      4  O   UNL d   1       2.008  -0.156  -2.158  0.00  0.00    -0.180 OA
BRANCH   4   5
ATOM      5  C   UNL d   1       3.332   0.100  -2.384  0.00  0.00     0.387 C 
ATOM      6  N   UNL d   1       3.630   1.154  -3.213  0.00  0.00    -0.301 N 
ATOM      7  H   UNL d   1       4.632   1.240  -3.314  0.00  0.00     0.171 HD
ATOM      8  O   UNL d   1       4.250  -0.548  -1.881  0.00  0.00    -0.236 OA
BRANCH   6   9
ATOM      9  C   UNL d   1       2.834   1.986  -4.020  0.00  0.00     0.037 A 
ATOM     10  C   UNL d   1       1.438   1.998  -4.039  0.00  0.00     0.031 A 
ATOM     11  C   UNL d   1       0.748   2.864  -4.900  0.00  0.00     0.026 A 
ATOM     12  C   UNL d   1       1.449   3.716  -5.750  0.00  0.00     0.034 A 
ATOM     13  C   UNL d   1       2.839   3.712  -5.746  0.00  0.00     0.026 A 
ATOM     14 CL   UNL d   1       0.597   4.772  -6.806  0.00  0.00    -0.084 Cl
ATOM     15  C   UNL d   1       3.525   2.853  -4.882  0.00  0.00     0.031 A 
ENDBRANCH   6   9
ENDBRANCH   4   5
ENDBRANCH   2   4
BRANCH   1  16
ATOM     16  C   UNL d   1       0.437  -3.408  -1.730  0.00  0.00     0.211 C 
BRANCH  16  17
ATOM     17  S   UNL d   1       0.637  -4.472  -0.335  0.00  0.00     0.150 S 
ATOM     18  O   UNL d   1      -0.096  -3.888   0.776  0.00  0.00    -0.228 OA
ATOM     19  O   UNL d   1       2.036  -4.822  -0.201  0.00  0.00    -0.228 OA
BRANCH  17  20
ATOM     20  C   UNL d   1      -0.249  -5.922  -0.885  0.00  0.00     0.140 C 
BRANCH  20  21
ATOM     21  C   UNL d   1      -0.267  -7.035   0.151  0.00  0.00     0.010 C 
ATOM     22  C   UNL d   1      -1.063  -8.229  -0.358  0.00  0.00     0.006 C 
ENDBRANCH  20  21
ENDBRANCH  17  20
ENDBRANCH  16  17
ENDBRANCH   1  16
BRANCH   1  23
ATOM     23  N   UNL d   1       0.361  -1.273  -0.444  0.00  0.00    -0.290 NA
ATOM     24  H   UNL d   1       0.058  -1.815   0.370  0.00  0.00     0.125 HD
ATOM     25  H   UNL d   1       0.930  -0.477  -0.170  0.00  0.00     0.125 HD
ENDBRANCH   1  23
TORSDOF 8
