REMARK  11 active torsions:
REMARK  status: ('A' for Active; 'I' for Inactive)
REMARK    1  A    between atoms: C_2  and  C_1 
REMARK    2  A    between atoms: N_14  and  C_3 
REMARK    3  A    between atoms: C_12  and  O_15 
REMARK    4  A    between atoms: C_26  and  N_14 
REMARK    5  A    between atoms: O_15  and  C_19 
REMARK    6  A    between atoms: C_17  and  C_25 
REMARK    7  A    between atoms: C_19  and  C_17 
REMARK    8  A    between atoms: O_23  and  C_17 
REMARK    9  A    between atoms: N_21  and  C_27 
REMARK   10  A    between atoms: C_25  and  N_21 
REMARK   11  A    between atoms: C_27  and  C_26 
ROOT
ATOM      1  N   UNL d   1      -0.021   4.379   0.434  0.00  0.00     0.087 N 
ATOM      2  H   UNL d   1       0.889   4.029   0.727  0.00  0.00     0.316 HD
ENDROOT
BRANCH   1   3
ATOM      3  C   UNL d   1      -0.218   4.014  -0.989  0.00  0.00     0.284 C 
BRANCH   3   4
ATOM      4  C   UNL d   1       0.871   4.588  -1.914  0.00  0.00     0.123 C 
BRANCH   4   5
ATOM      5  N   UNL d   1       0.735   4.188  -3.317  0.00  0.00    -0.277 NA
ATOM      6  H   UNL d   1       0.630   3.184  -3.441  0.00  0.00     0.129 HD
BRANCH   5   7
ATOM      7  C   UNL d   1       1.786   4.691  -4.108  0.00  0.00     0.095 A 
ATOM      8  C   UNL d   1       1.860   4.450  -5.476  0.00  0.00     0.086 A 
ATOM      9  C   UNL d   1       2.933   5.022  -6.192  0.00  0.00     0.021 A 
ATOM     10  C   UNL d   1       3.879   5.806  -5.552  0.00  0.00     0.018 A 
ATOM     11  C   UNL d   1       3.724   6.006  -4.201  0.00  0.00     0.089 A 
ATOM     12  N   UNL d   1       2.712   5.473  -3.493  0.00  0.00    -0.356 N 
ATOM     13  HN  UNL d   1       2.640   5.656  -2.492  1.00  0.00     0.166 HD
BRANCH   8  14
ATOM     14  C   UNL d   1       0.859   3.640  -6.240  0.00  0.00     0.420 C 
ATOM     15  F   UNL d   1      -0.100   3.018  -5.500  0.00  0.00    -0.166 F 
ATOM     16  F   UNL d   1       1.462   2.638  -6.947  0.00  0.00    -0.166 F 
ATOM     17  F   UNL d   1       0.194   4.381  -7.173  0.00  0.00    -0.166 F 
ENDBRANCH   8  14
ENDBRANCH   5   7
ENDBRANCH   4   5
ENDBRANCH   3   4
ENDBRANCH   1   3
BRANCH   1  18
ATOM     18  C   UNL d   1      -0.113   5.831   0.649  0.00  0.00     0.303 C 
BRANCH  18  19
ATOM     19  C   UNL d   1       0.170   6.320   2.087  0.00  0.00     0.170 C 
BRANCH  19  20
ATOM     20  C   UNL d   1       1.592   5.958   2.545  0.00  0.00     0.209 C 
BRANCH  20  21
ATOM     21  O   UNL d   1       1.817   6.427   3.879  0.00  0.00    -0.349 OA
BRANCH  21  22
ATOM     22  C   UNL d   1       3.049   6.173   4.419  0.00  0.00     0.070 A 
ATOM     23  C   UNL d   1       4.084   5.467   3.805  0.00  0.00     0.062 A 
ATOM     24  C   UNL d   1       5.301   5.274   4.469  0.00  0.00     0.058 A 
ATOM     25 CL   UNL d   1       6.532   4.385   3.639  0.00  0.00    -0.082 Cl
ATOM     26  C   UNL d   1       5.490   5.790   5.754  0.00  0.00     0.056 A 
ATOM     27  C   UNL d   1       4.456   6.499   6.371  0.00  0.00     0.028 A 
ATOM     28 CL   UNL d   1       6.966   5.590   6.628  0.00  0.00    -0.083 Cl
ATOM     29  C   UNL d   1       3.244   6.687   5.705  0.00  0.00     0.038 A 
ENDBRANCH  21  22
ENDBRANCH  20  21
ENDBRANCH  19  20
BRANCH  19  30
ATOM     30  O   UNL d   1      -0.002   7.748   2.107  0.00  0.00    -0.392 OA
ATOM     31  H   UNL d   1       0.693   8.150   1.559  0.00  0.00     0.210 HD
ENDBRANCH  19  30
ENDBRANCH  18  19
ENDBRANCH   1  18
TORSDOF 11
