REMARK  9 active torsions:
REMARK  status: ('A' for Active; 'I' for Inactive)
REMARK    1  A    between atoms: C_4  and  S_1 
REMARK    2  A    between atoms: N_13  and  S_1 
REMARK    3  A    between atoms: C_2  and  C_5 
REMARK    4  A    between atoms: C_3  and  C_6 
REMARK    5  A    between atoms: C_7  and  C_22 
REMARK    6  A    between atoms: C_25  and  N_13 
REMARK    7  A    between atoms: C_22  and  S_26 
REMARK    8  A    between atoms: C_30  and  C_25 
REMARK    9  A    between atoms: S_26  and  C_30 
ROOT
ATOM      1  S   UNL d   1       0.909   0.025   0.112  0.00  0.00     0.258 S 
ATOM      2  O   UNL d   1       0.610   1.018   1.121  0.00  0.00    -0.201 OA
ATOM      3  O   UNL d   1       0.331   0.078  -1.210  0.00  0.00    -0.201 OA
ENDROOT
BRANCH   1   4
ATOM      4  C   UNL d   1       0.522  -1.568   0.814  0.00  0.00     0.081 A 
ATOM      5  C   UNL d   1       0.472  -1.715   2.205  0.00  0.00     0.041 A 
ATOM      6  C   UNL d   1       0.082  -2.939   2.770  0.00  0.00     0.050 A 
ATOM      7  C   UNL d   1      -0.249  -4.007   1.914  0.00  0.00     0.032 A 
ATOM      8  C   UNL d   1      -0.222  -3.860   0.515  0.00  0.00     0.050 A 
ATOM      9  C   UNL d   1       0.168  -2.627  -0.029  0.00  0.00     0.041 A 
BRANCH   6  10
ATOM     10  C   UNL d   1      -0.023  -3.113   4.269  0.00  0.00     0.417 C 
ATOM     11  F   UNL d   1       0.272  -1.985   4.970  0.00  0.00    -0.166 F 
ATOM     12  F   UNL d   1      -1.273  -3.482   4.659  0.00  0.00    -0.166 F 
ATOM     13  F   UNL d   1       0.816  -4.078   4.738  0.00  0.00    -0.166 F 
ENDBRANCH   6  10
BRANCH   8  14
ATOM     14  C   UNL d   1      -0.650  -5.005  -0.376  0.00  0.00     0.417 C 
ATOM     15  F   UNL d   1      -0.610  -4.702  -1.703  0.00  0.00    -0.166 F 
ATOM     16  F   UNL d   1       0.134  -6.105  -0.219  0.00  0.00    -0.166 F 
ATOM     17  F   UNL d   1      -1.924  -5.409  -0.120  0.00  0.00    -0.166 F 
ENDBRANCH   8  14
ENDBRANCH   1   4
BRANCH   1  18
ATOM     18  N   UNL d   1       2.580  -0.029  -0.040  0.00  0.00    -0.315 N 
ATOM     19  H   UNL d   1       3.062  -0.036   0.863  0.00  0.00     0.172 HD
BRANCH  18  20
ATOM     20  C   UNL d   1       3.168  -0.918  -1.060  0.00  0.00     0.142 C 
BRANCH  20  21
ATOM     21  C   UNL d   1       4.698  -0.836  -1.011  0.00  0.00     0.094 C 
BRANCH  21  22
ATOM     22  S   UNL d   1       5.275  -1.343   0.646  0.00  0.00    -0.163 SA
BRANCH  22  23
ATOM     23  C   UNL d   1       7.077  -1.204   0.389  0.00  0.00     0.117 C 
BRANCH  23  24
ATOM     24  C   UNL d   1       7.796  -1.564   1.661  0.00  0.00     0.011 A 
ATOM     25  C   UNL d   1       8.149  -2.901   1.884  0.00  0.00     0.125 A 
ATOM     26  F   UNL d   1       7.917  -3.818   0.934  0.00  0.00    -0.205 F 
ATOM     27  C   UNL d   1       8.725  -3.321   3.080  0.00  0.00     0.043 A 
ATOM     28  C   UNL d   1       8.963  -2.397   4.092  0.00  0.00     0.005 A 
ATOM     29  C   UNL d   1       8.633  -1.056   3.892  0.00  0.00     0.024 A 
ATOM     30  C   UNL d   1       8.054  -0.642   2.686  0.00  0.00     0.044 A 
ATOM     31 CL   UNL d   1       7.663   1.034   2.526  0.00  0.00    -0.084 Cl
ENDBRANCH  23  24
ENDBRANCH  22  23
ENDBRANCH  21  22
ENDBRANCH  20  21
ENDBRANCH  18  20
ENDBRANCH   1  18
TORSDOF 9
