REMARK  4 active torsions:
REMARK  status: ('A' for Active; 'I' for Inactive)
REMARK    1  A    between atoms: C_11  and  C_7 
REMARK    2  A    between atoms: O_17  and  C_8 
REMARK    3  A    between atoms: O_19  and  C_9 
REMARK    4  A    between atoms: O_18  and  C_10 
ROOT
ATOM      1  C   UNL d   1       5.569  -3.409   0.545  0.00  0.00     0.135 A 
ATOM      2  C   UNL d   1       5.492  -2.441   1.578  0.00  0.00     0.105 A 
ATOM      3  C   UNL d   1       4.765  -3.234  -0.606  0.00  0.00     0.105 A 
ATOM      4  C   UNL d   1       3.782  -1.222   0.348  0.00  0.00    -0.030 A 
ATOM      5  C   UNL d   1       4.604  -1.359   1.463  0.00  0.00     0.051 A 
ATOM      6  C   UNL d   1       3.872  -2.151  -0.680  0.00  0.00     0.051 A 
ENDROOT
BRANCH   4   7
ATOM      7  C   UNL d   1       2.867  -0.087   0.258  0.00  0.00     0.034 C 
ATOM      8  C   UNL d   1       3.136   1.116  -0.287  0.00  0.00     0.101 A 
ATOM      9  C   UNL d   1       2.056   2.132  -0.208  0.00  0.00     0.263 A 
ATOM     10  C   UNL d   1       4.425   1.471  -0.933  0.00  0.00     0.263 A 
ATOM     11  N   UNL d   1       2.338   3.335  -0.794  0.00  0.00    -0.299 N 
ATOM     12  O   UNL d   1       0.981   1.943   0.354  0.00  0.00    -0.267 OA
ATOM     13  C   UNL d   1       3.495   3.673  -1.422  0.00  0.00     0.181 A 
ATOM     14  H   UNL d   1       1.606   4.033  -0.740  0.00  0.00     0.171 HD
ATOM     15  N   UNL d   1       4.475   2.732  -1.471  0.00  0.00    -0.299 N 
ATOM     16  S   UNL d   1       3.706   5.179  -2.093  0.00  0.00    -0.040 SA
ATOM     17  H   UNL d   1       5.353   2.977  -1.920  0.00  0.00     0.171 HD
ATOM     18  O   UNL d   1       5.408   0.739  -1.002  0.00  0.00    -0.267 OA
ENDBRANCH   4   7
BRANCH   2  19
ATOM     19  O   UNL d   1       6.354  -2.516   2.646  0.00  0.00    -0.353 OA
ATOM     20  C   UNL d   1       5.855  -2.014   3.886  0.00  0.00     0.210 C 
ENDBRANCH   2  19
BRANCH   3  21
ATOM     21  O   UNL d   1       4.720  -3.971  -1.761  0.00  0.00    -0.353 OA
ATOM     22  C   UNL d   1       5.396  -5.210  -1.866  0.00  0.00     0.210 C 
ENDBRANCH   3  21
BRANCH   1  23
ATOM     23  O   UNL d   1       6.374  -4.515   0.552  0.00  0.00    -0.351 OA
ATOM     24  C   UNL d   1       6.998  -4.957   1.746  0.00  0.00     0.210 C 
ENDBRANCH   1  23
TORSDOF 4
