REMARK  1 active torsions:
REMARK  status: ('A' for Active; 'I' for Inactive)
REMARK    1  A    between atoms: N_12  and  C_10 
ROOT
ATOM      1  C   UNL d   1      -0.038  -0.654   0.052  0.00  0.00     0.091 A 
ATOM      2  C   UNL d   1       1.233   1.458   0.036  0.00  0.00    -0.043 A 
ATOM      3  O   UNL d   1       1.168  -1.382   0.067  0.00  0.00    -0.275 OA
ATOM      4  C   UNL d   1       2.389  -0.735   0.019  0.00  0.00     0.288 A 
ATOM      5  C   UNL d   1      -0.052   0.744   0.024  0.00  0.00     0.004 A 
ATOM      6  C   UNL d   1       2.360   0.734   0.027  0.00  0.00     0.090 A 
ATOM      7  C   UNL d   1      -1.209  -1.419   0.035  0.00  0.00     0.061 A 
ATOM      8  C   UNL d   1      -1.304   1.362  -0.044  0.00  0.00     0.016 A 
ATOM      9  O   UNL d   1       3.453  -1.341  -0.018  0.00  0.00    -0.260 OA
ATOM     10  C   UNL d   1      -2.451  -0.790   0.018  0.00  0.00     0.008 A 
ATOM     11  C   UNL d   1      -2.484   0.603  -0.069  0.00  0.00     0.024 A 
ATOM     12  C   UNL d   1       1.326   2.958   0.058  0.00  0.00     0.049 C 
ENDROOT
BRANCH  10  13
ATOM     13  N   UNL d   1      -3.621  -1.535  -0.157  0.00  0.00    -0.303 NA
ATOM     14  H   UNL d   1      -3.570  -2.481   0.211  0.00  0.00     0.124 HD
ATOM     15  H   UNL d   1      -4.469  -1.056   0.129  0.00  0.00     0.124 HD
ENDBRANCH  10  13
TORSDOF 1
