REMARK  6 active torsions:
REMARK  status: ('A' for Active; 'I' for Inactive)
REMARK    1  A    between atoms: C_3  and  C_1 
REMARK       I    between atoms: N_7  and  C_1 
REMARK    2  A    between atoms: C_2  and  S_12 
REMARK    3  A    between atoms: C_4  and  C_2 
REMARK    4  A    between atoms: C_21  and  N_7 
REMARK    5  A    between atoms: S_12  and  C_22 
REMARK    6  A    between atoms: C_22  and  C_21 
ROOT
ATOM      1  C   UNL d   1       3.293   0.946  -0.949  0.00  0.00     0.133 C 
ENDROOT
BRANCH   1   2
ATOM      2  N   UNL d   1       2.512   0.163  -0.006  0.00  0.00    -0.356 N 
ATOM      3  C   UNL d   1       2.496  -1.215  -0.051  0.00  0.00     0.251 C 
ATOM      4  O   UNL d   1       3.167  -1.871  -0.837  0.00  0.00    -0.268 OA
ATOM      5  H   UNL d   1       1.757   0.638   0.470  0.00  0.00     0.162 HD
BRANCH   3   6
ATOM      6  C   UNL d   1       1.569  -1.896   0.899  0.00  0.00     0.032 A 
ATOM      7  C   UNL d   1       1.173  -1.300   2.107  0.00  0.00     0.020 A 
ATOM      8  C   UNL d   1       0.299  -1.974   2.964  0.00  0.00     0.043 A 
ATOM      9  C   UNL d   1      -0.165  -3.239   2.619  0.00  0.00     0.116 A 
ATOM     10  C   UNL d   1       0.233  -3.850   1.435  0.00  0.00     0.043 A 
ATOM     11  F   UNL d   1      -1.000  -3.881   3.446  0.00  0.00    -0.206 F 
ATOM     12  C   UNL d   1       1.105  -3.179   0.574  0.00  0.00     0.020 A 
ENDBRANCH   3   6
ENDBRANCH   1   2
BRANCH   1  13
ATOM     13  C   UNL d   1       4.805   0.833  -0.733  0.00  0.00     0.102 C 
BRANCH  13  14
ATOM     14  S   UNL d   1       5.650   2.040  -1.800  0.00  0.00    -0.086 SA
BRANCH  14  15
ATOM     15  C   UNL d   1       7.328   1.695  -1.394  0.00  0.00     0.219 C 
ATOM     16  O   UNL d   1       7.616   0.919  -0.491  0.00  0.00    -0.280 OA
BRANCH  15  17
ATOM     17  C   UNL d   1       8.400   2.385  -2.180  0.00  0.00     0.021 A 
ATOM     18  C   UNL d   1       9.736   2.036  -1.911  0.00  0.00     0.019 A 
ATOM     19  C   UNL d   1      10.786   2.638  -2.612  0.00  0.00     0.043 A 
ATOM     20  C   UNL d   1      10.504   3.591  -3.583  0.00  0.00     0.116 A 
ATOM     21  C   UNL d   1       9.194   3.955  -3.863  0.00  0.00     0.043 A 
ATOM     22  F   UNL d   1      11.508   4.165  -4.257  0.00  0.00    -0.206 F 
ATOM     23  C   UNL d   1       8.141   3.355  -3.164  0.00  0.00     0.019 A 
ENDBRANCH  15  17
ENDBRANCH  14  15
ENDBRANCH  13  14
ENDBRANCH   1  13
TORSDOF 6
