REMARK  3 active torsions:
REMARK  status: ('A' for Active; 'I' for Inactive)
REMARK    1  A    between atoms: C_2  and  C_1 
REMARK    2  A    between atoms: O_9  and  C_1 
REMARK       I    between atoms: C_3  and  N_4 
REMARK    3  A    between atoms: N_4  and  C_6 
ROOT
ATOM      1  C   UNL d   1       0.324  -0.360  -1.189  0.00  0.00     0.041 A 
ATOM      2  C   UNL d   1       0.743  -1.513  -1.871  0.00  0.00     0.047 A 
ATOM      3  C   UNL d   1       0.089  -1.931  -3.034  0.00  0.00     0.035 A 
ATOM      4  C   UNL d   1      -0.763   0.376  -1.675  0.00  0.00     0.018 A 
ATOM      5  C   UNL d   1      -1.425  -0.038  -2.829  0.00  0.00     0.003 A 
ATOM      6  C   UNL d   1      -0.999  -1.185  -3.504  0.00  0.00     0.029 A 
ENDROOT
BRANCH   3   7
ATOM      7  N   UNL d   1       0.470  -3.066  -3.783  0.00  0.00    -0.327 N 
ATOM      8  C   UNL d   1       1.509  -3.938  -3.516  0.00  0.00     0.218 C 
ATOM      9  O   UNL d   1       2.271  -3.903  -2.555  0.00  0.00    -0.274 OA
ATOM     10  C   UNL d   1       1.656  -5.023  -4.552  0.00  0.00     0.117 C 
ATOM     11  H   UNL d   1      -0.082  -3.250  -4.611  0.00  0.00     0.169 HD
ENDBRANCH   3   7
BRANCH   1  12
ATOM     12  C   UNL d   1       1.015   0.125   0.038  0.00  0.00     0.293 C 
ATOM     13  O   UNL d   1       0.741   1.175   0.595  0.00  0.00    -0.259 OA
BRANCH  12  14
ATOM     14  O   UNL d   1       1.970  -0.757   0.421  0.00  0.00    -0.323 OA
ATOM     15  C   UNL d   1       2.725  -0.389   1.577  0.00  0.00     0.213 C 
ENDBRANCH  12  14
ENDBRANCH   1  12
TORSDOF 3
