REMARK  7 active torsions:
REMARK  status: ('A' for Active; 'I' for Inactive)
REMARK    1  A    between atoms: C_8  and  C_1 
REMARK    2  A    between atoms: N_7  and  C_2 
REMARK    3  A    between atoms: C_9  and  C_4 
REMARK    4  A    between atoms: C_6  and  C_18 
REMARK       I    between atoms: C_10  and  N_7 
REMARK    5  A    between atoms: C_25  and  C_10 
REMARK    6  A    between atoms: S_17  and  C_25 
REMARK    7  A    between atoms: C_18  and  S_17 
ROOT
ATOM      1  C   UNL d   1       0.152   1.229   0.123  0.00  0.00     0.077 A 
ATOM      2  C   UNL d   1       1.450   0.799  -0.114  0.00  0.00     0.057 A 
ATOM      3  S   UNL d   1      -0.929  -0.090   0.229  0.00  0.00    -0.084 SA
ATOM      4  C   UNL d   1       0.296  -1.252  -0.034  0.00  0.00     0.018 A 
ATOM      5  C   UNL d   1       1.522  -0.630  -0.172  0.00  0.00     0.051 A 
ENDROOT
BRANCH   2   6
ATOM      6  N   UNL d   1       2.530   1.675  -0.250  0.00  0.00    -0.325 N 
ATOM      7  C   UNL d   1       3.684   1.353  -0.947  0.00  0.00     0.231 C 
ATOM      8  O   UNL d   1       3.825   0.354  -1.652  0.00  0.00    -0.272 OA
ATOM      9  H   UNL d   1       2.366   2.646   0.010  0.00  0.00     0.169 HD
BRANCH   7  10
ATOM     10  C   UNL d   1       4.814   2.353  -0.799  0.00  0.00     0.177 C 
BRANCH  10  11
ATOM     11  S   UNL d   1       5.727   2.067   0.755  0.00  0.00    -0.155 SA
BRANCH  11  12
ATOM     12  C   UNL d   1       6.335   0.372   0.438  0.00  0.00     0.117 C 
BRANCH  12  13
ATOM     13  C   UNL d   1       7.065  -0.195   1.627  0.00  0.00     0.011 A 
ATOM     14  C   UNL d   1       6.324  -0.837   2.629  0.00  0.00     0.125 A 
ATOM     15  F   UNL d   1       4.990  -0.936   2.511  0.00  0.00    -0.205 F 
ATOM     16  C   UNL d   1       6.926  -1.408   3.748  0.00  0.00     0.043 A 
ATOM     17  C   UNL d   1       8.303  -1.338   3.898  0.00  0.00     0.005 A 
ATOM     18  C   UNL d   1       9.066  -0.695   2.923  0.00  0.00     0.024 A 
ATOM     19  C   UNL d   1       8.452  -0.116   1.800  0.00  0.00     0.044 A 
ATOM     20 CL   UNL d   1       9.478   0.659   0.650  0.00  0.00    -0.084 Cl
ENDBRANCH  12  13
ENDBRANCH  11  12
ENDBRANCH  10  11
ENDBRANCH   7  10
ENDBRANCH   2   6
BRANCH   1  21
ATOM     21  C   UNL d   1      -0.336   2.602   0.210  0.00  0.00     0.164 C 
ATOM     22  O   UNL d   1       0.395   3.566  -0.038  0.00  0.00    -0.292 OA
ATOM     23  C   UNL d   1      -1.783   2.848   0.586  0.00  0.00     0.097 C 
ENDBRANCH   1  21
BRANCH   4  24
ATOM     24  C   UNL d   1      -0.033  -2.686  -0.055  0.00  0.00    -0.019 A 
ATOM     25  C   UNL d   1      -1.238  -3.152  -0.610  0.00  0.00     0.014 A 
ATOM     26  C   UNL d   1      -1.553  -4.513  -0.612  0.00  0.00     0.024 A 
ATOM     27  C   UNL d   1      -0.659  -5.428  -0.066  0.00  0.00     0.034 A 
ATOM     28  C   UNL d   1       0.547  -4.993   0.478  0.00  0.00     0.024 A 
ATOM     29 CL   UNL d   1      -1.049  -7.103  -0.063  0.00  0.00    -0.084 Cl
ATOM     30  C   UNL d   1       0.859  -3.628   0.481  0.00  0.00     0.014 A 
ENDBRANCH   4  24
TORSDOF 7
