REMARK  4 active torsions:
REMARK  status: ('A' for Active; 'I' for Inactive)
REMARK    1  A    between atoms: N_4  and  C_1 
REMARK    2  A    between atoms: C_2  and  C_8 
REMARK       I    between atoms: C_3  and  N_4 
REMARK    3  A    between atoms: C_6  and  C_3 
REMARK    4  A    between atoms: N_7  and  C_5 
ROOT
ATOM      1  C   UNL d   1       1.098  -0.358   0.233  0.00  0.00     0.062 A 
ATOM      2  C   UNL d   1       0.122  -1.389   0.160  0.00  0.00     0.057 A 
ATOM      3  C   UNL d   1      -0.635   1.350   0.048  0.00  0.00     0.050 A 
ATOM      4  C   UNL d   1       0.713   0.989   0.177  0.00  0.00     0.048 A 
ATOM      5  C   UNL d   1      -1.218  -1.012   0.018  0.00  0.00     0.032 A 
ATOM      6  C   UNL d   1      -1.594   0.336  -0.038  0.00  0.00     0.018 A 
ENDROOT
BRANCH   1   7
ATOM      7  N   UNL d   1       2.449  -0.750   0.356  0.00  0.00    -0.320 N 
ATOM      8  C   UNL d   1       3.552   0.043   0.605  0.00  0.00     0.263 C 
ATOM      9  O   UNL d   1       3.487   1.202   1.010  0.00  0.00    -0.267 OA
ATOM     10  H   UNL d   1       2.598  -1.750   0.302  0.00  0.00     0.169 HD
BRANCH   8  11
ATOM     11  C   UNL d   1       4.842  -0.599   0.373  0.00  0.00     0.072 A 
ATOM     12  S   UNL d   1       5.011  -1.988  -0.618  0.00  0.00    -0.097 SA
ATOM     13  C   UNL d   1       6.717  -1.957  -0.490  0.00  0.00     0.050 A 
ATOM     14  C   UNL d   1       7.155  -0.939   0.327  0.00  0.00     0.009 A 
ATOM     15  C   UNL d   1       6.074  -0.155   0.822  0.00  0.00     0.025 A 
ENDBRANCH   8  11
ENDBRANCH   1   7
BRANCH   2  16
ATOM     16  N   UNL d   1       0.517  -2.729   0.284  0.00  0.00    -0.375 N 
ATOM     17  C   UNL d   1      -0.278  -3.617   1.161  0.00  0.00     0.149 C 
ATOM     18  C   UNL d   1      -1.241  -4.521   0.376  0.00  0.00     0.187 C 
ATOM     19  O   UNL d   1      -0.569  -5.224  -0.677  0.00  0.00    -0.388 OA
ATOM     20  C   UNL d   1       0.006  -4.290  -1.603  0.00  0.00     0.187 C 
ATOM     21  C   UNL d   1       1.050  -3.393  -0.925  0.00  0.00     0.149 C 
ENDBRANCH   2  16
BRANCH   3  22
ATOM     22  C   UNL d   1      -1.051   2.800   0.022  0.00  0.00     0.417 C 
ATOM     23  F   UNL d   1      -0.011   3.677   0.035  0.00  0.00    -0.166 F 
ATOM     24  F   UNL d   1      -1.781   3.107  -1.087  0.00  0.00    -0.166 F 
ATOM     25  F   UNL d   1      -1.835   3.132   1.085  0.00  0.00    -0.166 F 
ENDBRANCH   3  22
TORSDOF 4
