REMARK  3 active torsions:
REMARK  status: ('A' for Active; 'I' for Inactive)
REMARK    1  A    between atoms: N_14  and  C_4 
REMARK    2  A    between atoms: C_13  and  C_9 
REMARK    3  A    between atoms: C_12  and  C_11 
ROOT
ATOM      1  C   UNL d   1       0.184  -0.809   0.017  0.00  0.00     0.149 A 
ATOM      2  N   UNL d   1       0.242   0.593   0.010  0.00  0.00    -0.222 N 
ATOM      3  C   UNL d   1       1.486  -1.242   0.021  0.00  0.00     0.081 A 
ATOM      4  C   UNL d   1      -0.970   1.370   0.005  0.00  0.00     0.128 A 
ATOM      5  N   UNL d   1       1.545   1.014  -0.021  0.00  0.00    -0.293 N 
ATOM      6  HN  UNL d   1       1.874   1.979  -0.059  1.00  0.00     0.187 HD
ATOM      7  N   UNL d   1      -0.991  -1.507   0.018  0.00  0.00    -0.336 N 
ATOM      8  HN  UNL d   1      -1.005  -2.527   0.027  1.00  0.00     0.167 HD
ATOM      9  C   UNL d   1       2.305  -0.093   0.008  0.00  0.00     0.055 A 
ATOM     10  C   UNL d   1      -2.131   0.683  -0.001  0.00  0.00     0.084 A 
ATOM     11  C   UNL d   1      -2.095  -0.812   0.007  0.00  0.00     0.121 A 
ATOM     12 BR   UNL d   1       2.006  -3.047   0.026  0.00  0.00    -0.045 Br
ENDROOT
BRANCH   9  13
ATOM     13  C   UNL d   1       3.832   0.030   0.005  0.00  0.00    -0.006 C 
ATOM     14  C   UNL d   1       4.428  -0.601  -1.270  0.00  0.00     0.021 C 
ATOM     15  C   UNL d   1       4.287   1.511   0.034  0.00  0.00     0.021 C 
ATOM     16  C   UNL d   1       4.450  -0.645   1.247  0.00  0.00     0.021 C 
ENDBRANCH   9  13
BRANCH   4  17
ATOM     17  N   UNL d   1      -0.947   2.789   0.005  0.00  0.00    -0.374 N 
ATOM     18  C   UNL d   1      -2.002   3.615  -0.588  0.00  0.00     0.150 C 
ATOM     19  C   UNL d   1       0.126   3.584   0.610  0.00  0.00     0.150 C 
ENDBRANCH   4  17
BRANCH  11  20
ATOM     20  C   UNL d   1      -3.443  -1.539   0.008  0.00  0.00     0.432 C 
ATOM     21  F   UNL d   1      -4.503  -0.683  -0.003  0.00  0.00    -0.165 F 
ATOM     22  F   UNL d   1      -3.595  -2.343  -1.079  0.00  0.00    -0.165 F 
ATOM     23  F   UNL d   1      -3.604  -2.326   1.105  0.00  0.00    -0.165 F 
ENDBRANCH  11  20
TORSDOF 3
