REMARK  4 active torsions:
REMARK  status: ('A' for Active; 'I' for Inactive)
REMARK    1  A    between atoms: O_10  and  C_1 
REMARK    2  A    between atoms: N_2  and  C_5 
REMARK    3  A    between atoms: C_6  and  O_10 
REMARK    4  A    between atoms: N_12  and  C_13 
ROOT
ATOM      1  C   UNL d   1       3.230  -3.905  -1.073  0.00  0.00     0.136 A 
ATOM      2  C   UNL d   1       3.839  -3.289   0.024  0.00  0.00     0.113 A 
ATOM      3  C   UNL d   1       4.495  -4.097   0.974  0.00  0.00     0.069 A 
ATOM      4  C   UNL d   1       4.499  -5.495   0.909  0.00  0.00     0.033 A 
ATOM      5  C   UNL d   1       3.231  -5.305  -1.173  0.00  0.00     0.041 A 
ATOM      6  C   UNL d   1       3.851  -6.079  -0.186  0.00  0.00     0.032 A 
ENDROOT
BRANCH   2   7
ATOM      7  O   UNL d   1       3.879  -1.918   0.158  0.00  0.00    -0.285 OA
BRANCH   7   8
ATOM      8  C   UNL d   1       3.759  -1.344   1.361  0.00  0.00     0.193 A 
ATOM      9  N   UNL d   1       3.135  -1.907   2.373  0.00  0.00    -0.329 N 
ATOM     10  C   UNL d   1       3.240  -1.109   3.498  0.00  0.00     0.053 A 
ATOM     11  HN  UNL d   1       2.646  -2.801   2.334  1.00  0.00     0.168 HD
ATOM     12  C   UNL d   1       2.709  -1.406   4.768  0.00  0.00     0.054 A 
ATOM     13  C   UNL d   1       3.946   0.083   3.318  0.00  0.00     0.035 A 
ATOM     14  C   UNL d   1       2.893  -0.501   5.814  0.00  0.00     0.036 A 
ATOM     15 CL   UNL d   1       2.228  -0.852   7.363  0.00  0.00    -0.084 Cl
ATOM     16  C   UNL d   1       3.603   0.681   5.623  0.00  0.00     0.025 A 
ATOM     17  C   UNL d   1       4.147   0.991   4.372  0.00  0.00     0.023 A 
ATOM     18  S   UNL d   1       4.460   0.185   1.676  0.00  0.00    -0.044 SA
ENDBRANCH   7   8
ENDBRANCH   2   7
BRANCH   1  19
ATOM     19  N   UNL d   1       2.583  -3.139  -2.147  0.00  0.00    -0.113 N 
ATOM     20  O   UNL d   1       2.648  -1.902  -2.122  0.00  0.00    -0.532 OA
ATOM     21  O   UNL d   1       2.014  -3.781  -3.042  0.00  0.00    -0.532 OA
ENDBRANCH   1  19
BRANCH   4  22
ATOM     22  N   UNL d   1       5.087  -6.267   1.890  0.00  0.00    -0.379 N 
ATOM     23  C   UNL d   1       5.195  -5.817   3.287  0.00  0.00     0.133 C 
ATOM     24  C   UNL d   1       4.641  -6.883   4.241  0.00  0.00     0.093 C 
ATOM     25  S   UNL d   1       5.506  -8.487   4.099  0.00  0.00    -0.166 SA
ATOM     26  C   UNL d   1       5.376  -8.684   2.285  0.00  0.00     0.093 C 
ATOM     27  C   UNL d   1       5.885  -7.450   1.538  0.00  0.00     0.133 C 
ENDBRANCH   4  22
TORSDOF 4
