REMARK  3 active torsions:
REMARK  status: ('A' for Active; 'I' for Inactive)
REMARK    1  A    between atoms: C_2  and  S_1 
REMARK    2  A    between atoms: N_5  and  S_1 
REMARK    3  A    between atoms: C_12  and  N_5 
ROOT
ATOM      1  C   UNL d   1       0.387  -0.319   1.599  0.00  0.00     0.079 A 
ATOM      2  C   UNL d   1      -0.441   0.598   2.257  0.00  0.00     0.028 A 
ATOM      3  C   UNL d   1       0.801  -1.497   2.233  0.00  0.00     0.028 A 
ATOM      4  C   UNL d   1      -0.431  -0.835   4.194  0.00  0.00     0.116 A 
ATOM      5  C   UNL d   1      -0.850   0.334   3.565  0.00  0.00     0.044 A 
ATOM      6  C   UNL d   1       0.389  -1.752   3.541  0.00  0.00     0.044 A 
ATOM      7  F   UNL d   1      -0.830  -1.086   5.448  0.00  0.00    -0.206 F 
ENDROOT
BRANCH   1   8
ATOM      8  S   UNL d   1       0.878  -0.021  -0.081  0.00  0.00     0.258 S 
ATOM      9  O   UNL d   1       0.415   1.289  -0.478  0.00  0.00    -0.201 OA
ATOM     10  O   UNL d   1       0.555  -1.210  -0.837  0.00  0.00    -0.201 OA
BRANCH   8  11
ATOM     11  N   UNL d   1       2.558   0.026   0.023  0.00  0.00    -0.316 N 
ATOM     12  H   UNL d   1       2.983  -0.536  -0.714  0.00  0.00     0.172 HD
BRANCH  11  13
ATOM     13  C   UNL d   1       3.189   1.306   0.356  0.00  0.00     0.128 C 
ATOM     14  C   UNL d   1       4.692   1.109   0.456  0.00  0.00     0.027 C 
ENDBRANCH  11  13
ENDBRANCH   8  11
ENDBRANCH   1   8
TORSDOF 3
