REMARK  24 active torsions:
REMARK  status: ('A' for Active; 'I' for Inactive)
REMARK    1  A    between atoms: C_1  and  O_13 
REMARK    2  A    between atoms: C_2  and  O_14 
REMARK    3  A    between atoms: C_3  and  O_9 
REMARK    4  A    between atoms: C_4  and  C_7 
REMARK    5  A    between atoms: C_4  and  O_15 
REMARK    6  A    between atoms: C_5  and  C_4 
REMARK    7  A    between atoms: C_5  and  O_16 
REMARK    8  A    between atoms: C_5  and  C_12 
REMARK    9  A    between atoms: C_6  and  O_17 
REMARK   10  A    between atoms: C_7  and  O_9 
REMARK   11  A    between atoms: C_11  and  C_7 
REMARK   12  A    between atoms: C_10  and  C_27 
REMARK   13  A    between atoms: C_28  and  C_11 
REMARK   14  A    between atoms: C_11  and  O_18 
REMARK       I    between atoms: N_40  and  C_12 
REMARK   15  A    between atoms: C_20  and  O_13 
REMARK   16  A    between atoms: C_19  and  O_14 
REMARK   17  A    between atoms: C_21  and  O_15 
REMARK   18  A    between atoms: C_22  and  O_16 
REMARK   19  A    between atoms: C_23  and  O_17 
REMARK   20  A    between atoms: C_24  and  O_18 
REMARK   21  A    between atoms: C_25  and  O_30 
REMARK   22  A    between atoms: C_26  and  O_31 
REMARK   23  A    between atoms: O_30  and  C_27 
REMARK   24  A    between atoms: O_31  and  C_28 
ROOT
ATOM      1  C   UNL d   1      -6.563   0.196  -0.543  0.00  0.00     0.189 C 
ENDROOT
BRANCH   1   2
ATOM      2  C   UNL d   1      -7.600   1.199   0.109  0.00  0.00     0.201 C 
BRANCH   2   3
ATOM      3  O   UNL d   1      -8.461   0.460   0.999  0.00  0.00    -0.310 OA
BRANCH   3   4
ATOM      4  C   UNL d   1      -8.692   1.034   2.212  0.00  0.00     0.255 C 
ATOM      5  O   UNL d   1      -8.182   2.078   2.596  0.00  0.00    -0.266 OA
ATOM      6  C   UNL d   1      -9.615   0.208   3.050  0.00  0.00     0.126 C 
ENDBRANCH   3   4
ENDBRANCH   2   3
BRANCH   2   7
ATOM      7  C   UNL d   1      -8.386   2.178  -0.828  0.00  0.00     0.249 C 
BRANCH   7   8
ATOM      8  O   UNL d   1      -9.373   1.624  -1.724  0.00  0.00    -0.304 OA
BRANCH   8   9
ATOM      9  C   UNL d   1     -10.598   1.292  -1.235  0.00  0.00     0.255 C 
ATOM     10  O   UNL d   1     -10.880   1.174  -0.054  0.00  0.00    -0.266 OA
ATOM     11  C   UNL d   1     -11.562   1.054  -2.364  0.00  0.00     0.126 C 
ENDBRANCH   8   9
ENDBRANCH   7   8
BRANCH   7  12
ATOM     12  C   UNL d   1      -8.970   3.474  -0.204  0.00  0.00     0.227 C 
ATOM     13  O   UNL d   1      -9.984   4.023  -0.635  0.00  0.00    -0.277 OA
ATOM     14  N   UNL d   1      -8.254   4.111   0.763  0.00  0.00    -0.270 NA
ATOM     15  H   UNL d   1      -8.748   4.923   1.118  0.00  0.00     0.127 HD
ATOM     16  H   UNL d   1      -7.878   3.543   1.523  0.00  0.00     0.127 HD
ENDBRANCH   7  12
ENDBRANCH   2   7
ENDBRANCH   1   2
BRANCH   1  17
ATOM     17  O   UNL d   1      -7.089  -0.993  -1.138  0.00  0.00    -0.348 OA
BRANCH  17  18
ATOM     18  C   UNL d   1      -7.845  -0.871  -2.337  0.00  0.00     0.293 C 
ATOM     19  C   UNL d   1      -7.116  -0.251  -3.561  0.00  0.00     0.219 C 
ATOM     20  C   UNL d   1      -8.118  -0.179  -4.735  0.00  0.00     0.198 C 
ATOM     21  C   UNL d   1      -8.761  -1.557  -4.998  0.00  0.00     0.195 C 
ATOM     22  C   UNL d   1      -9.387  -2.073  -3.691  0.00  0.00     0.181 C 
ATOM     23  O   UNL d   1      -8.364  -2.167  -2.675  0.00  0.00    -0.348 OA
BRANCH  19  24
ATOM     24  O   UNL d   1      -6.681   1.095  -3.267  0.00  0.00    -0.308 OA
BRANCH  24  25
ATOM     25  C   UNL d   1      -5.495   1.507  -3.801  0.00  0.00     0.255 C 
ATOM     26  O   UNL d   1      -4.798   0.860  -4.568  0.00  0.00    -0.266 OA
ATOM     27  C   UNL d   1      -5.206   2.921  -3.378  0.00  0.00     0.126 C 
ENDBRANCH  24  25
ENDBRANCH  19  24
BRANCH  20  28
ATOM     28  O   UNL d   1      -7.439   0.265  -5.936  0.00  0.00    -0.311 OA
BRANCH  28  29
ATOM     29  C   UNL d   1      -7.418   1.599  -6.192  0.00  0.00     0.255 C 
ATOM     30  O   UNL d   1      -8.007   2.452  -5.543  0.00  0.00    -0.266 OA
ATOM     31  C   UNL d   1      -6.499   1.891  -7.338  0.00  0.00     0.126 C 
ENDBRANCH  28  29
ENDBRANCH  20  28
BRANCH  21  32
ATOM     32  O   UNL d   1      -7.718  -2.470  -5.407  0.00  0.00    -0.311 OA
BRANCH  32  33
ATOM     33  C   UNL d   1      -7.415  -2.470  -6.734  0.00  0.00     0.255 C 
ATOM     34  O   UNL d   1      -8.122  -2.014  -7.621  0.00  0.00    -0.266 OA
ATOM     35  C   UNL d   1      -6.029  -2.997  -6.938  0.00  0.00     0.126 C 
ENDBRANCH  32  33
ENDBRANCH  21  32
BRANCH  22  36
ATOM     36  C   UNL d   1     -10.054  -3.445  -3.853  0.00  0.00     0.213 C 
BRANCH  36  37
ATOM     37  O   UNL d   1     -10.739  -3.818  -2.634  0.00  0.00    -0.319 OA
BRANCH  37  38
ATOM     38  C   UNL d   1     -12.026  -3.399  -2.506  0.00  0.00     0.254 C 
ATOM     39  O   UNL d   1     -12.639  -2.749  -3.343  0.00  0.00    -0.266 OA
ATOM     40  C   UNL d   1     -12.603  -3.825  -1.187  0.00  0.00     0.126 C 
ENDBRANCH  37  38
ENDBRANCH  36  37
ENDBRANCH  22  36
ENDBRANCH  17  18
ENDBRANCH   1  17
BRANCH   1  41
ATOM     41  C   UNL d   1      -5.495  -0.230   0.531  0.00  0.00     0.188 C 
BRANCH  41  42
ATOM     42  C   UNL d   1      -4.477  -1.319   0.119  0.00  0.00     0.213 C 
BRANCH  42  43
ATOM     43  O   UNL d   1      -5.090  -2.595  -0.114  0.00  0.00    -0.319 OA
BRANCH  43  44
ATOM     44  C   UNL d   1      -4.931  -3.112  -1.364  0.00  0.00     0.254 C 
ATOM     45  O   UNL d   1      -4.295  -2.600  -2.276  0.00  0.00    -0.266 OA
ATOM     46  C   UNL d   1      -5.599  -4.446  -1.482  0.00  0.00     0.126 C 
ENDBRANCH  43  44
ENDBRANCH  42  43
ENDBRANCH  41  42
BRANCH  41  47
ATOM     47  O   UNL d   1      -4.783   0.940   1.048  0.00  0.00    -0.311 OA
BRANCH  47  48
ATOM     48  C   UNL d   1      -3.977   1.638   0.200  0.00  0.00     0.255 C 
ATOM     49  O   UNL d   1      -3.788   1.377  -0.976  0.00  0.00    -0.266 OA
ATOM     50  C   UNL d   1      -3.422   2.862   0.863  0.00  0.00     0.126 C 
ENDBRANCH  47  48
ENDBRANCH  41  47
ENDBRANCH   1  41
TORSDOF 24
