REMARK  4 active torsions:
REMARK  status: ('A' for Active; 'I' for Inactive)
REMARK    1  A    between atoms: S_9  and  C_1 
REMARK    2  A    between atoms: C_15  and  C_7 
REMARK    3  A    between atoms: S_16  and  C_8 
REMARK    4  A    between atoms: C_11  and  S_9 
ROOT
ATOM      1  C   UNL d   1       0.099   1.142  -0.112  0.00  0.00     0.100 A 
ATOM      2  N   UNL d   1       1.435   1.197   0.076  0.00  0.00    -0.335 N 
ATOM      3  HN  UNL d   1       1.915   2.087   0.209  1.00  0.00     0.168 HD
ATOM      4  N   UNL d   1       1.516  -1.160  -0.049  0.00  0.00    -0.335 N 
ATOM      5  HN  UNL d   1       2.061  -2.021  -0.001  1.00  0.00     0.168 HD
ATOM      6  C   UNL d   1      -0.584  -0.046  -0.310  0.00  0.00     0.112 A 
ATOM      7  C   UNL d   1       2.106   0.038   0.080  0.00  0.00     0.117 A 
ATOM      8  C   UNL d   1       0.185  -1.192  -0.245  0.00  0.00     0.094 A 
ATOM      9  C   UNL d   1      -1.982  -0.077  -0.579  0.00  0.00     0.105 C 
ATOM     10  N   UNL d   1      -3.125  -0.073  -0.790  0.00  0.00    -0.191 NA
ENDROOT
BRANCH   1  11
ATOM     11  S   UNL d   1      -0.709   2.742  -0.146  0.00  0.00    -0.069 SA
BRANCH  11  12
ATOM     12  C   UNL d   1      -1.107   2.945   1.589  0.00  0.00     0.029 A 
ATOM     13  C   UNL d   1      -0.240   3.543   2.522  0.00  0.00     0.052 A 
ATOM     14  C   UNL d   1      -0.625   3.687   3.860  0.00  0.00     0.049 A 
ATOM     15 CL   UNL d   1       1.321   4.148   2.085  0.00  0.00    -0.083 Cl
ATOM     16  C   UNL d   1      -1.878   3.241   4.272  0.00  0.00     0.035 A 
ATOM     17  C   UNL d   1      -2.755   2.661   3.360  0.00  0.00     0.025 A 
ATOM     18 CL   UNL d   1      -2.351   3.417   5.917  0.00  0.00    -0.084 Cl
ATOM     19  C   UNL d   1      -2.373   2.520   2.023  0.00  0.00     0.022 A 
ENDBRANCH  11  12
ENDBRANCH   1  11
BRANCH   8  20
ATOM     20  S   UNL d   1      -0.529  -2.826  -0.450  0.00  0.00    -0.115 SA
ATOM     21  C   UNL d   1       0.900  -3.881  -0.074  0.00  0.00     0.097 C 
ENDBRANCH   8  20
BRANCH   7  22
ATOM     22  C   UNL d   1       3.578   0.067   0.157  0.00  0.00     0.008 A 
ATOM     23  C   UNL d   1       4.293   1.278   0.204  0.00  0.00     0.015 A 
ATOM     24  C   UNL d   1       5.692   1.299   0.227  0.00  0.00     0.001 A 
ATOM     25  C   UNL d   1       6.409   0.106   0.207  0.00  0.00     0.000 A 
ATOM     26  C   UNL d   1       5.731  -1.107   0.170  0.00  0.00     0.001 A 
ATOM     27  C   UNL d   1       4.334  -1.124   0.147  0.00  0.00     0.015 A 
ENDBRANCH   7  22
TORSDOF 4
