REMARK  4 active torsions:
REMARK  status: ('A' for Active; 'I' for Inactive)
REMARK    1  A    between atoms: C_6  and  C_1 
REMARK    2  A    between atoms: C_3  and  C_2 
REMARK    3  A    between atoms: O_8  and  C_3 
REMARK    4  A    between atoms: C_7  and  O_8 
ROOT
ATOM      1  C   UNL d   1      -1.353  -0.397   0.293  0.00  0.00     0.087 C 
ATOM      2  C   UNL d   1      -0.075  -1.075   0.274  0.00  0.00     0.100 C 
ATOM      3  N   UNL d   1      -1.166   0.884  -0.075  0.00  0.00    -0.259 N 
ATOM      4  HN  UNL d   1      -1.899   1.574  -0.243  1.00  0.00     0.195 HD
ATOM      5  O   UNL d   1       0.175   1.096  -0.185  0.00  0.00    -0.241 OA
ATOM      6  C   UNL d   1       0.836  -0.062   0.019  0.00  0.00     0.091 C 
ATOM      7  C   UNL d   1       2.309   0.056  -0.045  0.00  0.00     0.080 C 
ENDROOT
BRANCH   2   8
ATOM      8  C   UNL d   1       0.310  -2.461   0.493  0.00  0.00     0.303 C 
ATOM      9  O   UNL d   1      -0.178  -3.170   1.361  0.00  0.00    -0.259 OA
BRANCH   8  10
ATOM     10  O   UNL d   1       1.275  -2.848  -0.415  0.00  0.00    -0.271 OA
BRANCH  10  11
ATOM     11  C   UNL d   1       1.855  -4.092  -0.217  0.00  0.00     0.127 C 
ATOM     12  C   UNL d   1       1.427  -5.303  -0.601  0.00  0.00    -0.046 C 
ATOM     13  C   UNL d   1       2.417  -6.400  -0.312  0.00  0.00     0.044 C 
ATOM     14  C   UNL d   1       0.158  -5.634  -1.293  0.00  0.00     0.046 C 
ATOM     15  C   UNL d   1       3.695  -5.688   0.121  0.00  0.00     0.090 C 
ATOM     16  C   UNL d   1       3.256  -4.257   0.233  0.00  0.00     0.183 C 
ATOM     17  O   UNL d   1       3.961  -3.326   0.587  0.00  0.00    -0.290 OA
ENDBRANCH  10  11
ENDBRANCH   8  10
ENDBRANCH   2   8
BRANCH   1  18
ATOM     18  C   UNL d   1      -2.752  -0.827   0.548  0.00  0.00     0.037 A 
ATOM     19  C   UNL d   1      -3.658   0.035   1.224  0.00  0.00     0.048 A 
ATOM     20 CL   UNL d   1      -3.198   1.521   2.002  0.00  0.00    -0.083 Cl
ATOM     21  C   UNL d   1      -5.032  -0.265   1.327  0.00  0.00     0.025 A 
ATOM     22  C   UNL d   1      -5.531  -1.453   0.819  0.00  0.00     0.003 A 
ATOM     23  C   UNL d   1      -4.660  -2.334   0.191  0.00  0.00     0.025 A 
ATOM     24  C   UNL d   1      -3.298  -2.014   0.025  0.00  0.00     0.048 A 
ATOM     25 CL   UNL d   1      -2.418  -3.121  -0.965  0.00  0.00    -0.083 Cl
ENDBRANCH   1  18
TORSDOF 4
