REMARK  2 active torsions:
REMARK  status: ('A' for Active; 'I' for Inactive)
REMARK    1  A    between atoms: C_7  and  C_1 
REMARK    2  A    between atoms: C_8  and  C_4 
ROOT
ATOM      1  C   UNL d   1       0.706   1.302  -0.499  0.00  0.00     0.193 C 
ATOM      2  C   UNL d   1       1.433   0.042  -0.126  0.00  0.00     0.146 C 
ATOM      3  C   UNL d   1      -0.719   1.283  -0.009  0.00  0.00     0.146 C 
ATOM      4  C   UNL d   1      -0.698  -1.199   0.402  0.00  0.00     0.032 C 
ATOM      5  C   UNL d   1       0.683  -1.266  -0.267  0.00  0.00     0.089 C 
ATOM      6  C   UNL d   1      -1.492  -0.008  -0.159  0.00  0.00     0.089 C 
ATOM      7  O   UNL d   1       2.632   0.061   0.159  0.00  0.00    -0.297 OA
ATOM      8  O   UNL d   1      -1.264   2.310   0.402  0.00  0.00    -0.297 OA
ENDROOT
BRANCH   4   9
ATOM      9  C   UNL d   1      -0.707  -1.234   1.929  0.00  0.00    -0.053 A 
ATOM     10  C   UNL d   1      -1.943  -1.352   2.594  0.00  0.00     0.009 A 
ATOM     11  C   UNL d   1      -2.017  -1.398   3.989  0.00  0.00     0.024 A 
ATOM     12  C   UNL d   1      -0.852  -1.341   4.744  0.00  0.00     0.034 A 
ATOM     13  C   UNL d   1       0.383  -1.244   4.112  0.00  0.00     0.024 A 
ATOM     14 CL   UNL d   1      -0.935  -1.403   6.460  0.00  0.00    -0.084 Cl
ATOM     15  C   UNL d   1       0.455  -1.195   2.716  0.00  0.00     0.009 A 
ENDBRANCH   4   9
BRANCH   1  16
ATOM     16  C   UNL d   1       0.790   1.516  -1.989  0.00  0.00     0.141 C 
ATOM     17  O   UNL d   1      -0.057   1.050  -2.753  0.00  0.00    -0.297 OA
ATOM     18  C   UNL d   1       2.016   2.199  -2.535  0.00  0.00     0.092 C 
ENDBRANCH   1  16
TORSDOF 2
