REMARK  6 active torsions:
REMARK  status: ('A' for Active; 'I' for Inactive)
REMARK    1  A    between atoms: C_2  and  S_1 
REMARK    2  A    between atoms: C_8  and  S_1 
REMARK    3  A    between atoms: C_3  and  C_2 
REMARK    4  A    between atoms: N_9  and  C_3 
REMARK    5  A    between atoms: O_12  and  N_6 
REMARK    6  A    between atoms: C_10  and  C_8 
ROOT
ATOM      1  S   UNL d   1       1.333   5.310  -1.331  0.00  0.00     0.154 S 
ATOM      2  O   UNL d   1       0.829   3.998  -1.703  0.00  0.00    -0.227 OA
ATOM      3  O   UNL d   1       1.132   6.447  -2.216  0.00  0.00    -0.227 OA
ENDROOT
BRANCH   1   4
ATOM      4  C   UNL d   1       3.080   5.119  -1.112  0.00  0.00     0.212 C 
BRANCH   4   5
ATOM      5  C   UNL d   1       3.716   6.428  -0.740  0.00  0.00     0.088 C 
ATOM      6  N   UNL d   1       3.839   6.700   0.526  0.00  0.00    -0.262 N 
ATOM      7  HN  UNL d   1       3.541   6.088   1.285  1.00  0.00     0.195 HD
BRANCH   6   8
ATOM      8  O   UNL d   1       4.441   7.958   0.700  0.00  0.00    -0.289 OA
ATOM      9  H   UNL d   1       4.605   7.984   1.661  0.00  0.00     0.244 HD
ENDBRANCH   6   8
BRANCH   5  10
ATOM     10  N   UNL d   1       4.145   7.266  -1.742  0.00  0.00    -0.290 NA
ATOM     11  H   UNL d   1       3.549   7.316  -2.566  0.00  0.00     0.125 HD
ATOM     12  H   UNL d   1       4.376   8.188  -1.377  0.00  0.00     0.125 HD
ENDBRANCH   5  10
ENDBRANCH   4   5
ENDBRANCH   1   4
BRANCH   1  13
ATOM     13  C   UNL d   1       0.717   5.708   0.310  0.00  0.00     0.179 C 
BRANCH  13  14
ATOM     14  C   UNL d   1      -0.788   5.828   0.256  0.00  0.00    -0.044 A 
ATOM     15  C   UNL d   1      -1.606   4.705   0.466  0.00  0.00     0.011 A 
ATOM     16  C   UNL d   1      -2.997   4.820   0.396  0.00  0.00     0.043 A 
ATOM     17  C   UNL d   1      -3.570   6.054   0.117  0.00  0.00     0.116 A 
ATOM     18  C   UNL d   1      -2.780   7.177  -0.096  0.00  0.00     0.043 A 
ATOM     19  F   UNL d   1      -4.904   6.163   0.046  0.00  0.00    -0.206 F 
ATOM     20  C   UNL d   1      -1.390   7.065  -0.027  0.00  0.00     0.011 A 
ENDBRANCH  13  14
ENDBRANCH   1  13
TORSDOF 6
