REMARK  6 active torsions:
REMARK  status: ('A' for Active; 'I' for Inactive)
REMARK    1  A    between atoms: C_2  and  C_1 
REMARK    2  A    between atoms: C_5  and  C_1 
REMARK    3  A    between atoms: C_8  and  C_1 
REMARK    4  A    between atoms: C_7  and  N_3 
REMARK    5  A    between atoms: O_15  and  C_5 
REMARK    6  A    between atoms: C_19  and  O_15 
ROOT
ATOM      1  C   UNL d   1       0.524  -0.893   1.044  0.00  0.00     0.083 C 
ATOM      2  N   UNL d   1      -0.072  -1.996   0.728  0.00  0.00    -0.367 N 
ATOM      3  HN  UNL d   1      -0.245  -2.228  -0.251  1.00  0.00     0.165 HD
ENDROOT
BRANCH   1   4
ATOM      4  C   UNL d   1       0.983   0.078  -0.014  0.00  0.00     0.193 C 
BRANCH   4   5
ATOM      5  C   UNL d   1       0.507   1.471   0.293  0.00  0.00     0.275 C 
ATOM      6  O   UNL d   1       1.120   2.493   0.005  0.00  0.00    -0.264 OA
BRANCH   5   7
ATOM      7  O   UNL d   1      -0.684   1.442   0.953  0.00  0.00    -0.321 OA
BRANCH   7   8
ATOM      8  C   UNL d   1      -1.058   2.640   1.649  0.00  0.00     0.174 C 
ATOM      9  C   UNL d   1      -0.460   2.581   3.044  0.00  0.00     0.034 C 
ENDBRANCH   7   8
ENDBRANCH   5   7
ENDBRANCH   4   5
BRANCH   4  10
ATOM     10  C   UNL d   1       2.494   0.042  -0.112  0.00  0.00     0.141 C 
ATOM     11  O   UNL d   1       3.193  -0.281   0.853  0.00  0.00    -0.297 OA
ATOM     12  C   UNL d   1       3.135   0.460  -1.410  0.00  0.00     0.092 C 
ENDBRANCH   4  10
ENDBRANCH   1   4
BRANCH   2  13
ATOM     13  C   UNL d   1      -0.481  -2.876   1.755  0.00  0.00     0.053 A 
ATOM     14  C   UNL d   1      -1.668  -3.623   1.620  0.00  0.00     0.062 A 
ATOM     15  C   UNL d   1      -2.061  -4.545   2.596  0.00  0.00     0.050 A 
ATOM     16 CL   UNL d   1      -2.689  -3.438   0.234  0.00  0.00    -0.082 Cl
ATOM     17  C   UNL d   1      -1.270  -4.728   3.725  0.00  0.00     0.035 A 
ATOM     18  C   UNL d   1      -0.094  -4.003   3.886  0.00  0.00     0.026 A 
ATOM     19 CL   UNL d   1      -1.735  -5.872   4.923  0.00  0.00    -0.084 Cl
ATOM     20  C   UNL d   1       0.303  -3.094   2.901  0.00  0.00     0.033 A 
ENDBRANCH   2  13
TORSDOF 6
