REMARK  5 active torsions:
REMARK  status: ('A' for Active; 'I' for Inactive)
REMARK    1  A    between atoms: C_11  and  C_6 
REMARK    2  A    between atoms: C_12  and  C_7 
REMARK    3  A    between atoms: C_8  and  C_10 
REMARK    4  A    between atoms: C_9  and  O_13 
REMARK    5  A    between atoms: O_13  and  C_26 
ROOT
ATOM      1  O   UNL d   1      -1.073  -0.015  -0.101  0.00  0.00    -0.273 OA
ATOM      2  N   UNL d   1       1.032   0.703   0.149  0.00  0.00    -0.277 N 
ATOM      3  HN  UNL d   1       1.835   1.324   0.250  1.00  0.00     0.189 HD
ATOM      4  N   UNL d   1       1.054  -0.674   0.129  0.00  0.00    -0.277 N 
ATOM      5  HN  UNL d   1       1.876  -1.272   0.212  1.00  0.00     0.189 HD
ATOM      6  C   UNL d   1      -0.198  -1.069  -0.021  0.00  0.00     0.174 A 
ATOM      7  C   UNL d   1      -0.228   1.061   0.013  0.00  0.00     0.174 A 
ENDROOT
BRANCH   7   8
ATOM      8  C   UNL d   1      -0.813   2.395  -0.065  0.00  0.00     0.017 A 
ATOM      9  C   UNL d   1       0.017   3.526  -0.003  0.00  0.00     0.018 A 
ATOM     10  C   UNL d   1      -0.508   4.822  -0.121  0.00  0.00     0.038 A 
ATOM     11  C   UNL d   1      -1.872   5.002  -0.331  0.00  0.00     0.078 A 
ATOM     12  C   UNL d   1      -2.712   3.885  -0.339  0.00  0.00     0.038 A 
ATOM     13  C   UNL d   1      -2.191   2.594  -0.215  0.00  0.00     0.018 A 
BRANCH  11  14
ATOM     14  O   UNL d   1      -2.510   6.191  -0.509  0.00  0.00    -0.255 OA
BRANCH  14  15
ATOM     15  C   UNL d   1      -1.799   7.268  -1.101  0.00  0.00     0.530 C 
ATOM     16  F   UNL d   1      -0.720   6.878  -1.814  0.00  0.00    -0.144 F 
ATOM     17  F   UNL d   1      -2.635   7.915  -1.946  0.00  0.00    -0.144 F 
ATOM     18  F   UNL d   1      -1.408   8.137  -0.146  0.00  0.00    -0.144 F 
ENDBRANCH  14  15
ENDBRANCH  11  14
ENDBRANCH   7   8
BRANCH   6  19
ATOM     19  C   UNL d   1      -0.738  -2.418  -0.133  0.00  0.00     0.017 A 
ATOM     20  C   UNL d   1       0.136  -3.516  -0.104  0.00  0.00     0.017 A 
ATOM     21  C   UNL d   1      -0.342  -4.823  -0.234  0.00  0.00     0.017 A 
ATOM     22  C   UNL d   1      -1.713  -5.065  -0.398  0.00  0.00     0.048 A 
ATOM     23  C   UNL d   1      -2.593  -3.971  -0.416  0.00  0.00     0.017 A 
ATOM     24  C   UNL d   1      -2.111  -2.664  -0.284  0.00  0.00     0.017 A 
BRANCH  22  25
ATOM     25  C   UNL d   1      -2.213  -6.480  -0.562  0.00  0.00     0.417 C 
ATOM     26  F   UNL d   1      -3.564  -6.567  -0.712  0.00  0.00    -0.166 F 
ATOM     27  F   UNL d   1      -1.677  -7.095  -1.653  0.00  0.00    -0.166 F 
ATOM     28  F   UNL d   1      -1.903  -7.269   0.502  0.00  0.00    -0.166 F 
ENDBRANCH  22  25
ENDBRANCH   6  19
TORSDOF 5
