REMARK  7 active torsions:
REMARK  status: ('A' for Active; 'I' for Inactive)
REMARK    1  A    between atoms: C_4  and  C_1 
REMARK    2  A    between atoms: N_2  and  C_9 
REMARK    3  A    between atoms: C_3  and  C_7 
REMARK       I    between atoms: N_10  and  C_4 
REMARK    4  A    between atoms: O_15  and  C_6 
REMARK       I    between atoms: C_7  and  N_11 
REMARK    5  A    between atoms: N_11  and  N_10 
REMARK    6  A    between atoms: C_22  and  O_15 
REMARK    7  A    between atoms: O_31  and  C_25 
ROOT
ATOM      1  C   UNL d   1       1.508  -0.148   0.249  0.00  0.00     0.069 C 
ATOM      2  C   UNL d   1       0.585  -1.205   0.357  0.00  0.00     0.056 C 
ATOM      3  C   UNL d   1       1.067   1.086  -0.258  0.00  0.00     0.092 C 
ATOM      4  C   UNL d   1      -0.776  -0.982   0.079  0.00  0.00     0.104 C 
ATOM      5  C   UNL d   1      -0.305   1.315  -0.452  0.00  0.00     0.041 C 
ATOM      6  C   UNL d   1      -1.233   0.291  -0.271  0.00  0.00     0.039 C 
ENDROOT
BRANCH   1   7
ATOM      7  C   UNL d   1       2.904  -0.417   0.720  0.00  0.00     0.273 C 
ATOM      8  N   UNL d   1       3.517   0.612   1.403  0.00  0.00    -0.263 N 
ATOM      9  H   UNL d   1       3.058   1.497   1.610  0.00  0.00     0.190 HD
ATOM     10  O   UNL d   1       3.421  -1.514   0.534  0.00  0.00    -0.266 OA
BRANCH   8  11
ATOM     11  N   UNL d   1       4.789   0.443   1.983  0.00  0.00    -0.263 N 
ATOM     12  C   UNL d   1       5.173   1.412   2.893  0.00  0.00     0.271 C 
ATOM     13  O   UNL d   1       4.383   2.304   3.203  0.00  0.00    -0.266 OA
ATOM     14  H   UNL d   1       5.372  -0.316   1.638  0.00  0.00     0.190 HD
BRANCH  12  15
ATOM     15  C   UNL d   1       6.547   1.418   3.494  0.00  0.00     0.055 A 
ATOM     16  C   UNL d   1       7.615   0.561   3.199  0.00  0.00     0.051 A 
ATOM     17  C   UNL d   1       8.873   0.752   3.809  0.00  0.00     0.048 A 
ATOM     18 CL   UNL d   1       7.508  -0.762   2.093  0.00  0.00    -0.083 Cl
ATOM     19  C   UNL d   1       9.068   1.792   4.717  0.00  0.00     0.035 A 
ATOM     20  C   UNL d   1       8.018   2.637   5.043  0.00  0.00     0.025 A 
ATOM     21 CL   UNL d   1      10.614   2.041   5.427  0.00  0.00    -0.084 Cl
ATOM     22  C   UNL d   1       6.772   2.448   4.439  0.00  0.00     0.020 A 
ENDBRANCH  12  15
ENDBRANCH   8  11
ENDBRANCH   1   7
BRANCH   3  23
ATOM     23  O   UNL d   1       1.847   2.179  -0.545  0.00  0.00    -0.310 OA
BRANCH  23  24
ATOM     24  C   UNL d   1       3.014   2.056  -1.264  0.00  0.00     0.076 A 
ATOM     25  C   UNL d   1       3.398   0.979  -2.070  0.00  0.00     0.040 A 
ATOM     26  C   UNL d   1       4.692   0.938  -2.611  0.00  0.00     0.039 A 
ATOM     27  C   UNL d   1       5.577   1.993  -2.383  0.00  0.00     0.068 A 
ATOM     28  C   UNL d   1       5.146   3.118  -1.685  0.00  0.00     0.039 A 
ATOM     29  C   UNL d   1       3.873   3.146  -1.123  0.00  0.00     0.040 A 
BRANCH  27  30
ATOM     30  O   UNL d   1       6.867   2.043  -2.831  0.00  0.00    -0.356 OA
ATOM     31  C   UNL d   1       7.577   0.810  -2.761  0.00  0.00     0.210 C 
ENDBRANCH  27  30
ENDBRANCH  23  24
ENDBRANCH   3  23
BRANCH   4  32
ATOM     32  N   UNL d   1      -1.737  -2.093   0.152  0.00  0.00    -0.116 N 
ATOM     33  O   UNL d   1      -1.288  -3.225   0.370  0.00  0.00    -0.532 OA
ATOM     34  O   UNL d   1      -2.933  -1.829  -0.025  0.00  0.00    -0.532 OA
ENDBRANCH   4  32
TORSDOF 7
