REMARK  3 active torsions:
REMARK  status: ('A' for Active; 'I' for Inactive)
REMARK    1  A    between atoms: N_6  and  C_1 
REMARK    2  A    between atoms: C_11  and  C_5 
REMARK       I    between atoms: C_8  and  N_6 
REMARK    3  A    between atoms: C_9  and  C_8 
ROOT
ATOM      1  C   UNL d   1       1.057  -0.601  -0.095  0.00  0.00     0.124 A 
ATOM      2  C   UNL d   1       0.918   0.730  -0.407  0.00  0.00     0.081 A 
ATOM      3  N   UNL d   1      -1.125  -0.032   0.217  0.00  0.00    -0.298 N 
ATOM      4  HN  UNL d   1      -2.119  -0.104   0.431  1.00  0.00     0.187 HD
ATOM      5  C   UNL d   1      -0.438   1.065  -0.141  0.00  0.00     0.062 A 
ATOM      6  N   UNL d   1      -0.209  -1.013   0.230  0.00  0.00    -0.285 N 
ATOM      7  H   UNL d   1      -0.522  -1.940   0.494  0.00  0.00     0.188 HD
ENDROOT
BRANCH   1   8
ATOM      8  N   UNL d   1       2.213  -1.380  -0.066  0.00  0.00    -0.308 N 
ATOM      9  C   UNL d   1       3.503  -0.864  -0.437  0.00  0.00     0.257 C 
ATOM     10  O   UNL d   1       3.624   0.235  -0.958  0.00  0.00    -0.267 OA
ATOM     11  H   UNL d   1       2.131  -2.343   0.231  0.00  0.00     0.170 HD
BRANCH   9  12
ATOM     12  C   UNL d   1       4.694  -1.710  -0.186  0.00  0.00     0.032 A 
ATOM     13  C   UNL d   1       5.819  -1.509  -1.002  0.00  0.00     0.018 A 
ATOM     14  C   UNL d   1       7.004  -2.203  -0.755  0.00  0.00     0.025 A 
ATOM     15  C   UNL d   1       7.070  -3.094   0.313  0.00  0.00     0.034 A 
ATOM     16  C   UNL d   1       5.954  -3.308   1.125  0.00  0.00     0.025 A 
ATOM     17 CL   UNL d   1       8.544  -3.910   0.652  0.00  0.00    -0.084 Cl
ATOM     18  C   UNL d   1       4.760  -2.617   0.879  0.00  0.00     0.018 A 
ENDBRANCH   9  12
ENDBRANCH   1   8
BRANCH   5  19
ATOM     19  C   UNL d   1      -1.045   2.398  -0.200  0.00  0.00    -0.008 A 
ATOM     20  C   UNL d   1      -2.426   2.558  -0.375  0.00  0.00     0.014 A 
ATOM     21  C   UNL d   1      -2.993   3.835  -0.426  0.00  0.00     0.001 A 
ATOM     22  C   UNL d   1      -2.188   4.966  -0.297  0.00  0.00     0.000 A 
ATOM     23  C   UNL d   1      -0.816   4.823  -0.113  0.00  0.00     0.001 A 
ATOM     24  C   UNL d   1      -0.248   3.548  -0.065  0.00  0.00     0.014 A 
ENDBRANCH   5  19
TORSDOF 3
