REMARK  4 active torsions:
REMARK  status: ('A' for Active; 'I' for Inactive)
REMARK    1  A    between atoms: S_2  and  N_1 
REMARK    2  A    between atoms: C_11  and  C_3 
REMARK    3  A    between atoms: C_7  and  O_14 
REMARK    4  A    between atoms: O_14  and  C_20 
ROOT
ATOM      1  C   UNL d   1      -2.858  -8.272  -1.424  0.00  0.00     0.100 A 
ATOM      2  C   UNL d   1      -2.924  -7.049  -0.736  0.00  0.00     0.098 A 
ATOM      3  C   UNL d   1      -1.622  -9.002  -1.476  0.00  0.00     0.104 C 
ATOM      4  N   UNL d   1      -0.624  -9.598  -1.512  0.00  0.00    -0.191 NA
ATOM      5  C   UNL d   1      -4.011  -8.754  -2.059  0.00  0.00     0.057 A 
ATOM      6 CL   UNL d   1      -4.022 -10.241  -2.943  0.00  0.00    -0.083 Cl
ATOM      7  C   UNL d   1      -4.144  -6.371  -0.618  0.00  0.00     0.039 A 
ATOM      8  C   UNL d   1      -5.277  -6.848  -1.270  0.00  0.00     0.005 A 
ATOM      9  C   UNL d   1      -5.209  -8.034  -1.996  0.00  0.00     0.025 A 
ENDROOT
BRANCH   2  10
ATOM     10  O   UNL d   1      -1.777  -6.597  -0.118  0.00  0.00    -0.309 OA
BRANCH  10  11
ATOM     11  C   UNL d   1      -1.503  -5.249  -0.090  0.00  0.00     0.076 A 
ATOM     12  C   UNL d   1      -0.761  -4.808   1.001  0.00  0.00     0.038 A 
ATOM     13  C   UNL d   1      -0.371  -3.468   1.101  0.00  0.00     0.016 A 
ATOM     14  C   UNL d   1      -0.758  -2.530   0.138  0.00  0.00    -0.006 A 
ATOM     15  C   UNL d   1      -1.505  -2.992  -0.960  0.00  0.00     0.016 A 
ATOM     16  C   UNL d   1      -1.846  -4.343  -1.093  0.00  0.00     0.038 A 
BRANCH  14  17
ATOM     17  C   UNL d   1      -0.328  -1.123   0.171  0.00  0.00     0.080 A 
ATOM     18  N   UNL d   1      -0.242  -0.250   1.256  0.00  0.00    -0.181 N 
ATOM     19  N   UNL d   1       0.217   0.992   0.906  0.00  0.00    -0.295 N 
ATOM     20  C   UNL d   1       0.415   0.905  -0.407  0.00  0.00     0.111 A 
ATOM     21  HN  UNL d   1       0.370   1.798   1.512  1.00  0.00     0.187 HD
ATOM     22  C   UNL d   1       0.074  -0.354  -0.915  0.00  0.00     0.052 A 
BRANCH  18  23
ATOM     23  S   UNL d   1      -0.541  -0.672   2.908  0.00  0.00     0.246 S 
ATOM     24  O   UNL d   1      -1.766  -1.453   2.905  0.00  0.00    -0.204 OA
ATOM     25  O   UNL d   1       0.720  -1.217   3.384  0.00  0.00    -0.204 OA
ATOM     26  C   UNL d   1      -0.877   0.815   3.801  0.00  0.00     0.188 C 
ENDBRANCH  18  23
ENDBRANCH  14  17
ENDBRANCH  10  11
ENDBRANCH   2  10
TORSDOF 4
