REMARK  2 active torsions:
REMARK  status: ('A' for Active; 'I' for Inactive)
REMARK    1  A    between atoms: C_16  and  N_2 
REMARK    2  A    between atoms: C_18  and  N_5 
ROOT
ATOM      1  C   UNL d   1       2.671  -0.723  -0.016  0.00  0.00     0.139 C 
ATOM      2  N   UNL d   1       4.044  -0.380  -0.019  0.00  0.00    -0.248 N 
ATOM      3  C   UNL d   1       1.741   0.265  -0.078  0.00  0.00     0.105 C 
ATOM      4  C   UNL d   1       4.495   0.962   0.008  0.00  0.00     0.342 C 
ATOM      5  N   UNL d   1       3.524   1.953   0.018  0.00  0.00    -0.229 N 
ATOM      6  N   UNL d   1       2.216  -2.068   0.094  0.00  0.00    -0.302 N 
ATOM      7  C   UNL d   1       2.172   1.701  -0.124  0.00  0.00     0.272 C 
ATOM      8  C   UNL d   1      -0.125  -1.378  -0.093  0.00  0.00     0.061 A 
ATOM      9  C   UNL d   1       0.292  -0.066  -0.075  0.00  0.00     0.068 A 
ATOM     10  C   UNL d   1       0.872  -2.440  -0.057  0.00  0.00     0.261 C 
ATOM     11  N   UNL d   1      -0.620   0.937  -0.047  0.00  0.00    -0.354 N 
ATOM     12  HN  UNL d   1      -0.303   1.906  -0.032  1.00  0.00     0.166 HD
ATOM     13  C   UNL d   1      -1.488  -1.681  -0.081  0.00  0.00     0.033 A 
ATOM     14  C   UNL d   1      -2.426  -0.652  -0.053  0.00  0.00    -0.008 A 
ATOM     15  C   UNL d   1      -1.940   0.666  -0.038  0.00  0.00     0.043 A 
ATOM     16  O   UNL d   1       5.698   1.247  -0.060  0.00  0.00    -0.245 OA
ATOM     17  O   UNL d   1       1.347   2.607  -0.234  0.00  0.00    -0.266 OA
ATOM     18  O   UNL d   1       0.479  -3.603  -0.116  0.00  0.00    -0.267 OA
ATOM     19  C   UNL d   1      -3.808  -0.911  -0.031  0.00  0.00     0.020 A 
ATOM     20  C   UNL d   1       3.059  -3.208   0.434  0.00  0.00     0.161 C 
ATOM     21  C   UNL d   1      -2.870   1.698  -0.013  0.00  0.00     0.031 A 
ATOM     22  C   UNL d   1      -4.729   0.138  -0.005  0.00  0.00    -0.061 A 
ATOM     23  C   UNL d   1      -4.250   1.450   0.001  0.00  0.00     0.009 A 
ATOM     24  C   UNL d   1      -6.205  -0.131   0.011  0.00  0.00     0.048 C 
ENDROOT
BRANCH   2  25
ATOM     25  C   UNL d   1       5.131  -1.304  -0.227  0.00  0.00     0.045 A 
ATOM     26  C   UNL d   1       6.175  -1.369   0.714  0.00  0.00     0.030 A 
ATOM     27  C   UNL d   1       7.293  -2.169   0.486  0.00  0.00     0.002 A 
ATOM     28  C   UNL d   1       7.379  -2.916  -0.686  0.00  0.00     0.000 A 
ATOM     29  C   UNL d   1       6.349  -2.860  -1.627  0.00  0.00     0.002 A 
ATOM     30  C   UNL d   1       5.229  -2.052  -1.406  0.00  0.00     0.030 A 
ENDBRANCH   2  25
BRANCH   5  31
ATOM     31  C   UNL d   1       3.986   3.318  -0.000  0.00  0.00     0.047 A 
ATOM     32  C   UNL d   1       3.553   4.220  -0.984  0.00  0.00     0.030 A 
ATOM     33  C   UNL d   1       4.057   5.522  -1.026  0.00  0.00     0.002 A 
ATOM     34  C   UNL d   1       4.979   5.947  -0.072  0.00  0.00     0.000 A 
ATOM     35  C   UNL d   1       5.406   5.069   0.920  0.00  0.00     0.002 A 
ATOM     36  C   UNL d   1       4.921   3.760   0.949  0.00  0.00     0.030 A 
ENDBRANCH   5  31
TORSDOF 2
