REMARK  5 active torsions:
REMARK  status: ('A' for Active; 'I' for Inactive)
REMARK    1  A    between atoms: C_2  and  S_1 
REMARK    2  A    between atoms: C_8  and  S_1 
REMARK    3  A    between atoms: N_21  and  C_5 
REMARK    4  A    between atoms: C_17  and  C_6 
REMARK    5  A    between atoms: C_7  and  C_11 
ROOT
ATOM      1  C   UNL d   1       0.474  -1.540   0.639  0.00  0.00     0.119 A 
ATOM      2  N   UNL d   1       0.637  -3.901   0.485  0.00  0.00    -0.335 N 
ATOM      3  HN  UNL d   1       1.014  -4.736   0.036  1.00  0.00     0.168 HD
ATOM      4  C   UNL d   1       0.957  -2.671   0.037  0.00  0.00     0.102 A 
ATOM      5  C   UNL d   1      -0.196  -3.998   1.546  0.00  0.00     0.090 A 
ATOM      6  N   UNL d   1      -0.778  -2.932   2.127  0.00  0.00    -0.353 N 
ATOM      7  HN  UNL d   1      -1.455  -3.039   2.882  1.00  0.00     0.166 HD
ATOM      8  C   UNL d   1      -0.421  -1.716   1.664  0.00  0.00     0.116 A 
ENDROOT
BRANCH   1   9
ATOM      9  S   UNL d   1       0.898   0.057   0.099  0.00  0.00     0.226 S 
ATOM     10  O   UNL d   1       0.292   1.014   1.014  0.00  0.00    -0.216 OA
ATOM     11  O   UNL d   1       0.548   0.103  -1.315  0.00  0.00    -0.216 OA
BRANCH   9  12
ATOM     12  C   UNL d   1       2.664   0.312   0.211  0.00  0.00     0.133 A 
ATOM     13  N   UNL d   1       3.288  -0.347   1.222  0.00  0.00    -0.356 N 
ATOM     14  C   UNL d   1       4.634  -0.185   1.288  0.00  0.00     0.105 A 
ATOM     15  HN  UNL d   1       2.778  -0.928   1.888  1.00  0.00     0.166 HD
ATOM     16  C   UNL d   1       5.373   0.599   0.405  0.00  0.00     0.063 A 
ATOM     17  C   UNL d   1       4.678   1.268  -0.611  0.00  0.00     0.020 A 
ATOM     18  C   UNL d   1       3.298   1.123  -0.717  0.00  0.00     0.043 A 
BRANCH  16  19
ATOM     19  C   UNL d   1       6.865   0.711   0.530  0.00  0.00     0.418 C 
ATOM     20  F   UNL d   1       7.383  -0.005   1.563  0.00  0.00    -0.166 F 
ATOM     21  F   UNL d   1       7.511   0.277  -0.587  0.00  0.00    -0.166 F 
ATOM     22  F   UNL d   1       7.275   1.995   0.721  0.00  0.00    -0.166 F 
ENDBRANCH  16  19
ENDBRANCH   9  12
ENDBRANCH   1   9
BRANCH   4  23
ATOM     23  N   UNL d   1       1.824  -2.659  -1.056  0.00  0.00    -0.287 NA
ATOM     24  H   UNL d   1       1.978  -3.630  -1.326  0.00  0.00     0.125 HD
ATOM     25  H   UNL d   1       1.447  -2.120  -1.834  0.00  0.00     0.125 HD
ENDBRANCH   4  23
BRANCH   5  26
ATOM     26  C   UNL d   1      -0.480  -5.386   2.123  0.00  0.00     0.007 C 
ATOM     27  C   UNL d   1      -1.719  -5.993   1.446  0.00  0.00     0.022 C 
ATOM     28  C   UNL d   1       0.728  -6.316   1.896  0.00  0.00     0.022 C 
ATOM     29  C   UNL d   1      -0.731  -5.304   3.643  0.00  0.00     0.022 C 
ENDBRANCH   5  26
TORSDOF 5
