REMARK  6 active torsions:
REMARK  status: ('A' for Active; 'I' for Inactive)
REMARK    1  A    between atoms: C_3  and  C_1 
REMARK    2  A    between atoms: C_6  and  C_1 
REMARK    3  A    between atoms: C_2  and  C_9 
REMARK    4  A    between atoms: O_11  and  C_2 
REMARK    5  A    between atoms: C_9  and  C_6 
REMARK    6  A    between atoms: O_14  and  C_10 
ROOT
ATOM      1  C   UNL d   1       0.237  -0.698   1.079  0.00  0.00     0.010 A 
ATOM      2  C   UNL d   1       0.643  -0.574   2.415  0.00  0.00     0.018 A 
ATOM      3  C   UNL d   1      -0.921  -1.425   0.788  0.00  0.00     0.018 A 
ATOM      4  C   UNL d   1      -1.236  -1.924   3.142  0.00  0.00     0.068 A 
ATOM      5  C   UNL d   1      -1.657  -2.021   1.817  0.00  0.00     0.037 A 
ATOM      6  C   UNL d   1      -0.094  -1.182   3.444  0.00  0.00     0.037 A 
ENDROOT
BRANCH   1   7
ATOM      7  C   UNL d   1       1.070  -0.083  -0.003  0.00  0.00     0.160 C 
ATOM      8  O   UNL d   1       2.278   0.077   0.160  0.00  0.00    -0.292 OA
BRANCH   7   9
ATOM      9  C   UNL d   1       0.392   0.373  -1.287  0.00  0.00     0.094 C 
BRANCH   9  10
ATOM     10  C   UNL d   1       1.351   0.365  -2.470  0.00  0.00     0.117 C 
BRANCH  10  11
ATOM     11  C   UNL d   1       1.837  -1.030  -2.765  0.00  0.00     0.139 C 
ATOM     12  O   UNL d   1       1.218  -1.829  -3.452  0.00  0.00    -0.650 OA
BRANCH  11  13
ATOM     13  O   UNL d   1       3.002  -1.338  -2.158  0.00  0.00    -0.776 OA
ATOM     14  H   UNL d   1       3.293  -0.659  -1.507  0.00  0.00     0.167 HD
ENDBRANCH  11  13
ENDBRANCH  10  11
ENDBRANCH   9  10
ENDBRANCH   7   9
ENDBRANCH   1   7
BRANCH   4  15
ATOM     15  O   UNL d   1      -2.039  -2.549   4.053  0.00  0.00    -0.356 OA
ATOM     16  C   UNL d   1      -1.371  -3.098   5.185  0.00  0.00     0.210 C 
ENDBRANCH   4  15
TORSDOF 6
