REMARK  5 active torsions:
REMARK  status: ('A' for Active; 'I' for Inactive)
REMARK    1  A    between atoms: C_7  and  C_1 
REMARK    2  A    between atoms: C_8  and  C_2 
REMARK    3  A    between atoms: O_12  and  C_7 
REMARK    4  A    between atoms: C_11  and  C_8 
REMARK    5  A    between atoms: C_17  and  O_12 
ROOT
ATOM      1  C   UNL d   1      -0.402  -1.443   0.010  0.00  0.00     0.063 C 
ATOM      2  C   UNL d   1      -1.331  -0.457   0.072  0.00  0.00     0.036 C 
ATOM      3  N   UNL d   1      -0.869   0.850   0.111  0.00  0.00    -0.311 N 
ATOM      4  C   UNL d   1       0.420   1.251  -0.034  0.00  0.00     0.321 C 
ATOM      5  C   UNL d   1       1.083  -1.134   0.043  0.00  0.00     0.123 C 
ATOM      6  N   UNL d   1       1.336   0.272  -0.201  0.00  0.00    -0.334 N 
ATOM      7  O   UNL d   1       0.730   2.438  -0.055  0.00  0.00    -0.247 OA
ATOM      8  C   UNL d   1       1.723  -1.544   1.371  0.00  0.00     0.038 C 
ATOM      9  H   UNL d   1      -1.521   1.621   0.158  0.00  0.00     0.170 HD
ATOM     10  H   UNL d   1       2.288   0.596  -0.303  0.00  0.00     0.165 HD
ENDROOT
BRANCH   2  11
ATOM     11  C   UNL d   1      -2.864  -0.608   0.056  0.00  0.00     0.065 C 
ATOM     12  C   UNL d   1      -3.599   0.422  -0.823  0.00  0.00     0.021 C 
BRANCH  11  13
ATOM     13  C   UNL d   1      -3.488  -0.617   1.450  0.00  0.00    -0.049 A 
ATOM     14  C   UNL d   1      -3.247   0.404   2.384  0.00  0.00     0.008 A 
ATOM     15  C   UNL d   1      -3.880   0.402   3.629  0.00  0.00     0.001 A 
ATOM     16  C   UNL d   1      -4.770  -0.618   3.959  0.00  0.00     0.000 A 
ATOM     17  C   UNL d   1      -5.019  -1.640   3.047  0.00  0.00     0.001 A 
ATOM     18  C   UNL d   1      -4.384  -1.640   1.803  0.00  0.00     0.008 A 
ENDBRANCH  11  13
ENDBRANCH   2  11
BRANCH   1  19
ATOM     19  C   UNL d   1      -0.650  -2.905  -0.153  0.00  0.00     0.293 C 
ATOM     20  O   UNL d   1       0.198  -3.666  -0.598  0.00  0.00    -0.259 OA
BRANCH  19  21
ATOM     21  O   UNL d   1      -1.898  -3.273   0.207  0.00  0.00    -0.318 OA
BRANCH  21  22
ATOM     22  C   UNL d   1      -2.332  -4.549  -0.285  0.00  0.00     0.174 C 
ATOM     23  C   UNL d   1      -2.843  -4.374  -1.707  0.00  0.00     0.034 C 
ENDBRANCH  21  22
ENDBRANCH  19  21
ENDBRANCH   1  19
TORSDOF 5
