REMARK  5 active torsions:
REMARK  status: ('A' for Active; 'I' for Inactive)
REMARK    1  A    between atoms: C_7  and  N_2 
REMARK    2  A    between atoms: C_8  and  C_3 
REMARK    3  A    between atoms: C_11  and  C_4 
REMARK    4  A    between atoms: O_15  and  C_8 
REMARK    5  A    between atoms: C_23  and  O_15 
ROOT
ATOM      1  C   UNL d   1      -1.298   0.113  -0.322  0.00  0.00     0.108 A 
ATOM      2  N   UNL d   1      -0.381   1.188  -0.104  0.00  0.00    -0.302 N 
ATOM      3  C   UNL d   1      -2.601   0.158  -0.692  0.00  0.00     0.153 C 
ATOM      4  C   UNL d   1       0.935   0.670   0.012  0.00  0.00     0.057 A 
ATOM      5  S   UNL d   1      -0.471  -1.495  -0.192  0.00  0.00    -0.080 SA
ATOM      6  C   UNL d   1       1.044  -0.670  -0.028  0.00  0.00     0.082 A 
ATOM      7  C   UNL d   1      -3.230   1.381  -1.057  0.00  0.00     0.108 C 
ATOM      8  N   UNL d   1      -3.775   2.361  -1.365  0.00  0.00    -0.191 NA
ENDROOT
BRANCH   3   9
ATOM      9  C   UNL d   1      -3.473  -1.049  -0.745  0.00  0.00     0.306 C 
ATOM     10  O   UNL d   1      -3.408  -2.005   0.014  0.00  0.00    -0.258 OA
BRANCH   9  11
ATOM     11  O   UNL d   1      -4.400  -0.905  -1.731  0.00  0.00    -0.317 OA
BRANCH  11  12
ATOM     12  C   UNL d   1      -5.349  -1.973  -1.881  0.00  0.00     0.174 C 
ATOM     13  C   UNL d   1      -4.903  -2.869  -3.019  0.00  0.00     0.034 C 
ENDBRANCH  11  12
ENDBRANCH   9  11
ENDBRANCH   3   9
BRANCH   2  14
ATOM     14  C   UNL d   1      -0.765   2.482   0.414  0.00  0.00     0.052 A 
ATOM     15  C   UNL d   1      -1.651   2.615   1.529  0.00  0.00    -0.034 A 
ATOM     16  C   UNL d   1      -2.066   3.896   1.958  0.00  0.00     0.009 A 
ATOM     17  C   UNL d   1      -2.257   1.470   2.302  0.00  0.00     0.050 C 
ATOM     18  C   UNL d   1      -1.572   5.050   1.372  0.00  0.00     0.001 A 
ATOM     19  C   UNL d   1      -0.684   4.941   0.316  0.00  0.00     0.009 A 
ATOM     20  C   UNL d   1      -0.310   3.683  -0.202  0.00  0.00    -0.034 A 
ATOM     21  C   UNL d   1       0.557   3.740  -1.429  0.00  0.00     0.050 C 
ENDBRANCH   2  14
BRANCH   4  22
ATOM     22  C   UNL d   1       2.176   1.453   0.026  0.00  0.00    -0.008 A 
ATOM     23  C   UNL d   1       2.925   1.560  -1.162  0.00  0.00     0.014 A 
ATOM     24  C   UNL d   1       4.107   2.300  -1.199  0.00  0.00     0.001 A 
ATOM     25  C   UNL d   1       4.574   2.908  -0.037  0.00  0.00     0.000 A 
ATOM     26  C   UNL d   1       3.865   2.769   1.157  0.00  0.00     0.001 A 
ATOM     27  C   UNL d   1       2.668   2.044   1.192  0.00  0.00     0.014 A 
ENDBRANCH   4  22
TORSDOF 5
