REMARK  7 active torsions:
REMARK  status: ('A' for Active; 'I' for Inactive)
REMARK    1  A    between atoms: C_7  and  C_1 
REMARK    2  A    between atoms: N_6  and  C_8 
REMARK    3  A    between atoms: C_12  and  N_6 
REMARK    4  A    between atoms: C_9  and  C_7 
REMARK    5  A    between atoms: C_8  and  C_10 
REMARK    6  A    between atoms: C_11  and  C_9 
REMARK    7  A    between atoms: C_10  and  C_11 
ROOT
ATOM      1  C   UNL d   1      -3.562  -6.126  -0.252  0.00  0.00     0.124 C 
ATOM      2  N   UNL d   1      -3.942  -8.663  -0.585  0.00  0.00    -0.191 NA
ATOM      3  N   UNL d   1      -5.617  -4.567  -0.110  0.00  0.00    -0.191 NA
ATOM      4  C   UNL d   1      -3.784  -7.521  -0.435  0.00  0.00     0.110 C 
ATOM      5  C   UNL d   1      -4.699  -5.275  -0.176  0.00  0.00     0.110 C 
ENDROOT
BRANCH   1   6
ATOM      6  C   UNL d   1      -2.326  -5.593  -0.145  0.00  0.00     0.034 C 
BRANCH   6   7
ATOM      7  C   UNL d   1      -1.081  -6.337  -0.186  0.00  0.00     0.002 C 
BRANCH   7   8
ATOM      8  C   UNL d   1       0.136  -5.781  -0.080  0.00  0.00     0.001 C 
BRANCH   8   9
ATOM      9  C   UNL d   1       1.325  -6.606  -0.095  0.00  0.00     0.017 C 
BRANCH   9  10
ATOM     10  C   UNL d   1       2.584  -6.151  -0.005  0.00  0.00     0.090 C 
BRANCH  10  11
ATOM     11  N   UNL d   1       3.773  -6.878   0.009  0.00  0.00    -0.361 N 
ATOM     12  C   UNL d   1       3.817  -8.347   0.008  0.00  0.00     0.155 C 
BRANCH  11  13
ATOM     13  C   UNL d   1       5.060  -6.268   0.082  0.00  0.00     0.033 A 
ATOM     14  C   UNL d   1       5.273  -5.085   0.812  0.00  0.00     0.029 A 
ATOM     15  C   UNL d   1       6.537  -4.487   0.886  0.00  0.00     0.002 A 
ATOM     16  C   UNL d   1       7.621  -5.056   0.227  0.00  0.00     0.000 A 
ATOM     17  C   UNL d   1       7.442  -6.224  -0.505  0.00  0.00     0.002 A 
ATOM     18  C   UNL d   1       6.177  -6.819  -0.575  0.00  0.00     0.029 A 
ENDBRANCH  11  13
ENDBRANCH  10  11
ENDBRANCH   9  10
ENDBRANCH   8   9
ENDBRANCH   7   8
ENDBRANCH   6   7
ENDBRANCH   1   6
TORSDOF 7
