REMARK  2 active torsions:
REMARK  status: ('A' for Active; 'I' for Inactive)
REMARK    1  A    between atoms: C_12  and  C_3 
REMARK    2  A    between atoms: C_14  and  C_12 
ROOT
ATOM      1  C   UNL d   1      -0.235   0.615  -0.008  0.00  0.00     0.178 A 
ATOM      2  C   UNL d   1      -0.241  -0.758  -0.015  0.00  0.00     0.047 A 
ATOM      3  C   UNL d   1       1.036  -1.381  -0.013  0.00  0.00    -0.036 A 
ATOM      4  O   UNL d   1       0.780   1.462  -0.006  0.00  0.00    -0.256 OA
ATOM      5  N   UNL d   1      -1.535   1.008   0.000  0.00  0.00    -0.279 N 
ATOM      6  N   UNL d   1      -2.396  -0.026  -0.004  0.00  0.00    -0.302 N 
ATOM      7  HN  UNL d   1      -3.415   0.010   0.001  1.00  0.00     0.186 HD
ATOM      8  C   UNL d   1       2.019   0.894  -0.006  0.00  0.00     0.290 A 
ATOM      9  C   UNL d   1       2.128  -0.592  -0.000  0.00  0.00     0.090 A 
ATOM     10  C   UNL d   1      -1.610  -1.120  -0.015  0.00  0.00     0.037 A 
ATOM     11  O   UNL d   1       3.044   1.570  -0.006  0.00  0.00    -0.260 OA
ATOM     12  C   UNL d   1      -2.282  -2.443  -0.023  0.00  0.00     0.070 C 
ATOM     13  H   UNL d   1      -1.903   1.952   0.013  0.00  0.00     0.189 HD
ENDROOT
BRANCH   3  14
ATOM     14  C   UNL d   1       1.138  -2.879   0.030  0.00  0.00     0.039 C 
BRANCH  14  15
ATOM     15  C   UNL d   1       1.092  -3.511  -1.365  0.00  0.00     0.000 C 
ATOM     16  C   UNL d   1       1.133  -5.030  -1.286  0.00  0.00     0.005 C 
ENDBRANCH  14  15
ENDBRANCH   3  14
TORSDOF 2
