REMARK  7 active torsions:
REMARK  status: ('A' for Active; 'I' for Inactive)
REMARK    1  A    between atoms: C_2  and  C_1 
REMARK       I    between atoms: N_4  and  C_1 
REMARK    2  A    between atoms: C_12  and  N_4 
REMARK    3  A    between atoms: N_9  and  C_7 
REMARK    4  A    between atoms: N_8  and  C_13 
REMARK    5  A    between atoms: C_14  and  N_8 
REMARK    6  A    between atoms: C_15  and  N_8 
REMARK    7  A    between atoms: C_13  and  C_12 
ROOT
ATOM      1  C   UNL d   1       1.887  -0.922  -0.823  0.00  0.00     0.251 C 
ATOM      2  O   UNL d   1       2.021  -2.027  -0.300  0.00  0.00    -0.268 OA
ATOM      3  N   UNL d   1       2.490   0.210  -0.310  0.00  0.00    -0.355 N 
ATOM      4  H   UNL d   1       2.587   1.046  -0.864  0.00  0.00     0.162 HD
ENDROOT
BRANCH   1   5
ATOM      5  C   UNL d   1       1.022  -0.775  -2.035  0.00  0.00     0.032 A 
ATOM      6  C   UNL d   1       0.443  -1.942  -2.558  0.00  0.00     0.019 A 
ATOM      7  C   UNL d   1      -0.463  -1.876  -3.622  0.00  0.00     0.024 A 
ATOM      8  C   UNL d   1      -0.774  -0.652  -4.213  0.00  0.00     0.005 A 
ATOM      9  C   UNL d   1      -0.232   0.511  -3.663  0.00  0.00     0.024 A 
ATOM     10  C   UNL d   1       0.673   0.455  -2.593  0.00  0.00     0.019 A 
BRANCH   8  11
ATOM     11  N   UNL d   1      -1.798  -0.574  -5.165  0.00  0.00    -0.303 NA
ATOM     12  H   UNL d   1      -1.764   0.255  -5.750  0.00  0.00     0.124 HD
ATOM     13  H   UNL d   1      -1.921  -1.423  -5.709  0.00  0.00     0.124 HD
ENDBRANCH   8  11
ENDBRANCH   1   5
BRANCH   3  14
ATOM     14  C   UNL d   1       3.210   0.164   0.953  0.00  0.00     0.153 C 
BRANCH  14  15
ATOM     15  C   UNL d   1       4.738   0.094   0.782  0.00  0.00     0.292 C 
BRANCH  15  16
ATOM     16  N   UNL d   1       5.377   1.259   0.114  0.00  0.00     0.089 N 
BRANCH  16  17
ATOM     17  C   UNL d   1       5.086   2.546   0.765  0.00  0.00     0.268 C 
ATOM     18  C   UNL d   1       5.651   2.749   2.168  0.00  0.00     0.037 C 
ENDBRANCH  16  17
BRANCH  16  19
ATOM     19  C   UNL d   1       6.821   0.984  -0.035  0.00  0.00     0.268 C 
ATOM     20  C   UNL d   1       7.597   2.054  -0.795  0.00  0.00     0.037 C 
ENDBRANCH  16  19
ENDBRANCH  15  16
ENDBRANCH  14  15
ENDBRANCH   3  14
TORSDOF 7
