REMARK  2 active torsions:
REMARK  status: ('A' for Active; 'I' for Inactive)
REMARK    1  A    between atoms: C_7  and  C_4 
REMARK    2  A    between atoms: C_9  and  C_10 
ROOT
ATOM      1  C   UNL d   1       1.411  -2.398  -0.095  0.00  0.00    -0.002 A 
ATOM      2  C   UNL d   1       2.638  -4.970   0.127  0.00  0.00    -0.051 A 
ATOM      3  C   UNL d   1       1.174  -3.396  -1.048  0.00  0.00     0.015 A 
ATOM      4  C   UNL d   1       2.312  -2.684   0.937  0.00  0.00     0.015 A 
ATOM      5  C   UNL d   1       1.776  -4.657  -0.938  0.00  0.00     0.009 A 
ATOM      6  C   UNL d   1       2.913  -3.946   1.046  0.00  0.00     0.009 A 
ENDROOT
BRANCH   1   7
ATOM      7  C   UNL d   1       0.746  -1.082  -0.160  0.00  0.00     0.096 A 
ATOM      8  C   UNL d   1      -0.506  -0.926  -0.604  0.00  0.00     0.112 A 
ATOM      9  C   UNL d   1      -1.082   0.418  -0.610  0.00  0.00     0.252 A 
ATOM     10  N   UNL d   1      -0.279   1.410  -0.147  0.00  0.00    -0.269 N 
ATOM     11  O   UNL d   1      -2.223   0.616  -1.010  0.00  0.00    -0.268 OA
ATOM     12  C   UNL d   1       0.988   1.257   0.342  0.00  0.00     0.372 A 
ATOM     13  H   UNL d   1      -0.659   2.343  -0.131  0.00  0.00     0.174 HD
ATOM     14  O   UNL d   1       1.515  -0.006   0.329  0.00  0.00    -0.260 OA
ATOM     15  O   UNL d   1       1.621   2.216   0.777  0.00  0.00    -0.238 OA
ENDBRANCH   1   7
BRANCH   2  16
ATOM     16  C   UNL d   1       3.210  -6.392   0.272  0.00  0.00    -0.024 C 
ATOM     17  C   UNL d   1       4.094  -6.572   1.526  0.00  0.00     0.019 C 
ATOM     18  C   UNL d   1       2.046  -7.402   0.386  0.00  0.00     0.019 C 
ATOM     19  C   UNL d   1       4.070  -6.758  -0.955  0.00  0.00     0.019 C 
ENDBRANCH   2  16
TORSDOF 2
