REMARK  5 active torsions:
REMARK  status: ('A' for Active; 'I' for Inactive)
REMARK    1  A    between atoms: S_12  and  C_3 
REMARK    2  A    between atoms: C_7  and  C_4 
REMARK    3  A    between atoms: O_16  and  C_7 
REMARK    4  A    between atoms: C_14  and  C_19 
REMARK    5  A    between atoms: C_19  and  O_16 
ROOT
ATOM      1  C   UNL d   1       0.142  -0.771   0.079  0.00  0.00     0.041 A 
ATOM      2  C   UNL d   1       0.484   0.645   0.007  0.00  0.00    -0.018 A 
ATOM      3  C   UNL d   1       1.264  -1.579   0.103  0.00  0.00     0.056 A 
ATOM      4  C   UNL d   1       1.858   0.854  -0.051  0.00  0.00     0.088 A 
ATOM      5  S   UNL d   1       2.698  -0.635   0.033  0.00  0.00    -0.076 SA
ATOM      6  C   UNL d   1      -1.256  -1.181   0.151  0.00  0.00     0.162 C 
ATOM      7  C   UNL d   1      -0.590   1.724  -0.020  0.00  0.00     0.050 C 
ATOM      8  C   UNL d   1      -2.004   1.192   0.359  0.00  0.00    -0.037 C 
ATOM      9  C   UNL d   1      -2.252  -0.153  -0.347  0.00  0.00     0.093 C 
ATOM     10  O   UNL d   1      -1.647  -2.251   0.612  0.00  0.00    -0.292 OA
ATOM     11  C   UNL d   1      -3.090   2.183  -0.097  0.00  0.00     0.015 C 
ATOM     12  C   UNL d   1      -2.133   1.026   1.889  0.00  0.00     0.015 C 
ENDROOT
BRANCH   4  13
ATOM     13  C   UNL d   1       2.574   2.121  -0.209  0.00  0.00     0.301 C 
ATOM     14  O   UNL d   1       2.027   3.212  -0.342  0.00  0.00    -0.259 OA
BRANCH  13  15
ATOM     15  O   UNL d   1       3.926   1.935  -0.277  0.00  0.00    -0.313 OA
BRANCH  15  16
ATOM     16  C   UNL d   1       4.685   2.997  -0.867  0.00  0.00     0.206 C 
BRANCH  16  17
ATOM     17  C   UNL d   1       5.624   3.595   0.134  0.00  0.00    -0.011 C 
ATOM     18  C   UNL d   1       5.681   4.906   0.416  0.00  0.00     0.009 C 
ENDBRANCH  16  17
ENDBRANCH  15  16
ENDBRANCH  13  15
ENDBRANCH   4  13
BRANCH   3  19
ATOM     19  S   UNL d   1       1.453  -3.329   0.241  0.00  0.00    -0.126 SA
ATOM     20  C   UNL d   1       0.172  -4.038  -0.811  0.00  0.00     0.096 C 
ENDBRANCH   3  19
TORSDOF 5
