REMARK  5 active torsions:
REMARK  status: ('A' for Active; 'I' for Inactive)
REMARK    1  A    between atoms: C_10  and  C_1 
REMARK    2  A    between atoms: S_2  and  C_3 
REMARK    3  A    between atoms: O_12  and  S_2 
REMARK    4  A    between atoms: C_11  and  C_8 
REMARK    5  A    between atoms: C_15  and  O_12 
ROOT
ATOM      1  C   UNL d   1       4.331   3.334   0.226  0.00  0.00     0.128 A 
ATOM      2  S   UNL d   1       2.969   2.825   1.130  0.00  0.00    -0.074 SA
ATOM      3  C   UNL d   1       2.589   1.593   0.010  0.00  0.00     0.034 A 
ATOM      4  C   UNL d   1       4.518   2.540  -0.890  0.00  0.00     0.035 A 
ATOM      5  C   UNL d   1       3.511   1.537  -1.015  0.00  0.00     0.023 A 
ENDROOT
BRANCH   1   6
ATOM      6  S   UNL d   1       5.203   4.766   0.833  0.00  0.00     0.309 S 
ATOM      7  O   UNL d   1       5.966   5.239  -0.306  0.00  0.00    -0.192 OA
ATOM      8  O   UNL d   1       4.214   5.589   1.497  0.00  0.00    -0.192 OA
BRANCH   6   9
ATOM      9  O   UNL d   1       6.217   4.096   1.925  0.00  0.00    -0.229 OA
BRANCH   9  10
ATOM     10  C   UNL d   1       7.115   4.873   2.621  0.00  0.00     0.092 A 
ATOM     11  C   UNL d   1       6.894   6.210   2.961  0.00  0.00     0.062 A 
ATOM     12  C   UNL d   1       7.851   6.910   3.699  0.00  0.00     0.038 A 
ATOM     13 CL   UNL d   1       7.562   8.556   4.113  0.00  0.00    -0.084 Cl
ATOM     14  C   UNL d   1       9.028   6.295   4.108  0.00  0.00     0.048 A 
ATOM     15  C   UNL d   1       9.242   4.960   3.776  0.00  0.00     0.038 A 
ATOM     16  C   UNL d   1       8.292   4.245   3.041  0.00  0.00     0.062 A 
ATOM     17 CL   UNL d   1      10.691   4.184   4.285  0.00  0.00    -0.084 Cl
ENDBRANCH   9  10
ENDBRANCH   6   9
ENDBRANCH   1   6
BRANCH   3  18
ATOM     18  C   UNL d   1       1.409   0.675   0.128  0.00  0.00     0.067 A 
ATOM     19  C   UNL d   1       0.377   0.741   1.084  0.00  0.00     0.068 A 
ATOM     20  C   UNL d   1      -0.466  -0.323   0.807  0.00  0.00     0.136 A 
ATOM     21  N   UNL d   1       0.111  -0.972  -0.251  0.00  0.00    -0.292 N 
ATOM     22  N   UNL d   1       1.221  -0.351  -0.707  0.00  0.00    -0.297 N 
ATOM     23  C   UNL d   1      -0.235  -2.219  -0.893  0.00  0.00     0.178 C 
ATOM     24  HN  UNL d   1       1.791  -0.610  -1.513  1.00  0.00     0.187 HD
BRANCH  20  25
ATOM     25  C   UNL d   1      -1.709  -0.716   1.502  0.00  0.00     0.434 C 
ATOM     26  F   UNL d   1      -2.361  -1.760   0.941  0.00  0.00    -0.165 F 
ATOM     27  F   UNL d   1      -1.459  -1.061   2.790  0.00  0.00    -0.165 F 
ATOM     28  F   UNL d   1      -2.594   0.313   1.540  0.00  0.00    -0.165 F 
ENDBRANCH  20  25
ENDBRANCH   3  18
TORSDOF 5
