REMARK  3 active torsions:
REMARK  status: ('A' for Active; 'I' for Inactive)
REMARK    1  A    between atoms: N_2  and  C_1 
REMARK       I    between atoms: C_3  and  N_2 
REMARK       I    between atoms: N_9  and  C_3 
REMARK    2  A    between atoms: C_4  and  C_10 
REMARK    3  A    between atoms: C_17  and  N_9 
ROOT
ATOM      1  N   UNL d   1      -1.430   4.235  -0.162  0.00  0.00    -0.301 N 
ATOM      2  C   UNL d   1      -1.111   2.891  -0.045  0.00  0.00     0.325 C 
ATOM      3  N   UNL d   1      -2.260   2.123  -0.184  0.00  0.00    -0.309 N 
ATOM      4  O   UNL d   1       0.007   2.450   0.196  0.00  0.00    -0.247 OA
ATOM      5  H   UNL d   1      -2.277   4.479   0.334  0.00  0.00     0.171 HD
ATOM      6  H   UNL d   1      -2.934   2.496  -0.839  0.00  0.00     0.170 HD
ENDROOT
BRANCH   3   7
ATOM      7  C   UNL d   1      -2.381   0.763   0.158  0.00  0.00     0.036 A 
ATOM      8  C   UNL d   1      -1.593   0.162   1.141  0.00  0.00     0.030 A 
ATOM      9  C   UNL d   1      -1.749  -1.195   1.444  0.00  0.00     0.018 A 
ATOM     10  C   UNL d   1      -2.690  -1.977   0.758  0.00  0.00     0.048 A 
ATOM     11  C   UNL d   1      -3.504  -1.359  -0.202  0.00  0.00     0.018 A 
ATOM     12  C   UNL d   1      -3.362   0.004  -0.487  0.00  0.00     0.030 A 
BRANCH  10  13
ATOM     13  C   UNL d   1      -2.806  -3.452   1.054  0.00  0.00     0.417 C 
ATOM     14  F   UNL d   1      -3.681  -4.103   0.237  0.00  0.00    -0.166 F 
ATOM     15  F   UNL d   1      -1.619  -4.107   0.921  0.00  0.00    -0.166 F 
ATOM     16  F   UNL d   1      -3.229  -3.700   2.325  0.00  0.00    -0.166 F 
ENDBRANCH  10  13
ENDBRANCH   3   7
BRANCH   1  17
ATOM     17  C   UNL d   1      -0.432   5.191  -0.090  0.00  0.00     0.099 A 
ATOM     18  C   UNL d   1       0.778   5.351  -0.724  0.00  0.00     0.068 A 
ATOM     19  C   UNL d   1       1.452   6.522  -0.259  0.00  0.00     0.034 A 
ATOM     20 CL   UNL d   1       1.420   4.387  -1.982  0.00  0.00    -0.081 Cl
ATOM     21  C   UNL d   1       0.731   7.192   0.706  0.00  0.00     0.053 A 
ATOM     22  S   UNL d   1      -0.792   6.462   0.981  0.00  0.00    -0.082 SA
ENDBRANCH   1  17
TORSDOF 3
