REMARK  6 active torsions:
REMARK  status: ('A' for Active; 'I' for Inactive)
REMARK       I    between atoms: C_3  and  N_1 
REMARK    1  A    between atoms: C_4  and  N_1 
REMARK    2  A    between atoms: C_2  and  C_5 
REMARK    3  A    between atoms: C_6  and  C_3 
REMARK    4  A    between atoms: S_8  and  C_4 
REMARK    5  A    between atoms: C_17  and  S_8 
REMARK    6  A    between atoms: C_18  and  C_17 
ROOT
ATOM      1  N   UNL d   1       1.271  -0.052  -0.066  0.00  0.00    -0.308 N 
ATOM      2  C   UNL d   1       0.447   0.946  -0.583  0.00  0.00     0.257 C 
ATOM      3  O   UNL d   1       0.804   2.083  -0.875  0.00  0.00    -0.267 OA
ATOM      4  H   UNL d   1       0.883  -0.979   0.025  0.00  0.00     0.170 HD
ENDROOT
BRANCH   1   5
ATOM      5  C   UNL d   1       2.619   0.001   0.273  0.00  0.00     0.141 C 
ATOM      6  S   UNL d   1       3.627   1.329   0.199  0.00  0.00    -0.052 SA
BRANCH   5   7
ATOM      7  S   UNL d   1       3.119  -1.632   0.752  0.00  0.00    -0.096 SA
BRANCH   7   8
ATOM      8  C   UNL d   1       4.520  -1.314   1.869  0.00  0.00     0.120 C 
BRANCH   8   9
ATOM      9  C   UNL d   1       5.211  -2.573   2.346  0.00  0.00    -0.049 A 
ATOM     10  C   UNL d   1       6.365  -3.038   1.695  0.00  0.00     0.008 A 
ATOM     11  C   UNL d   1       7.065  -4.144   2.186  0.00  0.00     0.001 A 
ATOM     12  C   UNL d   1       6.614  -4.804   3.326  0.00  0.00     0.000 A 
ATOM     13  C   UNL d   1       5.456  -4.368   3.967  0.00  0.00     0.001 A 
ATOM     14  C   UNL d   1       4.755  -3.262   3.479  0.00  0.00     0.008 A 
ENDBRANCH   8   9
ENDBRANCH   7   8
ENDBRANCH   5   7
ENDBRANCH   1   5
BRANCH   2  15
ATOM     15  C   UNL d   1      -0.984   0.586  -0.834  0.00  0.00     0.032 A 
ATOM     16  C   UNL d   1      -1.660  -0.402  -0.110  0.00  0.00     0.018 A 
ATOM     17  C   UNL d   1      -3.020  -0.643  -0.350  0.00  0.00     0.017 A 
ATOM     18  C   UNL d   1      -3.731   0.101  -1.306  0.00  0.00     0.048 A 
ATOM     19  C   UNL d   1      -3.046   1.084  -2.036  0.00  0.00     0.017 A 
ATOM     20  C   UNL d   1      -1.689   1.325  -1.798  0.00  0.00     0.018 A 
BRANCH  18  21
ATOM     21  C   UNL d   1      -5.210  -0.115  -1.532  0.00  0.00     0.417 C 
ATOM     22  F   UNL d   1      -5.740  -1.094  -0.746  0.00  0.00    -0.166 F 
ATOM     23  F   UNL d   1      -5.944   1.003  -1.278  0.00  0.00    -0.166 F 
ATOM     24  F   UNL d   1      -5.498  -0.470  -2.814  0.00  0.00    -0.166 F 
ENDBRANCH  18  21
ENDBRANCH   2  15
TORSDOF 6
