REMARK  3 active torsions:
REMARK  status: ('A' for Active; 'I' for Inactive)
REMARK    1  A    between atoms: C_8  and  N_1 
REMARK    2  A    between atoms: C_7  and  C_9 
REMARK    3  A    between atoms: O_16  and  C_7 
ROOT
ATOM      1  C   UNL d   1       1.279   2.338   0.123  0.00  0.00     0.059 A 
ATOM      2  C   UNL d   1       2.688   4.792   0.166  0.00  0.00     0.037 A 
ATOM      3  C   UNL d   1       2.282   2.613  -0.817  0.00  0.00     0.032 A 
ATOM      4  C   UNL d   1       1.000   3.316   1.092  0.00  0.00     0.032 A 
ATOM      5  C   UNL d   1       1.703   4.526   1.120  0.00  0.00     0.020 A 
ATOM      6  C   UNL d   1       2.982   3.828  -0.802  0.00  0.00     0.020 A 
ENDROOT
BRANCH   1   7
ATOM      7  N   UNL d   1       0.563   1.115   0.119  0.00  0.00    -0.224 N 
ATOM      8  C   UNL d   1       0.792  -0.014  -0.683  0.00  0.00     0.248 A 
ATOM      9  C   UNL d   1      -0.261  -0.995  -0.262  0.00  0.00     0.158 A 
ATOM     10  O   UNL d   1       1.638  -0.233  -1.535  0.00  0.00    -0.271 OA
ATOM     11  C   UNL d   1      -1.049  -0.173   0.704  0.00  0.00     0.009 A 
ATOM     12  N   UNL d   1      -0.545   0.998   0.941  0.00  0.00    -0.299 N 
ATOM     13  C   UNL d   1      -2.304  -0.680   1.323  0.00  0.00     0.065 C 
ATOM     14  HN  UNL d   1      -0.895   1.692   1.600  1.00  0.00     0.187 HD
ENDBRANCH   1   7
BRANCH   2  15
ATOM     15  C   UNL d   1       3.427   6.074   0.264  0.00  0.00     0.176 C 
ATOM     16  O   UNL d   1       3.582   6.667   1.319  0.00  0.00    -0.646 OA
BRANCH  15  17
ATOM     17  O   UNL d   1       3.884   6.553  -0.913  0.00  0.00    -0.773 OA
ATOM     18  H   UNL d   1       3.557   6.092  -1.708  0.00  0.00     0.167 HD
ENDBRANCH  15  17
ENDBRANCH   2  15
TORSDOF 3
