REMARK  4 active torsions:
REMARK  status: ('A' for Active; 'I' for Inactive)
REMARK    1  A    between atoms: C_9  and  C_1 
REMARK    2  A    between atoms: C_10  and  C_1 
REMARK    3  A    between atoms: N_11  and  C_6 
REMARK    4  A    between atoms: C_12  and  C_8 
ROOT
ATOM      1  C   UNL d   1       1.429  -0.293   0.117  0.00  0.00     0.308 C 
ATOM      2  N   UNL d   1       0.850   1.040  -0.119  0.00  0.00    -0.314 N 
ATOM      3  HN  UNL d   1       1.474   1.836  -0.251  1.00  0.00     0.166 HD
ATOM      4  N   UNL d   1       0.428  -1.354  -0.044  0.00  0.00    -0.328 N 
ATOM      5  HN  UNL d   1       0.714  -2.332  -0.080  1.00  0.00     0.164 HD
ATOM      6  C   UNL d   1      -0.406   1.223  -0.163  0.00  0.00     0.225 C 
ATOM      7  O   UNL d   1      -1.304   0.215  -0.118  0.00  0.00    -0.262 OA
ATOM      8  C   UNL d   1      -0.805  -1.036  -0.140  0.00  0.00     0.160 C 
ENDROOT
BRANCH   1   9
ATOM      9  C   UNL d   1       2.577  -0.498  -0.920  0.00  0.00     0.441 C 
ATOM     10  F   UNL d   1       3.078   0.679  -1.378  0.00  0.00    -0.166 F 
ATOM     11  F   UNL d   1       3.624  -1.229  -0.488  0.00  0.00    -0.166 F 
ATOM     12  F   UNL d   1       2.109  -1.149  -2.025  0.00  0.00    -0.166 F 
ENDBRANCH   1   9
BRANCH   1  13
ATOM     13  C   UNL d   1       2.047  -0.318   1.555  0.00  0.00     0.441 C 
ATOM     14  F   UNL d   1       1.947   0.890   2.176  0.00  0.00    -0.166 F 
ATOM     15  F   UNL d   1       1.370  -1.186   2.359  0.00  0.00    -0.166 F 
ATOM     16  F   UNL d   1       3.346  -0.667   1.633  0.00  0.00    -0.166 F 
ENDBRANCH   1  13
BRANCH   6  17
ATOM     17  N   UNL d   1      -0.969   2.475  -0.272  0.00  0.00    -0.356 N 
ATOM     18  C   UNL d   1      -2.385   2.730  -0.466  0.00  0.00     0.152 C 
ATOM     19  C   UNL d   1      -0.131   3.671  -0.266  0.00  0.00     0.152 C 
ENDBRANCH   6  17
BRANCH   8  20
ATOM     20  C   UNL d   1      -1.871  -2.039  -0.351  0.00  0.00     0.015 A 
ATOM     21  C   UNL d   1      -1.510  -3.289  -0.869  0.00  0.00     0.016 A 
ATOM     22  C   UNL d   1      -2.479  -4.261  -1.117  0.00  0.00     0.007 A 
ATOM     23  C   UNL d   1      -3.828  -3.998  -0.851  0.00  0.00    -0.062 A 
ATOM     24  C   UNL d   1      -4.188  -2.751  -0.326  0.00  0.00     0.007 A 
ATOM     25  C   UNL d   1      -4.856  -5.054  -1.130  0.00  0.00     0.048 C 
ATOM     26  C   UNL d   1      -3.218  -1.772  -0.082  0.00  0.00     0.016 A 
ENDBRANCH   8  20
TORSDOF 4
