REMARK  6 active torsions:
REMARK  status: ('A' for Active; 'I' for Inactive)
REMARK    1  A    between atoms: N_7  and  S_1 
REMARK    2  A    between atoms: C_14  and  S_1 
REMARK    3  A    between atoms: N_2  and  C_15 
REMARK    4  A    between atoms: C_11  and  C_6 
REMARK    5  A    between atoms: N_13  and  C_10 
REMARK    6  A    between atoms: S_21  and  C_10 
ROOT
ATOM      1  C   UNL d   1      -0.738   1.782  -1.897  0.00  0.00     0.080 A 
ATOM      2  C   UNL d   1      -1.056   0.499  -4.363  0.00  0.00     0.057 A 
ATOM      3  C   UNL d   1      -1.076   2.525  -3.036  0.00  0.00     0.027 A 
ATOM      4  C   UNL d   1      -0.532   0.405  -1.986  0.00  0.00     0.027 A 
ATOM      5  C   UNL d   1      -0.691  -0.237  -3.223  0.00  0.00     0.033 A 
ATOM      6  C   UNL d   1      -1.218   1.887  -4.271  0.00  0.00     0.033 A 
ENDROOT
BRANCH   2   7
ATOM      7  N   UNL d   1      -1.248  -0.140  -5.626  0.00  0.00    -0.255 N 
ATOM      8  C   UNL d   1      -1.692  -1.430  -5.904  0.00  0.00     0.076 C 
ATOM      9  C   UNL d   1      -1.452  -1.622  -7.251  0.00  0.00     0.069 C 
ATOM     10  C   UNL d   1      -2.336  -2.328  -4.980  0.00  0.00     0.033 A 
ATOM     11  C   UNL d   1      -0.989  -0.381  -7.750  0.00  0.00     0.135 C 
ATOM     12  N   UNL d   1      -0.966   0.543  -6.770  0.00  0.00    -0.289 N 
ATOM     13  HN  UNL d   1      -0.778   1.542  -6.865  1.00  0.00     0.187 HD
ATOM     14  S   UNL d   1      -2.124  -4.028  -5.087  0.00  0.00    -0.100 SA
ATOM     15  C   UNL d   1      -3.199  -2.004  -3.947  0.00  0.00     0.021 A 
ATOM     16  C   UNL d   1      -3.104  -4.308  -3.716  0.00  0.00     0.050 A 
ATOM     17  C   UNL d   1      -3.608  -3.141  -3.193  0.00  0.00     0.008 A 
BRANCH  11  18
ATOM     18  C   UNL d   1      -0.608  -0.097  -9.181  0.00  0.00     0.434 C 
ATOM     19  F   UNL d   1      -0.195   1.178  -9.399  0.00  0.00    -0.165 F 
ATOM     20  F   UNL d   1       0.403  -0.910  -9.593  0.00  0.00    -0.165 F 
ATOM     21  F   UNL d   1      -1.648  -0.325 -10.029  0.00  0.00    -0.165 F 
ENDBRANCH  11  18
ENDBRANCH   2   7
BRANCH   1  22
ATOM     22  S   UNL d   1      -0.405   2.635  -0.356  0.00  0.00     0.264 S 
ATOM     23  O   UNL d   1       0.979   2.316  -0.055  0.00  0.00    -0.200 OA
ATOM     24  O   UNL d   1      -0.823   4.003  -0.581  0.00  0.00    -0.200 OA
BRANCH  22  25
ATOM     25  N   UNL d   1      -1.376   1.944   0.745  0.00  0.00    -0.260 N 
ATOM     26  C   UNL d   1      -1.496   2.417   1.952  0.00  0.00     0.151 C 
ATOM     27  HN  UNL d   1      -1.908   1.114   0.484  1.00  0.00     0.181 HD
BRANCH  26  28
ATOM     28  N   UNL d   1      -2.386   1.863   2.869  0.00  0.00    -0.361 N 
ATOM     29  C   UNL d   1      -3.249   0.727   2.551  0.00  0.00     0.125 C 
ATOM     30  C   UNL d   1      -4.595   1.103   3.157  0.00  0.00     0.021 C 
ATOM     31  C   UNL d   1      -4.202   1.839   4.424  0.00  0.00     0.021 C 
ATOM     32  C   UNL d   1      -2.932   2.587   4.028  0.00  0.00     0.125 C 
ENDBRANCH  26  28
BRANCH  26  33
ATOM     33  S   UNL d   1      -0.586   3.819   2.558  0.00  0.00    -0.098 SA
ATOM     34  C   UNL d   1       0.906   2.993   3.146  0.00  0.00     0.099 C 
ENDBRANCH  26  33
ENDBRANCH  22  25
ENDBRANCH   1  22
TORSDOF 6
