REMARK  6 active torsions:
REMARK  status: ('A' for Active; 'I' for Inactive)
REMARK    1  A    between atoms: C_2  and  C_1 
REMARK    2  A    between atoms: C_3  and  C_6 
REMARK    3  A    between atoms: S_5  and  C_4 
REMARK    4  A    between atoms: C_18  and  S_5 
REMARK    5  A    between atoms: C_7  and  C_18 
REMARK       I    between atoms: N_10  and  C_7 
REMARK    6  A    between atoms: C_21  and  N_10 
ROOT
ATOM      1  C   UNL d   1       2.739   1.757   2.967  0.00  0.00     0.231 C 
ATOM      2  N   UNL d   1       2.841   3.120   3.240  0.00  0.00    -0.327 N 
ATOM      3  O   UNL d   1       3.300   0.867   3.602  0.00  0.00    -0.272 OA
ATOM      4  H   UNL d   1       2.224   3.739   2.730  0.00  0.00     0.169 HD
ENDROOT
BRANCH   1   5
ATOM      5  C   UNL d   1       1.855   1.483   1.753  0.00  0.00     0.184 C 
BRANCH   5   6
ATOM      6  S   UNL d   1       1.668  -0.297   1.405  0.00  0.00    -0.102 SA
BRANCH   6   7
ATOM      7  C   UNL d   1       0.813  -0.799   2.887  0.00  0.00     0.085 A 
ATOM      8  C   UNL d   1       1.100  -1.957   3.605  0.00  0.00     0.081 A 
ATOM      9  C   UNL d   1       0.252  -2.274   4.685  0.00  0.00     0.020 A 
ATOM     10  C   UNL d   1      -0.807  -1.443   5.025  0.00  0.00     0.018 A 
ATOM     11  C   UNL d   1      -0.993  -0.305   4.272  0.00  0.00     0.089 A 
ATOM     12  N   UNL d   1      -0.218   0.027   3.219  0.00  0.00    -0.360 N 
ATOM     13  HN  UNL d   1      -0.399   0.876   2.684  1.00  0.00     0.166 HD
BRANCH   8  14
ATOM     14  C   UNL d   1       2.224  -2.901   3.302  0.00  0.00     0.420 C 
ATOM     15  F   UNL d   1       3.180  -2.479   2.437  0.00  0.00    -0.166 F 
ATOM     16  F   UNL d   1       1.763  -4.082   2.792  0.00  0.00    -0.166 F 
ATOM     17  F   UNL d   1       2.904  -3.256   4.436  0.00  0.00    -0.166 F 
ENDBRANCH   8  14
ENDBRANCH   6   7
ENDBRANCH   5   6
ENDBRANCH   1   5
BRANCH   2  18
ATOM     18  C   UNL d   1       3.679   3.729   4.202  0.00  0.00     0.034 A 
ATOM     19  C   UNL d   1       4.650   3.038   4.927  0.00  0.00     0.030 A 
ATOM     20  C   UNL d   1       5.456   3.700   5.860  0.00  0.00     0.018 A 
ATOM     21  C   UNL d   1       5.308   5.072   6.087  0.00  0.00     0.048 A 
ATOM     22  C   UNL d   1       4.339   5.771   5.353  0.00  0.00     0.018 A 
ATOM     23  C   UNL d   1       3.536   5.106   4.417  0.00  0.00     0.030 A 
BRANCH  21  24
ATOM     24  C   UNL d   1       6.171   5.789   7.098  0.00  0.00     0.417 C 
ATOM     25  F   UNL d   1       7.066   4.977   7.727  0.00  0.00    -0.166 F 
ATOM     26  F   UNL d   1       6.906   6.790   6.538  0.00  0.00    -0.166 F 
ATOM     27  F   UNL d   1       5.439   6.371   8.087  0.00  0.00    -0.166 F 
ENDBRANCH  21  24
ENDBRANCH   2  18
TORSDOF 6
