REMARK  3 active torsions:
REMARK  status: ('A' for Active; 'I' for Inactive)
REMARK    1  A    between atoms: C_3  and  N_1 
REMARK    2  A    between atoms: S_8  and  C_4 
REMARK    3  A    between atoms: C_13  and  S_8 
ROOT
ATOM      1  C   UNL d   1       0.146  -0.979  -3.546  0.00  0.00     0.064 A 
ATOM      2  C   UNL d   1       0.261  -0.024  -1.313  0.00  0.00     0.104 A 
ATOM      3  C   UNL d   1      -1.058  -0.289  -3.781  0.00  0.00     0.026 A 
ATOM      4  N   UNL d   1       1.310  -2.456  -5.338  0.00  0.00    -0.191 NA
ATOM      5  C   UNL d   1       0.768  -1.795  -4.550  0.00  0.00     0.101 C 
ATOM      6  C   UNL d   1       0.798  -0.856  -2.305  0.00  0.00     0.060 A 
ATOM      7  C   UNL d   1      -0.917   0.690  -1.551  0.00  0.00     0.037 A 
ATOM      8  C   UNL d   1      -1.570   0.554  -2.780  0.00  0.00     0.023 A 
ENDROOT
BRANCH   3   9
ATOM      9  S   UNL d   1      -1.947  -0.356  -5.336  0.00  0.00    -0.089 SA
BRANCH   9  10
ATOM     10  C   UNL d   1      -3.118  -1.668  -5.020  0.00  0.00     0.005 A 
ATOM     11  C   UNL d   1      -4.346  -1.404  -4.403  0.00  0.00     0.019 A 
ATOM     12  C   UNL d   1      -5.272  -2.433  -4.204  0.00  0.00     0.001 A 
ATOM     13  C   UNL d   1      -4.978  -3.728  -4.627  0.00  0.00     0.000 A 
ATOM     14  C   UNL d   1      -3.763  -3.994  -5.257  0.00  0.00     0.001 A 
ATOM     15  C   UNL d   1      -2.837  -2.967  -5.455  0.00  0.00     0.019 A 
ENDBRANCH   9  10
ENDBRANCH   3   9
BRANCH   2  16
ATOM     16  N   UNL d   1       0.946   0.109  -0.020  0.00  0.00    -0.116 N 
ATOM     17  O   UNL d   1       1.976  -0.556   0.155  0.00  0.00    -0.532 OA
ATOM     18  O   UNL d   1       0.451   0.877   0.816  0.00  0.00    -0.532 OA
ENDBRANCH   2  16
TORSDOF 3
