REMARK  10 active torsions:
REMARK  status: ('A' for Active; 'I' for Inactive)
REMARK    1  A    between atoms: C_8  and  S_1 
REMARK    2  A    between atoms: C_9  and  S_1 
REMARK    3  A    between atoms: N_2  and  C_5 
REMARK       I    between atoms: C_6  and  N_2 
REMARK    4  A    between atoms: N_3  and  C_4 
REMARK       I    between atoms: C_7  and  N_3 
REMARK    5  A    between atoms: C_4  and  N_10 
REMARK    6  A    between atoms: C_5  and  N_11 
REMARK    7  A    between atoms: C_19  and  C_6 
REMARK    8  A    between atoms: C_18  and  C_7 
REMARK    9  A    between atoms: N_10  and  C_24 
REMARK   10  A    between atoms: N_11  and  C_25 
ROOT
ATOM      1  S   UNL d   1       1.276   0.115  -0.064  0.00  0.00     0.206 S 
ATOM      2  O   UNL d   1       0.499  -0.652  -1.020  0.00  0.00    -0.217 OA
ATOM      3  O   UNL d   1       2.728   0.056  -0.081  0.00  0.00    -0.217 OA
ENDROOT
BRANCH   1   4
ATOM      4  C   UNL d   1       0.736  -0.383   1.562  0.00  0.00     0.064 A 
ATOM      5  C   UNL d   1      -0.512  -0.991   1.742  0.00  0.00     0.026 A 
ATOM      6  C   UNL d   1      -0.941  -1.325   3.035  0.00  0.00     0.031 A 
ATOM      7  C   UNL d   1      -0.154  -0.995   4.143  0.00  0.00     0.034 A 
ATOM      8  C   UNL d   1       1.128  -0.473   3.939  0.00  0.00     0.031 A 
ATOM      9  C   UNL d   1       1.583  -0.181   2.652  0.00  0.00     0.026 A 
BRANCH   7  10
ATOM     10  N   UNL d   1      -0.654  -1.226   5.443  0.00  0.00    -0.333 N 
ATOM     11  H   UNL d   1      -1.354  -1.963   5.544  0.00  0.00     0.168 HD
BRANCH  10  12
ATOM     12  C   UNL d   1      -0.575  -0.376   6.528  0.00  0.00     0.179 C 
ATOM     13  S   UNL d   1      -0.118   1.238   6.537  0.00  0.00    -0.040 SA
BRANCH  12  14
ATOM     14  N   UNL d   1      -0.943  -0.911   7.749  0.00  0.00    -0.299 N 
ATOM     15  C   UNL d   1      -1.343  -2.203   8.044  0.00  0.00     0.257 C 
ATOM     16  O   UNL d   1      -1.670  -3.021   7.185  0.00  0.00    -0.267 OA
ATOM     17  H   UNL d   1      -0.868  -0.248   8.509  0.00  0.00     0.171 HD
BRANCH  15  18
ATOM     18  C   UNL d   1      -1.443  -2.561   9.489  0.00  0.00     0.032 A 
ATOM     19  C   UNL d   1      -2.373  -3.544   9.853  0.00  0.00     0.017 A 
ATOM     20  C   UNL d   1      -2.449  -3.994  11.172  0.00  0.00     0.001 A 
ATOM     21  C   UNL d   1      -1.593  -3.468  12.137  0.00  0.00     0.000 A 
ATOM     22  C   UNL d   1      -0.676  -2.475  11.789  0.00  0.00     0.001 A 
ATOM     23  C   UNL d   1      -0.599  -2.016  10.468  0.00  0.00     0.017 A 
ENDBRANCH  15  18
ENDBRANCH  12  14
ENDBRANCH  10  12
ENDBRANCH   7  10
ENDBRANCH   1   4
BRANCH   1  24
ATOM     24  C   UNL d   1       0.831   1.832  -0.254  0.00  0.00     0.064 C 
ATOM     25  C   UNL d   1       1.403   2.798   0.583  0.00  0.00     0.026 C 
ATOM     26  C   UNL d   1       0.981   4.133   0.500  0.00  0.00     0.031 C 
ATOM     27  C   UNL d   1      -0.045   4.491  -0.380  0.00  0.00     0.034 C 
ATOM     28  C   UNL d   1      -0.517   3.538  -1.291  0.00  0.00     0.031 C 
ATOM     29  C   UNL d   1      -0.090   2.209  -1.230  0.00  0.00     0.026 C 
BRANCH  27  30
ATOM     30  N   UNL d   1      -0.578   5.803  -0.324  0.00  0.00    -0.333 N 
ATOM     31  H   UNL d   1       0.007   6.521   0.108  0.00  0.00     0.168 HD
BRANCH  30  32
ATOM     32  C   UNL d   1      -1.914   6.156  -0.423  0.00  0.00     0.179 C 
ATOM     33  S   UNL d   1      -3.255   5.149  -0.411  0.00  0.00    -0.040 SA
BRANCH  32  34
ATOM     34  N   UNL d   1      -2.183   7.510  -0.528  0.00  0.00    -0.299 N 
ATOM     35  C   UNL d   1      -1.335   8.582  -0.344  0.00  0.00     0.257 C 
ATOM     36  O   UNL d   1      -0.231   8.486   0.165  0.00  0.00    -0.267 OA
ATOM     37  H   UNL d   1      -3.160   7.708  -0.700  0.00  0.00     0.171 HD
BRANCH  35  38
ATOM     38  C   UNL d   1      -1.865   9.915  -0.733  0.00  0.00     0.032 A 
ATOM     39  C   UNL d   1      -1.599  11.017   0.089  0.00  0.00     0.017 A 
ATOM     40  C   UNL d   1      -1.941  12.304  -0.329  0.00  0.00     0.001 A 
ATOM     41  C   UNL d   1      -2.547  12.495  -1.571  0.00  0.00     0.000 A 
ATOM     42  C   UNL d   1      -2.850  11.396  -2.377  0.00  0.00     0.001 A 
ATOM     43  C   UNL d   1      -2.521  10.102  -1.958  0.00  0.00     0.017 A 
ENDBRANCH  35  38
ENDBRANCH  32  34
ENDBRANCH  30  32
ENDBRANCH  27  30
ENDBRANCH   1  24
TORSDOF 10
