REMARK  5 active torsions:
REMARK  status: ('A' for Active; 'I' for Inactive)
REMARK    1  A    between atoms: S_2  and  C_1 
REMARK    2  A    between atoms: C_8  and  S_2 
REMARK    3  A    between atoms: S_9  and  C_3 
REMARK    4  A    between atoms: C_15  and  S_9 
REMARK    5  A    between atoms: C_11  and  C_15 
ROOT
ATOM      1  C   UNL d   1       1.118   0.507  -0.690  0.00  0.00     0.157 A 
ATOM      2  C   UNL d   1       0.049   1.174  -0.089  0.00  0.00     0.081 A 
ATOM      3  N   UNL d   1       1.034  -0.898  -0.643  0.00  0.00    -0.349 N 
ATOM      4  HN  UNL d   1       1.750  -1.539  -0.986  1.00  0.00     0.166 HD
ATOM      5  S   UNL d   1      -1.106  -0.005   0.439  0.00  0.00    -0.075 SA
ATOM      6  C   UNL d   1      -0.097  -1.263  -0.095  0.00  0.00     0.140 A 
ENDROOT
BRANCH   1   7
ATOM      7  S   UNL d   1       2.442   1.211  -1.601  0.00  0.00     0.224 S 
ATOM      8  O   UNL d   1       2.247   0.727  -2.952  0.00  0.00    -0.216 OA
ATOM      9  O   UNL d   1       2.445   2.629  -1.297  0.00  0.00    -0.216 OA
BRANCH   7  10
ATOM     10  C   UNL d   1       3.982   0.540  -1.008  0.00  0.00     0.065 A 
ATOM     11  C   UNL d   1       4.195  -0.840  -0.953  0.00  0.00     0.024 A 
ATOM     12  C   UNL d   1       5.467  -1.332  -0.633  0.00  0.00     0.008 A 
ATOM     13  C   UNL d   1       6.532  -0.456  -0.384  0.00  0.00    -0.062 A 
ATOM     14  C   UNL d   1       6.302   0.924  -0.420  0.00  0.00     0.008 A 
ATOM     15  C   UNL d   1       7.922  -0.993  -0.181  0.00  0.00     0.048 C 
ATOM     16  C   UNL d   1       5.032   1.421  -0.724  0.00  0.00     0.024 A 
ENDBRANCH   7  10
ENDBRANCH   1   7
BRANCH   2  17
ATOM     17  S   UNL d   1      -0.271   2.905   0.091  0.00  0.00    -0.115 SA
BRANCH  17  18
ATOM     18  C   UNL d   1      -1.419   2.998   1.505  0.00  0.00     0.120 C 
BRANCH  18  19
ATOM     19  C   UNL d   1      -1.814   4.423   1.827  0.00  0.00    -0.027 A 
ATOM     20  C   UNL d   1      -1.089   5.237   2.715  0.00  0.00     0.042 A 
ATOM     21  C   UNL d   1      -1.463   6.567   2.934  0.00  0.00     0.048 A 
ATOM     22 CL   UNL d   1       0.280   4.643   3.586  0.00  0.00    -0.084 Cl
ATOM     23  C   UNL d   1      -2.571   7.093   2.276  0.00  0.00     0.035 A 
ATOM     24  C   UNL d   1      -3.324   6.297   1.418  0.00  0.00     0.024 A 
ATOM     25 CL   UNL d   1      -3.009   8.739   2.516  0.00  0.00    -0.084 Cl
ATOM     26  C   UNL d   1      -2.946   4.971   1.193  0.00  0.00     0.011 A 
ENDBRANCH  18  19
ENDBRANCH  17  18
ENDBRANCH   2  17
TORSDOF 5
