REMARK  5 active torsions:
REMARK  status: ('A' for Active; 'I' for Inactive)
REMARK    1  A    between atoms: C_2  and  S_1 
REMARK    2  A    between atoms: N_3  and  S_1 
REMARK    3  A    between atoms: C_17  and  N_3 
REMARK    4  A    between atoms: C_4  and  O_16 
REMARK    5  A    between atoms: O_16  and  C_19 
ROOT
ATOM      1  C   UNL d   1       3.174   4.382  -4.938  0.00  0.00     0.117 A 
ATOM      2  N   UNL d   1       3.603   4.069  -8.448  0.00  0.00    -0.191 NA
ATOM      3  N   UNL d   1       1.698   4.612  -1.683  0.00  0.00    -0.191 NA
ATOM      4  C   UNL d   1       4.024   4.783  -5.986  0.00  0.00     0.080 A 
ATOM      5  C   UNL d   1       3.365   4.924  -3.651  0.00  0.00     0.080 A 
ATOM      6  C   UNL d   1       3.784   4.369  -7.339  0.00  0.00     0.102 C 
ATOM      7  C   UNL d   1       2.435   4.736  -2.571  0.00  0.00     0.102 C 
ATOM      8  C   UNL d   1       4.484   5.734  -3.400  0.00  0.00     0.026 A 
ATOM      9  C   UNL d   1       5.113   5.627  -5.724  0.00  0.00     0.026 A 
ATOM     10  C   UNL d   1       5.359   6.076  -4.429  0.00  0.00     0.003 A 
ENDROOT
BRANCH   1  11
ATOM     11  O   UNL d   1       2.147   3.524  -5.288  0.00  0.00    -0.308 OA
BRANCH  11  12
ATOM     12  C   UNL d   1       1.808   2.492  -4.442  0.00  0.00     0.076 C 
ATOM     13  C   UNL d   1       0.451   2.166  -4.399  0.00  0.00     0.039 C 
ATOM     14  C   UNL d   1      -0.014   1.231  -3.474  0.00  0.00     0.033 C 
ATOM     15  C   UNL d   1       0.878   0.642  -2.580  0.00  0.00     0.042 C 
ATOM     16  C   UNL d   1       2.244   0.901  -2.678  0.00  0.00     0.033 C 
ATOM     17  C   UNL d   1       2.718   1.797  -3.639  0.00  0.00     0.039 C 
BRANCH  15  18
ATOM     18  N   UNL d   1       0.411  -0.222  -1.561  0.00  0.00    -0.281 N 
ATOM     19  H   UNL d   1      -0.023  -1.110  -1.802  0.00  0.00     0.179 HD
BRANCH  18  20
ATOM     20  S   UNL d   1      -0.005   0.395  -0.051  0.00  0.00     0.266 S 
ATOM     21  O   UNL d   1      -0.569  -0.701   0.708  0.00  0.00    -0.200 OA
ATOM     22  O   UNL d   1       1.127   1.138   0.463  0.00  0.00    -0.200 OA
BRANCH  20  23
ATOM     23  C   UNL d   1      -1.313   1.540  -0.367  0.00  0.00     0.118 A 
ATOM     24  C   UNL d   1      -2.506   1.070  -0.904  0.00  0.00     0.142 A 
ATOM     25  C   UNL d   1      -3.561   1.944  -1.154  0.00  0.00     0.086 A 
ATOM     26  F   UNL d   1      -2.654  -0.219  -1.238  0.00  0.00    -0.204 F 
ATOM     27  C   UNL d   1      -3.412   3.290  -0.849  0.00  0.00     0.119 A 
ATOM     28  C   UNL d   1      -2.223   3.776  -0.300  0.00  0.00     0.044 A 
ATOM     29  F   UNL d   1      -4.415   4.141  -1.094  0.00  0.00    -0.206 F 
ATOM     30  C   UNL d   1      -1.167   2.898  -0.054  0.00  0.00     0.031 A 
ENDBRANCH  20  23
ENDBRANCH  18  20
ENDBRANCH  15  18
ENDBRANCH  11  12
ENDBRANCH   1  11
TORSDOF 5
