REMARK  4 active torsions:
REMARK  status: ('A' for Active; 'I' for Inactive)
REMARK    1  A    between atoms: C_5  and  C_1 
REMARK    2  A    between atoms: C_6  and  C_4 
REMARK    3  A    between atoms: S_9  and  C_5 
REMARK    4  A    between atoms: C_11  and  S_9 
ROOT
ATOM      1  C   UNL d   1       1.855   0.930   0.382  0.00  0.00     0.093 A 
ATOM      2  N   UNL d   1       2.422  -0.808   0.675  0.00  0.00    -0.370 N 
ATOM      3  HN  UNL d   1       3.328  -1.035   1.085  1.00  0.00     0.161 HD
ATOM      4  C   UNL d   1       1.344  -1.945   0.217  0.00  0.00     0.180 A 
ATOM      5  S   UNL d   1      -0.634  -0.973  -0.815  0.00  0.00    -0.111 SA
ATOM      6  C   UNL d   1       0.319   1.079  -0.411  0.00  0.00     0.081 A 
ENDROOT
BRANCH   4   7
ATOM      7  C   UNL d   1       0.973  -3.235   0.357  0.00  0.00     0.186 C 
ATOM      8  O   UNL d   1       0.934  -3.324  -1.150  0.00  0.00    -0.338 OA
ATOM      9  C   UNL d   1       1.527  -2.195  -1.879  0.00  0.00     0.102 A 
ATOM     10  C   UNL d   1       2.071  -2.471  -3.115  0.00  0.00     0.039 A 
ATOM     11  C   UNL d   1       1.543  -0.694  -1.249  0.00  0.00     0.102 A 
ATOM     12  C   UNL d   1       2.658  -1.405  -3.803  0.00  0.00     0.003 A 
ATOM     13  C   UNL d   1       2.677  -0.072  -3.308  0.00  0.00     0.003 A 
ATOM     14  C   UNL d   1       2.125   0.323  -2.071  0.00  0.00     0.039 A 
ATOM     15  O   UNL d   1       0.649  -0.458   0.535  0.00  0.00    -0.346 OA
ATOM     16  C   UNL d   1       0.244  -2.049   1.315  0.00  0.00     0.211 C 
ENDBRANCH   4   7
BRANCH   1  17
ATOM     17  C   UNL d   1       2.645   2.073   0.801  0.00  0.00     0.241 C 
ATOM     18  O   UNL d   1       2.389   3.227   0.477  0.00  0.00    -0.278 OA
BRANCH  17  19
ATOM     19  S   UNL d   1       4.044   1.667   1.771  0.00  0.00    -0.039 SA
BRANCH  19  20
ATOM     20  C   UNL d   1       3.382   1.888   3.389  0.00  0.00     0.049 A 
ATOM     21  S   UNL d   1       1.714   1.933   3.786  0.00  0.00    -0.095 SA
ATOM     22  C   UNL d   1       2.037   2.143   5.448  0.00  0.00     0.051 A 
ATOM     23  C   UNL d   1       3.388   2.163   5.711  0.00  0.00     0.009 A 
ATOM     24  C   UNL d   1       4.162   2.012   4.523  0.00  0.00     0.027 A 
ENDBRANCH  19  20
ENDBRANCH  17  19
ENDBRANCH   1  17
TORSDOF 4
