REMARK  7 active torsions:
REMARK  status: ('A' for Active; 'I' for Inactive)
REMARK    1  A    between atoms: C_3  and  C_1 
REMARK    2  A    between atoms: C_6  and  C_1 
REMARK    3  A    between atoms: C_2  and  C_9 
REMARK    4  A    between atoms: O_11  and  C_2 
REMARK    5  A    between atoms: C_9  and  C_6 
REMARK    6  A    between atoms: O_14  and  C_10 
REMARK    7  A    between atoms: C_15  and  O_14 
ROOT
ATOM      1  C   UNL d   1       0.249  -0.181  -1.244  0.00  0.00     0.010 A 
ATOM      2  C   UNL d   1       0.627  -1.238  -2.082  0.00  0.00     0.018 A 
ATOM      3  C   UNL d   1      -0.841   0.618  -1.600  0.00  0.00     0.018 A 
ATOM      4  C   UNL d   1      -1.172  -0.703  -3.613  0.00  0.00     0.068 A 
ATOM      5  C   UNL d   1      -0.086  -1.502  -3.260  0.00  0.00     0.037 A 
ATOM      6  C   UNL d   1      -1.547   0.350  -2.778  0.00  0.00     0.037 A 
ENDROOT
BRANCH   1   7
ATOM      7  C   UNL d   1       1.052   0.083  -0.017  0.00  0.00     0.160 C 
ATOM      8  O   UNL d   1       2.252  -0.200   0.002  0.00  0.00    -0.292 OA
BRANCH   7   9
ATOM      9  C   UNL d   1       0.376   0.674   1.207  0.00  0.00     0.094 C 
BRANCH   9  10
ATOM     10  C   UNL d   1       1.382   1.411   2.079  0.00  0.00     0.117 C 
BRANCH  10  11
ATOM     11  C   UNL d   1       1.951   2.596   1.342  0.00  0.00     0.139 C 
ATOM     12  O   UNL d   1       1.437   3.705   1.351  0.00  0.00    -0.650 OA
BRANCH  11  13
ATOM     13  O   UNL d   1       3.052   2.307   0.616  0.00  0.00    -0.776 OA
ATOM     14  H   UNL d   1       3.240   1.339   0.560  0.00  0.00     0.167 HD
ENDBRANCH  11  13
ENDBRANCH  10  11
ENDBRANCH   9  10
ENDBRANCH   7   9
ENDBRANCH   1   7
BRANCH   4  15
ATOM     15  O   UNL d   1      -1.943  -0.833  -4.734  0.00  0.00    -0.352 OA
BRANCH  15  16
ATOM     16  C   UNL d   1      -1.554  -1.818  -5.689  0.00  0.00     0.171 C 
ATOM     17  C   UNL d   1      -2.478  -1.692  -6.888  0.00  0.00     0.034 C 
ENDBRANCH  15  16
ENDBRANCH   4  15
TORSDOF 7
