REMARK  3 active torsions:
REMARK  status: ('A' for Active; 'I' for Inactive)
REMARK    1  A    between atoms: N_2  and  C_1 
REMARK       I    between atoms: C_4  and  N_2 
REMARK       I    between atoms: N_9  and  C_4 
REMARK    2  A    between atoms: C_6  and  C_10 
REMARK    3  A    between atoms: C_18  and  N_9 
ROOT
ATOM      1  N   UNL d   1       2.992  -3.502   0.376  0.00  0.00    -0.301 N 
ATOM      2  C   UNL d   1       1.896  -2.832  -0.083  0.00  0.00     0.325 C 
ATOM      3  N   UNL d   1       0.669  -3.392   0.100  0.00  0.00    -0.309 N 
ATOM      4  O   UNL d   1       2.114  -1.762  -0.654  0.00  0.00    -0.247 OA
ATOM      5  H   UNL d   1       3.841  -2.995   0.151  0.00  0.00     0.171 HD
ATOM      6  H   UNL d   1       0.653  -4.209   0.692  0.00  0.00     0.170 HD
ENDROOT
BRANCH   3   7
ATOM      7  C   UNL d   1      -0.560  -2.999  -0.468  0.00  0.00     0.036 A 
ATOM      8  C   UNL d   1      -0.699  -1.942  -1.368  0.00  0.00     0.030 A 
ATOM      9  C   UNL d   1      -1.930  -1.682  -1.981  0.00  0.00     0.018 A 
ATOM     10  C   UNL d   1      -3.049  -2.476  -1.702  0.00  0.00     0.048 A 
ATOM     11  C   UNL d   1      -2.922  -3.505  -0.759  0.00  0.00     0.018 A 
ATOM     12  C   UNL d   1      -1.690  -3.763  -0.148  0.00  0.00     0.030 A 
BRANCH  10  13
ATOM     13  C   UNL d   1      -4.360  -2.256  -2.416  0.00  0.00     0.417 C 
ATOM     14  F   UNL d   1      -4.307  -1.287  -3.373  0.00  0.00    -0.166 F 
ATOM     15  F   UNL d   1      -4.796  -3.380  -3.052  0.00  0.00    -0.166 F 
ATOM     16  F   UNL d   1      -5.363  -1.893  -1.571  0.00  0.00    -0.166 F 
ENDBRANCH  10  13
ENDBRANCH   3   7
BRANCH   1  17
ATOM     17  C   UNL d   1       3.183  -4.712   1.017  0.00  0.00     0.100 A 
ATOM     18  C   UNL d   1       4.411  -5.255   1.350  0.00  0.00     0.074 A 
ATOM     19  C   UNL d   1       4.302  -6.501   2.051  0.00  0.00    -0.031 A 
ATOM     20 CL   UNL d   1       5.921  -4.518   0.983  0.00  0.00    -0.081 Cl
ATOM     21  C   UNL d   1       5.446  -7.302   2.582  0.00  0.00     0.050 C 
ATOM     22  C   UNL d   1       2.974  -6.858   2.193  0.00  0.00     0.060 A 
ATOM     23  S   UNL d   1       1.908  -5.715   1.506  0.00  0.00    -0.082 SA
ENDBRANCH   1  17
TORSDOF 3
