REMARK  3 active torsions:
REMARK  status: ('A' for Active; 'I' for Inactive)
REMARK    1  A    between atoms: C_9  and  C_1 
REMARK    2  A    between atoms: C_10  and  C_5 
REMARK    3  A    between atoms: S_18  and  C_8 
ROOT
ATOM      1  C   UNL d   1       0.134   1.175   0.042  0.00  0.00     0.069 A 
ATOM      2  N   UNL d   1       1.482   1.162   0.197  0.00  0.00    -0.339 N 
ATOM      3  HN  UNL d   1       1.992   2.025   0.387  1.00  0.00     0.167 HD
ATOM      4  C   UNL d   1      -0.577  -0.005  -0.168  0.00  0.00     0.105 A 
ATOM      5  C   UNL d   1       2.134  -0.008   0.096  0.00  0.00     0.135 A 
ATOM      6  N   UNL d   1       1.509  -1.183  -0.048  0.00  0.00    -0.334 N 
ATOM      7  HN  UNL d   1       2.032  -2.058  -0.066  1.00  0.00     0.168 HD
ATOM      8  C   UNL d   1       0.171  -1.175  -0.167  0.00  0.00     0.094 A 
ATOM      9  C   UNL d   1      -1.986  -0.022  -0.391  0.00  0.00     0.104 C 
ATOM     10  N   UNL d   1      -3.137  -0.011  -0.553  0.00  0.00    -0.191 NA
ENDROOT
BRANCH   1  11
ATOM     11  C   UNL d   1      -0.467   2.534   0.159  0.00  0.00     0.014 A 
ATOM     12  C   UNL d   1       0.091   3.683  -0.452  0.00  0.00     0.046 A 
ATOM     13 CL   UNL d   1       1.463   3.618  -1.513  0.00  0.00    -0.083 Cl
ATOM     14  C   UNL d   1      -0.468   4.957  -0.262  0.00  0.00     0.025 A 
ATOM     15  C   UNL d   1      -1.616   5.118   0.507  0.00  0.00     0.002 A 
ATOM     16  C   UNL d   1      -2.199   4.008   1.103  0.00  0.00     0.001 A 
ATOM     17  C   UNL d   1      -1.620   2.743   0.949  0.00  0.00     0.015 A 
ENDBRANCH   1  11
BRANCH   8  18
ATOM     18  S   UNL d   1      -0.598  -2.793  -0.311  0.00  0.00    -0.115 SA
ATOM     19  C   UNL d   1       0.854  -3.877  -0.161  0.00  0.00     0.097 C 
ENDBRANCH   8  18
BRANCH   5  20
ATOM     20  C   UNL d   1       3.612   0.005   0.085  0.00  0.00     0.092 A 
ATOM     21  N   UNL d   1       4.264  -1.194   0.010  0.00  0.00    -0.360 N 
ATOM     22  C   UNL d   1       5.615  -1.147  -0.038  0.00  0.00     0.105 A 
ATOM     23  HN  UNL d   1       3.758  -2.079  -0.009  1.00  0.00     0.165 HD
ATOM     24  C   UNL d   1       6.318   0.042  -0.009  0.00  0.00     0.104 A 
ATOM     25  N   UNL d   1       5.702   1.240   0.068  0.00  0.00    -0.372 N 
ATOM     26  C   UNL d   1       4.343   1.192   0.111  0.00  0.00     0.121 A 
ATOM     27  HN  UNL d   1       6.219   2.119   0.093  1.00  0.00     0.164 HD
ENDBRANCH   5  20
TORSDOF 3
