REMARK  2 active torsions:
REMARK  status: ('A' for Active; 'I' for Inactive)
REMARK    1  A    between atoms: C_7  and  N_1 
REMARK    2  A    between atoms: O_19  and  C_14 
ROOT
ATOM      1  N   UNL d   1       1.841  -0.717   0.010  0.00  0.00    -0.248 N 
ATOM      2  C   UNL d   1       0.585  -1.335  -0.116  0.00  0.00     0.265 A 
ATOM      3  C   UNL d   1       2.059   0.658   0.130  0.00  0.00     0.235 A 
ATOM      4  C   UNL d   1      -0.614  -0.462  -0.067  0.00  0.00     0.042 A 
ATOM      5  C   UNL d   1      -0.477   0.917   0.023  0.00  0.00    -0.034 A 
ATOM      6  C   UNL d   1       0.859   1.567   0.130  0.00  0.00     0.143 A 
ATOM      7  O   UNL d   1       0.404  -2.546  -0.229  0.00  0.00    -0.267 OA
ATOM      8  O   UNL d   1       3.175   1.188   0.195  0.00  0.00    -0.272 OA
ATOM      9  C   UNL d   1      -1.893  -1.035  -0.112  0.00  0.00     0.054 A 
ATOM     10  C   UNL d   1      -1.630   1.722   0.023  0.00  0.00     0.011 A 
ATOM     11  C   UNL d   1      -3.039  -0.236  -0.091  0.00  0.00     0.069 A 
ATOM     12  C   UNL d   1      -2.901   1.146  -0.036  0.00  0.00     0.037 A 
ENDROOT
BRANCH   1  13
ATOM     13  C   UNL d   1       3.000  -1.560  -0.010  0.00  0.00     0.045 A 
ATOM     14  C   UNL d   1       3.221  -2.449  -1.067  0.00  0.00     0.031 A 
ATOM     15  C   UNL d   1       4.384  -3.225  -1.106  0.00  0.00     0.009 A 
ATOM     16  C   UNL d   1       5.323  -3.154  -0.070  0.00  0.00    -0.062 A 
ATOM     17  C   UNL d   1       5.091  -2.284   0.999  0.00  0.00     0.009 A 
ATOM     18  C   UNL d   1       6.570  -3.985  -0.129  0.00  0.00     0.048 C 
ATOM     19  C   UNL d   1       3.946  -1.483   1.023  0.00  0.00     0.031 A 
ENDBRANCH   1  13
BRANCH  11  20
ATOM     20  O   UNL d   1      -4.221  -0.921  -0.130  0.00  0.00    -0.356 OA
ATOM     21  C   UNL d   1      -5.416  -0.149  -0.119  0.00  0.00     0.210 C 
ENDBRANCH  11  20
TORSDOF 2
