REMARK  5 active torsions:
REMARK  status: ('A' for Active; 'I' for Inactive)
REMARK    1  A    between atoms: O_5  and  C_1 
REMARK    2  A    between atoms: N_2  and  C_4 
REMARK       I    between atoms: C_3  and  N_2 
REMARK    3  A    between atoms: C_6  and  C_3 
REMARK    4  A    between atoms: C_11  and  O_5 
REMARK    5  A    between atoms: C_13  and  C_9 
ROOT
ATOM      1  C   UNL d   1      -0.795   1.217   0.225  0.00  0.00     0.175 A 
ATOM      2  C   UNL d   1       0.576   1.197  -0.045  0.00  0.00     0.087 A 
ATOM      3  N   UNL d   1      -1.582   0.113   0.161  0.00  0.00    -0.345 N 
ATOM      4  HN  UNL d   1      -2.583   0.160   0.353  1.00  0.00     0.167 HD
ATOM      5  C   UNL d   1       1.142  -0.013  -0.448  0.00  0.00     0.035 A 
ATOM      6  C   UNL d   1      -0.983  -1.051  -0.171  0.00  0.00     0.090 A 
ATOM      7  C   UNL d   1       0.360  -1.161  -0.486  0.00  0.00     0.019 A 
ENDROOT
BRANCH   2   8
ATOM      8  N   UNL d   1       1.413   2.323  -0.011  0.00  0.00    -0.320 N 
ATOM      9  C   UNL d   1       1.806   3.056   1.076  0.00  0.00     0.245 C 
ATOM     10  O   UNL d   1       2.734   3.848   0.923  0.00  0.00    -0.268 OA
ATOM     11  H   UNL d   1       2.139   2.375  -0.717  0.00  0.00     0.169 HD
BRANCH   9  12
ATOM     12  C   UNL d   1       1.205   2.825   2.420  0.00  0.00     0.075 C 
ATOM     13  C   UNL d   1       1.766   3.453   3.469  0.00  0.00     0.017 C 
BRANCH  13  14
ATOM     14  C   UNL d   1       1.296   3.444   4.863  0.00  0.00    -0.036 A 
ATOM     15  C   UNL d   1       2.243   3.562   5.891  0.00  0.00     0.011 A 
ATOM     16  C   UNL d   1       1.843   3.727   7.220  0.00  0.00     0.001 A 
ATOM     17  C   UNL d   1       0.488   3.781   7.535  0.00  0.00     0.000 A 
ATOM     18  C   UNL d   1      -0.464   3.651   6.526  0.00  0.00     0.001 A 
ATOM     19  C   UNL d   1      -0.063   3.483   5.195  0.00  0.00     0.011 A 
ENDBRANCH  13  14
ENDBRANCH   9  12
ENDBRANCH   2   8
BRANCH   1  20
ATOM     20  O   UNL d   1      -1.402   2.453   0.429  0.00  0.00    -0.292 OA
BRANCH  20  21
ATOM     21  C   UNL d   1      -2.526   2.496   1.218  0.00  0.00     0.078 A 
ATOM     22  C   UNL d   1      -2.645   1.772   2.409  0.00  0.00     0.040 A 
ATOM     23  C   UNL d   1      -3.768   1.923   3.213  0.00  0.00     0.045 A 
ATOM     24  C   UNL d   1      -4.770   2.810   2.831  0.00  0.00     0.116 A 
ATOM     25  C   UNL d   1      -4.662   3.545   1.653  0.00  0.00     0.045 A 
ATOM     26  F   UNL d   1      -5.845   2.963   3.609  0.00  0.00    -0.206 F 
ATOM     27  C   UNL d   1      -3.532   3.394   0.844  0.00  0.00     0.040 A 
ENDBRANCH  20  21
ENDBRANCH   1  20
TORSDOF 5
