REMARK  1 active torsions:
REMARK  status: ('A' for Active; 'I' for Inactive)
REMARK    1  A    between atoms: C_9  and  C_3 
ROOT
ATOM      1  N   UNL d   1      -2.286   0.284   0.012  0.00  0.00    -0.308 N 
ATOM      2  HN  UNL d   1      -3.286   0.084   0.051  1.00  0.00     0.170 HD
ATOM      3  C   UNL d   1      -1.868   1.512  -0.039  0.00  0.00     0.119 A 
ATOM      4  C   UNL d   1      -1.371  -0.747   0.011  0.00  0.00     0.259 A 
ATOM      5  N   UNL d   1      -0.544   1.886  -0.075  0.00  0.00    -0.341 N 
ATOM      6  C   UNL d   1       0.082  -0.436   0.000  0.00  0.00     0.059 A 
ATOM      7  C   UNL d   1       0.451   0.911   0.002  0.00  0.00     0.049 A 
ATOM      8  O   UNL d   1      -1.713  -1.925   0.028  0.00  0.00    -0.267 OA
ATOM      9  C   UNL d   1       1.049  -1.446  -0.002  0.00  0.00     0.019 A 
ATOM     10  C   UNL d   1       1.807   1.246  -0.008  0.00  0.00     0.030 A 
ATOM     11  C   UNL d   1       2.401  -1.103  -0.005  0.00  0.00     0.001 A 
ATOM     12  C   UNL d   1       2.778   0.241  -0.004  0.00  0.00     0.002 A 
ATOM     13  H   UNL d   1      -0.275   2.843   0.107  0.00  0.00     0.167 HD
ENDROOT
BRANCH   3  14
ATOM     14  C   UNL d   1      -2.904   2.589  -0.061  0.00  0.00     0.011 A 
ATOM     15  C   UNL d   1      -4.124   2.389   0.582  0.00  0.00     0.032 A 
ATOM     16  C   UNL d   1      -5.052   3.413   0.537  0.00  0.00     0.088 A 
ATOM     17  N   UNL d   1      -4.843   4.587  -0.097  0.00  0.00    -0.375 N 
ATOM     18  C   UNL d   1      -3.661   4.743  -0.730  0.00  0.00     0.088 A 
ATOM     19  HN  UNL d   1      -5.548   5.325  -0.098  1.00  0.00     0.164 HD
ATOM     20  C   UNL d   1      -2.664   3.784  -0.740  0.00  0.00     0.032 A 
ENDBRANCH   3  14
TORSDOF 1
