REMARK  1 active torsions:
REMARK  status: ('A' for Active; 'I' for Inactive)
REMARK    1  A    between atoms: O_8  and  N_3 
ROOT
ATOM      1  C   UNL d   1       1.559   1.245   0.012  0.00  0.00     0.014 C 
ATOM      2  C   UNL d   1       2.531   0.142  -0.347  0.00  0.00     0.037 C 
ATOM      3  N   UNL d   1       1.775   2.504   0.220  0.00  0.00    -0.277 N 
ATOM      4  HN  UNL d   1       1.042   3.177   0.447  1.00  0.00     0.193 HD
ATOM      5  C   UNL d   1       1.757  -1.050   0.241  0.00  0.00    -0.005 C 
ATOM      6  C   UNL d   1       0.135   0.723   0.053  0.00  0.00     0.055 C 
ATOM      7  C   UNL d   1       0.309  -0.783  -0.154  0.00  0.00     0.011 C 
ATOM      8  C   UNL d   1       3.964   0.104   0.158  0.00  0.00     0.011 C 
ATOM      9  C   UNL d   1       2.350  -2.367  -0.241  0.00  0.00     0.005 C 
ATOM     10  C   UNL d   1       4.620  -1.217  -0.273  0.00  0.00     0.001 C 
ATOM     11  C   UNL d   1       3.823  -2.446   0.174  0.00  0.00     0.000 C 
ENDROOT
BRANCH   3  12
ATOM     12  O   UNL d   1       3.122   2.834   0.098  0.00  0.00    -0.290 OA
ATOM     13  H   UNL d   1       3.121   3.792   0.280  0.00  0.00     0.244 HD
ENDBRANCH   3  12
TORSDOF 1
