REMARK  4 active torsions:
REMARK  status: ('A' for Active; 'I' for Inactive)
REMARK    1  A    between atoms: C_4  and  C_1 
REMARK    2  A    between atoms: N_3  and  C_2 
REMARK       I    between atoms: N_5  and  C_4 
REMARK       I    between atoms: C_8  and  N_5 
REMARK    3  A    between atoms: C_7  and  C_9 
REMARK       I    between atoms: N_13  and  C_8 
REMARK    4  A    between atoms: C_12  and  N_13 
ROOT
ATOM      1  C   UNL d   1       3.700  -2.935   1.440  0.00  0.00     0.260 C 
ATOM      2  N   UNL d   1       2.627  -3.266   0.627  0.00  0.00    -0.275 N 
ATOM      3  C   UNL d   1       1.665  -4.248   0.807  0.00  0.00     0.327 C 
ATOM      4  N   UNL d   1       0.667  -4.141  -0.161  0.00  0.00    -0.308 N 
ATOM      5  O   UNL d   1       1.741  -5.127   1.653  0.00  0.00    -0.247 OA
ATOM      6  O   UNL d   1       3.936  -1.731   1.560  0.00  0.00    -0.267 OA
ATOM      7  H   UNL d   1       2.232  -2.404   0.279  0.00  0.00     0.173 HD
ATOM      8  H   UNL d   1       0.853  -3.491  -0.918  0.00  0.00     0.170 HD
ENDROOT
BRANCH   4   9
ATOM      9  C   UNL d   1      -0.413  -5.045  -0.350  0.00  0.00     0.051 A 
ATOM     10  C   UNL d   1      -1.085  -5.109  -1.591  0.00  0.00     0.074 A 
ATOM     11  C   UNL d   1      -2.073  -6.100  -1.787  0.00  0.00     0.018 A 
ATOM     12  C   UNL d   1      -2.426  -6.980  -0.767  0.00  0.00     0.001 A 
ATOM     13  C   UNL d   1      -1.814  -6.866   0.473  0.00  0.00     0.002 A 
ATOM     14  C   UNL d   1      -0.826  -5.904   0.678  0.00  0.00     0.030 A 
BRANCH  10  15
ATOM     15  C   UNL d   1      -0.776  -4.213  -2.762  0.00  0.00     0.419 C 
ATOM     16  F   UNL d   1       0.045  -3.165  -2.451  0.00  0.00    -0.166 F 
ATOM     17  F   UNL d   1      -0.154  -4.874  -3.776  0.00  0.00    -0.166 F 
ATOM     18  F   UNL d   1      -1.891  -3.653  -3.309  0.00  0.00    -0.166 F 
ENDBRANCH  10  15
ENDBRANCH   4   9
BRANCH   1  19
ATOM     19  C   UNL d   1       4.552  -3.927   2.109  0.00  0.00     0.042 A 
ATOM     20  C   UNL d   1       5.597  -3.533   3.034  0.00  0.00     0.061 A 
ATOM     21  C   UNL d   1       6.298  -4.601   3.543  0.00  0.00     0.144 A 
ATOM     22  S   UNL d   1       5.738  -6.086   2.946  0.00  0.00    -0.077 SA
ATOM     23  C   UNL d   1       4.569  -5.302   1.956  0.00  0.00     0.069 A 
BRANCH  21  24
ATOM     24  N   UNL d   1       7.368  -4.550   4.495  0.00  0.00    -0.108 N 
ATOM     25  O   UNL d   1       7.375  -3.579   5.258  0.00  0.00    -0.531 OA
ATOM     26  O   UNL d   1       8.216  -5.452   4.463  0.00  0.00    -0.531 OA
ENDBRANCH  21  24
ENDBRANCH   1  19
TORSDOF 4
