REMARK  2 active torsions:
REMARK  status: ('A' for Active; 'I' for Inactive)
REMARK       I    between atoms: N_2  and  C_1 
REMARK    1  A    between atoms: C_6  and  C_1 
REMARK    2  A    between atoms: C_8  and  N_2 
ROOT
ATOM      1  C   UNL d   1      -0.699   0.760   0.851  0.00  0.00     0.252 C 
ATOM      2  N   UNL d   1       0.362   1.118   0.046  0.00  0.00    -0.351 N 
ATOM      3  O   UNL d   1      -1.114   1.463   1.763  0.00  0.00    -0.268 OA
ATOM      4  H   UNL d   1       0.544   0.590  -0.797  0.00  0.00     0.163 HD
ENDROOT
BRANCH   1   5
ATOM      5  C   UNL d   1      -1.368  -0.534   0.550  0.00  0.00     0.032 A 
ATOM      6  C   UNL d   1      -0.691  -1.609  -0.040  0.00  0.00     0.018 A 
ATOM      7  C   UNL d   1      -1.364  -2.814  -0.270  0.00  0.00     0.025 A 
ATOM      8  C   UNL d   1      -2.705  -2.944   0.093  0.00  0.00     0.034 A 
ATOM      9  C   UNL d   1      -3.382  -1.880   0.687  0.00  0.00     0.025 A 
ATOM     10 CL   UNL d   1      -3.524  -4.431  -0.180  0.00  0.00    -0.084 Cl
ATOM     11  C   UNL d   1      -2.713  -0.678   0.919  0.00  0.00     0.018 A 
ENDBRANCH   1   5
BRANCH   2  12
ATOM     12  C   UNL d   1       1.086   2.387   0.212  0.00  0.00     0.103 C 
ATOM     13  C   UNL d   1       1.771   2.468   1.588  0.00  0.00     0.101 C 
ATOM     14  S   UNL d   1       2.951   3.847   1.719  0.00  0.00    -0.152 SA
ATOM     15  C   UNL d   1       1.795   5.227   1.463  0.00  0.00     0.104 C 
ATOM     16  S   UNL d   1       1.082   5.164  -0.209  0.00  0.00    -0.152 SA
ATOM     17  C   UNL d   1       2.550   6.541   1.631  0.00  0.00     0.033 C 
ATOM     18  C   UNL d   1       0.174   3.594  -0.069  0.00  0.00     0.101 C 
ENDBRANCH   2  12
TORSDOF 2
