REMARK  5 active torsions:
REMARK  status: ('A' for Active; 'I' for Inactive)
REMARK    1  A    between atoms: C_10  and  N_3 
REMARK    2  A    between atoms: C_11  and  C_5 
REMARK    3  A    between atoms: C_8  and  C_10 
REMARK    4  A    between atoms: C_9  and  C_8 
REMARK    5  A    between atoms: O_17  and  C_9 
ROOT
ATOM      1  N   UNL d   1       1.141   0.671   0.076  0.00  0.00    -0.295 N 
ATOM      2  HN  UNL d   1       2.039   1.153   0.097  1.00  0.00     0.187 HD
ATOM      3  N   UNL d   1       1.069  -0.705   0.186  0.00  0.00    -0.257 N 
ATOM      4  C   UNL d   1      -0.108  -1.427   0.024  0.00  0.00     0.262 C 
ATOM      5  C   UNL d   1       0.031   1.333  -0.054  0.00  0.00     0.058 C 
ATOM      6  C   UNL d   1      -1.348  -0.630  -0.026  0.00  0.00     0.078 C 
ATOM      7  C   UNL d   1      -1.307   0.702  -0.036  0.00  0.00     0.037 C 
ATOM      8  O   UNL d   1      -0.189  -2.651  -0.033  0.00  0.00    -0.267 OA
ENDROOT
BRANCH   5   9
ATOM      9  C   UNL d   1       0.080   2.820  -0.211  0.00  0.00    -0.008 A 
ATOM     10  C   UNL d   1      -0.916   3.519  -0.911  0.00  0.00     0.017 A 
ATOM     11  C   UNL d   1      -0.845   4.908  -1.036  0.00  0.00     0.043 A 
ATOM     12  C   UNL d   1       0.227   5.594  -0.478  0.00  0.00     0.116 A 
ATOM     13  C   UNL d   1       1.236   4.917   0.197  0.00  0.00     0.043 A 
ATOM     14  F   UNL d   1       0.292   6.926  -0.601  0.00  0.00    -0.206 F 
ATOM     15  C   UNL d   1       1.165   3.528   0.330  0.00  0.00     0.017 A 
ENDBRANCH   5   9
BRANCH   3  16
ATOM     16  C   UNL d   1       2.339  -1.428   0.279  0.00  0.00     0.163 C 
BRANCH  16  17
ATOM     17  C   UNL d   1       3.407  -0.647   1.034  0.00  0.00     0.132 C 
BRANCH  17  18
ATOM     18  C   UNL d   1       4.675  -1.440   1.171  0.00  0.00     0.141 C 
ATOM     19  O   UNL d   1       4.861  -2.564   0.738  0.00  0.00    -0.650 OA
BRANCH  18  20
ATOM     20  O   UNL d   1       5.633  -0.757   1.845  0.00  0.00    -0.776 OA
ATOM     21  H   UNL d   1       5.351   0.134   2.129  0.00  0.00     0.167 HD
ENDBRANCH  18  20
ENDBRANCH  17  18
ENDBRANCH  16  17
ENDBRANCH   3  16
TORSDOF 5
