REMARK  7 active torsions:
REMARK  status: ('A' for Active; 'I' for Inactive)
REMARK    1  A    between atoms: C_2  and  S_1 
REMARK    2  A    between atoms: N_6  and  S_1 
REMARK    3  A    between atoms: C_7  and  C_3 
REMARK    4  A    between atoms: C_4  and  C_8 
REMARK    5  A    between atoms: C_5  and  C_9 
REMARK    6  A    between atoms: C_12  and  N_6 
REMARK    7  A    between atoms: O_26  and  C_7 
ROOT
ATOM      1  C   UNL d   1       0.625  -3.940  -3.017  0.00  0.00     0.050 A 
ATOM      2  C   UNL d   1       2.404  -4.420  -1.407  0.00  0.00     0.050 A 
ATOM      3  C   UNL d   1       0.817  -2.636  -0.979  0.00  0.00     0.044 A 
ATOM      4  C   UNL d   1       1.751  -4.682  -2.625  0.00  0.00     0.032 A 
ATOM      5  C   UNL d   1       1.931  -3.378  -0.590  0.00  0.00     0.046 A 
ATOM      6  C   UNL d   1       0.167  -2.915  -2.179  0.00  0.00     0.046 A 
ENDROOT
BRANCH   3   7
ATOM      7  N   UNL d   1       0.237  -1.683  -0.117  0.00  0.00    -0.281 N 
ATOM      8  H   UNL d   1      -0.356  -1.982   0.655  0.00  0.00     0.179 HD
BRANCH   7   9
ATOM      9  S   UNL d   1       0.800  -0.119  -0.033  0.00  0.00     0.264 S 
ATOM     10  O   UNL d   1       0.002   0.591   0.939  0.00  0.00    -0.200 OA
ATOM     11  O   UNL d   1       2.245  -0.145   0.052  0.00  0.00    -0.200 OA
BRANCH   9  12
ATOM     12  C   UNL d   1       0.460   0.704  -1.524  0.00  0.00     0.103 A 
ATOM     13  C   UNL d   1      -0.811   0.916  -2.035  0.00  0.00     0.103 A 
ATOM     14  S   UNL d   1      -0.730   1.790  -3.518  0.00  0.00    -0.094 SA
ATOM     15  C   UNL d   1       0.968   1.921  -3.444  0.00  0.00     0.052 A 
ATOM     16  C   UNL d   1       1.482   1.300  -2.330  0.00  0.00     0.034 A 
BRANCH  13  17
ATOM     17  C   UNL d   1      -2.094   0.477  -1.513  0.00  0.00     0.301 C 
ATOM     18  O   UNL d   1      -2.272  -0.508  -0.804  0.00  0.00    -0.259 OA
BRANCH  17  19
ATOM     19  O   UNL d   1      -3.095   1.300  -1.939  0.00  0.00    -0.322 OA
ATOM     20  C   UNL d   1      -4.408   0.935  -1.515  0.00  0.00     0.213 C 
ENDBRANCH  17  19
ENDBRANCH  13  17
ENDBRANCH   9  12
ENDBRANCH   7   9
ENDBRANCH   3   7
BRANCH   2  21
ATOM     21  C   UNL d   1       3.564  -5.277  -0.953  0.00  0.00     0.417 C 
ATOM     22  F   UNL d   1       3.858  -6.286  -1.820  0.00  0.00    -0.166 F 
ATOM     23  F   UNL d   1       4.714  -4.570  -0.796  0.00  0.00    -0.166 F 
ATOM     24  F   UNL d   1       3.321  -5.878   0.244  0.00  0.00    -0.166 F 
ENDBRANCH   2  21
BRANCH   1  25
ATOM     25  C   UNL d   1      -0.126  -4.254  -4.287  0.00  0.00     0.417 C 
ATOM     26  F   UNL d   1       0.406  -5.291  -4.990  0.00  0.00    -0.166 F 
ATOM     27  F   UNL d   1      -1.423  -4.591  -4.046  0.00  0.00    -0.166 F 
ATOM     28  F   UNL d   1      -0.165  -3.198  -5.144  0.00  0.00    -0.166 F 
ENDBRANCH   1  25
TORSDOF 7
