REMARK  4 active torsions:
REMARK  status: ('A' for Active; 'I' for Inactive)
REMARK    1  A    between atoms: C_2  and  S_1 
REMARK    2  A    between atoms: O_8  and  S_1 
REMARK    3  A    between atoms: C_11  and  O_8 
REMARK    4  A    between atoms: O_19  and  C_12 
ROOT
ATOM      1  S   UNL d   1       1.057  -0.080  -0.011  0.00  0.00     0.307 S 
ATOM      2  O   UNL d   1       2.361  -0.428   0.511  0.00  0.00    -0.193 OA
ATOM      3  O   UNL d   1       0.781   1.181  -0.666  0.00  0.00    -0.193 OA
ENDROOT
BRANCH   1   4
ATOM      4  C   UNL d   1       0.064  -0.074   1.375  0.00  0.00     0.142 A 
ATOM      5  C   UNL d   1      -0.574  -1.123   1.993  0.00  0.00     0.098 A 
ATOM      6  O   UNL d   1      -1.220  -0.650   3.095  0.00  0.00    -0.241 OA
ATOM      7  C   UNL d   1      -0.701  -2.574   1.770  0.00  0.00     0.081 C 
ATOM      8  N   UNL d   1      -0.980   0.702   3.233  0.00  0.00    -0.264 N 
ATOM      9  C   UNL d   1      -0.186   1.041   2.209  0.00  0.00     0.055 A 
ATOM     10  HN  UNL d   1      -1.334   1.317   3.965  1.00  0.00     0.194 HD
ATOM     11  C   UNL d   1       0.318   2.432   2.099  0.00  0.00     0.072 C 
ENDBRANCH   1   4
BRANCH   1  12
ATOM     12  O   UNL d   1       0.451  -1.310  -0.896  0.00  0.00    -0.229 OA
BRANCH  12  13
ATOM     13  C   UNL d   1       0.915  -1.544  -2.168  0.00  0.00     0.089 A 
ATOM     14  C   UNL d   1       2.231  -1.327  -2.578  0.00  0.00     0.041 A 
ATOM     15  C   UNL d   1       2.615  -1.587  -3.901  0.00  0.00     0.039 A 
ATOM     16  C   UNL d   1       1.687  -2.074  -4.820  0.00  0.00     0.068 A 
ATOM     17  C   UNL d   1       0.379  -2.323  -4.396  0.00  0.00     0.039 A 
ATOM     18  C   UNL d   1      -0.006  -2.067  -3.076  0.00  0.00     0.041 A 
BRANCH  16  19
ATOM     19  O   UNL d   1       1.925  -2.345  -6.139  0.00  0.00    -0.356 OA
ATOM     20  C   UNL d   1       3.223  -2.041  -6.638  0.00  0.00     0.210 C 
ENDBRANCH  16  19
ENDBRANCH  12  13
ENDBRANCH   1  12
TORSDOF 4
