REMARK  6 active torsions:
REMARK  status: ('A' for Active; 'I' for Inactive)
REMARK    1  A    between atoms: C_3  and  C_1 
REMARK    2  A    between atoms: N_5  and  C_2 
REMARK    3  A    between atoms: O_11  and  C_3 
REMARK    4  A    between atoms: C_7  and  N_5 
REMARK    5  A    between atoms: C_17  and  O_11 
REMARK    6  A    between atoms: O_15  and  C_12 
ROOT
ATOM      1  C   UNL d   1      -0.037  -0.558  -1.168  0.00  0.00     0.135 C 
ATOM      2  C   UNL d   1       0.463   0.683  -0.958  0.00  0.00     0.119 C 
ATOM      3  C   UNL d   1       0.062  -1.186  -2.480  0.00  0.00     0.107 C 
ATOM      4  N   UNL d   1       0.152  -1.646  -3.541  0.00  0.00    -0.191 NA
ENDROOT
BRANCH   1   5
ATOM      5  C   UNL d   1      -0.732  -1.330  -0.089  0.00  0.00     0.305 C 
ATOM      6  O   UNL d   1      -1.173  -2.458  -0.261  0.00  0.00    -0.258 OA
BRANCH   5   7
ATOM      7  O   UNL d   1      -0.853  -0.641   1.086  0.00  0.00    -0.317 OA
BRANCH   7   8
ATOM      8  C   UNL d   1      -1.602  -1.309   2.128  0.00  0.00     0.174 C 
ATOM      9  C   UNL d   1      -0.716  -2.269   2.901  0.00  0.00     0.034 C 
ENDBRANCH   7   8
ENDBRANCH   5   7
ENDBRANCH   1   5
BRANCH   2  10
ATOM     10  N   UNL d   1       1.032   1.562  -1.894  0.00  0.00    -0.359 N 
ATOM     11  C   UNL d   1       0.125   2.341  -2.754  0.00  0.00     0.156 C 
BRANCH  10  12
ATOM     12  C   UNL d   1       2.377   1.440  -2.360  0.00  0.00     0.034 A 
ATOM     13  C   UNL d   1       3.324   0.665  -1.664  0.00  0.00     0.032 A 
ATOM     14  C   UNL d   1       4.628   0.481  -2.149  0.00  0.00     0.039 A 
ATOM     15  C   UNL d   1       5.013   1.067  -3.344  0.00  0.00     0.065 A 
ATOM     16  C   UNL d   1       4.137   1.892  -4.029  0.00  0.00     0.039 A 
ATOM     17  C   UNL d   1       2.841   2.085  -3.528  0.00  0.00     0.032 A 
BRANCH  15  18
ATOM     18  O   UNL d   1       6.261   0.804  -3.823  0.00  0.00    -0.361 OA
ATOM     19  H   UNL d   1       6.284   1.044  -4.765  0.00  0.00     0.217 HD
ENDBRANCH  15  18
ENDBRANCH  10  12
ENDBRANCH   2  10
TORSDOF 6
