REMARK  3 active torsions:
REMARK  status: ('A' for Active; 'I' for Inactive)
REMARK    1  A    between atoms: S_10  and  C_1 
REMARK    2  A    between atoms: S_12  and  C_5 
REMARK    3  A    between atoms: C_13  and  S_10 
ROOT
ATOM      1  C   UNL d   1      -0.768   1.147  -0.036  0.00  0.00     0.099 A 
ATOM      2  C   UNL d   1      -1.463  -0.039  -0.193  0.00  0.00     0.112 A 
ATOM      3  N   UNL d   1       0.576   1.201   0.111  0.00  0.00    -0.339 N 
ATOM      4  HN  UNL d   1       1.063   2.091   0.218  1.00  0.00     0.168 HD
ATOM      5  C   UNL d   1      -0.690  -1.187  -0.149  0.00  0.00     0.094 A 
ATOM      6  N   UNL d   1       0.653  -1.158  -0.001  0.00  0.00    -0.339 N 
ATOM      7  HN  UNL d   1       1.201  -2.018   0.025  1.00  0.00     0.167 HD
ATOM      8  C   UNL d   1       1.240   0.040   0.111  0.00  0.00     0.078 A 
ATOM      9  C   UNL d   1      -2.874  -0.066  -0.413  0.00  0.00     0.105 C 
ATOM     10  N   UNL d   1      -4.018  -0.070  -0.606  0.00  0.00    -0.191 NA
ATOM     11  C   UNL d   1       2.734   0.090   0.182  0.00  0.00     0.089 C 
ENDROOT
BRANCH   1  12
ATOM     12  S   UNL d   1      -1.556   2.753  -0.077  0.00  0.00    -0.071 SA
BRANCH  12  13
ATOM     13  C   UNL d   1      -2.005   2.970   1.636  0.00  0.00     0.007 A 
ATOM     14  C   UNL d   1      -1.046   2.951   2.655  0.00  0.00     0.019 A 
ATOM     15  C   UNL d   1      -1.423   3.161   3.985  0.00  0.00     0.001 A 
ATOM     16  C   UNL d   1      -2.759   3.403   4.302  0.00  0.00     0.000 A 
ATOM     17  C   UNL d   1      -3.718   3.435   3.292  0.00  0.00     0.001 A 
ATOM     18  C   UNL d   1      -3.343   3.221   1.963  0.00  0.00     0.019 A 
ENDBRANCH  12  13
ENDBRANCH   1  12
BRANCH   5  19
ATOM     19  S   UNL d   1      -1.413  -2.822  -0.331  0.00  0.00    -0.115 SA
ATOM     20  C   UNL d   1       0.003  -3.881   0.078  0.00  0.00     0.097 C 
ENDBRANCH   5  19
TORSDOF 3
