REMARK  6 active torsions:
REMARK  status: ('A' for Active; 'I' for Inactive)
REMARK    1  A    between atoms: C_7  and  C_1 
REMARK    2  A    between atoms: S_9  and  C_2 
REMARK    3  A    between atoms: C_8  and  C_7 
REMARK    4  A    between atoms: C_13  and  S_9 
REMARK    5  A    between atoms: C_10  and  C_13 
REMARK    6  A    between atoms: O_21  and  C_10 
ROOT
ATOM      1  C   UNL d   1      -1.528   1.121  -0.086  0.00  0.00     0.117 A 
ATOM      2  C   UNL d   1      -1.457  -1.030  -0.211  0.00  0.00     0.152 A 
ATOM      3  N   UNL d   1      -2.302  -0.026  -0.141  0.00  0.00    -0.331 N 
ATOM      4  HN  UNL d   1      -3.321  -0.081  -0.130  1.00  0.00     0.168 HD
ATOM      5  N   UNL d   1      -0.143  -0.610  -0.248  0.00  0.00    -0.300 N 
ATOM      6  C   UNL d   1      -0.185   0.778  -0.118  0.00  0.00     0.071 A 
ATOM      7  C   UNL d   1       1.056  -1.318  -0.374  0.00  0.00     0.099 A 
ATOM      8  C   UNL d   1       1.059   1.473  -0.056  0.00  0.00     0.032 A 
ATOM      9  C   UNL d   1       2.225  -0.656  -0.342  0.00  0.00     0.018 A 
ATOM     10  C   UNL d   1       2.212   0.785  -0.158  0.00  0.00     0.004 A 
ENDROOT
BRANCH   2  11
ATOM     11  S   UNL d   1      -1.883  -2.713  -0.161  0.00  0.00    -0.079 SA
BRANCH  11  12
ATOM     12  C   UNL d   1      -3.650  -2.676  -0.617  0.00  0.00     0.151 C 
ATOM     13  C   UNL d   1      -4.239  -4.055  -0.322  0.00  0.00     0.032 C 
BRANCH  12  14
ATOM     14  C   UNL d   1      -3.837  -2.354  -2.095  0.00  0.00     0.272 C 
ATOM     15  O   UNL d   1      -2.963  -2.352  -2.954  0.00  0.00    -0.264 OA
BRANCH  14  16
ATOM     16  O   UNL d   1      -5.160  -2.115  -2.343  0.00  0.00    -0.326 OA
ATOM     17  C   UNL d   1      -5.479  -1.888  -3.717  0.00  0.00     0.213 C 
ENDBRANCH  14  16
ENDBRANCH  12  14
ENDBRANCH  11  12
ENDBRANCH   2  11
BRANCH   1  18
ATOM     18  C   UNL d   1      -2.069   2.481   0.009  0.00  0.00     0.283 C 
ATOM     19  O   UNL d   1      -1.308   3.455   0.077  0.00  0.00    -0.281 OA
BRANCH  18  20
ATOM     20  C   UNL d   1      -3.580   2.672   0.031  0.00  0.00     0.457 C 
ATOM     21  F   UNL d   1      -4.335   1.549  -0.111  0.00  0.00    -0.163 F 
ATOM     22  F   UNL d   1      -3.995   3.252   1.198  0.00  0.00    -0.163 F 
ATOM     23  F   UNL d   1      -3.993   3.518  -0.961  0.00  0.00    -0.163 F 
ENDBRANCH  18  20
ENDBRANCH   1  18
TORSDOF 6
