REMARK  6 active torsions:
REMARK  status: ('A' for Active; 'I' for Inactive)
REMARK       I    between atoms: N_2  and  C_1 
REMARK       I    between atoms: N_7  and  C_1 
REMARK    1  A    between atoms: C_3  and  N_2 
REMARK    2  A    between atoms: O_5  and  C_4 
REMARK    3  A    between atoms: C_8  and  O_5 
REMARK    4  A    between atoms: C_11  and  N_7 
REMARK    5  A    between atoms: C_14  and  C_11 
REMARK    6  A    between atoms: C_15  and  C_14 
ROOT
ATOM      1  C   UNL d   1       1.131  -1.441  -1.959  0.00  0.00     0.070 A 
ATOM      2  C   UNL d   1       1.733  -2.622  -1.503  0.00  0.00     0.102 A 
ATOM      3  C   UNL d   1       0.867  -1.282  -3.329  0.00  0.00     0.032 A 
ATOM      4  C   UNL d   1       2.145  -3.583  -2.437  0.00  0.00     0.039 A 
ATOM      5  C   UNL d   1       1.231  -2.271  -4.242  0.00  0.00     0.002 A 
ATOM      6  C   UNL d   1       1.889  -3.413  -3.799  0.00  0.00     0.003 A 
ENDROOT
BRANCH   1   7
ATOM      7  N   UNL d   1       0.765  -0.402  -1.087  0.00  0.00    -0.306 N 
ATOM      8  C   UNL d   1       1.078   0.926  -1.200  0.00  0.00     0.320 C 
ATOM      9  O   UNL d   1       0.461   1.771  -0.561  0.00  0.00    -0.247 OA
ATOM     10  N   UNL d   1       2.162   1.204  -1.981  0.00  0.00    -0.343 N 
ATOM     11  H   UNL d   1       2.787   0.427  -2.147  0.00  0.00     0.164 HD
ATOM     12  H   UNL d   1       0.164  -0.611  -0.305  0.00  0.00     0.171 HD
BRANCH  10  13
ATOM     13  C   UNL d   1       2.718   2.537  -2.064  0.00  0.00     0.124 C 
BRANCH  13  14
ATOM     14  C   UNL d   1       3.730   2.817  -0.949  0.00  0.00     0.019 C 
BRANCH  14  15
ATOM     15  C   UNL d   1       4.277   4.240  -1.069  0.00  0.00    -0.003 C 
ATOM     16  C   UNL d   1       5.357   4.534  -0.041  0.00  0.00     0.005 C 
ENDBRANCH  14  15
ENDBRANCH  13  14
ENDBRANCH  10  13
ENDBRANCH   1   7
BRANCH   2  17
ATOM     17  O   UNL d   1       2.174  -2.865  -0.221  0.00  0.00    -0.309 OA
BRANCH  17  18
ATOM     18  C   UNL d   1       1.370  -2.597   0.857  0.00  0.00     0.076 A 
ATOM     19  C   UNL d   1      -0.013  -2.788   0.872  0.00  0.00     0.037 A 
ATOM     20  C   UNL d   1      -0.743  -2.458   2.015  0.00  0.00     0.003 A 
ATOM     21  C   UNL d   1      -0.086  -1.987   3.154  0.00  0.00     0.000 A 
ATOM     22  C   UNL d   1       1.300  -1.851   3.155  0.00  0.00     0.003 A 
ATOM     23  C   UNL d   1       2.028  -2.157   2.010  0.00  0.00     0.037 A 
ENDBRANCH  17  18
ENDBRANCH   2  17
TORSDOF 6
