REMARK  5 active torsions:
REMARK  status: ('A' for Active; 'I' for Inactive)
REMARK    1  A    between atoms: N_8  and  S_1 
REMARK    2  A    between atoms: C_11  and  S_1 
REMARK    3  A    between atoms: C_4  and  N_10 
REMARK    4  A    between atoms: C_14  and  N_5 
REMARK    5  A    between atoms: C_15  and  C_6 
REMARK       I    between atoms: C_9  and  N_8 
REMARK       I    between atoms: N_10  and  C_9 
ROOT
ATOM      1  N   UNL d   1       2.492   0.283  -3.267  0.00  0.00    -0.291 N 
ATOM      2  HN  UNL d   1       2.434   0.921  -4.061  1.00  0.00     0.187 HD
ATOM      3  C   UNL d   1       2.121  -1.445  -1.844  0.00  0.00     0.083 C 
ATOM      4  N   UNL d   1       3.134   0.494  -2.087  0.00  0.00    -0.265 N 
ATOM      5  C   UNL d   1       1.952  -0.943  -3.168  0.00  0.00     0.087 C 
ATOM      6  C   UNL d   1       3.023  -0.599  -1.255  0.00  0.00     0.148 C 
ENDROOT
BRANCH   3   7
ATOM      7  N   UNL d   1       1.608  -2.561  -1.214  0.00  0.00    -0.305 N 
ATOM      8  C   UNL d   1       0.296  -2.971  -1.219  0.00  0.00     0.334 C 
ATOM      9  N   UNL d   1      -0.662  -2.075  -1.679  0.00  0.00    -0.232 N 
ATOM     10  O   UNL d   1       0.008  -4.048  -0.708  0.00  0.00    -0.246 OA
ATOM     11  H   UNL d   1      -0.405  -1.132  -1.942  0.00  0.00     0.183 HD
ATOM     12  H   UNL d   1       2.161  -3.014  -0.499  0.00  0.00     0.171 HD
BRANCH   9  13
ATOM     13  S   UNL d   1      -2.307  -2.269  -1.539  0.00  0.00     0.266 S 
ATOM     14  O   UNL d   1      -2.713  -3.414  -2.326  0.00  0.00    -0.200 OA
ATOM     15  O   UNL d   1      -2.875  -0.960  -1.786  0.00  0.00    -0.200 OA
BRANCH  13  16
ATOM     16  C   UNL d   1      -2.570  -2.622   0.184  0.00  0.00     0.080 A 
ATOM     17  C   UNL d   1      -2.383  -1.613   1.134  0.00  0.00     0.026 A 
ATOM     18  C   UNL d   1      -2.564  -1.902   2.490  0.00  0.00     0.008 A 
ATOM     19  C   UNL d   1      -2.943  -3.189   2.900  0.00  0.00    -0.062 A 
ATOM     20  C   UNL d   1      -3.172  -4.176   1.932  0.00  0.00     0.008 A 
ATOM     21  C   UNL d   1      -3.076  -3.502   4.362  0.00  0.00     0.048 C 
ATOM     22  C   UNL d   1      -2.991  -3.894   0.576  0.00  0.00     0.026 A 
ENDBRANCH  13  16
ENDBRANCH   9  13
ENDBRANCH   3   7
BRANCH   5  23
ATOM     23  C   UNL d   1       1.384  -1.636  -4.332  0.00  0.00    -0.006 A 
ATOM     24  C   UNL d   1       1.524  -3.031  -4.453  0.00  0.00     0.014 A 
ATOM     25  C   UNL d   1       1.008  -3.714  -5.556  0.00  0.00     0.001 A 
ATOM     26  C   UNL d   1       0.362  -3.008  -6.565  0.00  0.00     0.000 A 
ATOM     27  C   UNL d   1       0.238  -1.622  -6.474  0.00  0.00     0.001 A 
ATOM     28  C   UNL d   1       0.748  -0.936  -5.365  0.00  0.00     0.014 A 
ENDBRANCH   5  23
BRANCH   4  29
ATOM     29  C   UNL d   1       3.766   1.737  -1.790  0.00  0.00     0.056 A 
ATOM     30  C   UNL d   1       4.487   1.913  -0.598  0.00  0.00     0.031 A 
ATOM     31  C   UNL d   1       5.051   3.155  -0.293  0.00  0.00     0.002 A 
ATOM     32  C   UNL d   1       4.898   4.227  -1.169  0.00  0.00     0.000 A 
ATOM     33  C   UNL d   1       4.191   4.058  -2.359  0.00  0.00     0.002 A 
ATOM     34  C   UNL d   1       3.632   2.816  -2.676  0.00  0.00     0.031 A 
ENDBRANCH   4  29
TORSDOF 5
