REMARK  3 active torsions:
REMARK  status: ('A' for Active; 'I' for Inactive)
REMARK    1  A    between atoms: C_11  and  C_6 
REMARK    2  A    between atoms: C_17  and  C_10 
REMARK    3  A    between atoms: O_18  and  C_17 
ROOT
ATOM      1  N   UNL d   1      -0.311  -0.623   0.025  0.00  0.00    -0.203 N 
ATOM      2  C   UNL d   1      -0.284   0.758  -0.025  0.00  0.00     0.133 A 
ATOM      3  N   UNL d   1      -1.583  -1.112   0.072  0.00  0.00    -0.287 N 
ATOM      4  HN  UNL d   1      -1.881  -2.086   0.136  1.00  0.00     0.188 HD
ATOM      5  C   UNL d   1      -1.587   1.177  -0.051  0.00  0.00     0.084 A 
ATOM      6  C   UNL d   1      -2.349  -0.015   0.017  0.00  0.00     0.086 A 
ATOM      7  C   UNL d   1       0.837  -1.434   0.032  0.00  0.00     0.270 A 
ATOM      8  C   UNL d   1       2.118  -0.671   0.015  0.00  0.00     0.103 A 
ATOM      9  N   UNL d   1       0.911   1.385  -0.041  0.00  0.00    -0.342 N 
ATOM     10  C   UNL d   1       2.110   0.678  -0.004  0.00  0.00     0.040 A 
ATOM     11  O   UNL d   1       0.782  -2.656   0.044  0.00  0.00    -0.266 OA
ATOM     12  H   UNL d   1       0.999   2.401   0.038  0.00  0.00     0.167 HD
ENDROOT
BRANCH   6  13
ATOM     13  C   UNL d   1      -3.842  -0.053   0.033  0.00  0.00     0.103 A 
ATOM     14  O   UNL d   1      -4.639   1.050  -0.129  0.00  0.00    -0.320 OA
ATOM     15  C   UNL d   1      -5.929   0.634  -0.050  0.00  0.00     0.142 A 
ATOM     16  C   UNL d   1      -5.985  -0.719   0.182  0.00  0.00     0.027 A 
ATOM     17  C   UNL d   1      -4.640  -1.167   0.220  0.00  0.00     0.041 A 
ENDBRANCH   6  13
BRANCH  10  18
ATOM     18  C   UNL d   1       3.406   1.467  -0.009  0.00  0.00     0.224 C 
BRANCH  18  19
ATOM     19  O   UNL d   1       3.441   2.315   1.139  0.00  0.00    -0.390 OA
ATOM     20  C   UNL d   1       4.657   3.054   1.204  0.00  0.00     0.201 C 
ENDBRANCH  18  19
ENDBRANCH  10  18
TORSDOF 3
