REMARK  5 active torsions:
REMARK  status: ('A' for Active; 'I' for Inactive)
REMARK    1  A    between atoms: C_2  and  C_1 
REMARK    2  A    between atoms: N_14  and  C_2 
REMARK    3  A    between atoms: O_10  and  N_5 
REMARK    4  A    between atoms: C_7  and  O_10 
REMARK    5  A    between atoms: C_13  and  C_7 
ROOT
ATOM      1  C   UNL d   1      -1.128   2.531  -0.548  0.00  0.00     0.127 C 
ATOM      2  N   UNL d   1      -2.317   2.873  -0.175  0.00  0.00    -0.244 N 
ATOM      3  HN  UNL d   1      -2.638   3.835  -0.067  1.00  0.00     0.196 HD
ENDROOT
BRANCH   1   4
ATOM      4  C   UNL d   1      -0.119   3.585  -0.704  0.00  0.00     0.089 A 
ATOM      5  N   UNL d   1       1.094   3.329  -1.239  0.00  0.00    -0.298 N 
ATOM      6  N   UNL d   1       1.731   4.512  -1.177  0.00  0.00    -0.311 N 
ATOM      7  HN  UNL d   1       1.445   2.445  -1.605  1.00  0.00     0.187 HD
ATOM      8  C   UNL d   1       0.980   5.514  -0.642  0.00  0.00     0.109 A 
ATOM      9  H   UNL d   1       2.686   4.563  -1.517  0.00  0.00     0.186 HD
ATOM     10  C   UNL d   1      -0.232   4.950  -0.331  0.00  0.00     0.053 A 
ENDBRANCH   1   4
BRANCH   1  11
ATOM     11  N   UNL d   1      -0.653   1.280  -0.846  0.00  0.00    -0.285 NA
ATOM     12  H   UNL d   1       0.193   1.324  -1.415  0.00  0.00     0.125 HD
ATOM     13  H   UNL d   1      -1.363   0.664  -1.219  0.00  0.00     0.125 HD
ENDBRANCH   1  11
BRANCH   2  14
ATOM     14  O   UNL d   1      -3.107   1.733   0.062  0.00  0.00    -0.193 OA
BRANCH  14  15
ATOM     15  C   UNL d   1      -4.421   2.082  -0.025  0.00  0.00     0.315 C 
ATOM     16  O   UNL d   1      -4.956   2.710  -0.924  0.00  0.00    -0.257 OA
BRANCH  15  17
ATOM     17  C   UNL d   1      -5.148   1.520   1.139  0.00  0.00     0.041 A 
ATOM     18  C   UNL d   1      -6.506   1.214   1.004  0.00  0.00     0.017 A 
ATOM     19  C   UNL d   1      -7.224   0.738   2.103  0.00  0.00     0.001 A 
ATOM     20  C   UNL d   1      -6.591   0.582   3.337  0.00  0.00     0.000 A 
ATOM     21  C   UNL d   1      -5.241   0.899   3.479  0.00  0.00     0.001 A 
ATOM     22  C   UNL d   1      -4.518   1.368   2.382  0.00  0.00     0.017 A 
ENDBRANCH  15  17
ENDBRANCH  14  15
ENDBRANCH   2  14
TORSDOF 5
