REMARK  3 active torsions:
REMARK  status: ('A' for Active; 'I' for Inactive)
REMARK    1  A    between atoms: C_5  and  C_1 
REMARK    2  A    between atoms: C_8  and  C_2 
REMARK       I    between atoms: N_14  and  C_8 
REMARK    3  A    between atoms: C_17  and  N_14 
ROOT
ATOM      1  C   UNL d   1       3.358  -4.621   0.924  0.00  0.00    -0.098 C 
ATOM      2  C   UNL d   1       4.406  -4.753   1.491  0.00  0.00     0.014 C 
ATOM      3  C   UNL d   1       2.066  -4.471   0.238  0.00  0.00     0.216 C 
ENDROOT
BRANCH   3   4
ATOM      4  N   UNL d   1       1.654  -3.090   0.271  0.00  0.00    -0.346 N 
ATOM      5  C   UNL d   1       0.529  -2.682  -0.411  0.00  0.00     0.257 C 
ATOM      6  O   UNL d   1      -0.089  -3.403  -1.187  0.00  0.00    -0.267 OA
ATOM      7  H   UNL d   1       1.933  -2.551   1.079  0.00  0.00     0.163 HD
BRANCH   5   8
ATOM      8  C   UNL d   1       0.077  -1.351  -0.060  0.00  0.00     0.092 A 
ATOM      9  C   UNL d   1      -1.259  -0.893   0.185  0.00  0.00     0.086 A 
ATOM     10  N   UNL d   1      -1.238   0.402   0.545  0.00  0.00    -0.259 N 
ATOM     11  O   UNL d   1       0.067   0.817   0.459  0.00  0.00    -0.241 OA
ATOM     12  HN  UNL d   1      -2.039   0.967   0.828  1.00  0.00     0.195 HD
ATOM     13  C   UNL d   1       0.858  -0.224   0.099  0.00  0.00     0.090 A 
ATOM     14  C   UNL d   1       2.288   0.106  -0.058  0.00  0.00     0.080 C 
BRANCH   9  15
ATOM     15  C   UNL d   1      -2.534  -1.620   0.155  0.00  0.00     0.037 A 
ATOM     16  C   UNL d   1      -2.733  -2.799   0.901  0.00  0.00     0.048 A 
ATOM     17 CL   UNL d   1      -1.537  -3.463   1.968  0.00  0.00    -0.083 Cl
ATOM     18  C   UNL d   1      -3.964  -3.473   0.875  0.00  0.00     0.025 A 
ATOM     19  C   UNL d   1      -5.035  -2.962   0.150  0.00  0.00     0.003 A 
ATOM     20  C   UNL d   1      -4.872  -1.783  -0.568  0.00  0.00     0.025 A 
ATOM     21  C   UNL d   1      -3.632  -1.126  -0.584  0.00  0.00     0.048 A 
ATOM     22 CL   UNL d   1      -3.551   0.298  -1.573  0.00  0.00    -0.083 Cl
ENDBRANCH   9  15
ENDBRANCH   5   8
ENDBRANCH   3   4
TORSDOF 3
