REMARK  3 active torsions:
REMARK  status: ('A' for Active; 'I' for Inactive)
REMARK    1  A    between atoms: C_9  and  N_1 
REMARK    2  A    between atoms: C_8  and  C_10 
REMARK    3  A    between atoms: O_16  and  C_8 
ROOT
ATOM      1  C   UNL d   1      -0.742   2.466  -0.027  0.00  0.00     0.057 A 
ATOM      2  C   UNL d   1      -1.443   5.177   0.206  0.00  0.00     0.037 A 
ATOM      3  C   UNL d   1      -1.597   2.894   1.002  0.00  0.00     0.032 A 
ATOM      4  C   UNL d   1      -0.228   3.404  -0.931  0.00  0.00     0.032 A 
ATOM      5  C   UNL d   1      -1.938   4.246   1.126  0.00  0.00     0.020 A 
ATOM      6  C   UNL d   1      -0.578   4.754  -0.810  0.00  0.00     0.020 A 
ENDROOT
BRANCH   1   7
ATOM      7  N   UNL d   1      -0.411   1.089  -0.132  0.00  0.00    -0.251 N 
ATOM      8  N   UNL d   1      -0.941   0.159   0.703  0.00  0.00    -0.288 N 
ATOM      9  C   UNL d   1      -0.397  -0.970   0.249  0.00  0.00     0.199 A 
ATOM     10  HN  UNL d   1      -1.590   0.291   1.479  1.00  0.00     0.188 HD
ATOM     11  N   UNL d   1       0.451  -0.830  -0.806  0.00  0.00    -0.346 N 
ATOM     12  C   UNL d   1       0.428   0.465  -1.023  0.00  0.00     0.208 A 
ATOM     13  HN  UNL d   1       0.974  -1.551  -1.303  1.00  0.00     0.167 HD
ENDBRANCH   1   7
BRANCH   2  14
ATOM     14  C   UNL d   1      -1.760   6.626   0.290  0.00  0.00     0.176 C 
ATOM     15  O   UNL d   1      -0.993   7.490  -0.096  0.00  0.00    -0.646 OA
BRANCH  14  16
ATOM     16  O   UNL d   1      -2.987   6.895   0.783  0.00  0.00    -0.773 OA
ATOM     17  H   UNL d   1      -3.576   6.126   0.884  0.00  0.00     0.167 HD
ENDBRANCH  14  16
ENDBRANCH   2  14
TORSDOF 3
