REMARK  4 active torsions:
REMARK  status: ('A' for Active; 'I' for Inactive)
REMARK    1  A    between atoms: C_2  and  N_1 
REMARK    2  A    between atoms: N_6  and  C_3 
REMARK       I    between atoms: N_4  and  C_7 
REMARK       I    between atoms: C_5  and  N_4 
REMARK       I    between atoms: N_10  and  C_5 
REMARK    3  A    between atoms: C_7  and  C_13 
REMARK    4  A    between atoms: C_20  and  N_10 
ROOT
ATOM      1  N   UNL d   1      -1.500  -0.991   0.841  0.00  0.00    -0.365 N 
ATOM      2  C   UNL d   1      -2.932  -3.504   0.795  0.00  0.00     0.081 C 
ATOM      3  C   UNL d   1      -0.855  -2.185   1.351  0.00  0.00     0.125 C 
ATOM      4  C   UNL d   1      -2.465  -1.169  -0.245  0.00  0.00     0.125 C 
ATOM      5  C   UNL d   1      -3.507  -2.234   0.126  0.00  0.00     0.034 C 
ATOM      6  C   UNL d   1      -1.936  -3.117   1.889  0.00  0.00     0.034 C 
ENDROOT
BRANCH   2   7
ATOM      7  C   UNL d   1      -2.297  -4.451  -0.212  0.00  0.00     0.229 C 
ATOM      8  N   UNL d   1      -1.819  -5.694   0.185  0.00  0.00    -0.279 N 
ATOM      9  C   UNL d   1      -1.788  -6.579   1.260  0.00  0.00     0.327 C 
ATOM     10  H   UNL d   1      -1.315  -6.119  -0.586  0.00  0.00     0.173 HD
ATOM     11  N   UNL d   1      -2.582  -6.296   2.336  0.00  0.00    -0.309 N 
ATOM     12  O   UNL d   1      -1.057  -7.559   1.141  0.00  0.00    -0.247 OA
ATOM     13  H   UNL d   1      -3.195  -5.506   2.270  0.00  0.00     0.170 HD
ATOM     14  O   UNL d   1      -2.180  -4.146  -1.401  0.00  0.00    -0.273 OA
BRANCH  11  15
ATOM     15  C   UNL d   1      -2.754  -7.075   3.506  0.00  0.00     0.036 A 
ATOM     16  C   UNL d   1      -2.063  -8.259   3.773  0.00  0.00     0.029 A 
ATOM     17  C   UNL d   1      -2.344  -9.004   4.926  0.00  0.00     0.002 A 
ATOM     18  C   UNL d   1      -3.312  -8.567   5.827  0.00  0.00     0.000 A 
ATOM     19  C   UNL d   1      -3.986  -7.374   5.587  0.00  0.00     0.002 A 
ATOM     20  C   UNL d   1      -3.705  -6.630   4.435  0.00  0.00     0.029 A 
ENDBRANCH  11  15
ENDBRANCH   2   7
BRANCH   1  21
ATOM     21  C   UNL d   1      -1.006   0.275   1.073  0.00  0.00     0.136 A 
ATOM     22  C   UNL d   1       0.337   0.631   1.219  0.00  0.00     0.146 A 
ATOM     23  C   UNL d   1       0.721   1.908   1.654  0.00  0.00     0.041 A 
ATOM     24  C   UNL d   1      -0.265   2.844   1.914  0.00  0.00     0.020 A 
ATOM     25  C   UNL d   1      -1.576   2.464   1.701  0.00  0.00     0.090 A 
ATOM     26  N   UNL d   1      -1.952   1.228   1.288  0.00  0.00    -0.350 N 
ATOM     27  HN  UNL d   1      -2.938   1.014   1.139  1.00  0.00     0.166 HD
BRANCH  22  28
ATOM     28  N   UNL d   1       1.399  -0.276   0.863  0.00  0.00    -0.112 N 
ATOM     29  O   UNL d   1       1.478  -0.635  -0.321  0.00  0.00    -0.532 OA
ATOM     30  O   UNL d   1       2.182  -0.603   1.764  0.00  0.00    -0.532 OA
ENDBRANCH  22  28
ENDBRANCH   1  21
TORSDOF 4
