REMARK  8 active torsions:
REMARK  status: ('A' for Active; 'I' for Inactive)
REMARK    1  A    between atoms: S_17  and  C_3 
REMARK    2  A    between atoms: C_10  and  C_4 
REMARK    3  A    between atoms: S_18  and  C_9 
REMARK    4  A    between atoms: O_25  and  C_10 
REMARK    5  A    between atoms: C_15  and  C_23 
REMARK       I    between atoms: N_16  and  C_15 
REMARK    6  A    between atoms: C_24  and  N_16 
REMARK    7  A    between atoms: C_23  and  S_18 
REMARK    8  A    between atoms: C_33  and  O_25 
ROOT
ATOM      1  C   UNL d   1      -0.838   0.448  -0.156  0.00  0.00     0.023 A 
ATOM      2  C   UNL d   1      -1.701  -0.689   0.137  0.00  0.00    -0.020 A 
ATOM      3  C   UNL d   1      -1.570   1.602  -0.380  0.00  0.00     0.054 A 
ATOM      4  C   UNL d   1      -3.047  -0.351   0.124  0.00  0.00     0.088 A 
ATOM      5  S   UNL d   1      -3.253   1.312  -0.227  0.00  0.00    -0.076 SA
ATOM      6  C   UNL d   1       0.623   0.289  -0.201  0.00  0.00     0.054 C 
ATOM      7  N   UNL d   1       1.408   1.371  -0.311  0.00  0.00    -0.336 N 
ATOM      8  HN  UNL d   1       1.022   2.314  -0.361  1.00  0.00     0.168 HD
ATOM      9  C   UNL d   1       2.727   1.145  -0.352  0.00  0.00     0.145 C 
ATOM     10  C   UNL d   1       1.135  -1.004  -0.140  0.00  0.00    -0.015 C 
ATOM     11  C   UNL d   1      -1.086  -2.032   0.443  0.00  0.00     0.046 C 
ATOM     12  N   UNL d   1       3.312  -0.047  -0.176  0.00  0.00    -0.346 N 
ATOM     13  HN  UNL d   1       4.326  -0.141  -0.103  1.00  0.00     0.167 HD
ATOM     14  C   UNL d   1       2.503  -1.108  -0.099  0.00  0.00     0.099 C 
ATOM     15  C   UNL d   1       0.259  -2.211  -0.259  0.00  0.00     0.047 C 
ENDROOT
BRANCH   9  16
ATOM     16  S   UNL d   1       3.748   2.469  -0.949  0.00  0.00    -0.085 SA
BRANCH  16  17
ATOM     17  C   UNL d   1       5.159   1.499  -1.570  0.00  0.00     0.185 C 
BRANCH  17  18
ATOM     18  C   UNL d   1       4.805   0.422  -2.595  0.00  0.00     0.231 C 
ATOM     19  N   UNL d   1       3.831   0.770  -3.519  0.00  0.00    -0.327 N 
ATOM     20  H   UNL d   1       3.469   1.716  -3.459  0.00  0.00     0.169 HD
ATOM     21  O   UNL d   1       5.456  -0.623  -2.620  0.00  0.00    -0.272 OA
BRANCH  19  22
ATOM     22  C   UNL d   1       3.363  -0.028  -4.587  0.00  0.00     0.034 A 
ATOM     23  C   UNL d   1       3.633  -1.396  -4.706  0.00  0.00     0.031 A 
ATOM     24  C   UNL d   1       3.192  -2.122  -5.818  0.00  0.00     0.026 A 
ATOM     25  C   UNL d   1       2.473  -1.482  -6.821  0.00  0.00     0.034 A 
ATOM     26  C   UNL d   1       2.165  -0.129  -6.704  0.00  0.00     0.026 A 
ATOM     27 CL   UNL d   1       1.969  -2.365  -8.209  0.00  0.00    -0.084 Cl
ATOM     28  C   UNL d   1       2.597   0.592  -5.583  0.00  0.00     0.031 A 
ENDBRANCH  19  22
ENDBRANCH  17  18
ENDBRANCH  16  17
ENDBRANCH   9  16
BRANCH   3  29
ATOM     29  S   UNL d   1      -1.030   3.217  -0.846  0.00  0.00    -0.126 SA
ATOM     30  C   UNL d   1      -0.876   4.002   0.777  0.00  0.00     0.096 C 
ENDBRANCH   3  29
BRANCH   4  31
ATOM     31  C   UNL d   1      -4.243  -1.144   0.391  0.00  0.00     0.300 C 
ATOM     32  O   UNL d   1      -5.389  -0.730   0.453  0.00  0.00    -0.259 OA
BRANCH  31  33
ATOM     33  O   UNL d   1      -3.892  -2.439   0.635  0.00  0.00    -0.317 OA
BRANCH  33  34
ATOM     34  C   UNL d   1      -4.876  -3.260   1.272  0.00  0.00     0.174 C 
ATOM     35  C   UNL d   1      -4.717  -3.095   2.771  0.00  0.00     0.034 C 
ENDBRANCH  33  34
ENDBRANCH  31  33
ENDBRANCH   4  31
TORSDOF 8
