REMARK  8 active torsions:
REMARK  status: ('A' for Active; 'I' for Inactive)
REMARK    1  A    between atoms: C_8  and  C_1 
REMARK    2  A    between atoms: C_12  and  C_7 
REMARK    3  A    between atoms: N_10  and  C_9 
REMARK       I    between atoms: C_11  and  N_10 
REMARK    4  A    between atoms: C_22  and  C_11 
REMARK    5  A    between atoms: C_13  and  C_23 
REMARK    6  A    between atoms: O_24  and  C_13 
REMARK    7  A    between atoms: C_14  and  C_15 
REMARK    8  A    between atoms: C_23  and  C_22 
ROOT
ATOM      1  C   UNL d   1      -0.125  -1.042   0.277  0.00  0.00     0.177 A 
ATOM      2  O   UNL d   1      -0.923   0.067   0.168  0.00  0.00    -0.273 OA
ATOM      3  N   UNL d   1       1.128  -0.736   0.553  0.00  0.00    -0.277 N 
ATOM      4  HN  UNL d   1       1.899  -1.388   0.698  1.00  0.00     0.189 HD
ATOM      5  N   UNL d   1       1.191   0.643   0.606  0.00  0.00    -0.277 N 
ATOM      6  HN  UNL d   1       2.021   1.209   0.780  1.00  0.00     0.189 HD
ATOM      7  C   UNL d   1      -0.033   1.084   0.388  0.00  0.00     0.174 A 
ENDROOT
BRANCH   1   8
ATOM      8  C   UNL d   1      -0.762  -2.343   0.102  0.00  0.00     0.043 A 
ATOM      9  C   UNL d   1      -0.113  -3.545   0.459  0.00  0.00     0.049 A 
ATOM     10  C   UNL d   1      -0.775  -4.768   0.265  0.00  0.00     0.030 A 
ATOM     11  C   UNL d   1      -2.044  -4.815  -0.312  0.00  0.00     0.002 A 
ATOM     12  C   UNL d   1      -2.668  -3.640  -0.710  0.00  0.00     0.001 A 
ATOM     13  C   UNL d   1      -2.034  -2.415  -0.501  0.00  0.00     0.018 A 
BRANCH   9  14
ATOM     14  N   UNL d   1       1.184  -3.524   1.036  0.00  0.00    -0.326 N 
ATOM     15  C   UNL d   1       2.148  -4.490   0.802  0.00  0.00     0.222 C 
ATOM     16  O   UNL d   1       2.033  -5.439   0.032  0.00  0.00    -0.273 OA
ATOM     17  H   UNL d   1       1.524  -2.619   1.354  0.00  0.00     0.169 HD
BRANCH  15  18
ATOM     18  C   UNL d   1       3.417  -4.281   1.599  0.00  0.00     0.113 C 
BRANCH  18  19
ATOM     19  C   UNL d   1       4.639  -4.576   0.737  0.00  0.00     0.119 C 
BRANCH  19  20
ATOM     20  C   UNL d   1       5.911  -4.480   1.539  0.00  0.00     0.139 C 
ATOM     21  O   UNL d   1       5.976  -4.219   2.726  0.00  0.00    -0.650 OA
BRANCH  20  22
ATOM     22  O   UNL d   1       7.010  -4.719   0.783  0.00  0.00    -0.776 OA
ATOM     23  H   UNL d   1       6.811  -4.924  -0.149  0.00  0.00     0.167 HD
ENDBRANCH  20  22
ENDBRANCH  19  20
ENDBRANCH  18  19
ENDBRANCH  15  18
ENDBRANCH   9  14
ENDBRANCH   1   8
BRANCH   7  24
ATOM     24  C   UNL d   1      -0.556   2.443   0.351  0.00  0.00     0.017 A 
ATOM     25  C   UNL d   1      -1.928   2.709   0.270  0.00  0.00     0.016 A 
ATOM     26  C   UNL d   1      -2.406   4.027   0.255  0.00  0.00     0.009 A 
ATOM     27  C   UNL d   1      -1.531   5.127   0.318  0.00  0.00    -0.051 A 
ATOM     28  C   UNL d   1      -0.157   4.847   0.391  0.00  0.00     0.009 A 
ATOM     29  C   UNL d   1       0.322   3.530   0.410  0.00  0.00     0.016 A 
BRANCH  27  30
ATOM     30  C   UNL d   1      -2.085   6.563   0.306  0.00  0.00    -0.024 C 
ATOM     31  C   UNL d   1      -0.990   7.651   0.390  0.00  0.00     0.019 C 
ATOM     32  C   UNL d   1      -2.872   6.808  -0.999  0.00  0.00     0.019 C 
ATOM     33  C   UNL d   1      -3.027   6.772   1.511  0.00  0.00     0.019 C 
ENDBRANCH  27  30
ENDBRANCH   7  24
TORSDOF 8
