REMARK  1 active torsions:
REMARK  status: ('A' for Active; 'I' for Inactive)
REMARK    1  A    between atoms: C_7  and  C_3 
ROOT
ATOM      1  N   UNL d   1      -0.350   7.546  -0.011  0.00  0.00    -0.327 N 
ATOM      2  C   UNL d   1      -1.566   3.534  -0.070  0.00  0.00    -0.008 A 
ATOM      3  C   UNL d   1      -0.761   6.207  -0.034  0.00  0.00     0.041 A 
ATOM      4  C   UNL d   1      -0.434   8.358   1.086  0.00  0.00     0.222 C 
ATOM      5  C   UNL d   1      -1.485   5.691   1.046  0.00  0.00    -0.030 A 
ATOM      6  C   UNL d   1      -1.894   4.349   1.019  0.00  0.00     0.023 A 
ATOM      7  C   UNL d   1      -0.850   4.074  -1.147  0.00  0.00     0.016 A 
ATOM      8  C   UNL d   1      -0.456   5.413  -1.134  0.00  0.00     0.031 A 
ATOM      9  O   UNL d   1      -0.086   9.535   1.030  0.00  0.00    -0.273 OA
ATOM     10  C   UNL d   1      -1.892   6.614   2.160  0.00  0.00     0.050 C 
ATOM     11  C   UNL d   1      -0.848   7.697   2.383  0.00  0.00     0.108 C 
ATOM     12  H   UNL d   1       0.059   7.965  -0.837  0.00  0.00     0.169 HD
ENDROOT
BRANCH   2  13
ATOM     13  C   UNL d   1      -1.924   2.117  -0.082  0.00  0.00     0.053 A 
ATOM     14  N   UNL d   1      -3.140   1.644  -0.573  0.00  0.00    -0.326 N 
ATOM     15  C   UNL d   1      -3.276   0.273  -0.492  0.00  0.00     0.147 A 
ATOM     16  C   UNL d   1      -4.281   2.440  -0.973  0.00  0.00     0.133 C 
ATOM     17  S   UNL d   1      -1.776  -0.433   0.156  0.00  0.00    -0.064 SA
ATOM     18  N   UNL d   1      -4.271  -0.478  -0.781  0.00  0.00    -0.370 N 
ATOM     19  C   UNL d   1      -1.083   1.160   0.350  0.00  0.00     0.083 A 
ATOM     20  C   UNL d   1      -5.484   0.217  -1.218  0.00  0.00     0.123 C 
ATOM     21  HN  UNL d   1      -4.222  -1.495  -0.713  1.00  0.00     0.161 HD
ATOM     22  C   UNL d   1      -5.237   1.600  -1.811  0.00  0.00     0.040 C 
ENDBRANCH   2  13
TORSDOF 1
