REMARK  6 active torsions:
REMARK  status: ('A' for Active; 'I' for Inactive)
REMARK    1  A    between atoms: C_7  and  C_2 
REMARK    2  A    between atoms: S_16  and  C_10 
REMARK    3  A    between atoms: C_15  and  C_20 
REMARK       I    between atoms: N_17  and  C_15 
REMARK    4  A    between atoms: C_20  and  S_16 
REMARK    5  A    between atoms: C_23  and  N_17 
REMARK    6  A    between atoms: C_24  and  C_23 
ROOT
ATOM      1  C   UNL d   1       3.826   0.389   0.207  0.00  0.00     0.053 A 
ATOM      2  N   UNL d   1       4.567  -0.055  -0.829  0.00  0.00    -0.336 N 
ATOM      3  HN  UNL d   1       4.138  -0.527  -1.625  1.00  0.00     0.168 HD
ATOM      4  C   UNL d   1       5.889   0.149  -0.768  0.00  0.00     0.145 A 
ATOM      5  N   UNL d   1       6.534   0.730   0.253  0.00  0.00    -0.347 N 
ATOM      6  HN  UNL d   1       7.547   0.844   0.258  1.00  0.00     0.167 HD
ATOM      7  C   UNL d   1       4.398   1.016   1.298  0.00  0.00     0.048 A 
ATOM      8  C   UNL d   1       5.763   1.153   1.270  0.00  0.00     0.092 A 
ENDROOT
BRANCH   4   9
ATOM      9  S   UNL d   1       6.837  -0.272  -2.205  0.00  0.00    -0.085 SA
BRANCH   9  10
ATOM     10  C   UNL d   1       7.247  -1.974  -1.739  0.00  0.00     0.185 C 
BRANCH  10  11
ATOM     11  C   UNL d   1       7.985  -2.757  -2.818  0.00  0.00     0.227 C 
ATOM     12  N   UNL d   1       8.361  -2.085  -3.956  0.00  0.00    -0.356 N 
ATOM     13  H   UNL d   1       8.096  -1.111  -4.049  0.00  0.00     0.162 HD
ATOM     14  O   UNL d   1       8.232  -3.952  -2.652  0.00  0.00    -0.273 OA
BRANCH  12  15
ATOM     15  C   UNL d   1       8.926  -2.757  -5.107  0.00  0.00     0.161 C 
BRANCH  15  16
ATOM     16  C   UNL d   1      10.205  -2.122  -5.585  0.00  0.00    -0.041 A 
ATOM     17  C   UNL d   1      11.289  -1.946  -4.711  0.00  0.00     0.009 A 
ATOM     18  C   UNL d   1      12.502  -1.435  -5.174  0.00  0.00     0.001 A 
ATOM     19  C   UNL d   1      12.652  -1.100  -6.520  0.00  0.00     0.000 A 
ATOM     20  C   UNL d   1      11.587  -1.272  -7.399  0.00  0.00     0.001 A 
ATOM     21  C   UNL d   1      10.371  -1.781  -6.938  0.00  0.00     0.009 A 
ENDBRANCH  15  16
ENDBRANCH  12  15
ENDBRANCH  10  11
ENDBRANCH   9  10
ENDBRANCH   4   9
BRANCH   1  22
ATOM     22  C   UNL d   1       2.363   0.233   0.040  0.00  0.00     0.039 A 
ATOM     23  S   UNL d   1       1.369   0.035   1.453  0.00  0.00    -0.079 SA
ATOM     24  C   UNL d   1      -0.009   0.052   0.525  0.00  0.00     0.057 A 
ATOM     25  C   UNL d   1       0.209   0.165  -0.797  0.00  0.00     0.002 A 
ATOM     26  S   UNL d   1      -1.618  -0.037   0.960  0.00  0.00    -0.093 SA
ATOM     27  C   UNL d   1       1.591   0.204  -1.143  0.00  0.00    -0.030 A 
ATOM     28  C   UNL d   1      -0.987   0.233  -1.564  0.00  0.00    -0.043 A 
ATOM     29  C   UNL d   1       2.208   0.242  -2.505  0.00  0.00     0.050 C 
ATOM     30  C   UNL d   1      -1.204   0.421  -3.027  0.00  0.00     0.049 C 
ATOM     31  C   UNL d   1      -2.074   0.113  -0.693  0.00  0.00     0.058 A 
ENDBRANCH   1  22
TORSDOF 6
