REMARK  9 active torsions:
REMARK  status: ('A' for Active; 'I' for Inactive)
REMARK    1  A    between atoms: C_5  and  C_1 
REMARK    2  A    between atoms: C_4  and  C_2 
REMARK    3  A    between atoms: N_9  and  C_3 
REMARK    4  A    between atoms: C_10  and  C_4 
REMARK    5  A    between atoms: O_20  and  C_5 
REMARK    6  A    between atoms: C_6  and  N_9 
REMARK    7  A    between atoms: S_17  and  C_22 
REMARK    8  A    between atoms: C_18  and  S_17 
REMARK    9  A    between atoms: C_22  and  C_19 
ROOT
ATOM      1  C   UNL d   1       4.571   2.828  -1.724  0.00  0.00     0.110 C 
ATOM      2  C   UNL d   1       3.636   1.863  -1.681  0.00  0.00     0.115 C 
ATOM      3  C   UNL d   1       5.082   3.341  -2.952  0.00  0.00     0.105 C 
ATOM      4  N   UNL d   1       5.510   3.709  -3.964  0.00  0.00    -0.191 NA
ENDROOT
BRANCH   1   5
ATOM      5  C   UNL d   1       4.986   3.380  -0.397  0.00  0.00     0.204 C 
ATOM      6  O   UNL d   1       4.243   3.310   0.582  0.00  0.00    -0.286 OA
BRANCH   5   7
ATOM      7  C   UNL d   1       6.300   4.044  -0.215  0.00  0.00     0.016 A 
ATOM      8  C   UNL d   1       6.396   5.064   0.753  0.00  0.00     0.023 A 
ATOM      9  C   UNL d   1       7.612   5.725   0.991  0.00  0.00    -0.048 A 
ATOM     10  C   UNL d   1       8.742   5.287   0.279  0.00  0.00     0.008 A 
ATOM     11  C   UNL d   1       8.655   4.267  -0.670  0.00  0.00     0.002 A 
ATOM     12  C   UNL d   1       7.439   3.636  -0.912  0.00  0.00     0.015 A 
BRANCH   9  13
ATOM     13  C   UNL d   1       7.692   6.837   2.028  0.00  0.00     0.117 C 
BRANCH  13  14
ATOM     14  S   UNL d   1       8.831   8.175   1.503  0.00  0.00    -0.125 SA
BRANCH  14  15
ATOM     15  C   UNL d   1       8.926   9.312   2.870  0.00  0.00     0.001 A 
ATOM     16  C   UNL d   1       8.115   9.307   4.006  0.00  0.00     0.020 A 
ATOM     17  C   UNL d   1       8.251  10.313   4.975  0.00  0.00     0.025 A 
ATOM     18  C   UNL d   1       9.201  11.321   4.812  0.00  0.00     0.034 A 
ATOM     19  C   UNL d   1      10.028  11.328   3.696  0.00  0.00     0.025 A 
ATOM     20 CL   UNL d   1       9.348  12.566   5.989  0.00  0.00    -0.084 Cl
ATOM     21  C   UNL d   1       9.889  10.326   2.734  0.00  0.00     0.020 A 
ENDBRANCH  14  15
ENDBRANCH  13  14
ENDBRANCH   9  13
ENDBRANCH   5   7
ENDBRANCH   1   5
BRANCH   2  22
ATOM     22  N   UNL d   1       2.962   1.199  -2.684  0.00  0.00    -0.363 N 
ATOM     23  H   UNL d   1       3.265   1.485  -3.618  0.00  0.00     0.165 HD
BRANCH  22  24
ATOM     24  C   UNL d   1       1.964   0.262  -2.631  0.00  0.00     0.055 A 
ATOM     25  C   UNL d   1       1.278  -0.307  -1.558  0.00  0.00     0.106 A 
ATOM     26  S   UNL d   1       0.179  -1.532  -2.109  0.00  0.00    -0.094 SA
ATOM     27  C   UNL d   1       0.557  -1.262  -3.740  0.00  0.00     0.053 A 
ATOM     28  C   UNL d   1       1.515  -0.289  -3.881  0.00  0.00     0.038 A 
BRANCH  25  29
ATOM     29  C   UNL d   1       1.285  -0.127  -0.115  0.00  0.00     0.302 C 
ATOM     30  O   UNL d   1       1.152  -1.023   0.714  0.00  0.00    -0.259 OA
BRANCH  29  31
ATOM     31  O   UNL d   1       1.387   1.190   0.221  0.00  0.00    -0.322 OA
ATOM     32  C   UNL d   1       1.489   1.442   1.627  0.00  0.00     0.213 C 
ENDBRANCH  29  31
ENDBRANCH  25  29
ENDBRANCH  22  24
ENDBRANCH   2  22
TORSDOF 9
