REMARK  3 active torsions:
REMARK  status: ('A' for Active; 'I' for Inactive)
REMARK    1  A    between atoms: C_9  and  C_3 
REMARK    2  A    between atoms: O_14  and  C_9 
REMARK    3  A    between atoms: C_16  and  O_14 
ROOT
ATOM      1  C   UNL d   1       0.126   0.647   0.047  0.00  0.00     0.059 A 
ATOM      2  C   UNL d   1      -0.165  -0.666   0.036  0.00  0.00     0.003 A 
ATOM      3  C   UNL d   1      -2.264   0.292   0.046  0.00  0.00     0.088 A 
ATOM      4  C   UNL d   1      -1.564  -0.933   0.037  0.00  0.00    -0.026 A 
ATOM      5  S   UNL d   1      -1.197   1.653   0.075  0.00  0.00    -0.075 SA
ATOM      6  S   UNL d   1       1.753   1.001   0.027  0.00  0.00    -0.070 SA
ATOM      7  C   UNL d   1       2.128  -0.679   0.009  0.00  0.00     0.093 A 
ATOM      8  C   UNL d   1       0.991  -1.501   0.017  0.00  0.00    -0.022 A 
ATOM      9  C   UNL d   1       3.485  -1.140  -0.008  0.00  0.00     0.107 C 
ATOM     10  N   UNL d   1       4.573  -1.540  -0.020  0.00  0.00    -0.191 NA
ATOM     11  C   UNL d   1      -2.293  -2.238   0.004  0.00  0.00     0.050 C 
ATOM     12  C   UNL d   1       1.109  -2.991   0.008  0.00  0.00     0.051 C 
ENDROOT
BRANCH   3  13
ATOM     13  C   UNL d   1      -3.712   0.474  -0.015  0.00  0.00     0.300 C 
ATOM     14  O   UNL d   1      -4.531  -0.438  -0.040  0.00  0.00    -0.259 OA
BRANCH  13  15
ATOM     15  O   UNL d   1      -4.048   1.791  -0.144  0.00  0.00    -0.317 OA
BRANCH  15  16
ATOM     16  C   UNL d   1      -5.362   2.035  -0.662  0.00  0.00     0.174 C 
ATOM     17  C   UNL d   1      -5.264   2.078  -2.177  0.00  0.00     0.034 C 
ENDBRANCH  15  16
ENDBRANCH  13  15
ENDBRANCH   3  13
TORSDOF 3
