REMARK  4 active torsions:
REMARK  status: ('A' for Active; 'I' for Inactive)
REMARK    1  A    between atoms: C_2  and  C_1 
REMARK       I    between atoms: C_3  and  N_5 
REMARK    2  A    between atoms: C_4  and  C_3 
REMARK    3  A    between atoms: N_5  and  N_7 
REMARK    4  A    between atoms: N_7  and  C_8 
ROOT
ATOM      1  N   UNL d   1       0.102  -0.172   2.604  0.00  0.00    -0.202 NA
ATOM      2  H   UNL d   1      -0.330  -0.074   3.537  0.00  0.00     0.153 HD
ENDROOT
BRANCH   1   3
ATOM      3  N   UNL d   1      -0.415  -1.296   1.933  0.00  0.00    -0.282 N 
ATOM      4  C   UNL d   1      -1.325  -2.117   2.583  0.00  0.00     0.273 C 
ATOM      5  O   UNL d   1      -1.725  -1.863   3.719  0.00  0.00    -0.266 OA
ATOM      6  H   UNL d   1       0.118  -1.660   1.154  0.00  0.00     0.184 HD
BRANCH   4   7
ATOM      7  C   UNL d   1      -1.754  -3.287   1.822  0.00  0.00     0.073 A 
ATOM      8  S   UNL d   1      -1.395  -3.464   0.151  0.00  0.00    -0.097 SA
ATOM      9  C   UNL d   1      -2.272  -4.925   0.043  0.00  0.00     0.050 A 
ATOM     10  C   UNL d   1      -2.807  -5.296   1.255  0.00  0.00     0.009 A 
ATOM     11  C   UNL d   1      -2.507  -4.353   2.281  0.00  0.00     0.025 A 
ENDBRANCH   4   7
ENDBRANCH   1   3
BRANCH   1  12
ATOM     12  C   UNL d   1       0.060   1.028   1.840  0.00  0.00     0.042 A 
ATOM     13  C   UNL d   1       0.056   2.295   2.462  0.00  0.00     0.070 A 
ATOM     14  C   UNL d   1       0.146   3.465   1.672  0.00  0.00     0.018 A 
ATOM     15  C   UNL d   1       0.250   3.398   0.286  0.00  0.00     0.001 A 
ATOM     16  C   UNL d   1       0.273   2.158  -0.333  0.00  0.00     0.002 A 
ATOM     17  C   UNL d   1       0.195   0.994   0.435  0.00  0.00     0.026 A 
BRANCH  13  18
ATOM     18  C   UNL d   1      -0.046   2.488   3.954  0.00  0.00     0.419 C 
ATOM     19  F   UNL d   1      -0.251   1.343   4.663  0.00  0.00    -0.166 F 
ATOM     20  F   UNL d   1      -1.076   3.315   4.297  0.00  0.00    -0.166 F 
ATOM     21  F   UNL d   1       1.072   3.060   4.483  0.00  0.00    -0.166 F 
ENDBRANCH  13  18
ENDBRANCH   1  12
TORSDOF 4
