REMARK  3 active torsions:
REMARK  status: ('A' for Active; 'I' for Inactive)
REMARK    1  A    between atoms: C_2  and  C_1 
REMARK       I    between atoms: N_3  and  C_1 
REMARK    2  A    between atoms: C_10  and  N_3 
REMARK    3  A    between atoms: C_4  and  C_8 
ROOT
ATOM      1  C   UNL d   1      -4.057  -1.125   0.826  0.00  0.00    -0.035 A 
ATOM      2  C   UNL d   1      -1.231  -0.924   0.923  0.00  0.00     0.035 A 
ATOM      3  C   UNL d   1      -3.300  -1.018  -0.352  0.00  0.00     0.011 A 
ATOM      4  C   UNL d   1      -3.369  -1.151   2.048  0.00  0.00     0.011 A 
ATOM      5  C   UNL d   1      -1.974  -1.057   2.095  0.00  0.00     0.030 A 
ATOM      6  C   UNL d   1      -1.905  -0.913  -0.302  0.00  0.00     0.030 A 
ENDROOT
BRANCH   2   7
ATOM      7  N   UNL d   1       0.168  -0.738   0.898  0.00  0.00    -0.323 N 
ATOM      8  C   UNL d   1       1.039  -0.816   1.967  0.00  0.00     0.257 C 
ATOM      9  O   UNL d   1       0.754  -1.234   3.086  0.00  0.00    -0.267 OA
ATOM     10  H   UNL d   1       0.564  -0.520  -0.008  0.00  0.00     0.169 HD
BRANCH   8  11
ATOM     11  C   UNL d   1       2.429  -0.300   1.752  0.00  0.00     0.054 A 
ATOM     12  C   UNL d   1       3.103  -0.211   0.525  0.00  0.00     0.049 A 
ATOM     13 CL   UNL d   1       2.457  -0.779  -0.975  0.00  0.00    -0.083 Cl
ATOM     14  C   UNL d   1       4.392   0.342   0.470  0.00  0.00     0.025 A 
ATOM     15  C   UNL d   1       5.022   0.800   1.627  0.00  0.00     0.002 A 
ATOM     16  C   UNL d   1       4.373   0.700   2.852  0.00  0.00     0.001 A 
ATOM     17  C   UNL d   1       3.091   0.154   2.913  0.00  0.00     0.019 A 
ENDBRANCH   8  11
ENDBRANCH   2   7
BRANCH   1  18
ATOM     18  C   UNL d   1      -5.571  -1.178   0.819  0.00  0.00     0.141 C 
ATOM     19  S   UNL d   1      -6.224  -2.606  -0.108  0.00  0.00    -0.148 SA
ATOM     20  C   UNL d   1      -7.596  -1.728  -0.895  0.00  0.00     0.085 C 
ATOM     21  C   UNL d   1      -7.093  -0.352  -1.278  0.00  0.00     0.085 C 
ATOM     22  S   UNL d   1      -6.305   0.370   0.182  0.00  0.00    -0.148 SA
ENDBRANCH   1  18
TORSDOF 3
