REMARK  6 active torsions:
REMARK  status: ('A' for Active; 'I' for Inactive)
REMARK    1  A    between atoms: C_2  and  C_1 
REMARK       I    between atoms: N_4  and  C_2 
REMARK    2  A    between atoms: S_11  and  C_3 
REMARK    3  A    between atoms: C_10  and  N_4 
REMARK    4  A    between atoms: C_7  and  C_10 
REMARK    5  A    between atoms: O_12  and  C_7 
REMARK    6  A    between atoms: C_16  and  O_12 
ROOT
ATOM      1  C   UNL d   1       1.183   2.684   0.704  0.00  0.00     0.254 C 
ATOM      2  N   UNL d   1       0.274   3.489   1.356  0.00  0.00    -0.347 N 
ATOM      3  O   UNL d   1       2.360   2.997   0.577  0.00  0.00    -0.268 OA
ATOM      4  H   UNL d   1      -0.684   3.192   1.510  0.00  0.00     0.163 HD
ENDROOT
BRANCH   1   5
ATOM      5  C   UNL d   1       0.639   1.454   0.071  0.00  0.00     0.065 A 
ATOM      6  C   UNL d   1       1.343   0.246   0.013  0.00  0.00     0.085 A 
ATOM      7  N   UNL d   1       0.893  -0.808  -0.725  0.00  0.00    -0.360 N 
ATOM      8  C   UNL d   1      -0.274  -0.678  -1.389  0.00  0.00     0.089 A 
ATOM      9  HN  UNL d   1       1.427  -1.676  -0.773  1.00  0.00     0.166 HD
ATOM     10  C   UNL d   1      -1.061   0.453  -1.334  0.00  0.00     0.018 A 
ATOM     11  C   UNL d   1      -0.594   1.537  -0.599  0.00  0.00     0.021 A 
BRANCH   6  12
ATOM     12  S   UNL d   1       2.806  -0.082   0.996  0.00  0.00    -0.116 SA
ATOM     13  C   UNL d   1       3.184  -1.788   0.507  0.00  0.00     0.097 C 
ENDBRANCH   6  12
ENDBRANCH   1   5
BRANCH   2  14
ATOM     14  C   UNL d   1       0.655   4.793   1.884  0.00  0.00     0.233 C 
BRANCH  14  15
ATOM     15  C   UNL d   1      -0.367   5.251   2.909  0.00  0.00     0.276 C 
ATOM     16  O   UNL d   1      -1.431   4.678   3.128  0.00  0.00    -0.263 OA
BRANCH  15  17
ATOM     17  O   UNL d   1       0.050   6.396   3.521  0.00  0.00    -0.321 OA
BRANCH  17  18
ATOM     18  C   UNL d   1      -0.825   6.919   4.530  0.00  0.00     0.174 C 
ATOM     19  C   UNL d   1      -0.510   6.277   5.869  0.00  0.00     0.034 C 
ENDBRANCH  17  18
ENDBRANCH  15  17
ENDBRANCH  14  15
ENDBRANCH   2  14
TORSDOF 6
