REMARK  2 active torsions:
REMARK  status: ('A' for Active; 'I' for Inactive)
REMARK    1  A    between atoms: C_12  and  C_5 
REMARK    2  A    between atoms: C_13  and  C_12 
ROOT
ATOM      1  C   UNL d   1       1.657  -0.933   0.188  0.00  0.00     0.175 A 
ATOM      2  N   UNL d   1       1.056   0.300   0.101  0.00  0.00    -0.232 N 
ATOM      3  N   UNL d   1       1.118  -2.100   0.216  0.00  0.00    -0.301 N 
ATOM      4  HN  UNL d   1       1.678  -2.949   0.297  1.00  0.00     0.171 HD
ATOM      5  C   UNL d   1       3.062   0.978   0.012  0.00  0.00     0.144 A 
ATOM      6  S   UNL d   1       3.397  -0.709   0.251  0.00  0.00    -0.029 SA
ATOM      7  N   UNL d   1       1.842   1.415  -0.027  0.00  0.00    -0.281 N 
ATOM      8  HN  UNL d   1       1.534   2.382  -0.130  1.00  0.00     0.188 HD
ATOM      9  C   UNL d   1      -0.261  -2.142   0.129  0.00  0.00     0.260 A 
ATOM     10  C   UNL d   1      -1.046  -0.866   0.069  0.00  0.00     0.061 A 
ATOM     11  C   UNL d   1      -0.347   0.354   0.053  0.00  0.00     0.074 A 
ATOM     12  O   UNL d   1      -0.878  -3.199   0.099  0.00  0.00    -0.267 OA
ATOM     13  C   UNL d   1      -2.445  -0.889   0.026  0.00  0.00     0.019 A 
ATOM     14  C   UNL d   1      -1.072   1.550   0.002  0.00  0.00     0.032 A 
ATOM     15  C   UNL d   1      -3.154   0.310  -0.021  0.00  0.00     0.001 A 
ATOM     16  C   UNL d   1      -2.469   1.526  -0.030  0.00  0.00     0.002 A 
ENDROOT
BRANCH   5  17
ATOM     17  C   UNL d   1       4.328   1.749  -0.155  0.00  0.00     0.217 C 
ATOM     18  O   UNL d   1       5.176   1.348  -0.945  0.00  0.00    -0.284 OA
BRANCH  17  19
ATOM     19  C   UNL d   1       4.514   3.052   0.537  0.00  0.00     0.019 A 
ATOM     20  C   UNL d   1       3.730   3.453   1.625  0.00  0.00     0.041 A 
ATOM     21  C   UNL d   1       3.934   4.713   2.208  0.00  0.00     0.056 A 
ATOM     22 CL   UNL d   1       2.923   5.146   3.542  0.00  0.00    -0.083 Cl
ATOM     23  C   UNL d   1       4.920   5.574   1.710  0.00  0.00     0.055 A 
ATOM     24  C   UNL d   1       5.712   5.167   0.635  0.00  0.00     0.026 A 
ATOM     25 CL   UNL d   1       5.205   7.143   2.370  0.00  0.00    -0.083 Cl
ATOM     26  C   UNL d   1       5.513   3.912   0.055  0.00  0.00     0.017 A 
ENDBRANCH  17  19
ENDBRANCH   5  17
TORSDOF 2
