REMARK  13 active torsions:
REMARK  status: ('A' for Active; 'I' for Inactive)
REMARK    1  A    between atoms: C_2  and  C_1 
REMARK    2  A    between atoms: O_10  and  C_1 
REMARK    3  A    between atoms: N_4  and  C_3 
REMARK    4  A    between atoms: C_11  and  N_4 
REMARK    5  A    between atoms: C_12  and  N_4 
REMARK    6  A    between atoms: C_13  and  C_11 
REMARK    7  A    between atoms: C_14  and  C_12 
REMARK    8  A    between atoms: C_20  and  C_13 
REMARK    9  A    between atoms: C_19  and  C_14 
REMARK   10  A    between atoms: C_15  and  C_17 
REMARK   11  A    between atoms: C_16  and  C_18 
REMARK   12  A    between atoms: C_17  and  C_20 
REMARK   13  A    between atoms: C_18  and  C_19 
ROOT
ATOM      1  N   UNL d   1      -1.992   4.211  -2.283  0.00  0.00    -0.381 N 
ENDROOT
BRANCH   1   2
ATOM      2  C   UNL d   1      -1.233   3.184  -1.732  0.00  0.00     0.030 A 
ATOM      3  C   UNL d   1      -1.750   2.300  -0.769  0.00  0.00     0.030 A 
ATOM      4  C   UNL d   1      -0.986   1.254  -0.225  0.00  0.00     0.020 A 
ATOM      5  C   UNL d   1       0.326   1.049  -0.646  0.00  0.00     0.037 A 
ATOM      6  C   UNL d   1       0.879   1.918  -1.584  0.00  0.00     0.020 A 
ATOM      7  C   UNL d   1       0.105   2.964  -2.108  0.00  0.00     0.030 A 
BRANCH   5   8
ATOM      8  C   UNL d   1       1.103  -0.059  -0.036  0.00  0.00     0.176 C 
ATOM      9  O   UNL d   1       0.916  -0.453   1.099  0.00  0.00    -0.646 OA
BRANCH   8  10
ATOM     10  O   UNL d   1       2.014  -0.612  -0.869  0.00  0.00    -0.773 OA
ATOM     11  H   UNL d   1       1.944  -0.334  -1.798  0.00  0.00     0.167 HD
ENDBRANCH   8  10
ENDBRANCH   5   8
ENDBRANCH   1   2
BRANCH   1  12
ATOM     12  C   UNL d   1      -3.170   4.764  -1.592  0.00  0.00     0.123 C 
BRANCH  12  13
ATOM     13  C   UNL d   1      -2.855   5.431  -0.246  0.00  0.00     0.020 C 
BRANCH  13  14
ATOM     14  C   UNL d   1      -1.876   6.612  -0.298  0.00  0.00     0.002 C 
BRANCH  14  15
ATOM     15  C   UNL d   1      -1.712   7.197   1.112  0.00  0.00    -0.000 C 
BRANCH  15  16
ATOM     16  C   UNL d   1      -0.716   8.353   1.182  0.00  0.00    -0.005 C 
ATOM     17  C   UNL d   1      -0.587   8.868   2.611  0.00  0.00     0.005 C 
ENDBRANCH  15  16
ENDBRANCH  14  15
ENDBRANCH  13  14
ENDBRANCH  12  13
ENDBRANCH   1  12
BRANCH   1  18
ATOM     18  C   UNL d   1      -1.623   4.851  -3.558  0.00  0.00     0.123 C 
BRANCH  18  19
ATOM     19  C   UNL d   1      -1.581   3.886  -4.753  0.00  0.00     0.020 C 
BRANCH  19  20
ATOM     20  C   UNL d   1      -2.911   3.194  -5.064  0.00  0.00     0.002 C 
BRANCH  20  21
ATOM     21  C   UNL d   1      -2.751   2.262  -6.272  0.00  0.00    -0.000 C 
BRANCH  21  22
ATOM     22  C   UNL d   1      -4.051   1.543  -6.625  0.00  0.00    -0.005 C 
ATOM     23  C   UNL d   1      -3.865   0.621  -7.821  0.00  0.00     0.005 C 
ENDBRANCH  21  22
ENDBRANCH  20  21
ENDBRANCH  19  20
ENDBRANCH  18  19
ENDBRANCH   1  18
TORSDOF 13
