REMARK  3 active torsions:
REMARK  status: ('A' for Active; 'I' for Inactive)
REMARK       I    between atoms: N_2  and  C_1 
REMARK       I    between atoms: N_7  and  C_1 
REMARK    1  A    between atoms: C_3  and  N_2 
REMARK    2  A    between atoms: C_4  and  C_12 
REMARK    3  A    between atoms: C_12  and  N_7 
ROOT
ATOM      1  C   UNL d   1       1.018  -0.233  -0.203  0.00  0.00     0.321 C 
ATOM      2  N   UNL d   1       0.363   0.850  -0.756  0.00  0.00    -0.308 N 
ATOM      3  N   UNL d   1       0.165  -0.929   0.608  0.00  0.00    -0.337 N 
ATOM      4  O   UNL d   1       2.201  -0.514  -0.335  0.00  0.00    -0.247 OA
ATOM      5  H   UNL d   1      -0.409   1.164  -0.192  0.00  0.00     0.170 HD
ATOM      6  H   UNL d   1      -0.831  -0.822   0.483  0.00  0.00     0.164 HD
ENDROOT
BRANCH   2   7
ATOM      7  C   UNL d   1       1.000   1.829  -1.552  0.00  0.00     0.047 A 
ATOM      8  C   UNL d   1       0.786   3.210  -1.283  0.00  0.00     0.001 A 
ATOM      9  C   UNL d   1       1.396   4.162  -2.136  0.00  0.00    -0.024 A 
ATOM     10  C   UNL d   1       0.048   3.700  -0.176  0.00  0.00     0.014 A 
ATOM     11  C   UNL d   1       1.246   5.534  -1.875  0.00  0.00     0.012 A 
ATOM     12  C   UNL d   1       2.167   3.730  -3.227  0.00  0.00     0.012 A 
ATOM     13  C   UNL d   1       0.515   5.983  -0.776  0.00  0.00     0.001 A 
ATOM     14  C   UNL d   1      -0.086   5.066   0.075  0.00  0.00     0.001 A 
ATOM     15  C   UNL d   1       2.367   2.373  -3.473  0.00  0.00     0.003 A 
ATOM     16  C   UNL d   1       1.796   1.424  -2.630  0.00  0.00     0.030 A 
ENDBRANCH   2   7
BRANCH   3  17
ATOM     17  C   UNL d   1       0.608  -2.008   1.457  0.00  0.00     0.189 C 
BRANCH  17  18
ATOM     18  C   UNL d   1      -0.582  -2.621   2.102  0.00  0.00     0.070 A 
ATOM     19  O   UNL d   1      -1.662  -1.813   2.314  0.00  0.00    -0.325 OA
ATOM     20  C   UNL d   1      -2.630  -2.572   2.885  0.00  0.00     0.142 A 
ATOM     21  C   UNL d   1      -2.188  -3.864   3.050  0.00  0.00     0.027 A 
ATOM     22  C   UNL d   1      -0.864  -3.897   2.547  0.00  0.00     0.036 A 
ENDBRANCH  17  18
ENDBRANCH   3  17
TORSDOF 3
