REMARK  5 active torsions:
REMARK  status: ('A' for Active; 'I' for Inactive)
REMARK    1  A    between atoms: C_6  and  C_1 
REMARK    2  A    between atoms: O_12  and  C_1 
REMARK    3  A    between atoms: N_2  and  O_7 
REMARK    4  A    between atoms: C_5  and  C_4 
REMARK    5  A    between atoms: O_7  and  C_6 
ROOT
ATOM      1  N   UNL d   1       0.697  -0.220   3.752  0.00  0.00    -0.270 N 
ATOM      2  HN  UNL d   1       0.998  -0.154   2.779  1.00  0.00     0.194 HD
ATOM      3  C   UNL d   1       1.518  -0.296   4.761  0.00  0.00     0.038 C 
ATOM      4  C   UNL d   1       1.077  -0.412   6.211  0.00  0.00     0.071 C 
ENDROOT
BRANCH   3   5
ATOM      5  C   UNL d   1       2.993  -0.289   4.490  0.00  0.00    -0.012 A 
ATOM      6  C   UNL d   1       3.907   0.176   5.446  0.00  0.00     0.015 A 
ATOM      7  C   UNL d   1       5.277   0.172   5.170  0.00  0.00     0.024 A 
ATOM      8  C   UNL d   1       5.738  -0.297   3.942  0.00  0.00     0.034 A 
ATOM      9  C   UNL d   1       4.838  -0.762   2.982  0.00  0.00     0.024 A 
ATOM     10 CL   UNL d   1       7.424  -0.304   3.606  0.00  0.00    -0.084 Cl
ATOM     11  C   UNL d   1       3.465  -0.751   3.255  0.00  0.00     0.015 A 
ENDBRANCH   3   5
BRANCH   1  12
ATOM     12  O   UNL d   1      -0.643  -0.239   4.154  0.00  0.00    -0.270 OA
BRANCH  12  13
ATOM     13  C   UNL d   1      -1.475  -0.095   3.001  0.00  0.00     0.311 C 
BRANCH  13  14
ATOM     14  C   UNL d   1      -2.929  -0.130   3.432  0.00  0.00     0.166 C 
ATOM     15  O   UNL d   1      -3.874  -0.030   2.662  0.00  0.00    -0.648 OA
BRANCH  14  16
ATOM     16  O   UNL d   1      -3.100  -0.282   4.769  0.00  0.00    -0.775 OA
ATOM     17  H   UNL d   1      -2.230  -0.345   5.214  0.00  0.00     0.167 HD
ENDBRANCH  14  16
ENDBRANCH  13  14
ENDBRANCH  12  13
ENDBRANCH   1  12
TORSDOF 5
