REMARK  2 active torsions:
REMARK  status: ('A' for Active; 'I' for Inactive)
REMARK    1  A    between atoms: C_7  and  N_1 
REMARK    2  A    between atoms: O_18  and  C_15 
ROOT
ATOM      1  N   UNL d   1       1.284  -1.359  -0.096  0.00  0.00    -0.273 N 
ATOM      2  C   UNL d   1       2.474  -0.611  -0.147  0.00  0.00     0.187 C 
ATOM      3  C   UNL d   1       0.011  -0.673  -0.015  0.00  0.00     0.130 A 
ATOM      4  N   UNL d   1       2.357   0.747   0.023  0.00  0.00    -0.299 N 
ATOM      5  C   UNL d   1       1.210   1.482   0.081  0.00  0.00     0.261 C 
ATOM      6  C   UNL d   1      -0.031   0.717   0.029  0.00  0.00     0.077 A 
ATOM      7  S   UNL d   1       4.044  -1.123  -0.476  0.00  0.00    -0.040 SA
ATOM      8  N   UNL d   1      -1.154  -1.372   0.026  0.00  0.00    -0.351 N 
ATOM      9  HN  UNL d   1      -1.141  -2.391   0.057  1.00  0.00     0.166 HD
ATOM     10  O   UNL d   1       1.220   2.703   0.146  0.00  0.00    -0.267 OA
ATOM     11  C   UNL d   1      -1.257   1.397   0.036  0.00  0.00     0.022 A 
ATOM     12  C   UNL d   1      -2.334  -0.706   0.024  0.00  0.00     0.090 A 
ATOM     13  C   UNL d   1      -2.436   0.669   0.016  0.00  0.00     0.018 A 
ATOM     14  H   UNL d   1       3.215   1.285  -0.012  0.00  0.00     0.171 HD
ENDROOT
BRANCH   1  15
ATOM     15  C   UNL d   1       1.261  -2.808  -0.148  0.00  0.00     0.043 A 
ATOM     16  C   UNL d   1       2.204  -3.576   0.557  0.00  0.00     0.033 A 
ATOM     17  C   UNL d   1       2.244  -4.978   0.464  0.00  0.00     0.039 A 
ATOM     18  C   UNL d   1       1.305  -5.656  -0.303  0.00  0.00     0.068 A 
ATOM     19  C   UNL d   1       0.333  -4.919  -0.973  0.00  0.00     0.039 A 
ATOM     20  C   UNL d   1       0.324  -3.518  -0.914  0.00  0.00     0.033 A 
BRANCH  18  21
ATOM     21  O   UNL d   1       1.220  -7.010  -0.468  0.00  0.00    -0.356 OA
ATOM     22  C   UNL d   1       2.299  -7.787   0.036  0.00  0.00     0.210 C 
ENDBRANCH  18  21
ENDBRANCH   1  15
TORSDOF 2
