REMARK  5 active torsions:
REMARK  status: ('A' for Active; 'I' for Inactive)
REMARK    1  A    between atoms: C_5  and  C_1 
REMARK    2  A    between atoms: S_9  and  C_2 
REMARK    3  A    between atoms: C_3  and  C_4 
REMARK    4  A    between atoms: C_6  and  C_5 
REMARK    5  A    between atoms: C_18  and  S_9 
ROOT
ATOM      1  C   UNL d   1       1.034  -0.419   0.502  0.00  0.00     0.096 C 
ATOM      2  C   UNL d   1       0.555   0.802   0.825  0.00  0.00     0.040 C 
ATOM      3  C   UNL d   1       2.233  -0.938   1.059  0.00  0.00     0.103 C 
ATOM      4  N   UNL d   1       3.220  -1.365   1.501  0.00  0.00    -0.191 NA
ENDROOT
BRANCH   1   5
ATOM      5  C   UNL d   1       0.196  -1.284  -0.393  0.00  0.00     0.209 C 
ATOM      6  O   UNL d   1      -1.025  -1.103  -0.383  0.00  0.00    -0.285 OA
BRANCH   5   7
ATOM      7  C   UNL d   1       0.833  -2.300  -1.226  0.00  0.00     0.056 A 
ATOM      8  S   UNL d   1      -0.098  -3.666  -1.705  0.00  0.00    -0.098 SA
ATOM      9  C   UNL d   1       1.178  -4.304  -2.642  0.00  0.00     0.050 A 
ATOM     10  C   UNL d   1       2.300  -3.511  -2.589  0.00  0.00     0.009 A 
ATOM     11  C   UNL d   1       2.107  -2.361  -1.765  0.00  0.00     0.023 A 
ENDBRANCH   5   7
ENDBRANCH   1   5
BRANCH   2  12
ATOM     12  C   UNL d   1       1.148   1.682   1.789  0.00  0.00    -0.010 A 
ATOM     13  C   UNL d   1       2.015   2.726   1.507  0.00  0.00     0.056 A 
ATOM     14  S   UNL d   1       2.639   3.408   2.959  0.00  0.00    -0.094 SA
ATOM     15  C   UNL d   1       1.685   2.391   3.941  0.00  0.00     0.052 A 
ATOM     16  C   UNL d   1       0.921   1.526   3.194  0.00  0.00     0.020 A 
BRANCH  13  17
ATOM     17  S   UNL d   1       2.631   3.229  -0.067  0.00  0.00    -0.082 SA
BRANCH  17  18
ATOM     18  C   UNL d   1       1.606   4.649  -0.434  0.00  0.00     0.006 A 
ATOM     19  C   UNL d   1       1.497   5.760   0.412  0.00  0.00     0.020 A 
ATOM     20  C   UNL d   1       0.740   6.876   0.034  0.00  0.00     0.025 A 
ATOM     21  C   UNL d   1       0.106   6.898  -1.206  0.00  0.00     0.034 A 
ATOM     22  C   UNL d   1       0.228   5.815  -2.071  0.00  0.00     0.025 A 
ATOM     23 CL   UNL d   1      -0.816   8.272  -1.675  0.00  0.00    -0.084 Cl
ATOM     24  C   UNL d   1       0.977   4.697  -1.686  0.00  0.00     0.020 A 
ENDBRANCH  17  18
ENDBRANCH  13  17
ENDBRANCH   2  12
TORSDOF 5
