REMARK  3 active torsions:
REMARK  status: ('A' for Active; 'I' for Inactive)
REMARK    1  A    between atoms: C_3  and  C_1 
REMARK    2  A    between atoms: C_4  and  C_2 
REMARK       I    between atoms: N_6  and  C_4 
REMARK       I    between atoms: C_12  and  N_6 
REMARK       I    between atoms: N_17  and  C_12 
REMARK    3  A    between atoms: C_20  and  N_17 
ROOT
ATOM      1  C   UNL d   1      -0.924  -0.684   1.116  0.00  0.00     0.137 A 
ATOM      2  C   UNL d   1       0.034  -1.464   0.476  0.00  0.00     0.093 A 
ATOM      3  O   UNL d   1      -1.050   0.470   0.381  0.00  0.00    -0.235 OA
ATOM      4  N   UNL d   1      -0.162   0.494  -0.664  0.00  0.00    -0.264 N 
ATOM      5  HN  UNL d   1      -0.047   1.232  -1.358  1.00  0.00     0.194 HD
ATOM      6  C   UNL d   1       0.521  -0.647  -0.582  0.00  0.00     0.047 A 
ATOM      7  C   UNL d   1       1.627  -0.915  -1.532  0.00  0.00     0.071 C 
ENDROOT
BRANCH   2   8
ATOM      8  C   UNL d   1       0.541  -2.780   0.794  0.00  0.00     0.264 C 
ATOM      9  N   UNL d   1      -0.389  -3.797   0.722  0.00  0.00    -0.275 N 
ATOM     10  C   UNL d   1      -0.145  -5.145   0.542  0.00  0.00     0.327 C 
ATOM     11  H   UNL d   1      -1.343  -3.568   0.481  0.00  0.00     0.173 HD
ATOM     12  N   UNL d   1       1.159  -5.543   0.689  0.00  0.00    -0.309 N 
ATOM     13  O   UNL d   1      -1.098  -5.848   0.217  0.00  0.00    -0.247 OA
ATOM     14  H   UNL d   1       1.825  -4.805   0.911  0.00  0.00     0.170 HD
ATOM     15  O   UNL d   1       1.726  -2.965   1.047  0.00  0.00    -0.267 OA
BRANCH  12  16
ATOM     16  C   UNL d   1       1.700  -6.836   0.526  0.00  0.00     0.036 A 
ATOM     17  C   UNL d   1       0.938  -7.978   0.283  0.00  0.00     0.030 A 
ATOM     18  C   UNL d   1       1.553  -9.229   0.145  0.00  0.00     0.009 A 
ATOM     19  C   UNL d   1       2.942  -9.358   0.232  0.00  0.00    -0.062 A 
ATOM     20  C   UNL d   1       3.708  -8.216   0.482  0.00  0.00     0.009 A 
ATOM     21  C   UNL d   1       3.586 -10.709   0.120  0.00  0.00     0.048 C 
ATOM     22  C   UNL d   1       3.091  -6.968   0.626  0.00  0.00     0.030 A 
ENDBRANCH  12  16
ENDBRANCH   2   8
BRANCH   1  23
ATOM     23  C   UNL d   1      -1.687  -0.845   2.325  0.00  0.00     0.083 A 
ATOM     24  C   UNL d   1      -2.695  -0.030   2.847  0.00  0.00     0.043 A 
ATOM     25  N   UNL d   1      -3.197  -0.443   4.079  0.00  0.00    -0.298 N 
ATOM     26  C   UNL d   1      -3.273   1.221   2.285  0.00  0.00     0.071 C 
ATOM     27  N   UNL d   1      -2.603  -1.536   4.516  0.00  0.00    -0.269 N 
ATOM     28  HN  UNL d   1      -3.938   0.044   4.584  1.00  0.00     0.187 HD
ATOM     29  S   UNL d   1      -1.425  -2.089   3.481  0.00  0.00     0.006 SA
ATOM     30  HN  UNL d   1      -2.841  -1.993   5.397  1.00  0.00     0.195 HD
ENDBRANCH   1  23
TORSDOF 3
