REMARK  6 active torsions:
REMARK  status: ('A' for Active; 'I' for Inactive)
REMARK    1  A    between atoms: N_3  and  S_1 
REMARK    2  A    between atoms: C_6  and  S_1 
REMARK    3  A    between atoms: S_2  and  N_4 
REMARK    4  A    between atoms: C_12  and  N_3 
REMARK    5  A    between atoms: N_4  and  C_5 
REMARK    6  A    between atoms: C_23  and  C_21 
ROOT
ATOM      1  C   UNL d   1       0.355   5.052  -0.451  0.00  0.00     0.050 A 
ATOM      2  C   UNL d   1      -0.092   3.760  -0.755  0.00  0.00     0.060 A 
ATOM      3  C   UNL d   1       0.799   2.686  -0.716  0.00  0.00     0.044 A 
ATOM      4  C   UNL d   1       1.703   5.276  -0.124  0.00  0.00    -0.035 A 
ATOM      5  C   UNL d   1       2.587   4.184  -0.116  0.00  0.00     0.011 A 
ATOM      6  C   UNL d   1       2.139   2.897  -0.416  0.00  0.00     0.031 A 
ATOM      7  C   UNL d   1       2.237   6.644   0.202  0.00  0.00     0.050 C 
ENDROOT
BRANCH   3   8
ATOM      8  N   UNL d   1       0.355   1.366  -1.014  0.00  0.00    -0.281 N 
ATOM      9  H   UNL d   1      -0.487   1.042  -0.539  0.00  0.00     0.179 HD
BRANCH   8  10
ATOM     10  S   UNL d   1       0.345   0.861  -2.627  0.00  0.00     0.263 S 
ATOM     11  O   UNL d   1       0.206   2.013  -3.495  0.00  0.00    -0.200 OA
ATOM     12  O   UNL d   1      -0.614  -0.224  -2.679  0.00  0.00    -0.200 OA
BRANCH  10  13
ATOM     13  C   UNL d   1       1.961   0.155  -2.867  0.00  0.00     0.079 A 
ATOM     14  C   UNL d   1       2.159  -1.215  -2.665  0.00  0.00     0.026 A 
ATOM     15  C   UNL d   1       3.388  -1.795  -2.996  0.00  0.00     0.009 A 
ATOM     16  C   UNL d   1       4.419  -1.019  -3.544  0.00  0.00    -0.058 A 
ATOM     17  C   UNL d   1       4.215   0.358  -3.720  0.00  0.00     0.009 A 
ATOM     18  C   UNL d   1       2.986   0.943  -3.395  0.00  0.00     0.026 A 
BRANCH  16  19
ATOM     19  C   UNL d   1       5.720  -1.658  -3.970  0.00  0.00     0.034 C 
ATOM     20  C   UNL d   1       6.761  -1.676  -2.863  0.00  0.00     0.010 C 
ENDBRANCH  16  19
ENDBRANCH  10  13
ENDBRANCH   8  10
ENDBRANCH   3   8
BRANCH   1  21
ATOM     21  N   UNL d   1      -0.552   6.135  -0.597  0.00  0.00    -0.284 N 
ATOM     22  H   UNL d   1      -0.732   6.519  -1.525  0.00  0.00     0.178 HD
BRANCH  21  23
ATOM     23  S   UNL d   1      -1.476   6.707   0.666  0.00  0.00     0.227 S 
ATOM     24  O   UNL d   1      -0.761   6.551   1.915  0.00  0.00    -0.206 OA
ATOM     25  O   UNL d   1      -1.977   7.997   0.241  0.00  0.00    -0.206 OA
ATOM     26  C   UNL d   1      -2.862   5.589   0.668  0.00  0.00     0.186 C 
ENDBRANCH  21  23
ENDBRANCH   1  21
TORSDOF 6
