REMARK  5 active torsions:
REMARK  status: ('A' for Active; 'I' for Inactive)
REMARK    1  A    between atoms: C_3  and  C_1 
REMARK    2  A    between atoms: C_4  and  C_1 
REMARK    3  A    between atoms: C_5  and  C_2 
REMARK    4  A    between atoms: N_8  and  C_2 
REMARK    5  A    between atoms: O_9  and  C_3 
ROOT
ATOM      1  C   UNL d   1       0.872  -0.043  -0.048  0.00  0.00     0.106 C 
ATOM      2  C   UNL d   1       0.210  -0.784   0.881  0.00  0.00     0.036 C 
ENDROOT
BRANCH   2   3
ATOM      3  C   UNL d   1      -1.262  -0.944   0.852  0.00  0.00    -0.014 A 
ATOM      4  C   UNL d   1      -1.853  -1.889   0.002  0.00  0.00     0.013 A 
ATOM      5  C   UNL d   1      -3.240  -2.042  -0.018  0.00  0.00     0.001 A 
ATOM      6  C   UNL d   1      -4.043  -1.254   0.808  0.00  0.00     0.000 A 
ATOM      7  C   UNL d   1      -3.460  -0.321   1.665  0.00  0.00     0.001 A 
ATOM      8  C   UNL d   1      -2.073  -0.173   1.696  0.00  0.00     0.013 A 
ENDBRANCH   2   3
BRANCH   2   9
ATOM      9  N   UNL d   1       0.799  -1.500   1.918  0.00  0.00    -0.301 NA
ATOM     10  H   UNL d   1       1.788  -1.704   1.730  0.00  0.00     0.124 HD
ATOM     11  H   UNL d   1       0.289  -2.349   2.154  0.00  0.00     0.124 HD
ENDBRANCH   2   9
BRANCH   1  12
ATOM     12  C   UNL d   1       0.215   0.717  -1.145  0.00  0.00     0.298 C 
ATOM     13  O   UNL d   1       0.723   0.836  -2.253  0.00  0.00    -0.259 OA
BRANCH  12  14
ATOM     14  O   UNL d   1      -0.937   1.301  -0.746  0.00  0.00    -0.322 OA
ATOM     15  C   UNL d   1      -1.725   1.958  -1.744  0.00  0.00     0.213 C 
ENDBRANCH  12  14
ENDBRANCH   1  12
BRANCH   1  16
ATOM     16  C   UNL d   1       2.372  -0.065  -0.011  0.00  0.00     0.163 C 
ATOM     17  O   UNL d   1       2.986  -1.048   0.423  0.00  0.00    -0.293 OA
ATOM     18  C   UNL d   1       3.140   1.136  -0.502  0.00  0.00     0.097 C 
ENDBRANCH   1  16
TORSDOF 5
