REMARK  6 active torsions:
REMARK  status: ('A' for Active; 'I' for Inactive)
REMARK    1  A    between atoms: N_4  and  C_2 
REMARK    2  A    between atoms: S_18  and  C_11 
REMARK    3  A    between atoms: C_15  and  C_17 
REMARK    4  A    between atoms: O_21  and  C_15 
REMARK    5  A    between atoms: C_17  and  C_20 
REMARK    6  A    between atoms: C_20  and  S_18 
ROOT
ATOM      1  C   UNL d   1      -0.377  -1.048   0.017  0.00  0.00     0.199 A 
ATOM      2  C   UNL d   1      -2.114  -4.167  -0.233  0.00  0.00     0.215 A 
ATOM      3  O   UNL d   1      -1.226   0.027  -0.081  0.00  0.00    -0.265 OA
ATOM      4  N   UNL d   1       0.882  -0.671   0.142  0.00  0.00    -0.275 N 
ATOM      5  HN  UNL d   1       1.693  -1.282   0.239  1.00  0.00     0.189 HD
ATOM      6  C   UNL d   1      -0.798  -2.418  -0.026  0.00  0.00     0.130 A 
ATOM      7  O   UNL d   1      -2.102  -2.807  -0.236  0.00  0.00    -0.284 OA
ATOM      8  N   UNL d   1       0.891   0.707   0.115  0.00  0.00    -0.272 N 
ATOM      9  HN  UNL d   1       1.708   1.312   0.186  1.00  0.00     0.189 HD
ATOM     10  C   UNL d   1      -0.362   1.088  -0.019  0.00  0.00     0.203 A 
ATOM     11  C   UNL d   1      -0.861  -4.685  -0.019  0.00  0.00     0.066 A 
ATOM     12  C   UNL d   1      -0.013  -3.557   0.115  0.00  0.00     0.046 A 
ENDROOT
BRANCH  10  13
ATOM     13  S   UNL d   1      -0.892   2.742  -0.095  0.00  0.00    -0.084 SA
BRANCH  13  14
ATOM     14  C   UNL d   1       0.601   3.542  -0.768  0.00  0.00     0.093 C 
BRANCH  14  15
ATOM     15  C   UNL d   1       0.364   5.044  -0.890  0.00  0.00     0.120 C 
BRANCH  15  16
ATOM     16  C   UNL d   1       1.560   5.727  -1.503  0.00  0.00     0.140 C 
ATOM     17  O   UNL d   1       2.580   5.167  -1.868  0.00  0.00    -0.650 OA
BRANCH  16  18
ATOM     18  O   UNL d   1       1.388   7.064  -1.620  0.00  0.00    -0.776 OA
ATOM     19  H   UNL d   1       0.527   7.390  -1.295  0.00  0.00     0.167 HD
ENDBRANCH  16  18
ENDBRANCH  15  16
ENDBRANCH  14  15
ENDBRANCH  13  14
ENDBRANCH  10  13
BRANCH   2  20
ATOM     20  N   UNL d   1      -3.375  -4.803  -0.450  0.00  0.00    -0.090 N 
ATOM     21  O   UNL d   1      -3.371  -6.041  -0.450  0.00  0.00    -0.530 OA
ATOM     22  O   UNL d   1      -4.365  -4.080  -0.620  0.00  0.00    -0.530 OA
ENDBRANCH   2  20
TORSDOF 6
