REMARK  5 active torsions:
REMARK  status: ('A' for Active; 'I' for Inactive)
REMARK    1  A    between atoms: O_7  and  C_1 
REMARK    2  A    between atoms: C_11  and  CA_6 
REMARK    3  A    between atoms: C_9  and  O_7 
REMARK    4  A    between atoms: C_10  and  C_9 
REMARK    5  A    between atoms: O_12  and  C_11 
ROOT
ATOM      1  C   UNL d   1      -0.239   1.250  -0.038  0.00  0.00     0.134 A 
ATOM      2  C   UNL d   1      -0.811  -0.001   0.584  0.00  0.00     0.208 A 
ATOM      3  C   UNL d   1      -0.007  -1.256   0.491  0.00  0.00     0.085 A 
ATOM      4  C   UNL d   1       0.977   1.125  -0.589  0.00  0.00     0.129 A 
ATOM      5  N   UNL d   1       1.685  -0.044  -0.628  0.00  0.00    -0.364 N 
ATOM      6  CA  UNL d   1       1.204  -1.220  -0.092  0.00  0.00     0.036 A 
ATOM      7  O   UNL d   1      -1.896  -0.032   1.160  0.00  0.00    -0.285 OA
ATOM      8  H   UNL d   1       2.604  -0.068  -1.069  0.00  0.00     0.165 HD
ENDROOT
BRANCH   1   9
ATOM      9  O   UNL d   1      -0.870   2.480  -0.051  0.00  0.00    -0.341 OA
BRANCH   9  10
ATOM     10  C   UNL d   1      -2.298   2.463   0.010  0.00  0.00     0.214 C 
BRANCH  10  11
ATOM     11  C   UNL d   1      -2.809   3.731  -0.634  0.00  0.00    -0.034 A 
ATOM     12  C   UNL d   1      -3.658   3.668  -1.749  0.00  0.00     0.009 A 
ATOM     13  C   UNL d   1      -4.127   4.837  -2.351  0.00  0.00     0.001 A 
ATOM     14  C   UNL d   1      -3.755   6.080  -1.845  0.00  0.00     0.000 A 
ATOM     15  C   UNL d   1      -2.916   6.157  -0.735  0.00  0.00     0.001 A 
ATOM     16  C   UNL d   1      -2.446   4.988  -0.131  0.00  0.00     0.009 A 
ENDBRANCH  10  11
ENDBRANCH   9  10
ENDBRANCH   1   9
BRANCH   6  17
ATOM     17  C   UNL d   1       2.077  -2.447  -0.200  0.00  0.00     0.221 C 
BRANCH  17  18
ATOM     18  O   UNL d   1       2.804  -2.407  -1.426  0.00  0.00    -0.395 OA
ATOM     19  H   UNL d   1       2.141  -2.381  -2.137  0.00  0.00     0.209 HD
ENDBRANCH  17  18
ENDBRANCH   6  17
TORSDOF 5
