REMARK  4 active torsions:
REMARK  status: ('A' for Active; 'I' for Inactive)
REMARK    1  A    between atoms: N_7  and  C_2 
REMARK    2  A    between atoms: C_15  and  C_3 
REMARK    3  A    between atoms: C_20  and  N_12 
REMARK    4  A    between atoms: C_19  and  C_20 
ROOT
ATOM      1  C   UNL d   1       0.374   0.965  -1.105  0.00  0.00     0.048 A 
ATOM      2  C   UNL d   1       1.385   1.470  -0.240  0.00  0.00     0.097 A 
ATOM      3  C   UNL d   1      -0.511   1.546  -2.107  0.00  0.00    -0.003 A 
ATOM      4  C   UNL d   1       0.148  -0.404  -1.009  0.00  0.00     0.089 A 
ATOM      5  C   UNL d   1      -1.340   0.588  -2.669  0.00  0.00     0.065 A 
ATOM      6  S   UNL d   1      -1.070  -0.974  -2.052  0.00  0.00    -0.082 SA
ATOM      7  N   UNL d   1       2.030   0.588   0.571  0.00  0.00    -0.342 N 
ATOM      8  HN  UNL d   1       2.768   0.915   1.196  1.00  0.00     0.167 HD
ATOM      9  N   UNL d   1       0.772  -1.282  -0.209  0.00  0.00    -0.346 N 
ATOM     10  HN  UNL d   1       0.560  -2.280  -0.186  1.00  0.00     0.167 HD
ATOM     11  C   UNL d   1       1.698  -0.705   0.551  0.00  0.00     0.182 A 
ENDROOT
BRANCH   2  12
ATOM     12  N   UNL d   1       1.747   2.847  -0.165  0.00  0.00    -0.267 NA
ATOM     13  C   UNL d   1       2.249   3.143   1.202  0.00  0.00     0.127 C 
ATOM     14  C   UNL d   1       2.216   4.643   1.543  0.00  0.00     0.287 C 
ATOM     15  N   UNL d   1       3.031   5.568   0.741  0.00  0.00     0.093 N 
ATOM     16  C   UNL d   1       2.485   5.687  -0.613  0.00  0.00     0.274 C 
ATOM     17  C   UNL d   1       2.801   4.597  -1.642  0.00  0.00     0.045 C 
ATOM     18  C   UNL d   1       2.728   3.126  -1.226  0.00  0.00     0.099 C 
BRANCH  15  19
ATOM     19  C   UNL d   1       4.473   5.317   0.743  0.00  0.00     0.311 C 
BRANCH  19  20
ATOM     20  C   UNL d   1       5.109   5.316   2.116  0.00  0.00    -0.029 A 
ATOM     21  C   UNL d   1       5.747   4.160   2.594  0.00  0.00     0.034 A 
ATOM     22  C   UNL d   1       6.370   4.155   3.845  0.00  0.00     0.056 A 
ATOM     23 CL   UNL d   1       7.134   2.690   4.352  0.00  0.00    -0.083 Cl
ATOM     24  C   UNL d   1       6.361   5.310   4.631  0.00  0.00     0.055 A 
ATOM     25  C   UNL d   1       5.719   6.464   4.166  0.00  0.00     0.026 A 
ATOM     26 CL   UNL d   1       7.126   5.384   6.178  0.00  0.00    -0.083 Cl
ATOM     27  C   UNL d   1       5.096   6.466   2.916  0.00  0.00     0.011 A 
ENDBRANCH  19  20
ENDBRANCH  15  19
ENDBRANCH   2  12
BRANCH   3  28
ATOM     28  C   UNL d   1      -0.616   2.929  -2.572  0.00  0.00    -0.024 A 
ATOM     29  C   UNL d   1      -0.610   3.217  -3.947  0.00  0.00     0.012 A 
ATOM     30  C   UNL d   1      -0.692   4.535  -4.403  0.00  0.00     0.001 A 
ATOM     31  C   UNL d   1      -0.780   5.582  -3.490  0.00  0.00     0.000 A 
ATOM     32  C   UNL d   1      -0.817   5.307  -2.124  0.00  0.00     0.001 A 
ATOM     33  C   UNL d   1      -0.741   3.987  -1.667  0.00  0.00     0.012 A 
ENDBRANCH   3  28
TORSDOF 4
