REMARK  5 active torsions:
REMARK  status: ('A' for Active; 'I' for Inactive)
REMARK    1  A    between atoms: O_13  and  C_10 
REMARK    2  A    between atoms: C_14  and  O_13 
REMARK    3  A    between atoms: C_15  and  C_14 
REMARK    4  A    between atoms: C_17  and  C_15 
REMARK    5  A    between atoms: C_16  and  C_17 
ROOT
ATOM      1  C   UNL d   1       0.380   0.779  -0.009  0.00  0.00     0.092 A 
ATOM      2  C   UNL d   1      -0.541  -1.509  -0.008  0.00  0.00    -0.043 A 
ATOM      3  O   UNL d   1      -0.926   1.308  -0.018  0.00  0.00    -0.275 OA
ATOM      4  C   UNL d   1      -2.029   0.478  -0.010  0.00  0.00     0.288 A 
ATOM      5  C   UNL d   1       0.617  -0.599  -0.001  0.00  0.00     0.004 A 
ATOM      6  C   UNL d   1      -1.771  -0.968  -0.013  0.00  0.00     0.090 A 
ATOM      7  C   UNL d   1       1.409   1.726  -0.011  0.00  0.00     0.075 A 
ATOM      8  C   UNL d   1       1.954  -1.010   0.010  0.00  0.00     0.017 A 
ATOM      9  O   UNL d   1      -3.178   0.908  -0.004  0.00  0.00    -0.260 OA
ATOM     10  C   UNL d   1       2.731   1.298   0.002  0.00  0.00     0.071 A 
ATOM     11  C   UNL d   1       2.998  -0.071   0.002  0.00  0.00     0.038 A 
ATOM     12  C   UNL d   1      -0.400  -3.001  -0.020  0.00  0.00     0.049 C 
ENDROOT
BRANCH  10  13
ATOM     13  O   UNL d   1       3.828   2.116  -0.027  0.00  0.00    -0.351 OA
BRANCH  13  14
ATOM     14  C   UNL d   1       3.647   3.393   0.591  0.00  0.00     0.175 C 
BRANCH  14  15
ATOM     15  C   UNL d   1       4.954   4.178   0.496  0.00  0.00     0.027 C 
BRANCH  15  16
ATOM     16  C   UNL d   1       4.802   5.549   1.153  0.00  0.00     0.002 C 
BRANCH  16  17
ATOM     17  C   UNL d   1       6.092   6.362   1.071  0.00  0.00    -0.004 C 
ATOM     18  C   UNL d   1       5.925   7.723   1.731  0.00  0.00     0.005 C 
ENDBRANCH  16  17
ENDBRANCH  15  16
ENDBRANCH  14  15
ENDBRANCH  13  14
ENDBRANCH  10  13
TORSDOF 5
