REMARK  4 active torsions:
REMARK  status: ('A' for Active; 'I' for Inactive)
REMARK    1  A    between atoms: N_7  and  C_1 
REMARK    2  A    between atoms: C_8  and  C_2 
REMARK       I    between atoms: N_11  and  C_8 
REMARK       I    between atoms: C_9  and  N_12 
REMARK    3  A    between atoms: C_10  and  C_9 
REMARK    4  A    between atoms: N_12  and  N_11 
ROOT
ATOM      1  C   UNL d   1       1.698  -2.371  -0.064  0.00  0.00     0.290 C 
ATOM      2  N   UNL d   1       3.048  -2.213   0.166  0.00  0.00    -0.262 N 
ATOM      3  O   UNL d   1       1.233  -3.491  -0.275  0.00  0.00    -0.264 OA
ATOM      4  H   UNL d   1       3.501  -1.306   0.274  0.00  0.00     0.190 HD
ENDROOT
BRANCH   2   5
ATOM      5  N   UNL d   1       3.908  -3.320   0.160  0.00  0.00    -0.263 N 
ATOM      6  C   UNL d   1       5.005  -3.265   0.999  0.00  0.00     0.270 C 
ATOM      7  O   UNL d   1       5.307  -2.276   1.660  0.00  0.00    -0.266 OA
ATOM      8  H   UNL d   1       3.527  -4.189  -0.209  0.00  0.00     0.190 HD
BRANCH   6   9
ATOM      9  C   UNL d   1       5.800  -4.511   1.121  0.00  0.00     0.036 A 
ATOM     10  C   UNL d   1       6.002  -5.362   0.029  0.00  0.00     0.041 A 
ATOM     11  C   UNL d   1       6.701  -6.555   0.213  0.00  0.00     0.036 A 
ATOM     12 CL   UNL d   1       6.931  -7.618  -1.121  0.00  0.00    -0.084 Cl
ATOM     13  C   UNL d   1       7.205  -6.903   1.464  0.00  0.00     0.047 A 
ATOM     14  C   UNL d   1       7.034  -6.030   2.536  0.00  0.00     0.036 A 
ATOM     15  C   UNL d   1       6.347  -4.829   2.370  0.00  0.00     0.041 A 
ATOM     16 CL   UNL d   1       7.655  -6.450   4.084  0.00  0.00    -0.084 Cl
ENDBRANCH   6   9
ENDBRANCH   2   5
BRANCH   1  17
ATOM     17  C   UNL d   1       0.872  -1.177   0.004  0.00  0.00     0.155 A 
ATOM     18  C   UNL d   1       1.109   0.181  -0.239  0.00  0.00     0.160 A 
ATOM     19  C   UNL d   1      -0.127   0.842   0.004  0.00  0.00     0.057 A 
ATOM     20  N   UNL d   1      -1.079  -0.026   0.347  0.00  0.00    -0.300 N 
ATOM     21  C   UNL d   1      -0.466   2.288  -0.066  0.00  0.00     0.072 C 
ATOM     22  N   UNL d   1      -0.464  -1.221   0.360  0.00  0.00    -0.289 N 
ATOM     23  HN  UNL d   1      -2.058   0.172   0.555  1.00  0.00     0.187 HD
ATOM     24  C   UNL d   1      -1.252  -2.353   0.805  0.00  0.00     0.178 C 
BRANCH  18  25
ATOM     25  N   UNL d   1       2.322   0.830  -0.669  0.00  0.00    -0.111 N 
ATOM     26  O   UNL d   1       3.315   0.118  -0.862  0.00  0.00    -0.532 OA
ATOM     27  O   UNL d   1       2.298   2.055  -0.807  0.00  0.00    -0.532 OA
ENDBRANCH  18  25
ENDBRANCH   1  17
TORSDOF 4
