REMARK  9 active torsions:
REMARK  status: ('A' for Active; 'I' for Inactive)
REMARK    1  A    between atoms: S_22  and  C_4 
REMARK    2  A    between atoms: S_24  and  C_5 
REMARK    3  A    between atoms: C_15  and  C_6 
REMARK    4  A    between atoms: C_11  and  C_13 
REMARK    5  A    between atoms: C_12  and  C_14 
REMARK    6  A    between atoms: C_16  and  C_33 
REMARK    7  A    between atoms: C_33  and  S_22 
REMARK    8  A    between atoms: C_23  and  C_34 
REMARK    9  A    between atoms: C_34  and  S_24 
ROOT
ATOM      1  N   UNL d   1       3.438   5.231  -0.460  0.00  0.00    -0.352 N 
ATOM      2  HN  UNL d   1       4.250   4.677  -0.734  1.00  0.00     0.166 HD
ATOM      3  C   UNL d   1       3.440   6.608  -0.295  0.00  0.00     0.049 A 
ATOM      4  C   UNL d   1       2.241   4.737  -0.211  0.00  0.00     0.060 A 
ATOM      5  S   UNL d   1       1.056   5.903   0.245  0.00  0.00    -0.086 SA
ATOM      6  C   UNL d   1       2.215   7.147   0.049  0.00  0.00     0.081 A 
ENDROOT
BRANCH   3   7
ATOM      7  C   UNL d   1       4.654   7.395  -0.494  0.00  0.00    -0.007 A 
ATOM      8  C   UNL d   1       5.660   6.922  -1.348  0.00  0.00     0.030 A 
ATOM      9  C   UNL d   1       6.833   7.663  -1.573  0.00  0.00     0.049 A 
ATOM     10  C   UNL d   1       6.999   8.892  -0.912  0.00  0.00     0.032 A 
ATOM     11  C   UNL d   1       6.014   9.380  -0.041  0.00  0.00     0.049 A 
ATOM     12  C   UNL d   1       4.849   8.619   0.161  0.00  0.00     0.030 A 
BRANCH   9  13
ATOM     13  C   UNL d   1       7.889   7.136  -2.516  0.00  0.00     0.417 C 
ATOM     14  F   UNL d   1       8.948   7.982  -2.665  0.00  0.00    -0.166 F 
ATOM     15  F   UNL d   1       8.417   5.951  -2.105  0.00  0.00    -0.166 F 
ATOM     16  F   UNL d   1       7.408   6.923  -3.771  0.00  0.00    -0.166 F 
ENDBRANCH   9  13
BRANCH  11  17
ATOM     17  C   UNL d   1       6.177  10.700   0.674  0.00  0.00     0.417 C 
ATOM     18  F   UNL d   1       7.348  11.334   0.392  0.00  0.00    -0.166 F 
ATOM     19  F   UNL d   1       5.187  11.580   0.359  0.00  0.00    -0.166 F 
ATOM     20  F   UNL d   1       6.139  10.564   2.029  0.00  0.00    -0.166 F 
ENDBRANCH  11  17
ENDBRANCH   3   7
BRANCH   4  21
ATOM     21  C   UNL d   1       1.907   3.272  -0.235  0.00  0.00     0.146 C 
BRANCH  21  22
ATOM     22  S   UNL d   1       0.546   2.843  -1.365  0.00  0.00    -0.097 SA
BRANCH  22  23
ATOM     23  C   UNL d   1       1.313   3.091  -2.913  0.00  0.00     0.129 A 
ATOM     24  S   UNL d   1       0.444   3.546  -4.319  0.00  0.00    -0.038 SA
ATOM     25  C   UNL d   1       1.931   3.461  -5.164  0.00  0.00     0.129 A 
ATOM     26  N   UNL d   1       2.960   3.122  -4.419  0.00  0.00    -0.287 N 
ATOM     27  N   UNL d   1       2.598   2.901  -3.105  0.00  0.00    -0.287 N 
ATOM     28  HN  UNL d   1       3.914   3.033  -4.770  1.00  0.00     0.188 HD
ATOM     29  HN  UNL d   1       3.251   2.622  -2.372  1.00  0.00     0.188 HD
BRANCH  25  30
ATOM     30  S   UNL d   1       2.081   3.791  -6.875  0.00  0.00    -0.103 SA
BRANCH  30  31
ATOM     31  C   UNL d   1       3.534   2.775  -7.250  0.00  0.00     0.086 C 
BRANCH  31  32
ATOM     32  C   UNL d   1       3.931   2.971  -8.680  0.00  0.00    -0.005 A 
ATOM     33  C   UNL d   1       3.144   2.384  -9.827  0.00  0.00     0.006 A 
ATOM     34  C   UNL d   1       4.479   1.799  -9.459  0.00  0.00     0.006 A 
ENDBRANCH  31  32
ENDBRANCH  30  31
ENDBRANCH  25  30
ENDBRANCH  22  23
ENDBRANCH  21  22
ENDBRANCH   4  21
TORSDOF 9
