REMARK  5 active torsions:
REMARK  status: ('A' for Active; 'I' for Inactive)
REMARK    1  A    between atoms: C_2  and  C_1 
REMARK    2  A    between atoms: C_6  and  O_16 
REMARK       I    between atoms: N_13  and  C_6 
REMARK    3  A    between atoms: C_14  and  C_7 
REMARK    4  A    between atoms: O_16  and  N_10 
REMARK    5  A    between atoms: C_19  and  N_13 
ROOT
ATOM      1  N   UNL d   1      -0.060  -3.425  -0.292  0.00  0.00    -0.265 N 
ATOM      2  HN  UNL d   1       0.920  -3.433  -0.576  1.00  0.00     0.194 HD
ATOM      3  C   UNL d   1      -0.791  -2.365  -0.123  0.00  0.00     0.151 C 
ENDROOT
BRANCH   1   4
ATOM      4  O   UNL d   1      -0.850  -4.566  -0.016  0.00  0.00    -0.181 OA
BRANCH   4   5
ATOM      5  C   UNL d   1      -0.193  -5.757  -0.292  0.00  0.00     0.387 C 
ATOM      6  N   UNL d   1       1.064  -5.586  -0.828  0.00  0.00    -0.301 N 
ATOM      7  H   UNL d   1       1.327  -4.606  -0.868  0.00  0.00     0.171 HD
ATOM      8  O   UNL d   1      -0.746  -6.825  -0.059  0.00  0.00    -0.236 OA
BRANCH   6   9
ATOM      9  C   UNL d   1       1.948  -6.561  -1.320  0.00  0.00     0.037 A 
ATOM     10  C   UNL d   1       1.629  -7.920  -1.403  0.00  0.00     0.031 A 
ATOM     11  C   UNL d   1       2.541  -8.835  -1.942  0.00  0.00     0.026 A 
ATOM     12  C   UNL d   1       3.780  -8.397  -2.396  0.00  0.00     0.034 A 
ATOM     13  C   UNL d   1       4.117  -7.049  -2.312  0.00  0.00     0.026 A 
ATOM     14 CL   UNL d   1       4.893  -9.521  -3.070  0.00  0.00    -0.084 Cl
ATOM     15  C   UNL d   1       3.202  -6.134  -1.777  0.00  0.00     0.031 A 
ENDBRANCH   6   9
ENDBRANCH   4   5
ENDBRANCH   1   4
BRANCH   3  16
ATOM     16  C   UNL d   1      -0.216  -1.062  -0.292  0.00  0.00     0.093 A 
ATOM     17  O   UNL d   1      -1.003   0.050  -0.129  0.00  0.00    -0.308 OA
ATOM     18  C   UNL d   1      -0.192   1.144  -0.283  0.00  0.00     0.089 A 
ATOM     19  C   UNL d   1       1.093   0.731  -0.570  0.00  0.00     0.041 A 
ATOM     20  C   UNL d   1       1.077  -0.679  -0.586  0.00  0.00     0.041 A 
BRANCH  18  21
ATOM     21  C   UNL d   1      -0.791   2.462  -0.107  0.00  0.00     0.036 A 
ATOM     22  C   UNL d   1      -0.020   3.526   0.392  0.00  0.00     0.132 A 
ATOM     23  C   UNL d   1      -0.534   4.814   0.513  0.00  0.00     0.085 A 
ATOM     24  F   UNL d   1       1.252   3.324   0.771  0.00  0.00    -0.205 F 
ATOM     25  C   UNL d   1      -1.842   5.051   0.126  0.00  0.00     0.119 A 
ATOM     26  C   UNL d   1      -2.641   4.022  -0.363  0.00  0.00     0.043 A 
ATOM     27  F   UNL d   1      -2.341   6.290   0.216  0.00  0.00    -0.206 F 
ATOM     28  C   UNL d   1      -2.120   2.725  -0.474  0.00  0.00     0.020 A 
ENDBRANCH  18  21
ENDBRANCH   3  16
TORSDOF 5
