REMARK  6 active torsions:
REMARK  status: ('A' for Active; 'I' for Inactive)
REMARK    1  A    between atoms: C_6  and  C_1 
REMARK    2  A    between atoms: C_16  and  N_2 
REMARK    3  A    between atoms: C_27  and  C_3 
REMARK       I    between atoms: N_9  and  C_6 
REMARK    4  A    between atoms: C_8  and  C_11 
REMARK    5  A    between atoms: C_12  and  N_10 
REMARK    6  A    between atoms: C_30  and  C_27 
ROOT
ATOM      1  C   UNL d   1      -0.572   2.512   0.278  0.00  0.00     0.257 C 
ATOM      2  N   UNL d   1       0.425   3.475   0.097  0.00  0.00    -0.346 N 
ATOM      3  N   UNL d   1       2.361   5.543  -0.022  0.00  0.00    -0.266 NA
ATOM      4  O   UNL d   1      -1.710   2.824   0.590  0.00  0.00    -0.267 OA
ATOM      5  C   UNL d   1       1.835   3.183  -0.198  0.00  0.00     0.141 C 
ATOM      6  C   UNL d   1       0.019   4.889  -0.070  0.00  0.00     0.141 C 
ATOM      7  C   UNL d   1       1.043   5.888   0.528  0.00  0.00     0.117 C 
ATOM      8  C   UNL d   1       2.795   4.208   0.407  0.00  0.00     0.117 C 
ENDROOT
BRANCH   1   9
ATOM      9  C   UNL d   1      -0.217   1.103   0.065  0.00  0.00     0.073 A 
ATOM     10  C   UNL d   1      -0.710  -0.023   0.733  0.00  0.00     0.051 A 
ATOM     11  N   UNL d   1      -0.116  -1.129   0.109  0.00  0.00    -0.260 N 
ATOM     12  N   UNL d   1       0.625  -0.746  -0.964  0.00  0.00    -0.304 N 
ATOM     13  C   UNL d   1       0.567   0.574  -0.974  0.00  0.00     0.126 A 
ATOM     14  HN  UNL d   1       1.121  -1.348  -1.621  1.00  0.00     0.186 HD
BRANCH  10  15
ATOM     15  C   UNL d   1      -1.827  -0.095   1.742  0.00  0.00     0.060 C 
BRANCH  15  16
ATOM     16  C   UNL d   1      -1.446   0.048   3.218  0.00  0.00     0.002 C 
ATOM     17  C   UNL d   1      -0.809   1.366   3.617  0.00  0.00     0.005 C 
ENDBRANCH  15  16
ENDBRANCH  10  15
BRANCH  11  18
ATOM     18  C   UNL d   1      -0.119  -2.522   0.411  0.00  0.00     0.056 A 
ATOM     19  C   UNL d   1       0.172  -3.429  -0.625  0.00  0.00     0.031 A 
ATOM     20  C   UNL d   1       0.332  -4.789  -0.361  0.00  0.00     0.002 A 
ATOM     21  C   UNL d   1       0.220  -5.257   0.944  0.00  0.00     0.000 A 
ATOM     22  C   UNL d   1      -0.088  -4.372   1.974  0.00  0.00     0.002 A 
ATOM     23  C   UNL d   1      -0.273  -3.011   1.707  0.00  0.00     0.031 A 
ENDBRANCH  11  18
ENDBRANCH   1   9
BRANCH   3  24
ATOM     24  C   UNL d   1       3.386   6.479   0.057  0.00  0.00     0.082 A 
ATOM     25  N   UNL d   1       3.419   7.414   1.025  0.00  0.00    -0.356 N 
ATOM     26  C   UNL d   1       4.475   8.270   1.035  0.00  0.00     0.105 A 
ATOM     27  HN  UNL d   1       2.679   7.477   1.725  1.00  0.00     0.166 HD
ATOM     28  C   UNL d   1       5.505   8.256   0.103  0.00  0.00     0.063 A 
ATOM     29  C   UNL d   1       5.449   7.290  -0.896  0.00  0.00     0.021 A 
ATOM     30  C   UNL d   1       4.386   6.399  -0.914  0.00  0.00     0.043 A 
BRANCH  28  31
ATOM     31  C   UNL d   1       6.625   9.245   0.142  0.00  0.00     0.418 C 
ATOM     32  F   UNL d   1       6.554  10.119   1.182  0.00  0.00    -0.166 F 
ATOM     33  F   UNL d   1       7.843   8.644   0.238  0.00  0.00    -0.166 F 
ATOM     34  F   UNL d   1       6.678  10.008  -0.986  0.00  0.00    -0.166 F 
ENDBRANCH  28  31
ENDBRANCH   3  24
TORSDOF 6
