REMARK  4 active torsions:
REMARK  status: ('A' for Active; 'I' for Inactive)
REMARK    1  A    between atoms: N_8  and  C_1 
REMARK    2  A    between atoms: C_7  and  C_3 
REMARK    3  A    between atoms: C_13  and  N_8 
REMARK    4  A    between atoms: O_14  and  C_12 
ROOT
ATOM      1  C   UNL d   1      -1.287  -0.653   0.141  0.00  0.00     0.075 C 
ATOM      2  C   UNL d   1      -0.180  -1.430   0.083  0.00  0.00     0.140 C 
ATOM      3  C   UNL d   1       0.528   1.481   0.052  0.00  0.00     0.189 C 
ATOM      4  S   UNL d   1      -1.177   1.079   0.421  0.00  0.00    -0.086 SA
ATOM      5  N   UNL d   1       1.446   0.410   0.276  0.00  0.00    -0.338 N 
ATOM      6  C   UNL d   1       1.205  -0.921   0.258  0.00  0.00     0.265 C 
ATOM      7  C   UNL d   1      -0.265  -2.825  -0.194  0.00  0.00     0.107 C 
ATOM      8  N   UNL d   1      -0.342  -3.971  -0.395  0.00  0.00    -0.191 NA
ATOM      9  O   UNL d   1       2.161  -1.683   0.387  0.00  0.00    -0.267 OA
ATOM     10  H   UNL d   1       2.433   0.635   0.294  0.00  0.00     0.164 HD
ENDROOT
BRANCH   1  11
ATOM     11  N   UNL d   1      -2.588  -1.100  -0.137  0.00  0.00    -0.278 NA
ATOM     12  H   UNL d   1      -3.127  -0.281  -0.430  0.00  0.00     0.129 HD
BRANCH  11  13
ATOM     13  C   UNL d   1      -3.462  -1.937   0.726  0.00  0.00     0.005 C 
ATOM     14  C   UNL d   1      -2.781  -2.456   1.998  0.00  0.00     0.031 C 
ATOM     15  C   UNL d   1      -4.686  -1.091   1.137  0.00  0.00     0.031 C 
ATOM     16  C   UNL d   1      -3.961  -3.114  -0.126  0.00  0.00     0.031 C 
ENDBRANCH  11  13
ENDBRANCH   1  11
BRANCH   3  17
ATOM     17  C   UNL d   1       0.755   2.196  -1.265  0.00  0.00     0.008 A 
ATOM     18  C   UNL d   1       0.414   1.687  -2.525  0.00  0.00     0.074 A 
ATOM     19  C   UNL d   1       0.695   2.390  -3.698  0.00  0.00     0.037 A 
ATOM     20  C   UNL d   1       1.320   3.632  -3.640  0.00  0.00     0.003 A 
ATOM     21  C   UNL d   1       1.675   4.164  -2.406  0.00  0.00     0.001 A 
ATOM     22  C   UNL d   1       1.401   3.453  -1.235  0.00  0.00     0.013 A 
BRANCH  18  23
ATOM     23  O   UNL d   1      -0.207   0.485  -2.696  0.00  0.00    -0.360 OA
ATOM     24  H   UNL d   1      -0.928   0.429  -2.048  0.00  0.00     0.217 HD
ENDBRANCH  18  23
ENDBRANCH   3  17
TORSDOF 4
