REMARK  6 active torsions:
REMARK  status: ('A' for Active; 'I' for Inactive)
REMARK       I    between atoms: N_2  and  C_1 
REMARK       I    between atoms: N_4  and  C_1 
REMARK    1  A    between atoms: C_3  and  O_7 
REMARK    2  A    between atoms: C_10  and  N_4 
REMARK    3  A    between atoms: C_16  and  N_5 
REMARK    4  A    between atoms: O_7  and  C_17 
REMARK    5  A    between atoms: C_18  and  C_16 
REMARK    6  A    between atoms: C_23  and  C_18 
ROOT
ATOM      1  C   UNL d   1       0.983   0.042  -0.170  0.00  0.00     0.323 C 
ATOM      2  N   UNL d   1       0.400   1.037   0.606  0.00  0.00    -0.331 N 
ATOM      3  N   UNL d   1       0.585  -1.245   0.092  0.00  0.00    -0.309 N 
ATOM      4  N   UNL d   1      -0.536   3.281   2.294  0.00  0.00     0.091 N 
ATOM      5  O   UNL d   1       1.817   0.344  -1.023  0.00  0.00    -0.247 OA
ATOM      6  C   UNL d   1       0.769   2.422   0.286  0.00  0.00     0.158 C 
ATOM      7  C   UNL d   1      -0.799   0.901   1.445  0.00  0.00     0.158 C 
ATOM      8  C   UNL d   1      -0.769   1.866   2.645  0.00  0.00     0.292 C 
ATOM      9  C   UNL d   1       0.722   3.352   1.513  0.00  0.00     0.292 C 
ATOM     10  H   UNL d   1      -0.172  -1.377   0.738  0.00  0.00     0.170 HD
ENDROOT
BRANCH   3  11
ATOM     11  C   UNL d   1       1.042  -2.423  -0.539  0.00  0.00     0.036 A 
ATOM     12  C   UNL d   1       2.108  -2.461  -1.440  0.00  0.00     0.032 A 
ATOM     13  C   UNL d   1       2.455  -3.650  -2.092  0.00  0.00     0.039 A 
ATOM     14  C   UNL d   1       1.718  -4.806  -1.873  0.00  0.00     0.078 A 
ATOM     15  C   UNL d   1       0.713  -4.800  -0.906  0.00  0.00     0.039 A 
ATOM     16  C   UNL d   1       0.375  -3.617  -0.243  0.00  0.00     0.032 A 
BRANCH  14  17
ATOM     17  O   UNL d   1       1.928  -5.996  -2.499  0.00  0.00    -0.255 OA
BRANCH  17  18
ATOM     18  C   UNL d   1       2.274  -5.972  -3.881  0.00  0.00     0.530 C 
ATOM     19  F   UNL d   1       2.210  -4.752  -4.452  0.00  0.00    -0.144 F 
ATOM     20  F   UNL d   1       3.525  -6.459  -4.034  0.00  0.00    -0.144 F 
ATOM     21  F   UNL d   1       1.423  -6.782  -4.549  0.00  0.00    -0.144 F 
ENDBRANCH  17  18
ENDBRANCH  14  17
ENDBRANCH   3  11
BRANCH   4  22
ATOM     22  C   UNL d   1      -1.648   3.902   1.547  0.00  0.00     0.277 C 
BRANCH  22  23
ATOM     23  C   UNL d   1      -2.969   3.946   2.330  0.00  0.00     0.068 C 
BRANCH  23  24
ATOM     24  C   UNL d   1      -4.070   4.612   1.541  0.00  0.00    -0.057 A 
ATOM     25  C   UNL d   1      -4.896   3.854   0.700  0.00  0.00     0.007 A 
ATOM     26  C   UNL d   1      -5.919   4.471  -0.021  0.00  0.00     0.001 A 
ATOM     27  C   UNL d   1      -6.121   5.844   0.085  0.00  0.00     0.000 A 
ATOM     28  C   UNL d   1      -5.290   6.607   0.908  0.00  0.00     0.001 A 
ATOM     29  C   UNL d   1      -4.267   5.994   1.631  0.00  0.00     0.007 A 
ENDBRANCH  23  24
ENDBRANCH  22  23
ENDBRANCH   4  22
TORSDOF 6
