REMARK  7 active torsions:
REMARK  status: ('A' for Active; 'I' for Inactive)
REMARK    1  A    between atoms: C_7  and  C_1 
REMARK       I    between atoms: C_8  and  N_9 
REMARK    2  A    between atoms: C_24  and  C_8 
REMARK    3  A    between atoms: N_9  and  C_17 
REMARK    4  A    between atoms: C_10  and  C_25 
REMARK    5  A    between atoms: O_20  and  C_10 
REMARK    6  A    between atoms: O_19  and  C_24 
REMARK    7  A    between atoms: C_25  and  O_19 
ROOT
ATOM      1  C   UNL d   1      -3.897  -0.773   0.009  0.00  0.00    -0.002 A 
ATOM      2  C   UNL d   1      -4.654  -0.281  -1.068  0.00  0.00     0.016 A 
ATOM      3  C   UNL d   1      -4.566  -1.538   0.973  0.00  0.00     0.016 A 
ATOM      4  C   UNL d   1      -6.686  -1.266  -0.171  0.00  0.00     0.034 A 
ATOM      5  C   UNL d   1      -5.939  -1.780   0.885  0.00  0.00     0.030 A 
ATOM      6  C   UNL d   1      -6.033  -0.535  -1.166  0.00  0.00     0.030 A 
ENDROOT
BRANCH   1   7
ATOM      7  C   UNL d   1      -2.451  -0.474   0.092  0.00  0.00     0.085 A 
ATOM      8  N   UNL d   1      -1.779   0.210  -0.811  0.00  0.00    -0.349 N 
ATOM      9  C   UNL d   1      -0.446   0.323  -0.442  0.00  0.00     0.050 A 
ATOM     10  HN  UNL d   1      -2.183   0.602  -1.662  1.00  0.00     0.166 HD
ATOM     11  C   UNL d   1       0.563   0.986  -1.166  0.00  0.00     0.031 A 
ATOM     12  C   UNL d   1      -0.108  -0.288   0.762  0.00  0.00     0.034 A 
ATOM     13  C   UNL d   1       1.874   1.014  -0.667  0.00  0.00     0.009 A 
ATOM     14  C   UNL d   1       2.195   0.393   0.542  0.00  0.00    -0.061 A 
ATOM     15  C   UNL d   1       1.200  -0.267   1.275  0.00  0.00     0.028 A 
ATOM     16  C   UNL d   1       3.607   0.439   1.055  0.00  0.00     0.048 C 
ATOM     17  S   UNL d   1      -1.506  -1.011   1.433  0.00  0.00    -0.070 SA
ENDBRANCH   1   7
BRANCH   4  18
ATOM     18  N   UNL d   1      -8.074  -1.473  -0.281  0.00  0.00    -0.325 N 
ATOM     19  C   UNL d   1      -8.911  -1.893   0.743  0.00  0.00     0.245 C 
ATOM     20  O   UNL d   1      -8.607  -2.025   1.926  0.00  0.00    -0.271 OA
ATOM     21  H   UNL d   1      -8.512  -1.218  -1.157  0.00  0.00     0.169 HD
BRANCH  19  22
ATOM     22  C   UNL d   1     -10.347  -2.119   0.287  0.00  0.00     0.271 C 
BRANCH  22  23
ATOM     23  O   UNL d   1     -10.403  -3.025  -0.819  0.00  0.00    -0.372 OA
BRANCH  23  24
ATOM     24  C   UNL d   1     -11.747  -3.447  -1.063  0.00  0.00     0.277 C 
BRANCH  24  25
ATOM     25  C   UNL d   1     -12.514  -2.341  -1.768  0.00  0.00     0.164 C 
ATOM     26  O   UNL d   1     -13.622  -1.945  -1.447  0.00  0.00    -0.648 OA
BRANCH  25  27
ATOM     27  O   UNL d   1     -11.800  -1.810  -2.793  0.00  0.00    -0.775 OA
ATOM     28  H   UNL d   1     -10.927  -2.252  -2.865  0.00  0.00     0.167 HD
ENDBRANCH  25  27
ENDBRANCH  24  25
ENDBRANCH  23  24
ENDBRANCH  22  23
ENDBRANCH  19  22
ENDBRANCH   4  18
TORSDOF 7
