REMARK  3 active torsions:
REMARK  status: ('A' for Active; 'I' for Inactive)
REMARK       I    between atoms: N_2  and  C_1 
REMARK    1  A    between atoms: S_4  and  C_1 
REMARK    2  A    between atoms: C_5  and  N_2 
REMARK    3  A    between atoms: C_6  and  S_4 
ROOT
ATOM      1  C   UNL d   1       1.299  -0.077  -0.128  0.00  0.00     0.280 C 
ATOM      2  N   UNL d   1       0.479  -0.012  -1.219  0.00  0.00    -0.347 N 
ATOM      3  O   UNL d   1       2.500  -0.305  -0.141  0.00  0.00    -0.260 OA
ATOM      4  H   UNL d   1      -0.508   0.100  -1.033  0.00  0.00     0.163 HD
ENDROOT
BRANCH   2   5
ATOM      5  C   UNL d   1       0.965  -0.226  -2.573  0.00  0.00     0.085 C 
ATOM      6  C   UNL d   1       0.258   0.703  -3.568  0.00  0.00     0.025 C 
ATOM      7  C   UNL d   1      -1.157   0.248  -3.924  0.00  0.00     0.002 C 
ATOM      8  C   UNL d   1      -1.175  -1.201  -4.396  0.00  0.00     0.000 C 
ATOM      9  C   UNL d   1      -0.562  -2.126  -3.351  0.00  0.00     0.002 C 
ATOM     10  C   UNL d   1       0.860  -1.701  -2.989  0.00  0.00     0.025 C 
ENDBRANCH   2   5
BRANCH   1  11
ATOM     11  S   UNL d   1       0.397   0.236   1.335  0.00  0.00    -0.070 SA
BRANCH  11  12
ATOM     12  C   UNL d   1       1.789   0.627   2.442  0.00  0.00     0.079 C 
ATOM     13  C   UNL d   1       1.295   0.950   3.842  0.00  0.00     0.016 C 
ENDBRANCH  11  12
ENDBRANCH   1  11
TORSDOF 3
