REMARK  3 active torsions:
REMARK  status: ('A' for Active; 'I' for Inactive)
REMARK    1  A    between atoms: C_8  and  C_3 
REMARK    2  A    between atoms: N_4  and  C_9 
REMARK    3  A    between atoms: C_11  and  C_5 
ROOT
ATOM      1  N   UNL d   1       1.393  -0.616  -0.034  0.00  0.00    -0.349 N 
ATOM      2  HN  UNL d   1       2.272  -1.132  -0.042  1.00  0.00     0.166 HD
ATOM      3  C   UNL d   1       0.196  -1.171  -0.050  0.00  0.00     0.085 A 
ATOM      4  C   UNL d   1       1.290   0.765  -0.003  0.00  0.00     0.050 A 
ATOM      5  S   UNL d   1      -1.115  -0.050  -0.004  0.00  0.00    -0.081 SA
ATOM      6  C   UNL d   1      -0.002   1.250   0.005  0.00  0.00     0.082 A 
ENDROOT
BRANCH   3   7
ATOM      7  C   UNL d   1      -0.043  -2.624  -0.067  0.00  0.00     0.001 A 
ATOM      8  C   UNL d   1      -1.177  -3.191  -0.674  0.00  0.00     0.054 A 
ATOM      9  C   UNL d   1      -1.311  -4.564  -0.663  0.00  0.00     0.105 A 
ATOM     10  O   UNL d   1      -2.338  -5.261  -1.218  0.00  0.00    -0.323 OA
ATOM     11  C   UNL d   1      -0.377  -5.383  -0.077  0.00  0.00     0.105 A 
ATOM     12  C   UNL d   1      -1.920  -6.616  -0.952  0.00  0.00     0.352 A 
ATOM     13  O   UNL d   1      -0.701  -6.699  -0.185  0.00  0.00    -0.323 OA
ATOM     14  C   UNL d   1       0.749  -4.875   0.530  0.00  0.00     0.040 A 
ATOM     15  C   UNL d   1       0.916  -3.484   0.525  0.00  0.00     0.017 A 
ENDBRANCH   3   7
BRANCH   4  16
ATOM     16  C   UNL d   1       2.481   1.607  -0.004  0.00  0.00    -0.007 A 
ATOM     17  C   UNL d   1       3.643   1.155  -0.645  0.00  0.00     0.049 A 
ATOM     18  C   UNL d   1       4.794   1.954  -0.646  0.00  0.00     0.103 A 
ATOM     19  C   UNL d   1       4.800   3.201  -0.007  0.00  0.00     0.036 A 
ATOM     20  C   UNL d   1       3.648   3.647   0.637  0.00  0.00     0.003 A 
ATOM     21  C   UNL d   1       2.496   2.854   0.640  0.00  0.00     0.014 A 
BRANCH  18  22
ATOM     22  N   UNL d   1       6.008   1.484  -1.325  0.00  0.00    -0.116 N 
ATOM     23  O   UNL d   1       5.966   0.383  -1.891  0.00  0.00    -0.532 OA
ATOM     24  O   UNL d   1       7.006   2.219  -1.295  0.00  0.00    -0.532 OA
ENDBRANCH  18  22
ENDBRANCH   4  16
TORSDOF 3
