REMARK  6 active torsions:
REMARK  status: ('A' for Active; 'I' for Inactive)
REMARK    1  A    between atoms: N_3  and  C_1 
REMARK    2  A    between atoms: N_4  and  C_1 
REMARK       I    between atoms: C_2  and  N_5 
REMARK    3  A    between atoms: O_11  and  C_2 
REMARK    4  A    between atoms: C_7  and  N_3 
REMARK    5  A    between atoms: N_5  and  N_4 
REMARK    6  A    between atoms: C_16  and  O_11 
ROOT
ATOM      1  C   UNL d   1       0.833  -0.099  -0.208  0.00  0.00     0.191 C 
ATOM      2  S   UNL d   1       2.495  -0.232  -0.265  0.00  0.00    -0.039 SA
ENDROOT
BRANCH   1   3
ATOM      3  N   UNL d   1       0.229   0.530   0.855  0.00  0.00    -0.332 N 
ATOM      4  H   UNL d   1       0.824   1.161   1.382  0.00  0.00     0.168 HD
BRANCH   3   5
ATOM      5  C   UNL d   1      -1.044   0.251   1.399  0.00  0.00     0.037 A 
ATOM      6  C   UNL d   1      -1.677  -0.986   1.227  0.00  0.00     0.071 A 
ATOM      7  C   UNL d   1      -2.917  -1.216   1.810  0.00  0.00     0.118 A 
ATOM      8  F   UNL d   1      -3.503  -2.411   1.657  0.00  0.00    -0.206 F 
ATOM      9  C   UNL d   1      -3.550  -0.234   2.560  0.00  0.00     0.042 A 
ATOM     10  C   UNL d   1      -2.917   0.993   2.752  0.00  0.00     0.005 A 
ATOM     11  C   UNL d   1      -1.657   1.228   2.189  0.00  0.00     0.029 A 
ENDBRANCH   3   5
ENDBRANCH   1   3
BRANCH   1  12
ATOM     12  N   UNL d   1      -0.021  -0.505  -1.201  0.00  0.00    -0.272 N 
ATOM     13  H   UNL d   1      -1.004  -0.231  -1.175  0.00  0.00     0.189 HD
BRANCH  12  14
ATOM     14  N   UNL d   1       0.292  -1.501  -2.135  0.00  0.00    -0.243 N 
ATOM     15  C   UNL d   1      -0.791  -2.082  -2.752  0.00  0.00     0.379 C 
ATOM     16  O   UNL d   1      -1.900  -1.564  -2.797  0.00  0.00    -0.237 OA
ATOM     17  H   UNL d   1       1.116  -2.069  -1.965  0.00  0.00     0.192 HD
BRANCH  15  18
ATOM     18  O   UNL d   1      -0.483  -3.324  -3.201  0.00  0.00    -0.303 OA
BRANCH  18  19
ATOM     19  C   UNL d   1      -1.606  -4.066  -3.702  0.00  0.00     0.176 C 
ATOM     20  C   UNL d   1      -2.431  -4.631  -2.556  0.00  0.00     0.034 C 
ENDBRANCH  18  19
ENDBRANCH  15  18
ENDBRANCH  12  14
ENDBRANCH   1  12
TORSDOF 6
