REMARK  5 active torsions:
REMARK  status: ('A' for Active; 'I' for Inactive)
REMARK    1  A    between atoms: C_3  and  C_1 
REMARK       I    between atoms: N_4  and  C_1 
REMARK    2  A    between atoms: C_2  and  N_5 
REMARK    3  A    between atoms: N_6  and  C_2 
REMARK    4  A    between atoms: N_5  and  N_4 
REMARK    5  A    between atoms: C_13  and  N_6 
ROOT
ATOM      1  C   UNL d   1      -1.688  -1.745   1.683  0.00  0.00     0.191 C 
ATOM      2  S   UNL d   1      -3.271  -1.476   2.166  0.00  0.00    -0.039 SA
ENDROOT
BRANCH   1   3
ATOM      3  N   UNL d   1      -1.033  -1.024   0.714  0.00  0.00    -0.273 N 
ATOM      4  H   UNL d   1      -0.012  -1.004   0.774  0.00  0.00     0.189 HD
BRANCH   3   5
ATOM      5  N   UNL d   1      -1.581   0.200   0.260  0.00  0.00    -0.262 N 
ATOM      6  C   UNL d   1      -0.756   1.311   0.211  0.00  0.00     0.293 C 
ATOM      7  O   UNL d   1       0.466   1.210   0.348  0.00  0.00    -0.264 OA
ATOM      8  H   UNL d   1      -2.590   0.325   0.340  0.00  0.00     0.190 HD
BRANCH   6   9
ATOM      9  C   UNL d   1      -1.443   2.567  -0.001  0.00  0.00     0.144 A 
ATOM     10  O   UNL d   1      -2.813   2.591  -0.057  0.00  0.00    -0.317 OA
ATOM     11  C   UNL d   1      -3.183   3.882  -0.261  0.00  0.00     0.143 A 
ATOM     12  C   UNL d   1      -2.078   4.695  -0.343  0.00  0.00     0.027 A 
ATOM     13  C   UNL d   1      -0.956   3.850  -0.168  0.00  0.00     0.045 A 
ENDBRANCH   6   9
ENDBRANCH   3   5
ENDBRANCH   1   3
BRANCH   1  14
ATOM     14  N   UNL d   1      -0.968  -2.705   2.338  0.00  0.00    -0.332 N 
ATOM     15  H   UNL d   1      -1.384  -2.979   3.223  0.00  0.00     0.168 HD
BRANCH  14  16
ATOM     16  C   UNL d   1       0.173  -3.429   1.947  0.00  0.00     0.034 A 
ATOM     17  C   UNL d   1       0.902  -4.070   2.957  0.00  0.00     0.031 A 
ATOM     18  C   UNL d   1       2.008  -4.863   2.642  0.00  0.00     0.026 A 
ATOM     19  C   UNL d   1       2.370  -5.044   1.310  0.00  0.00     0.034 A 
ATOM     20  C   UNL d   1       1.643  -4.425   0.295  0.00  0.00     0.026 A 
ATOM     21 CL   UNL d   1       3.704  -6.056   0.917  0.00  0.00    -0.084 Cl
ATOM     22  C   UNL d   1       0.549  -3.611   0.614  0.00  0.00     0.031 A 
ENDBRANCH  14  16
ENDBRANCH   1  14
TORSDOF 5
