REMARK  2 active torsions:
REMARK  status: ('A' for Active; 'I' for Inactive)
REMARK    1  A    between atoms: N_4  and  C_1 
REMARK       I    between atoms: C_7  and  N_4 
REMARK       I    between atoms: N_9  and  C_7 
REMARK    2  A    between atoms: C_11  and  N_9 
ROOT
ATOM      1  N   UNL d   1       2.750   1.936  -0.059  0.00  0.00    -0.288 N 
ATOM      2  C   UNL d   1       3.685   2.052  -1.118  0.00  0.00     0.328 C 
ATOM      3  N   UNL d   1       4.478   3.194  -1.074  0.00  0.00    -0.309 N 
ATOM      4  O   UNL d   1       3.750   1.222  -2.024  0.00  0.00    -0.246 OA
ATOM      5  C   UNL d   1       2.547   2.967   0.959  0.00  0.00     0.163 C 
ATOM      6  H   UNL d   1       4.435   3.769  -0.253  0.00  0.00     0.170 HD
ENDROOT
BRANCH   1   7
ATOM      7  C   UNL d   1       1.912   0.795  -0.070  0.00  0.00     0.136 A 
ATOM      8  N   UNL d   1       2.352  -0.519  -0.160  0.00  0.00    -0.280 N 
ATOM      9  N   UNL d   1       1.350  -1.427  -0.080  0.00  0.00    -0.301 N 
ATOM     10  C   UNL d   1       3.692  -1.053  -0.113  0.00  0.00     0.179 C 
ATOM     11  C   UNL d   1       0.251  -0.688  -0.013  0.00  0.00     0.036 A 
ATOM     12  HN  UNL d   1       1.424  -2.444  -0.072  1.00  0.00     0.187 HD
ATOM     13  C   UNL d   1       0.528   0.702   0.023  0.00  0.00     0.012 A 
ATOM     14  C   UNL d   1      -1.112  -1.281   0.027  0.00  0.00     0.059 C 
ATOM     15  C   UNL d   1      -0.566   1.723   0.002  0.00  0.00     0.044 C 
ATOM     16  C   UNL d   1      -1.940   1.098   0.324  0.00  0.00     0.005 C 
ATOM     17  C   UNL d   1      -2.166  -0.245  -0.386  0.00  0.00     0.006 C 
ENDBRANCH   1   7
BRANCH   3  18
ATOM     18  C   UNL d   1       5.296   3.699  -2.123  0.00  0.00     0.036 A 
ATOM     19  C   UNL d   1       5.547   3.019  -3.322  0.00  0.00     0.031 A 
ATOM     20  C   UNL d   1       6.256   3.632  -4.362  0.00  0.00     0.026 A 
ATOM     21  C   UNL d   1       6.723   4.932  -4.215  0.00  0.00     0.034 A 
ATOM     22  C   UNL d   1       6.532   5.607  -3.012  0.00  0.00     0.026 A 
ATOM     23 CL   UNL d   1       7.516   5.713  -5.526  0.00  0.00    -0.084 Cl
ATOM     24  C   UNL d   1       5.832   4.987  -1.968  0.00  0.00     0.031 A 
ENDBRANCH   3  18
TORSDOF 2
