REMARK  7 active torsions:
REMARK  status: ('A' for Active; 'I' for Inactive)
REMARK    1  A    between atoms: C_2  and  S_1 
REMARK    2  A    between atoms: N_17  and  S_1 
REMARK    3  A    between atoms: C_3  and  C_8 
REMARK    4  A    between atoms: C_6  and  N_21 
REMARK    5  A    between atoms: C_25  and  N_17 
REMARK    6  A    between atoms: N_21  and  C_28 
REMARK    7  A    between atoms: C_28  and  C_25 
ROOT
ATOM      1  C   UNL d   1       3.171   0.440   1.496  0.00  0.00     0.147 C 
ENDROOT
BRANCH   1   2
ATOM      2  N   UNL d   1       2.638   0.072   0.172  0.00  0.00    -0.314 N 
ATOM      3  H   UNL d   1       3.113   0.429  -0.651  0.00  0.00     0.172 HD
BRANCH   2   4
ATOM      4  S   UNL d   1       0.961   0.057  -0.005  0.00  0.00     0.259 S 
ATOM      5  O   UNL d   1       0.677  -0.112  -1.413  0.00  0.00    -0.201 OA
ATOM      6  O   UNL d   1       0.439  -0.860   0.983  0.00  0.00    -0.201 OA
BRANCH   4   7
ATOM      7  C   UNL d   1       0.485   1.719   0.462  0.00  0.00     0.086 A 
ATOM      8  C   UNL d   1      -0.364   1.852   1.578  0.00  0.00     0.034 A 
ATOM      9  C   UNL d   1      -0.741   3.115   2.062  0.00  0.00    -0.039 A 
ATOM     10  C   UNL d   1      -1.686   3.212   3.225  0.00  0.00     0.050 C 
ATOM     11  C   UNL d   1      -0.235   4.250   1.421  0.00  0.00     0.040 A 
ATOM     12  C   UNL d   1       0.591   4.120   0.300  0.00  0.00     0.032 A 
ATOM     13 CL   UNL d   1      -0.598   5.844   1.978  0.00  0.00    -0.084 Cl
ATOM     14  C   UNL d   1       0.952   2.860  -0.214  0.00  0.00    -0.037 A 
ATOM     15  C   UNL d   1       1.859   2.852  -1.412  0.00  0.00     0.050 C 
ENDBRANCH   4   7
ENDBRANCH   2   4
ENDBRANCH   1   2
BRANCH   1  16
ATOM     16  C   UNL d   1       4.701   0.296   1.526  0.00  0.00     0.115 C 
BRANCH  16  17
ATOM     17  N   UNL d   1       5.255   0.805   2.770  0.00  0.00    -0.263 NA
ATOM     18  H   UNL d   1       6.078   0.328   3.122  0.00  0.00     0.130 HD
BRANCH  17  19
ATOM     19  C   UNL d   1       5.534   2.160   2.809  0.00  0.00     0.157 A 
ATOM     20  N   UNL d   1       4.833   3.022   2.061  0.00  0.00    -0.329 N 
ATOM     21  C   UNL d   1       5.143   4.342   2.149  0.00  0.00     0.120 A 
ATOM     22  HN  UNL d   1       4.088   2.697   1.443  1.00  0.00     0.168 HD
ATOM     23  C   UNL d   1       6.155   4.798   2.970  0.00  0.00     0.051 A 
ATOM     24  C   UNL d   1       6.819   3.837   3.689  0.00  0.00     0.093 A 
ATOM     25  N   UNL d   1       6.530   2.526   3.619  0.00  0.00    -0.343 N 
ATOM     26  HN  UNL d   1       7.051   1.839   4.164  1.00  0.00     0.167 HD
BRANCH  21  27
ATOM     27  C   UNL d   1       4.364   5.349   1.325  0.00  0.00     0.432 C 
ATOM     28  F   UNL d   1       3.421   4.796   0.516  0.00  0.00    -0.165 F 
ATOM     29  F   UNL d   1       3.708   6.264   2.095  0.00  0.00    -0.165 F 
ATOM     30  F   UNL d   1       5.169   6.077   0.497  0.00  0.00    -0.165 F 
ENDBRANCH  21  27
ENDBRANCH  17  19
ENDBRANCH  16  17
ENDBRANCH   1  16
TORSDOF 7
