REMARK  5 active torsions:
REMARK  status: ('A' for Active; 'I' for Inactive)
REMARK    1  A    between atoms: S_9  and  C_3 
REMARK    2  A    between atoms: C_10  and  C_4 
REMARK    3  A    between atoms: C_15  and  S_9 
REMARK    4  A    between atoms: C_11  and  C_15 
REMARK    5  A    between atoms: C_14  and  C_11 
ROOT
ATOM      1  N   UNL d   1      -1.746   1.238  -0.135  0.00  0.00    -0.334 N 
ATOM      2  HN  UNL d   1      -2.315   2.082  -0.187  1.00  0.00     0.168 HD
ATOM      3  C   UNL d   1      -0.400   1.301  -0.211  0.00  0.00     0.095 A 
ATOM      4  C   UNL d   1      -2.314   0.028   0.011  0.00  0.00     0.133 A 
ATOM      5  N   UNL d   1      -1.612  -1.122   0.079  0.00  0.00    -0.343 N 
ATOM      6  HN  UNL d   1      -2.081  -2.022   0.185  1.00  0.00     0.167 HD
ATOM      7  C   UNL d   1       0.407   0.171  -0.135  0.00  0.00     0.089 A 
ATOM      8  C   UNL d   1      -0.262  -1.039  -0.001  0.00  0.00     0.031 A 
ATOM      9 CL   UNL d   1       2.131   0.233  -0.204  0.00  0.00    -0.079 Cl
ATOM     10  C   UNL d   1       0.464  -2.354   0.055  0.00  0.00     0.070 C 
ENDROOT
BRANCH   3  11
ATOM     11  S   UNL d   1       0.273   2.952  -0.436  0.00  0.00    -0.103 SA
BRANCH  11  12
ATOM     12  C   UNL d   1      -1.270   3.917  -0.580  0.00  0.00     0.164 C 
BRANCH  12  13
ATOM     13  C   UNL d   1      -1.021   5.386  -0.887  0.00  0.00     0.169 C 
ATOM     14  O   UNL d   1       0.089   5.870  -1.097  0.00  0.00    -0.291 OA
BRANCH  13  15
ATOM     15  C   UNL d   1      -2.213   6.297  -0.941  0.00  0.00     0.011 A 
ATOM     16  C   UNL d   1      -3.527   5.822  -0.807  0.00  0.00     0.018 A 
ATOM     17  C   UNL d   1      -4.604   6.716  -0.842  0.00  0.00     0.043 A 
ATOM     18  C   UNL d   1      -4.369   8.075  -1.010  0.00  0.00     0.116 A 
ATOM     19  C   UNL d   1      -3.077   8.563  -1.157  0.00  0.00     0.043 A 
ATOM     20  F   UNL d   1      -5.404   8.925  -1.031  0.00  0.00    -0.206 F 
ATOM     21  C   UNL d   1      -1.999   7.674  -1.124  0.00  0.00     0.018 A 
ENDBRANCH  13  15
ENDBRANCH  12  13
ENDBRANCH  11  12
ENDBRANCH   3  11
BRANCH   4  22
ATOM     22  C   UNL d   1      -3.795  -0.045   0.096  0.00  0.00     0.076 A 
ATOM     23  N   UNL d   1      -4.488   1.124  -0.050  0.00  0.00    -0.363 N 
ATOM     24  C   UNL d   1      -5.836   1.075   0.020  0.00  0.00     0.088 A 
ATOM     25  HN  UNL d   1      -4.002   2.007  -0.208  1.00  0.00     0.165 HD
ATOM     26  C   UNL d   1      -6.555  -0.087   0.232  0.00  0.00     0.017 A 
ATOM     27  C   UNL d   1      -5.853  -1.274   0.383  0.00  0.00     0.004 A 
ATOM     28  C   UNL d   1      -4.460  -1.256   0.314  0.00  0.00     0.033 A 
ENDBRANCH   4  22
TORSDOF 5
