REMARK  7 active torsions:
REMARK  status: ('A' for Active; 'I' for Inactive)
REMARK    1  A    between atoms: N_5  and  C_1 
REMARK    2  A    between atoms: C_4  and  C_7 
REMARK       I    between atoms: C_8  and  N_6 
REMARK    3  A    between atoms: C_26  and  C_8 
REMARK    4  A    between atoms: C_11  and  C_27 
REMARK    5  A    between atoms: O_25  and  C_11 
REMARK    6  A    between atoms: O_24  and  C_26 
REMARK    7  A    between atoms: C_27  and  O_24 
ROOT
ATOM      1  N   UNL d   1       0.217   2.783   0.155  0.00  0.00    -0.253 NA
ATOM      2  N   UNL d   1      -0.071   5.757   0.211  0.00  0.00    -0.349 N 
ATOM      3  C   UNL d   1      -1.160   6.621   0.236  0.00  0.00     0.243 C 
ATOM      4  C   UNL d   1      -0.161   3.556  -1.038  0.00  0.00     0.118 C 
ATOM      5  C   UNL d   1       0.380   4.998  -0.964  0.00  0.00     0.140 C 
ATOM      6  O   UNL d   1      -1.522   7.194   1.268  0.00  0.00    -0.271 OA
ATOM      7  C   UNL d   1       0.190   4.203   2.184  0.00  0.00     0.035 C 
ATOM      8  C   UNL d   1      -0.542   3.152   1.362  0.00  0.00     0.100 C 
ATOM      9  C   UNL d   1       0.634   5.469   1.455  0.00  0.00     0.127 C 
ENDROOT
BRANCH   1  10
ATOM     10  C   UNL d   1       0.046   1.404  -0.039  0.00  0.00     0.160 A 
ATOM     11  N   UNL d   1       0.865   0.600   0.652  0.00  0.00    -0.329 N 
ATOM     12  C   UNL d   1       0.656  -0.740   0.596  0.00  0.00     0.120 A 
ATOM     13  HN  UNL d   1       1.628   0.985   1.208  1.00  0.00     0.168 HD
ATOM     14  C   UNL d   1      -0.387  -1.279  -0.131  0.00  0.00     0.051 A 
ATOM     15  C   UNL d   1      -1.168  -0.382  -0.816  0.00  0.00     0.093 A 
ATOM     16  N   UNL d   1      -0.964   0.948  -0.798  0.00  0.00    -0.343 N 
ATOM     17  HN  UNL d   1      -1.551   1.583  -1.338  1.00  0.00     0.167 HD
BRANCH  12  18
ATOM     18  C   UNL d   1       1.575  -1.665   1.371  0.00  0.00     0.432 C 
ATOM     19  F   UNL d   1       2.579  -1.037   2.045  0.00  0.00    -0.165 F 
ATOM     20  F   UNL d   1       0.900  -2.396   2.307  0.00  0.00    -0.165 F 
ATOM     21  F   UNL d   1       2.186  -2.585   0.567  0.00  0.00    -0.165 F 
ENDBRANCH  12  18
ENDBRANCH   1  10
BRANCH   3  22
ATOM     22  C   UNL d   1      -1.885   6.907  -1.088  0.00  0.00     0.271 C 
BRANCH  22  23
ATOM     23  O   UNL d   1      -2.410   5.723  -1.694  0.00  0.00    -0.372 OA
BRANCH  23  24
ATOM     24  C   UNL d   1      -3.196   6.015  -2.844  0.00  0.00     0.277 C 
BRANCH  24  25
ATOM     25  C   UNL d   1      -2.345   6.482  -4.015  0.00  0.00     0.164 C 
ATOM     26  O   UNL d   1      -2.540   7.513  -4.647  0.00  0.00    -0.648 OA
BRANCH  25  27
ATOM     27  O   UNL d   1      -1.316   5.642  -4.276  0.00  0.00    -0.775 OA
ATOM     28  H   UNL d   1      -1.325   4.876  -3.668  0.00  0.00     0.167 HD
ENDBRANCH  25  27
ENDBRANCH  24  25
ENDBRANCH  23  24
ENDBRANCH  22  23
ENDBRANCH   3  22
TORSDOF 7
