REMARK  3 active torsions:
REMARK  status: ('A' for Active; 'I' for Inactive)
REMARK    1  A    between atoms: C_8  and  C_3 
REMARK    2  A    between atoms: N_6  and  C_4 
REMARK       I    between atoms: C_5  and  N_6 
REMARK       I    between atoms: N_9  and  C_5 
REMARK    3  A    between atoms: C_12  and  N_9 
ROOT
ATOM      1  C   UNL d   1       3.439   1.123   0.158  0.00  0.00     0.326 C 
ATOM      2  N   UNL d   1       2.146   1.487   0.326  0.00  0.00    -0.294 N 
ATOM      3  N   UNL d   1       3.796  -0.174   0.385  0.00  0.00    -0.307 N 
ATOM      4  O   UNL d   1       4.223   2.032  -0.130  0.00  0.00    -0.247 OA
ATOM      5  H   UNL d   1       2.043   2.489   0.255  0.00  0.00     0.172 HD
ATOM      6  H   UNL d   1       3.178  -0.676   1.014  0.00  0.00     0.170 HD
ENDROOT
BRANCH   2   7
ATOM      7  C   UNL d   1       0.988   0.760   0.451  0.00  0.00     0.116 A 
ATOM      8  N   UNL d   1       0.919  -0.614   0.372  0.00  0.00    -0.335 N 
ATOM      9  C   UNL d   1      -0.353  -0.994   0.371  0.00  0.00     0.092 A 
ATOM     10  HN  UNL d   1       1.721  -1.242   0.323  1.00  0.00     0.168 HD
ATOM     11  S   UNL d   1      -1.490   0.279   0.637  0.00  0.00    -0.079 SA
ATOM     12  C   UNL d   1      -0.219   1.407   0.608  0.00  0.00     0.100 A 
BRANCH   9  13
ATOM     13  C   UNL d   1      -0.766  -2.360   0.116  0.00  0.00     0.038 A 
ATOM     14  S   UNL d   1      -2.417  -2.830  -0.046  0.00  0.00    -0.099 SA
ATOM     15  C   UNL d   1      -2.009  -4.442  -0.425  0.00  0.00     0.050 A 
ATOM     16  C   UNL d   1      -0.650  -4.646  -0.401  0.00  0.00     0.008 A 
ATOM     17  C   UNL d   1       0.065  -3.450  -0.080  0.00  0.00     0.022 A 
ENDBRANCH   9  13
ENDBRANCH   2   7
BRANCH   3  18
ATOM     18  C   UNL d   1       5.159  -0.578   0.343  0.00  0.00     0.058 A 
ATOM     19  C   UNL d   1       5.695  -1.410   1.336  0.00  0.00     0.060 A 
ATOM     20 CL   UNL d   1       4.715  -2.014   2.626  0.00  0.00    -0.082 Cl
ATOM     21  C   UNL d   1       7.064  -1.707   1.346  0.00  0.00     0.026 A 
ATOM     22  C   UNL d   1       7.899  -1.214   0.342  0.00  0.00     0.002 A 
ATOM     23  C   UNL d   1       7.365  -0.434  -0.681  0.00  0.00     0.002 A 
ATOM     24  C   UNL d   1       6.004  -0.118  -0.677  0.00  0.00     0.031 A 
ENDBRANCH   3  18
TORSDOF 3
