REMARK  4 active torsions:
REMARK  status: ('A' for Active; 'I' for Inactive)
REMARK    1  A    between atoms: O_15  and  C_7 
REMARK    2  A    between atoms: O_11  and  C_8 
REMARK    3  A    between atoms: N_14  and  C_9 
REMARK    4  A    between atoms: C_16  and  O_11 
ROOT
ATOM      1  C   UNL d   1       1.238  -0.683   0.057  0.00  0.00     0.064 A 
ATOM      2  C   UNL d   1       1.244   0.715   0.003  0.00  0.00     0.056 A 
ATOM      3  C   UNL d   1      -0.035  -1.429   0.013  0.00  0.00     0.197 A 
ATOM      4  C   UNL d   1      -0.049   1.447   0.024  0.00  0.00     0.196 A 
ATOM      5  C   UNL d   1      -1.320   0.690  -0.010  0.00  0.00     0.029 A 
ATOM      6  C   UNL d   1      -1.311  -0.701  -0.015  0.00  0.00     0.029 A 
ATOM      7  C   UNL d   1       2.448  -1.380   0.151  0.00  0.00     0.083 C 
ATOM      8  C   UNL d   1       3.678   0.690   0.012  0.00  0.00     0.100 C 
ATOM      9  C   UNL d   1       2.470   1.423  -0.011  0.00  0.00     0.055 C 
ATOM     10  C   UNL d   1       3.659  -0.697   0.179  0.00  0.00     0.076 C 
ATOM     11  O   UNL d   1      -0.093   2.669   0.116  0.00  0.00    -0.287 OA
ATOM     12  O   UNL d   1      -0.019  -2.658  -0.004  0.00  0.00    -0.286 OA
ATOM     13  C   UNL d   1      -2.519  -1.411  -0.027  0.00  0.00     0.016 A 
ATOM     14  C   UNL d   1      -2.540   1.379  -0.014  0.00  0.00     0.016 A 
ATOM     15  C   UNL d   1      -3.744   0.671  -0.022  0.00  0.00     0.001 A 
ATOM     16  C   UNL d   1      -3.732  -0.724  -0.029  0.00  0.00     0.001 A 
ENDROOT
BRANCH   8  17
ATOM     17  O   UNL d   1       4.848   1.425  -0.073  0.00  0.00    -0.309 OA
BRANCH  17  18
ATOM     18  C   UNL d   1       5.973   0.860  -0.632  0.00  0.00     0.076 A 
ATOM     19  C   UNL d   1       5.953  -0.037  -1.704  0.00  0.00     0.037 A 
ATOM     20  C   UNL d   1       7.139  -0.623  -2.148  0.00  0.00     0.003 A 
ATOM     21  C   UNL d   1       8.354  -0.260  -1.570  0.00  0.00     0.000 A 
ATOM     22  C   UNL d   1       8.386   0.702  -0.561  0.00  0.00     0.003 A 
ATOM     23  C   UNL d   1       7.196   1.262  -0.092  0.00  0.00     0.037 A 
ENDBRANCH  17  18
ENDBRANCH   8  17
BRANCH   9  24
ATOM     24  N   UNL d   1       2.521   2.808  -0.284  0.00  0.00    -0.300 NA
ATOM     25  H   UNL d   1       1.656   3.294  -0.021  0.00  0.00     0.124 HD
ATOM     26  H   UNL d   1       3.362   3.258   0.069  0.00  0.00     0.124 HD
ENDBRANCH   9  24
BRANCH   7  27
ATOM     27  O   UNL d   1       2.531  -2.746   0.202  0.00  0.00    -0.360 OA
ATOM     28  H   UNL d   1       1.623  -3.115   0.106  0.00  0.00     0.217 HD
ENDBRANCH   7  27
TORSDOF 4
