REMARK  2 active torsions:
REMARK  status: ('A' for Active; 'I' for Inactive)
REMARK    1  A    between atoms: C_7  and  C_3 
REMARK    2  A    between atoms: C_8  and  C_4 
ROOT
ATOM      1  N   UNL d   1       1.421  -0.597  -0.043  0.00  0.00    -0.349 N 
ATOM      2  HN  UNL d   1       2.305  -1.106  -0.054  1.00  0.00     0.166 HD
ATOM      3  C   UNL d   1       0.228  -1.163  -0.069  0.00  0.00     0.085 A 
ATOM      4  C   UNL d   1       1.304   0.784   0.001  0.00  0.00     0.050 A 
ATOM      5  S   UNL d   1      -1.093  -0.054  -0.023  0.00  0.00    -0.081 SA
ATOM      6  C   UNL d   1       0.007   1.254   0.004  0.00  0.00     0.082 A 
ENDROOT
BRANCH   4   7
ATOM      7  C   UNL d   1       2.477   1.651   0.015  0.00  0.00    -0.006 A 
ATOM      8  C   UNL d   1       2.453   2.898   0.656  0.00  0.00     0.053 A 
ATOM      9  C   UNL d   1       3.576   3.724   0.635  0.00  0.00     0.103 A 
ATOM     10  O   UNL d   1       3.454   4.936   1.267  0.00  0.00    -0.346 OA
ATOM     11  C   UNL d   1       4.748   3.303   0.002  0.00  0.00     0.102 A 
ATOM     12  C   UNL d   1       4.513   5.825   0.900  0.00  0.00     0.202 C 
ATOM     13  C   UNL d   1       5.854   5.109   0.938  0.00  0.00     0.202 C 
ATOM     14  O   UNL d   1       5.894   4.056  -0.032  0.00  0.00    -0.346 OA
ATOM     15  C   UNL d   1       4.785   2.068  -0.640  0.00  0.00     0.040 A 
ATOM     16  C   UNL d   1       3.656   1.242  -0.627  0.00  0.00     0.017 A 
ENDBRANCH   4   7
BRANCH   3  17
ATOM     17  C   UNL d   1      -0.005  -2.618  -0.088  0.00  0.00     0.001 A 
ATOM     18  C   UNL d   1      -1.130  -3.188  -0.711  0.00  0.00     0.054 A 
ATOM     19  C   UNL d   1      -1.268  -4.560  -0.690  0.00  0.00     0.105 A 
ATOM     20  O   UNL d   1      -2.290  -5.260  -1.252  0.00  0.00    -0.323 OA
ATOM     21  C   UNL d   1      -0.345  -5.376  -0.082  0.00  0.00     0.105 A 
ATOM     22  C   UNL d   1      -1.886  -6.613  -0.958  0.00  0.00     0.352 A 
ATOM     23  O   UNL d   1      -0.671  -6.692  -0.182  0.00  0.00    -0.323 OA
ATOM     24  C   UNL d   1       0.772  -4.865   0.537  0.00  0.00     0.040 A 
ATOM     25  C   UNL d   1       0.943  -3.474   0.525  0.00  0.00     0.017 A 
ENDBRANCH   3  17
TORSDOF 2
