REMARK  7 active torsions:
REMARK  status: ('A' for Active; 'I' for Inactive)
REMARK    1  A    between atoms: C_7  and  C_1 
REMARK    2  A    between atoms: C_12  and  N_2 
REMARK    3  A    between atoms: C_17  and  C_3 
REMARK    4  A    between atoms: O_14  and  C_7 
REMARK    5  A    between atoms: N_10  and  O_14 
REMARK    6  A    between atoms: C_18  and  C_15 
REMARK    7  A    between atoms: C_25  and  C_17 
ROOT
ATOM      1  N   UNL d   1      -6.068  10.934  -0.059  0.00  0.00    -0.191 NA
ATOM      2  C   UNL d   1      -5.672   9.838  -0.051  0.00  0.00     0.099 C 
ATOM      3  C   UNL d   1      -5.185   8.491  -0.042  0.00  0.00     0.044 A 
ATOM      4  C   UNL d   1      -4.226   5.849  -0.041  0.00  0.00    -0.019 A 
ATOM      5  C   UNL d   1      -3.812   8.242   0.039  0.00  0.00     0.023 A 
ATOM      6  C   UNL d   1      -6.077   7.412  -0.117  0.00  0.00     0.023 A 
ATOM      7  C   UNL d   1      -3.334   6.926   0.039  0.00  0.00     0.014 A 
ATOM      8  C   UNL d   1      -5.601   6.093  -0.115  0.00  0.00     0.014 A 
ENDROOT
BRANCH   4   9
ATOM      9  C   UNL d   1      -3.716   4.456  -0.059  0.00  0.00     0.126 C 
ATOM     10  N   UNL d   1      -2.444   4.227  -0.030  0.00  0.00    -0.268 N 
ATOM     11  HN  UNL d   1      -1.733   4.958   0.007  1.00  0.00     0.194 HD
BRANCH  10  12
ATOM     12  O   UNL d   1      -2.154   2.842  -0.056  0.00  0.00    -0.195 OA
BRANCH  12  13
ATOM     13  C   UNL d   1      -0.774   2.679  -0.073  0.00  0.00     0.318 C 
ATOM     14  O   UNL d   1       0.034   3.604  -0.097  0.00  0.00    -0.257 OA
BRANCH  13  15
ATOM     15  C   UNL d   1      -0.354   1.280  -0.041  0.00  0.00     0.082 A 
ATOM     16  C   UNL d   1       0.958   0.789  -0.035  0.00  0.00     0.052 A 
ATOM     17  N   UNL d   1       0.864  -0.602   0.042  0.00  0.00    -0.260 N 
ATOM     18  N   UNL d   1      -0.439  -0.987   0.154  0.00  0.00    -0.304 N 
ATOM     19  C   UNL d   1      -1.151   0.127   0.026  0.00  0.00     0.127 A 
ATOM     20  HN  UNL d   1      -0.793  -1.932   0.305  1.00  0.00     0.186 HD
BRANCH  16  21
ATOM     21  C   UNL d   1       2.235   1.580   0.002  0.00  0.00     0.060 C 
BRANCH  21  22
ATOM     22  C   UNL d   1       2.648   2.076  -1.389  0.00  0.00     0.002 C 
ATOM     23  C   UNL d   1       3.918   2.910  -1.328  0.00  0.00     0.005 C 
ENDBRANCH  21  22
ENDBRANCH  16  21
BRANCH  17  24
ATOM     24  C   UNL d   1       1.862  -1.628  -0.021  0.00  0.00     0.056 A 
ATOM     25  C   UNL d   1       1.568  -2.892   0.520  0.00  0.00     0.031 A 
ATOM     26  C   UNL d   1       2.464  -3.956   0.384  0.00  0.00     0.002 A 
ATOM     27  C   UNL d   1       3.654  -3.780  -0.316  0.00  0.00     0.000 A 
ATOM     28  C   UNL d   1       3.966  -2.529  -0.840  0.00  0.00     0.002 A 
ATOM     29  C   UNL d   1       3.083  -1.454  -0.680  0.00  0.00     0.031 A 
ENDBRANCH  17  24
ENDBRANCH  13  15
ENDBRANCH  12  13
ENDBRANCH  10  12
ENDBRANCH   4   9
TORSDOF 7
