REMARK  3 active torsions:
REMARK  status: ('A' for Active; 'I' for Inactive)
REMARK    1  A    between atoms: N_7  and  C_1 
REMARK    2  A    between atoms: C_2  and  C_6 
REMARK    3  A    between atoms: C_16  and  C_5 
REMARK       I    between atoms: C_6  and  N_7 
ROOT
ATOM      1  C   UNL d   1      -1.502   0.210  -0.234  0.00  0.00     0.152 A 
ATOM      2  N   UNL d   1      -1.354  -1.079  -0.353  0.00  0.00    -0.335 N 
ATOM      3  HN  UNL d   1      -2.110  -1.739  -0.534  1.00  0.00     0.168 HD
ATOM      4  C   UNL d   1      -0.021  -1.422  -0.199  0.00  0.00     0.057 A 
ATOM      5  S   UNL d   1      -0.081   1.112   0.013  0.00  0.00    -0.057 SA
ATOM      6  C   UNL d   1       0.845  -0.342  -0.073  0.00  0.00     0.010 A 
ATOM      7  C   UNL d   1       2.333  -0.277   0.001  0.00  0.00     0.059 C 
ENDROOT
BRANCH   1   8
ATOM      8  N   UNL d   1      -2.652   0.947  -0.246  0.00  0.00    -0.302 N 
ATOM      9  C   UNL d   1      -3.871   0.398  -0.590  0.00  0.00     0.268 C 
ATOM     10  O   UNL d   1      -4.007  -0.741  -1.031  0.00  0.00    -0.267 OA
ATOM     11  H   UNL d   1      -2.571   1.921   0.001  0.00  0.00     0.171 HD
BRANCH   9  12
ATOM     12  C   UNL d   1      -5.016   1.276  -0.432  0.00  0.00     0.114 A 
ATOM     13  C   UNL d   1      -6.356   1.074  -0.752  0.00  0.00     0.046 A 
ATOM     14  N   UNL d   1      -7.191   2.150  -0.453  0.00  0.00    -0.298 N 
ATOM     15  C   UNL d   1      -7.002  -0.116  -1.366  0.00  0.00     0.071 C 
ATOM     16  N   UNL d   1      -6.532   3.156   0.090  0.00  0.00    -0.269 N 
ATOM     17  HN  UNL d   1      -8.195   2.158  -0.634  1.00  0.00     0.187 HD
ATOM     18  S   UNL d   1      -4.907   2.845   0.258  0.00  0.00     0.009 SA
ATOM     19  HN  UNL d   1      -6.973   4.030   0.377  1.00  0.00     0.195 HD
ENDBRANCH   9  12
ENDBRANCH   1   8
BRANCH   4  20
ATOM     20  C   UNL d   1       0.348  -2.834  -0.178  0.00  0.00    -0.007 A 
ATOM     21  C   UNL d   1      -0.375  -3.747  -0.958  0.00  0.00     0.038 A 
ATOM     22  C   UNL d   1      -0.090  -5.116  -0.901  0.00  0.00     0.040 A 
ATOM     23 CL   UNL d   1      -1.038  -6.183  -1.875  0.00  0.00    -0.084 Cl
ATOM     24  C   UNL d   1       0.925  -5.602  -0.064  0.00  0.00    -0.040 A 
ATOM     25  C   UNL d   1       1.634  -4.688   0.726  0.00  0.00     0.009 A 
ATOM     26  C   UNL d   1       1.258  -7.064   0.026  0.00  0.00     0.050 C 
ATOM     27  C   UNL d   1       1.340  -3.324   0.677  0.00  0.00     0.014 A 
ENDBRANCH   4  20
TORSDOF 3
