REMARK  9 active torsions:
REMARK  status: ('A' for Active; 'I' for Inactive)
REMARK    1  A    between atoms: S_7  and  C_1 
REMARK    2  A    between atoms: C_10  and  C_2 
REMARK       I    between atoms: C_5  and  N_11 
REMARK       I    between atoms: N_17  and  C_5 
REMARK    3  A    between atoms: C_15  and  S_7 
REMARK    4  A    between atoms: C_9  and  S_18 
REMARK    5  A    between atoms: O_26  and  C_10 
REMARK    6  A    between atoms: N_11  and  C_16 
REMARK    7  A    between atoms: C_24  and  N_17 
REMARK    8  A    between atoms: S_18  and  C_25 
REMARK    9  A    between atoms: C_34  and  O_26 
ROOT
ATOM      1  C   UNL d   1      -0.986   4.674   2.128  0.00  0.00     0.091 A 
ATOM      2  C   UNL d   1       0.282   5.210   2.342  0.00  0.00     0.074 A 
ATOM      3  N   UNL d   1      -2.094   5.449   2.264  0.00  0.00    -0.352 N 
ATOM      4  HN  UNL d   1      -3.023   5.054   2.114  1.00  0.00     0.166 HD
ATOM      5  C   UNL d   1       0.428   6.545   2.732  0.00  0.00     0.045 A 
ATOM      6  C   UNL d   1      -0.704   7.344   2.867  0.00  0.00     0.067 A 
ATOM      7  C   UNL d   1      -1.949   6.765   2.603  0.00  0.00     0.027 A 
ATOM      8  N   UNL d   1      -0.433   9.835   3.531  0.00  0.00    -0.191 NA
ATOM      9  C   UNL d   1      -0.561   8.723   3.228  0.00  0.00     0.101 C 
ATOM     10  C   UNL d   1      -3.204   7.596   2.583  0.00  0.00     0.070 C 
ENDROOT
BRANCH   2  11
ATOM     11  C   UNL d   1       1.501   4.465   2.023  0.00  0.00     0.296 C 
ATOM     12  O   UNL d   1       2.040   4.545   0.936  0.00  0.00    -0.259 OA
BRANCH  11  13
ATOM     13  O   UNL d   1       1.909   3.791   3.116  0.00  0.00    -0.318 OA
BRANCH  13  14
ATOM     14  C   UNL d   1       3.129   3.047   2.960  0.00  0.00     0.174 C 
ATOM     15  C   UNL d   1       4.051   3.395   4.112  0.00  0.00     0.034 C 
ENDBRANCH  13  14
ENDBRANCH  11  13
ENDBRANCH   2  11
BRANCH   1  16
ATOM     16  S   UNL d   1      -1.189   2.944   1.687  0.00  0.00    -0.069 SA
BRANCH  16  17
ATOM     17  C   UNL d   1      -2.923   2.713   1.285  0.00  0.00     0.033 A 
ATOM     18  C   UNL d   1      -3.667   1.649   1.855  0.00  0.00     0.053 A 
ATOM     19  C   UNL d   1      -5.005   1.470   1.481  0.00  0.00     0.031 A 
ATOM     20  C   UNL d   1      -5.591   2.291   0.516  0.00  0.00     0.002 A 
ATOM     21  C   UNL d   1      -4.847   3.301  -0.084  0.00  0.00     0.002 A 
ATOM     22  C   UNL d   1      -3.522   3.513   0.302  0.00  0.00     0.021 A 
BRANCH  18  23
ATOM     23  N   UNL d   1      -3.008   0.715   2.690  0.00  0.00    -0.312 N 
ATOM     24  C   UNL d   1      -3.583  -0.276   3.464  0.00  0.00     0.303 C 
ATOM     25  N   UNL d   1      -2.650  -1.292   3.696  0.00  0.00    -0.210 NA
ATOM     26  O   UNL d   1      -4.746  -0.301   3.847  0.00  0.00    -0.253 OA
ATOM     27  H   UNL d   1      -2.251  -1.516   2.791  0.00  0.00     0.138 HD
ATOM     28  H   UNL d   1      -2.018   0.869   2.837  0.00  0.00     0.170 HD
BRANCH  25  29
ATOM     29  C   UNL d   1      -3.091  -2.440   4.392  0.00  0.00     0.016 A 
ATOM     30  C   UNL d   1      -3.723  -3.478   3.708  0.00  0.00     0.025 A 
ATOM     31  C   UNL d   1      -4.195  -4.585   4.418  0.00  0.00     0.020 A 
ATOM     32  C   UNL d   1      -4.016  -4.668   5.803  0.00  0.00     0.009 A 
ATOM     33  C   UNL d   1      -3.325  -3.651   6.470  0.00  0.00     0.020 A 
ATOM     34  C   UNL d   1      -2.875  -2.529   5.767  0.00  0.00     0.025 A 
BRANCH  32  35
ATOM     35  S   UNL d   1      -4.643  -6.071   6.700  0.00  0.00    -0.016 SA
BRANCH  35  36
ATOM     36  C   UNL d   1      -6.364  -5.568   6.851  0.00  0.00     0.448 C 
ATOM     37  F   UNL d   1      -6.873  -5.098   5.688  0.00  0.00    -0.160 F 
ATOM     38  F   UNL d   1      -7.137  -6.618   7.222  0.00  0.00    -0.160 F 
ATOM     39  F   UNL d   1      -6.521  -4.606   7.790  0.00  0.00    -0.160 F 
ENDBRANCH  35  36
ENDBRANCH  32  35
ENDBRANCH  25  29
ENDBRANCH  18  23
ENDBRANCH  16  17
ENDBRANCH   1  16
TORSDOF 9
