REMARK  5 active torsions:
REMARK  status: ('A' for Active; 'I' for Inactive)
REMARK    1  A    between atoms: C_4  and  C_1 
REMARK    2  A    between atoms: N_3  and  C_2 
REMARK       I    between atoms: N_5  and  C_4 
REMARK    3  A    between atoms: C_7  and  N_5 
REMARK    4  A    between atoms: N_10  and  C_7 
REMARK    5  A    between atoms: N_11  and  N_10 
ROOT
ATOM      1  C   UNL d   1       2.789  -1.677   0.341  0.00  0.00     0.258 C 
ATOM      2  N   UNL d   1       2.428  -2.898  -0.212  0.00  0.00    -0.299 N 
ATOM      3  O   UNL d   1       2.157  -1.083   1.204  0.00  0.00    -0.267 OA
ATOM      4  H   UNL d   1       3.171  -3.459  -0.599  0.00  0.00     0.171 HD
ENDROOT
BRANCH   2   5
ATOM      5  C   UNL d   1       1.245  -3.578  -0.122  0.00  0.00     0.189 C 
ATOM      6  S   UNL d   1       1.255  -5.237  -0.346  0.00  0.00    -0.039 SA
BRANCH   5   7
ATOM      7  N   UNL d   1       0.054  -2.952   0.102  0.00  0.00    -0.295 N 
ATOM      8  H   UNL d   1      -0.749  -3.575   0.153  0.00  0.00     0.183 HD
BRANCH   7   9
ATOM      9  N   UNL d   1      -0.193  -1.620  -0.305  0.00  0.00    -0.229 NA
ATOM     10  C   UNL d   1      -0.940  -0.898   0.742  0.00  0.00     0.113 C 
ATOM     11  C   UNL d   1      -1.103   0.579   0.381  0.00  0.00     0.016 C 
ATOM     12  C   UNL d   1      -1.696   0.789  -1.010  0.00  0.00     0.002 C 
ATOM     13  C   UNL d   1      -1.082  -0.135  -2.058  0.00  0.00     0.016 C 
ATOM     14  C   UNL d   1      -0.949  -1.576  -1.567  0.00  0.00     0.113 C 
ENDBRANCH   7   9
ENDBRANCH   5   7
ENDBRANCH   2   5
BRANCH   1  15
ATOM     15  C   UNL d   1       4.099  -1.154  -0.085  0.00  0.00     0.041 A 
ATOM     16  C   UNL d   1       5.212  -1.817  -0.727  0.00  0.00     0.061 A 
ATOM     17  C   UNL d   1       6.292  -0.969  -0.897  0.00  0.00     0.144 A 
ATOM     18  S   UNL d   1       5.985   0.611  -0.367  0.00  0.00    -0.077 SA
ATOM     19  C   UNL d   1       4.421   0.175   0.156  0.00  0.00     0.069 A 
BRANCH  17  20
ATOM     20  N   UNL d   1       7.575  -1.302  -1.461  0.00  0.00    -0.108 N 
ATOM     21  O   UNL d   1       7.636  -2.383  -2.063  0.00  0.00    -0.531 OA
ATOM     22  O   UNL d   1       8.512  -0.515  -1.292  0.00  0.00    -0.531 OA
ENDBRANCH  17  20
ENDBRANCH   1  15
TORSDOF 5
