REMARK  3 active torsions:
REMARK  status: ('A' for Active; 'I' for Inactive)
REMARK    1  A    between atoms: C_10  and  C_5 
REMARK    2  A    between atoms: S_15  and  C_8 
REMARK    3  A    between atoms: N_16  and  C_9 
ROOT
ATOM      1  N   UNL d   1       1.778  -0.014  -0.059  0.00  0.00    -0.321 N 
ATOM      2  HN  UNL d   1       2.796   0.000  -0.131  1.00  0.00     0.169 HD
ATOM      3  N   UNL d   1      -0.280   1.117   0.106  0.00  0.00    -0.317 N 
ATOM      4  HN  UNL d   1      -0.810   1.988   0.153  1.00  0.00     0.170 HD
ATOM      5  C   UNL d   1       1.051   1.100   0.024  0.00  0.00     0.138 A 
ATOM      6  N   UNL d   1      -0.243  -1.226   0.035  0.00  0.00    -0.313 N 
ATOM      7  HN  UNL d   1      -0.740  -2.117   0.024  1.00  0.00     0.170 HD
ATOM      8  C   UNL d   1       1.080  -1.143  -0.041  0.00  0.00     0.147 A 
ATOM      9  C   UNL d   1      -0.868  -0.064   0.124  0.00  0.00     0.158 A 
ENDROOT
BRANCH   5  10
ATOM     10  C   UNL d   1       1.775   2.388   0.039  0.00  0.00     0.092 A 
ATOM     11  N   UNL d   1       1.051   3.538   0.187  0.00  0.00    -0.360 N 
ATOM     12  C   UNL d   1       1.751   4.695   0.220  0.00  0.00     0.105 A 
ATOM     13  HN  UNL d   1       0.035   3.524   0.269  1.00  0.00     0.165 HD
ATOM     14  C   UNL d   1       3.128   4.735   0.104  0.00  0.00     0.104 A 
ATOM     15  N   UNL d   1       3.869   3.619  -0.052  0.00  0.00    -0.372 N 
ATOM     16  C   UNL d   1       3.164   2.456  -0.079  0.00  0.00     0.121 A 
ATOM     17  HN  UNL d   1       4.885   3.645  -0.143  1.00  0.00     0.164 HD
ENDBRANCH   5  10
BRANCH   9  18
ATOM     18  N   UNL d   1      -2.244  -0.078   0.215  0.00  0.00    -0.274 NA
ATOM     19  H   UNL d   1      -2.634  -0.917  -0.188  0.00  0.00     0.127 HD
ATOM     20  H   UNL d   1      -2.625   0.809  -0.088  0.00  0.00     0.127 HD
ENDBRANCH   9  18
BRANCH   8  21
ATOM     21  S   UNL d   1       2.050  -2.632  -0.126  0.00  0.00    -0.098 SA
ATOM     22  C   UNL d   1       0.757  -3.889   0.006  0.00  0.00     0.099 C 
ENDBRANCH   8  21
TORSDOF 3
