REMARK  3 active torsions:
REMARK  status: ('A' for Active; 'I' for Inactive)
REMARK    1  A    between atoms: C_2  and  S_1 
REMARK    2  A    between atoms: C_4  and  S_1 
REMARK    3  A    between atoms: C_10  and  C_4 
ROOT
ATOM      1  S   UNL d   1       0.885   0.008   0.031  0.00  0.00     0.186 S 
ATOM      2  O   UNL d   1       0.236   0.782   1.076  0.00  0.00    -0.222 OA
ATOM      3  O   UNL d   1       2.303   0.171  -0.226  0.00  0.00    -0.222 OA
ENDROOT
BRANCH   1   4
ATOM      4  C   UNL d   1       0.086   0.513  -1.476  0.00  0.00     0.100 A 
ATOM      5  S   UNL d   1      -1.617   0.355  -1.540  0.00  0.00    -0.090 SA
ATOM      6  C   UNL d   1      -1.690   1.073  -3.092  0.00  0.00     0.051 A 
ATOM      7  C   UNL d   1      -0.442   1.413  -3.564  0.00  0.00     0.009 A 
ATOM      8  C   UNL d   1       0.585   1.082  -2.634  0.00  0.00     0.031 A 
ENDBRANCH   1   4
BRANCH   1   9
ATOM      9  C   UNL d   1       0.496  -1.715   0.286  0.00  0.00     0.184 C 
BRANCH   9  10
ATOM     10  C   UNL d   1       0.900  -2.584  -0.879  0.00  0.00    -0.044 A 
ATOM     11  C   UNL d   1       2.248  -2.763  -1.227  0.00  0.00     0.010 A 
ATOM     12  C   UNL d   1       2.606  -3.586  -2.298  0.00  0.00     0.024 A 
ATOM     13  C   UNL d   1       1.620  -4.258  -3.015  0.00  0.00     0.034 A 
ATOM     14  C   UNL d   1       0.280  -4.123  -2.661  0.00  0.00     0.024 A 
ATOM     15 CL   UNL d   1       2.058  -5.263  -4.339  0.00  0.00    -0.084 Cl
ATOM     16  C   UNL d   1      -0.079  -3.291  -1.597  0.00  0.00     0.010 A 
ENDBRANCH   9  10
ENDBRANCH   1   9
TORSDOF 3
