REMARK  9 active torsions:
REMARK  status: ('A' for Active; 'I' for Inactive)
REMARK    1  A    between atoms: C_8  and  N_1 
REMARK    2  A    between atoms: C_11  and  C_2 
REMARK    3  A    between atoms: S_9  and  C_5 
REMARK    4  A    between atoms: C_14  and  C_8 
REMARK    5  A    between atoms: C_15  and  S_9 
REMARK    6  A    between atoms: C_10  and  C_15 
REMARK       I    between atoms: N_12  and  C_10 
REMARK    7  A    between atoms: C_16  and  N_12 
REMARK    8  A    between atoms: O_17  and  C_14 
REMARK    9  A    between atoms: O_18  and  C_14 
ROOT
ATOM      1  N   UNL d   1      -0.187  -1.236  -0.144  0.00  0.00    -0.306 N 
ATOM      2  C   UNL d   1       0.939  -0.513  -0.520  0.00  0.00     0.134 C 
ATOM      3  N   UNL d   1       0.563   0.747  -0.694  0.00  0.00    -0.283 N 
ATOM      4  HN  UNL d   1       1.141   1.493  -1.081  1.00  0.00     0.188 HD
ATOM      5  C   UNL d   1      -1.123  -0.291   0.180  0.00  0.00     0.163 C 
ATOM      6  N   UNL d   1      -0.731   0.881  -0.266  0.00  0.00    -0.278 N 
ATOM      7  HN  UNL d   1      -1.289   1.734  -0.290  1.00  0.00     0.189 HD
ENDROOT
BRANCH   5   8
ATOM      8  S   UNL d   1      -2.502  -0.577   1.175  0.00  0.00    -0.083 SA
BRANCH   8   9
ATOM      9  C   UNL d   1      -3.388   0.997   1.089  0.00  0.00     0.185 C 
BRANCH   9  10
ATOM     10  C   UNL d   1      -2.787   2.029   2.029  0.00  0.00     0.231 C 
ATOM     11  N   UNL d   1      -1.703   2.694   1.488  0.00  0.00    -0.327 N 
ATOM     12  H   UNL d   1      -1.364   2.357   0.585  0.00  0.00     0.169 HD
ATOM     13  O   UNL d   1      -3.294   2.237   3.129  0.00  0.00    -0.272 OA
BRANCH  11  14
ATOM     14  C   UNL d   1      -0.969   3.755   2.045  0.00  0.00     0.034 A 
ATOM     15  C   UNL d   1      -1.163   4.240   3.337  0.00  0.00     0.029 A 
ATOM     16  C   UNL d   1      -0.432   5.340   3.794  0.00  0.00     0.002 A 
ATOM     17  C   UNL d   1       0.495   5.961   2.960  0.00  0.00     0.000 A 
ATOM     18  C   UNL d   1       0.716   5.465   1.678  0.00  0.00     0.002 A 
ATOM     19  C   UNL d   1      -0.004   4.357   1.227  0.00  0.00     0.029 A 
ENDBRANCH  11  14
ENDBRANCH   9  10
ENDBRANCH   8   9
ENDBRANCH   5   8
BRANCH   1  20
ATOM     20  C   UNL d   1      -0.279  -2.678  -0.074  0.00  0.00     0.193 C 
BRANCH  20  21
ATOM     21  C   UNL d   1      -1.616  -3.376  -0.378  0.00  0.00     0.276 C 
BRANCH  21  22
ATOM     22  O   UNL d   1      -2.022  -3.030  -1.705  0.00  0.00    -0.364 OA
ATOM     23  C   UNL d   1      -3.341  -3.481  -1.989  0.00  0.00     0.204 C 
ENDBRANCH  21  22
BRANCH  21  24
ATOM     24  O   UNL d   1      -1.459  -4.800  -0.290  0.00  0.00    -0.364 OA
ATOM     25  C   UNL d   1      -1.172  -5.261   1.024  0.00  0.00     0.204 C 
ENDBRANCH  21  24
ENDBRANCH  20  21
ENDBRANCH   1  20
BRANCH   2  26
ATOM     26  C   UNL d   1       2.303  -1.026  -0.726  0.00  0.00     0.009 A 
ATOM     27  C   UNL d   1       3.149  -0.388  -1.645  0.00  0.00     0.015 A 
ATOM     28  C   UNL d   1       4.426  -0.889  -1.918  0.00  0.00     0.001 A 
ATOM     29  C   UNL d   1       4.882  -2.035  -1.270  0.00  0.00     0.000 A 
ATOM     30  C   UNL d   1       4.084  -2.645  -0.309  0.00  0.00     0.001 A 
ATOM     31  C   UNL d   1       2.819  -2.127  -0.020  0.00  0.00     0.015 A 
ENDBRANCH   2  26
TORSDOF 9
