REMARK  8 active torsions:
REMARK  status: ('A' for Active; 'I' for Inactive)
REMARK    1  A    between atoms: C_13  and  N_2 
REMARK       I    between atoms: C_4  and  N_9 
REMARK    2  A    between atoms: C_16  and  C_4 
REMARK    3  A    between atoms: C_6  and  C_17 
REMARK    4  A    between atoms: O_12  and  C_6 
REMARK    5  A    between atoms: N_9  and  C_15 
REMARK    6  A    between atoms: O_11  and  C_16 
REMARK    7  A    between atoms: C_17  and  O_11 
REMARK    8  A    between atoms: C_15  and  C_13 
ROOT
ATOM      1  C   UNL d   1      -2.719  -4.690  -0.098  0.00  0.00     0.241 C 
ATOM      2  O   UNL d   1      -2.572  -4.473   1.100  0.00  0.00    -0.271 OA
ATOM      3  N   UNL d   1      -2.390  -3.773  -1.071  0.00  0.00    -0.358 N 
ATOM      4  H   UNL d   1      -2.435  -4.018  -2.053  0.00  0.00     0.162 HD
ENDROOT
BRANCH   3   5
ATOM      5  C   UNL d   1      -1.882  -2.448  -0.743  0.00  0.00     0.142 C 
BRANCH   5   6
ATOM      6  C   UNL d   1      -0.368  -2.432  -0.493  0.00  0.00     0.147 C 
BRANCH   6   7
ATOM      7  N   UNL d   1       0.379  -2.880  -1.656  0.00  0.00    -0.331 N 
ATOM      8  C   UNL d   1       0.436  -2.197  -2.869  0.00  0.00     0.318 C 
ATOM      9  N   UNL d   1       1.330  -2.877  -3.682  0.00  0.00    -0.341 N 
ATOM     10  O   UNL d   1      -0.193  -1.207  -3.192  0.00  0.00    -0.247 OA
ATOM     11  C   UNL d   1       1.707  -4.125  -3.069  0.00  0.00     0.144 C 
ATOM     12  H   UNL d   1       1.371  -2.657  -4.668  0.00  0.00     0.164 HD
ATOM     13  C   UNL d   1       1.422  -3.878  -1.595  0.00  0.00     0.147 C 
ENDBRANCH   6   7
ENDBRANCH   5   6
ENDBRANCH   3   5
BRANCH   1  14
ATOM     14  C   UNL d   1      -3.338  -5.995  -0.636  0.00  0.00     0.271 C 
BRANCH  14  15
ATOM     15  O   UNL d   1      -4.374  -6.593   0.143  0.00  0.00    -0.372 OA
BRANCH  15  16
ATOM     16  C   UNL d   1      -5.486  -5.721   0.341  0.00  0.00     0.277 C 
BRANCH  16  17
ATOM     17  C   UNL d   1      -6.284  -5.515  -0.938  0.00  0.00     0.164 C 
ATOM     18  O   UNL d   1      -6.566  -4.428  -1.417  0.00  0.00    -0.648 OA
BRANCH  17  19
ATOM     19  O   UNL d   1      -6.621  -6.691  -1.525  0.00  0.00    -0.775 OA
ATOM     20  H   UNL d   1      -6.256  -7.449  -1.021  0.00  0.00     0.167 HD
ENDBRANCH  17  19
ENDBRANCH  16  17
ENDBRANCH  15  16
ENDBRANCH  14  15
ENDBRANCH   1  14
TORSDOF 8
