REMARK  4 active torsions:
REMARK  status: ('A' for Active; 'I' for Inactive)
REMARK       I    between atoms: N_2  and  C_1 
REMARK    1  A    between atoms: O_3  and  C_1 
REMARK    2  A    between atoms: C_11  and  N_2 
REMARK    3  A    between atoms: C_14  and  O_3 
REMARK    4  A    between atoms: C_4  and  C_5 
ROOT
ATOM      1  C   UNL d   1       1.060   0.145  -0.108  0.00  0.00     0.365 C 
ATOM      2  N   UNL d   1       0.493   0.980   0.816  0.00  0.00    -0.303 N 
ATOM      3  O   UNL d   1       2.248  -0.048  -0.308  0.00  0.00    -0.238 OA
ATOM      4  H   UNL d   1      -0.510   0.882   0.901  0.00  0.00     0.171 HD
ENDROOT
BRANCH   2   5
ATOM      5  C   UNL d   1       1.166   1.833   1.710  0.00  0.00     0.036 A 
ATOM      6  C   UNL d   1       2.523   2.137   1.594  0.00  0.00     0.030 A 
ATOM      7  C   UNL d   1       3.149   2.970   2.527  0.00  0.00     0.017 A 
ATOM      8  C   UNL d   1       2.426   3.519   3.589  0.00  0.00     0.009 A 
ATOM      9  C   UNL d   1       1.064   3.226   3.708  0.00  0.00     0.017 A 
ATOM     10  C   UNL d   1       0.436   2.397   2.764  0.00  0.00     0.030 A 
BRANCH   8  11
ATOM     11  C   UNL d   1       3.167   4.375   4.556  0.00  0.00     0.155 C 
ATOM     12  O   UNL d   1       4.383   4.231   4.679  0.00  0.00    -0.293 OA
ATOM     13  C   UNL d   1       2.442   5.434   5.345  0.00  0.00     0.096 C 
ENDBRANCH   8  11
ENDBRANCH   2   5
BRANCH   1  14
ATOM     14  O   UNL d   1       0.072  -0.513  -0.777  0.00  0.00    -0.298 OA
BRANCH  14  15
ATOM     15  C   UNL d   1       0.524  -1.545  -1.679  0.00  0.00     0.143 C 
ATOM     16  C   UNL d   1       1.081  -0.977  -2.983  0.00  0.00     0.043 C 
ATOM     17  C   UNL d   1      -0.093  -0.406  -3.759  0.00  0.00     0.076 C 
ATOM     18  S   UNL d   1      -1.444  -1.585  -3.499  0.00  0.00    -0.166 SA
ATOM     19  C   UNL d   1      -0.670  -2.413  -2.073  0.00  0.00     0.106 C 
ENDBRANCH  14  15
ENDBRANCH   1  14
TORSDOF 4
