REMARK  4 active torsions:
REMARK  status: ('A' for Active; 'I' for Inactive)
REMARK    1  A    between atoms: C_9  and  C_5 
REMARK    2  A    between atoms: N_7  and  C_10 
REMARK    3  A    between atoms: N_8  and  C_14 
REMARK       I    between atoms: N_15  and  C_9 
REMARK    4  A    between atoms: C_24  and  N_15 
ROOT
ATOM      1  C   UNL d   1      -0.546   0.597   0.254  0.00  0.00     0.005 A 
ATOM      2  C   UNL d   1      -1.060  -0.728   0.302  0.00  0.00     0.029 A 
ATOM      3  C   UNL d   1       1.283  -0.875   0.244  0.00  0.00     0.028 A 
ATOM      4  C   UNL d   1       0.915   0.489   0.194  0.00  0.00    -0.010 A 
ATOM      5  C   UNL d   1      -1.485   1.626   0.202  0.00  0.00     0.046 A 
ATOM      6  C   UNL d   1       0.058  -1.676   0.324  0.00  0.00     0.194 A 
ATOM      7  C   UNL d   1      -3.310  -0.044   0.191  0.00  0.00     0.104 A 
ATOM      8  C   UNL d   1      -2.397  -1.086   0.262  0.00  0.00     0.052 A 
ATOM      9  C   UNL d   1      -2.866   1.292   0.184  0.00  0.00     0.054 A 
ATOM     10  C   UNL d   1       2.572  -1.371   0.192  0.00  0.00     0.052 A 
ATOM     11  C   UNL d   1       3.586  -0.425   0.070  0.00  0.00     0.103 A 
ATOM     12  C   UNL d   1       1.940   1.415   0.063  0.00  0.00     0.016 A 
ATOM     13  O   UNL d   1      -0.015  -2.884   0.383  0.00  0.00    -0.287 OA
ATOM     14  C   UNL d   1       3.276   0.956   0.007  0.00  0.00     0.037 A 
ENDROOT
BRANCH   5  15
ATOM     15  C   UNL d   1      -1.241   3.072  -0.007  0.00  0.00     0.252 C 
ATOM     16  N   UNL d   1      -0.420   3.748   0.865  0.00  0.00    -0.353 N 
ATOM     17  H   UNL d   1      -0.073   3.255   1.677  0.00  0.00     0.163 HD
ATOM     18  O   UNL d   1      -1.874   3.611  -0.912  0.00  0.00    -0.268 OA
BRANCH  16  19
ATOM     19  C   UNL d   1      -0.340   5.218   0.908  0.00  0.00     0.076 C 
ATOM     20  C   UNL d   1      -0.246   5.888  -0.468  0.00  0.00     0.032 C 
ATOM     21  C   UNL d   1      -1.486   5.833   1.718  0.00  0.00     0.032 C 
ENDBRANCH  16  19
ENDBRANCH   5  15
BRANCH   7  22
ATOM     22  N   UNL d   1      -4.740  -0.341   0.062  0.00  0.00    -0.116 N 
ATOM     23  O   UNL d   1      -5.071  -1.528  -0.055  0.00  0.00    -0.532 OA
ATOM     24  O   UNL d   1      -5.528   0.614   0.078  0.00  0.00    -0.532 OA
ENDBRANCH   7  22
BRANCH  11  25
ATOM     25  N   UNL d   1       4.981  -0.882  -0.005  0.00  0.00    -0.116 N 
ATOM     26  O   UNL d   1       5.187  -2.104  -0.068  0.00  0.00    -0.532 OA
ATOM     27  O   UNL d   1       5.867  -0.017   0.003  0.00  0.00    -0.532 OA
ENDBRANCH  11  25
TORSDOF 4
