REMARK  3 active torsions:
REMARK  status: ('A' for Active; 'I' for Inactive)
REMARK    1  A    between atoms: C_8  and  N_1 
REMARK    2  A    between atoms: S_13  and  C_2 
REMARK    3  A    between atoms: C_21  and  S_13 
ROOT
ATOM      1  C   UNL d   1       6.459  -1.185   0.289  0.00  0.00    -0.107 C 
ATOM      2  C   UNL d   1       7.550  -1.689   0.242  0.00  0.00     0.013 C 
ATOM      3  C   UNL d   1       5.127  -0.565   0.346  0.00  0.00     0.175 C 
ENDROOT
BRANCH   3   4
ATOM      4  S   UNL d   1       3.980  -1.403  -0.786  0.00  0.00    -0.081 SA
BRANCH   4   5
ATOM      5  C   UNL d   1       2.450  -0.673  -0.240  0.00  0.00     0.156 C 
ATOM      6  N   UNL d   1       1.296  -1.452  -0.099  0.00  0.00    -0.277 N 
ATOM      7  C   UNL d   1       0.068  -0.714   0.007  0.00  0.00     0.130 A 
ATOM      8  C   UNL d   1       0.113   0.674   0.106  0.00  0.00     0.077 A 
ATOM      9  N   UNL d   1      -1.139  -1.347   0.017  0.00  0.00    -0.351 N 
ATOM     10  C   UNL d   1       1.421   1.330   0.193  0.00  0.00     0.261 C 
ATOM     11  C   UNL d   1      -1.070   1.424   0.148  0.00  0.00     0.022 A 
ATOM     12  O   UNL d   1       1.465   2.517   0.497  0.00  0.00    -0.267 OA
ATOM     13  N   UNL d   1       2.544   0.612  -0.105  0.00  0.00    -0.303 N 
ATOM     14  HN  UNL d   1       3.443   1.080  -0.218  1.00  0.00     0.171 HD
ATOM     15  C   UNL d   1      -2.291   0.768   0.108  0.00  0.00     0.018 A 
ATOM     16  C   UNL d   1      -2.274  -0.611   0.058  0.00  0.00     0.090 A 
ATOM     17  HN  UNL d   1      -1.186  -2.365  -0.007  1.00  0.00     0.166 HD
BRANCH   6  18
ATOM     18  C   UNL d   1       1.309  -2.890  -0.144  0.00  0.00     0.043 A 
ATOM     19  C   UNL d   1       2.220  -3.643   0.622  0.00  0.00     0.031 A 
ATOM     20  C   UNL d   1       2.263  -5.041   0.539  0.00  0.00     0.021 A 
ATOM     21  C   UNL d   1       1.360  -5.713  -0.278  0.00  0.00     0.011 A 
ATOM     22  C   UNL d   1       0.418  -5.002  -1.011  0.00  0.00     0.021 A 
ATOM     23 BR   UNL d   1       1.413  -7.598  -0.392  0.00  0.00    -0.051 Br
ATOM     24  C   UNL d   1       0.403  -3.604  -0.951  0.00  0.00     0.031 A 
ENDBRANCH   6  18
ENDBRANCH   4   5
ENDBRANCH   3   4
TORSDOF 3
