REMARK  6 active torsions:
REMARK  status: ('A' for Active; 'I' for Inactive)
REMARK    1  A    between atoms: C_2  and  C_1 
REMARK       I    between atoms: N_4  and  C_1 
REMARK    2  A    between atoms: C_3  and  N_5 
REMARK    3  A    between atoms: N_12  and  C_3 
REMARK    4  A    between atoms: N_5  and  N_4 
REMARK    5  A    between atoms: C_15  and  N_12 
REMARK    6  A    between atoms: C_13  and  C_15 
ROOT
ATOM      1  C   UNL d   1       0.632  -0.631  -0.520  0.00  0.00     0.293 C 
ATOM      2  N   UNL d   1       0.170   0.407  -1.307  0.00  0.00    -0.262 N 
ATOM      3  O   UNL d   1      -0.112  -1.294   0.200  0.00  0.00    -0.264 OA
ATOM      4  H   UNL d   1       0.829   0.982  -1.826  0.00  0.00     0.190 HD
ENDROOT
BRANCH   2   5
ATOM      5  N   UNL d   1      -1.119   0.914  -1.111  0.00  0.00    -0.273 N 
ATOM      6  H   UNL d   1      -1.637   0.488  -0.343  0.00  0.00     0.189 HD
BRANCH   5   7
ATOM      7  C   UNL d   1      -1.855   1.394  -2.166  0.00  0.00     0.186 C 
ATOM      8  S   UNL d   1      -1.415   1.344  -3.777  0.00  0.00    -0.040 SA
BRANCH   7   9
ATOM      9  N   UNL d   1      -3.023   2.019  -1.827  0.00  0.00    -0.363 N 
ATOM     10  H   UNL d   1      -3.545   2.354  -2.628  0.00  0.00     0.162 HD
BRANCH   9  11
ATOM     11  C   UNL d   1      -3.244   2.735  -0.586  0.00  0.00     0.148 C 
BRANCH  11  12
ATOM     12  C   UNL d   1      -4.430   2.146   0.097  0.00  0.00    -0.018 C 
ATOM     13  C   UNL d   1      -4.392   1.564   1.303  0.00  0.00     0.008 C 
ENDBRANCH  11  12
ENDBRANCH   9  11
ENDBRANCH   7   9
ENDBRANCH   5   7
ENDBRANCH   2   5
BRANCH   1  14
ATOM     14  C   UNL d   1       2.066  -0.813  -0.601  0.00  0.00     0.144 A 
ATOM     15  O   UNL d   1       2.816   0.103  -1.298  0.00  0.00    -0.317 OA
ATOM     16  C   UNL d   1       4.116  -0.261  -1.172  0.00  0.00     0.143 A 
ATOM     17  C   UNL d   1       4.225  -1.405  -0.418  0.00  0.00     0.027 A 
ATOM     18  C   UNL d   1       2.904  -1.764  -0.052  0.00  0.00     0.045 A 
ENDBRANCH   1  14
TORSDOF 6
