REMARK  8 active torsions:
REMARK  status: ('A' for Active; 'I' for Inactive)
REMARK    1  A    between atoms: C_12  and  C_3 
REMARK    2  A    between atoms: C_17  and  C_4 
REMARK    3  A    between atoms: C_7  and  N_9 
REMARK    4  A    between atoms: N_14  and  C_7 
REMARK    5  A    between atoms: C_8  and  C_16 
REMARK       I    between atoms: N_10  and  C_8 
REMARK    6  A    between atoms: N_9  and  N_10 
REMARK    7  A    between atoms: S_15  and  C_17 
REMARK    8  A    between atoms: C_16  and  S_15 
ROOT
ATOM      1  S   UNL d   1       1.722  -3.290   0.019  0.00  0.00    -0.153 SA
ENDROOT
BRANCH   1   2
ATOM      2  C   UNL d   1       0.000  -2.636  -0.024  0.00  0.00     0.139 C 
BRANCH   2   3
ATOM      3  C   UNL d   1       0.095  -1.131  -0.040  0.00  0.00     0.060 A 
ATOM      4  N   UNL d   1       0.199  -0.394  -1.130  0.00  0.00    -0.352 N 
ATOM      5  C   UNL d   1       0.482   0.924  -0.793  0.00  0.00     0.049 A 
ATOM      6  HN  UNL d   1       0.088  -0.742  -2.082  1.00  0.00     0.166 HD
ATOM      7  C   UNL d   1       0.496   1.180   0.565  0.00  0.00     0.081 A 
ATOM      8  S   UNL d   1       0.181  -0.256   1.444  0.00  0.00    -0.086 SA
BRANCH   5   9
ATOM      9  C   UNL d   1       0.694   1.951  -1.809  0.00  0.00    -0.009 A 
ATOM     10  C   UNL d   1       0.055   1.838  -3.051  0.00  0.00     0.014 A 
ATOM     11  C   UNL d   1       0.183   2.844  -4.014  0.00  0.00     0.001 A 
ATOM     12  C   UNL d   1       0.966   3.966  -3.752  0.00  0.00     0.000 A 
ATOM     13  C   UNL d   1       1.639   4.075  -2.537  0.00  0.00     0.001 A 
ATOM     14  C   UNL d   1       1.508   3.071  -1.572  0.00  0.00     0.014 A 
ENDBRANCH   5   9
ENDBRANCH   2   3
ENDBRANCH   1   2
BRANCH   1  15
ATOM     15  C   UNL d   1       1.458  -5.095   0.012  0.00  0.00     0.178 C 
BRANCH  15  16
ATOM     16  C   UNL d   1       2.782  -5.879   0.041  0.00  0.00     0.245 C 
ATOM     17  N   UNL d   1       3.952  -5.151   0.051  0.00  0.00    -0.267 N 
ATOM     18  H   UNL d   1       3.952  -4.129   0.049  0.00  0.00     0.190 HD
ATOM     19  O   UNL d   1       2.788  -7.117   0.073  0.00  0.00    -0.271 OA
BRANCH  17  20
ATOM     20  N   UNL d   1       5.183  -5.817   0.092  0.00  0.00    -0.274 N 
ATOM     21  H   UNL d   1       5.122  -6.832   0.082  0.00  0.00     0.189 HD
BRANCH  20  22
ATOM     22  C   UNL d   1       6.399  -5.145   0.127  0.00  0.00     0.186 C 
ATOM     23  S   UNL d   1       6.535  -3.477   0.136  0.00  0.00    -0.040 SA
BRANCH  22  24
ATOM     24  N   UNL d   1       7.461  -6.033   0.154  0.00  0.00    -0.370 N 
ATOM     25  C   UNL d   1       8.883  -5.730   0.183  0.00  0.00     0.148 C 
ATOM     26  H   UNL d   1       7.232  -7.016   0.150  0.00  0.00     0.161 HD
ENDBRANCH  22  24
ENDBRANCH  20  22
ENDBRANCH  17  20
ENDBRANCH  15  16
ENDBRANCH   1  15
TORSDOF 8
