REMARK  5 active torsions:
REMARK  status: ('A' for Active; 'I' for Inactive)
REMARK    1  A    between atoms: C_2  and  S_1 
REMARK    2  A    between atoms: N_5  and  S_1 
REMARK       I    between atoms: C_8  and  N_5 
REMARK       I    between atoms: N_13  and  C_8 
REMARK    3  A    between atoms: C_15  and  N_13 
REMARK    4  A    between atoms: C_16  and  C_15 
REMARK    5  A    between atoms: C_17  and  C_16 
ROOT
ATOM      1  S   UNL d   1       0.948   0.132   0.017  0.00  0.00     0.268 S 
ATOM      2  O   UNL d   1      -0.146  -0.811   0.102  0.00  0.00    -0.200 OA
ATOM      3  O   UNL d   1       2.196  -0.242  -0.611  0.00  0.00    -0.200 OA
ENDROOT
BRANCH   1   4
ATOM      4  C   UNL d   1       1.345   0.475   1.660  0.00  0.00     0.110 A 
ATOM      5  C   UNL d   1       0.452   0.893   2.615  0.00  0.00     0.099 A 
ATOM      6  S   UNL d   1       1.173   1.139   4.138  0.00  0.00    -0.064 SA
ATOM      7 CL   UNL d   1      -1.237   1.190   2.469  0.00  0.00    -0.075 Cl
ATOM      8  C   UNL d   1       2.688   0.692   3.532  0.00  0.00     0.077 A 
ATOM      9  C   UNL d   1       2.667   0.359   2.200  0.00  0.00     0.059 A 
ATOM     10 CL   UNL d   1       4.055   0.686   4.570  0.00  0.00    -0.076 Cl
ENDBRANCH   1   4
BRANCH   1  11
ATOM     11  N   UNL d   1       0.355   1.482  -0.749  0.00  0.00    -0.232 N 
ATOM     12  C   UNL d   1       0.978   2.713  -0.696  0.00  0.00     0.329 C 
ATOM     13  O   UNL d   1       1.983   2.915  -0.032  0.00  0.00    -0.246 OA
ATOM     14  N   UNL d   1       0.336   3.679  -1.415  0.00  0.00    -0.342 N 
ATOM     15  H   UNL d   1      -0.530   3.458  -1.879  0.00  0.00     0.164 HD
ATOM     16  H   UNL d   1      -0.379   1.280  -1.413  0.00  0.00     0.183 HD
BRANCH  14  17
ATOM     17  C   UNL d   1       0.805   5.051  -1.431  0.00  0.00     0.124 C 
BRANCH  17  18
ATOM     18  C   UNL d   1       1.809   5.327  -2.550  0.00  0.00     0.019 C 
BRANCH  18  19
ATOM     19  C   UNL d   1       1.193   5.185  -3.943  0.00  0.00    -0.003 C 
ATOM     20  C   UNL d   1       2.204   5.497  -5.036  0.00  0.00     0.005 C 
ENDBRANCH  18  19
ENDBRANCH  17  18
ENDBRANCH  14  17
ENDBRANCH   1  11
TORSDOF 5
