REMARK  5 active torsions:
REMARK  status: ('A' for Active; 'I' for Inactive)
REMARK    1  A    between atoms: C_10  and  C_2 
REMARK    2  A    between atoms: N_21  and  C_10 
REMARK    3  A    between atoms: O_16  and  N_11 
REMARK    4  A    between atoms: C_15  and  O_16 
REMARK    5  A    between atoms: C_17  and  C_15 
ROOT
ATOM      1  C   UNL d   1      -3.540  -1.450  -0.047  0.00  0.00     0.109 C 
ATOM      2  N   UNL d   1      -3.667  -2.734   0.116  0.00  0.00    -0.246 N 
ATOM      3  HN  UNL d   1      -4.558  -3.197   0.295  1.00  0.00     0.196 HD
ENDROOT
BRANCH   1   4
ATOM      4  C   UNL d   1      -4.782  -0.599  -0.007  0.00  0.00     0.006 A 
ATOM      5  C   UNL d   1      -4.776   0.630  -0.704  0.00  0.00     0.048 A 
ATOM      6  C   UNL d   1      -5.969   1.371  -0.607  0.00  0.00     0.086 A 
ATOM      7  C   UNL d   1      -7.123   0.905   0.149  0.00  0.00     0.085 A 
ATOM      8  N   UNL d   1      -6.272   2.560  -1.143  0.00  0.00    -0.240 N 
ATOM      9  N   UNL d   1      -8.088   1.827   0.053  0.00  0.00    -0.240 N 
ATOM     10  C   UNL d   1      -7.123  -0.323   0.834  0.00  0.00     0.035 A 
ATOM     11  O   UNL d   1      -7.569   2.836  -0.742  0.00  0.00    -0.156 OA
ATOM     12  HN  UNL d   1      -9.015   1.793   0.477  1.00  0.00     0.197 HD
ATOM     13  C   UNL d   1      -5.920  -1.057   0.725  0.00  0.00     0.017 A 
ATOM     14  HN  UNL d   1      -5.672   3.143  -1.726  1.00  0.00     0.197 HD
ENDBRANCH   1   4
BRANCH   1  15
ATOM     15  N   UNL d   1      -2.327  -0.831  -0.242  0.00  0.00    -0.286 NA
ATOM     16  H   UNL d   1      -2.236   0.101   0.151  0.00  0.00     0.125 HD
ATOM     17  H   UNL d   1      -1.546  -1.426   0.009  0.00  0.00     0.125 HD
ENDBRANCH   1  15
BRANCH   2  18
ATOM     18  O   UNL d   1      -2.427  -3.418   0.015  0.00  0.00    -0.193 OA
BRANCH  18  19
ATOM     19  C   UNL d   1      -2.648  -4.767   0.098  0.00  0.00     0.315 C 
ATOM     20  O   UNL d   1      -3.724  -5.328   0.275  0.00  0.00    -0.257 OA
BRANCH  19  21
ATOM     21  C   UNL d   1      -1.384  -5.549  -0.055  0.00  0.00     0.041 A 
ATOM     22  C   UNL d   1      -1.481  -6.952  -0.018  0.00  0.00     0.019 A 
ATOM     23  C   UNL d   1      -0.346  -7.757  -0.153  0.00  0.00     0.025 A 
ATOM     24  C   UNL d   1       0.900  -7.164  -0.327  0.00  0.00     0.034 A 
ATOM     25  C   UNL d   1       1.018  -5.773  -0.365  0.00  0.00     0.025 A 
ATOM     26 CL   UNL d   1       2.299  -8.150  -0.496  0.00  0.00    -0.084 Cl
ATOM     27  C   UNL d   1      -0.121  -4.963  -0.231  0.00  0.00     0.019 A 
ENDBRANCH  19  21
ENDBRANCH  18  19
ENDBRANCH   2  18
TORSDOF 5
