REMARK  2 active torsions:
REMARK  status: ('A' for Active; 'I' for Inactive)
REMARK    1  A    between atoms: S_11  and  C_2 
REMARK    2  A    between atoms: C_9  and  C_6 
ROOT
ATOM      1  C   UNL d   1      -1.392  -0.356  -0.039  0.00  0.00     0.135 C 
ATOM      2  C   UNL d   1      -0.488  -1.348  -0.158  0.00  0.00     0.065 C 
ATOM      3  S   UNL d   1       1.202  -1.093  -0.490  0.00  0.00    -0.091 SA
ATOM      4  C   UNL d   1      -1.006   1.078  -0.080  0.00  0.00     0.265 C 
ATOM      5  N   UNL d   1       0.296   1.437  -0.168  0.00  0.00    -0.339 N 
ATOM      6  C   UNL d   1       1.469   0.619  -0.057  0.00  0.00     0.186 C 
ATOM      7  C   UNL d   1      -2.795  -0.613   0.095  0.00  0.00     0.107 C 
ATOM      8  N   UNL d   1      -3.929  -0.851   0.159  0.00  0.00    -0.191 NA
ATOM      9  O   UNL d   1      -1.849   1.970  -0.030  0.00  0.00    -0.267 OA
ATOM     10  H   UNL d   1       0.434   2.439  -0.138  0.00  0.00     0.164 HD
ENDROOT
BRANCH   2  11
ATOM     11  S   UNL d   1      -0.964  -3.035   0.053  0.00  0.00    -0.126 SA
ATOM     12  C   UNL d   1      -0.583  -3.724  -1.574  0.00  0.00     0.096 C 
ENDBRANCH   2  11
BRANCH   6  13
ATOM     13  C   UNL d   1       2.194   0.796   1.265  0.00  0.00    -0.025 A 
ATOM     14  C   UNL d   1       1.573   0.529   2.496  0.00  0.00     0.012 A 
ATOM     15  C   UNL d   1       2.276   0.670   3.698  0.00  0.00     0.024 A 
ATOM     16  C   UNL d   1       3.606   1.083   3.684  0.00  0.00     0.034 A 
ATOM     17  C   UNL d   1       4.242   1.359   2.478  0.00  0.00     0.024 A 
ATOM     18 CL   UNL d   1       4.468   1.249   5.163  0.00  0.00    -0.084 Cl
ATOM     19  C   UNL d   1       3.541   1.214   1.276  0.00  0.00     0.012 A 
ENDBRANCH   6  13
TORSDOF 2
