REMARK  8 active torsions:
REMARK  status: ('A' for Active; 'I' for Inactive)
REMARK    1  A    between atoms: S_3  and  C_1 
REMARK    2  A    between atoms: N_7  and  C_2 
REMARK    3  A    between atoms: C_18  and  S_3 
REMARK    4  A    between atoms: C_11  and  C_4 
REMARK    5  A    between atoms: N_9  and  N_7 
REMARK    6  A    between atoms: C_12  and  C_8 
REMARK    7  A    between atoms: O_23  and  C_11 
REMARK    8  A    between atoms: C_17  and  C_12 
ROOT
ATOM      1  C   UNL d   1       3.655   3.409   0.500  0.00  0.00     0.179 C 
ATOM      2  N   UNL d   1       2.549   3.027  -0.078  0.00  0.00    -0.287 N 
ATOM      3  HN  UNL d   1       2.590   2.417  -0.895  1.00  0.00     0.188 HD
ATOM      4  C   UNL d   1       3.603   4.277   1.650  0.00  0.00     0.123 C 
ATOM      5  N   UNL d   1       3.553   5.009   2.554  0.00  0.00    -0.190 NA
ENDROOT
BRANCH   1   6
ATOM      6  C   UNL d   1       4.960   2.888  -0.033  0.00  0.00     0.220 C 
ATOM      7  O   UNL d   1       5.809   2.517   0.769  0.00  0.00    -0.284 OA
BRANCH   6   8
ATOM      8  C   UNL d   1       5.191   2.786  -1.496  0.00  0.00     0.017 A 
ATOM      9  C   UNL d   1       4.484   3.574  -2.414  0.00  0.00     0.017 A 
ATOM     10  C   UNL d   1       4.719   3.431  -3.784  0.00  0.00     0.025 A 
ATOM     11  C   UNL d   1       5.661   2.510  -4.239  0.00  0.00     0.034 A 
ATOM     12  C   UNL d   1       6.378   1.730  -3.333  0.00  0.00     0.025 A 
ATOM     13 CL   UNL d   1       5.940   2.339  -5.927  0.00  0.00    -0.084 Cl
ATOM     14  C   UNL d   1       6.149   1.872  -1.961  0.00  0.00     0.017 A 
ENDBRANCH   6   8
ENDBRANCH   1   6
BRANCH   2  15
ATOM     15  N   UNL d   1       1.339   3.436   0.397  0.00  0.00    -0.297 N 
ATOM     16  H   UNL d   1       1.230   4.418   0.712  0.00  0.00     0.187 HD
BRANCH  15  17
ATOM     17  C   UNL d   1       0.196   2.721   0.169  0.00  0.00     0.093 A 
ATOM     18  C   UNL d   1      -1.099   3.341   0.053  0.00  0.00     0.095 A 
ATOM     19  C   UNL d   1      -2.112   2.425  -0.122  0.00  0.00     0.076 A 
ATOM     20  S   UNL d   1      -1.519   0.838  -0.240  0.00  0.00    -0.092 SA
ATOM     21  C   UNL d   1       0.116   1.341  -0.000  0.00  0.00     0.109 A 
BRANCH  18  22
ATOM     22  S   UNL d   1      -1.417   5.053   0.088  0.00  0.00     0.181 S 
ATOM     23  O   UNL d   1      -2.712   5.151   0.725  0.00  0.00    -0.222 OA
ATOM     24  O   UNL d   1      -0.221   5.630   0.675  0.00  0.00    -0.222 OA
BRANCH  22  25
ATOM     25  C   UNL d   1      -1.557   5.556  -1.634  0.00  0.00     0.105 C 
ATOM     26  C   UNL d   1      -2.020   7.013  -1.712  0.00  0.00     0.026 C 
ATOM     27  C   UNL d   1      -0.243   5.391  -2.392  0.00  0.00     0.026 C 
ENDBRANCH  22  25
ENDBRANCH  18  22
BRANCH  21  28
ATOM     28  C   UNL d   1       1.108   0.276  -0.006  0.00  0.00     0.302 C 
ATOM     29  O   UNL d   1       1.030  -0.756  -0.668  0.00  0.00    -0.259 OA
BRANCH  28  30
ATOM     30  O   UNL d   1       2.127   0.521   0.870  0.00  0.00    -0.322 OA
ATOM     31  C   UNL d   1       3.124  -0.503   0.890  0.00  0.00     0.213 C 
ENDBRANCH  28  30
ENDBRANCH  21  28
ENDBRANCH  15  17
ENDBRANCH   2  15
TORSDOF 8
