REMARK  3 active torsions:
REMARK  status: ('A' for Active; 'I' for Inactive)
REMARK    1  A    between atoms: C_6  and  C_2 
REMARK    2  A    between atoms: C_4  and  C_6 
REMARK    3  A    between atoms: N_10  and  C_8 
ROOT
ATOM      1  C   UNL d   1      -3.982  -0.605   0.029  0.00  0.00     0.190 C 
ATOM      2  O   UNL d   1      -2.767  -0.409  -0.025  0.00  0.00    -0.287 OA
ENDROOT
BRANCH   1   3
ATOM      3  C   UNL d   1      -4.487  -2.018   0.052  0.00  0.00     0.073 C 
ATOM      4  C   UNL d   1      -3.628  -3.048   0.016  0.00  0.00     0.088 C 
BRANCH   4   5
ATOM      5  N   UNL d   1      -3.870  -4.417   0.029  0.00  0.00    -0.398 N 
ATOM      6  C   UNL d   1      -5.194  -5.032   0.092  0.00  0.00     0.148 C 
ATOM      7  C   UNL d   1      -2.772  -5.387  -0.023  0.00  0.00     0.148 C 
ENDBRANCH   4   5
ENDBRANCH   1   3
BRANCH   1   8
ATOM      8  C   UNL d   1      -4.920   0.519   0.071  0.00  0.00     0.056 A 
ATOM      9  S   UNL d   1      -6.624   0.349   0.153  0.00  0.00    -0.079 SA
ATOM     10  C   UNL d   1      -6.861   2.025   0.161  0.00  0.00     0.052 A 
ATOM     11  C   UNL d   1      -5.693   2.737   0.102  0.00  0.00     0.028 A 
ATOM     12 BR   UNL d   1      -8.554   2.823   0.241  0.00  0.00    -0.043 Br
ATOM     13  C   UNL d   1      -4.567   1.862   0.051  0.00  0.00     0.025 A 
ENDBRANCH   1   8
TORSDOF 3
