REMARK  4 active torsions:
REMARK  status: ('A' for Active; 'I' for Inactive)
REMARK    1  A    between atoms: C_2  and  S_1 
REMARK    2  A    between atoms: N_5  and  S_1 
REMARK    3  A    between atoms: N_9  and  N_5 
REMARK       I    between atoms: C_10  and  N_9 
REMARK       I    between atoms: N_13  and  C_10 
REMARK    4  A    between atoms: C_15  and  N_13 
ROOT
ATOM      1  N   UNL d   1       0.759  -1.529   0.218  0.00  0.00    -0.219 N 
ATOM      2  H   UNL d   1      -0.202  -1.566   0.580  0.00  0.00     0.200 HD
ENDROOT
BRANCH   1   3
ATOM      3  S   UNL d   1       1.334  -0.044  -0.302  0.00  0.00     0.280 S 
ATOM      4  O   UNL d   1       0.536   0.986   0.320  0.00  0.00    -0.199 OA
ATOM      5  O   UNL d   1       2.779  -0.079  -0.212  0.00  0.00    -0.199 OA
BRANCH   3   6
ATOM      6  C   UNL d   1       0.991   0.111  -1.967  0.00  0.00     0.136 A 
ATOM      7  C   UNL d   1       1.850   0.365  -3.011  0.00  0.00     0.098 A 
ATOM      8  O   UNL d   1       1.126   0.418  -4.164  0.00  0.00    -0.241 OA
ATOM      9  C   UNL d   1       3.299   0.590  -3.178  0.00  0.00     0.081 C 
ATOM     10  N   UNL d   1      -0.206   0.183  -3.892  0.00  0.00    -0.264 N 
ATOM     11  C   UNL d   1      -0.286   0.004  -2.567  0.00  0.00     0.054 A 
ATOM     12  HN  UNL d   1      -0.974   0.153  -4.562  1.00  0.00     0.194 HD
ATOM     13  C   UNL d   1      -1.601  -0.278  -1.946  0.00  0.00     0.072 C 
ENDBRANCH   3   6
ENDBRANCH   1   3
BRANCH   1  14
ATOM     14  N   UNL d   1       1.353  -2.786  -0.213  0.00  0.00    -0.242 N 
ATOM     15  C   UNL d   1       0.519  -3.891  -0.197  0.00  0.00     0.339 C 
ATOM     16  N   UNL d   1       1.138  -5.044  -0.627  0.00  0.00    -0.308 N 
ATOM     17  O   UNL d   1      -0.653  -3.773   0.154  0.00  0.00    -0.245 OA
ATOM     18  H   UNL d   1       2.148  -5.052  -0.606  0.00  0.00     0.170 HD
ATOM     19  H   UNL d   1       2.235  -2.757  -0.716  0.00  0.00     0.192 HD
BRANCH  16  20
ATOM     20  C   UNL d   1       0.499  -6.255  -0.978  0.00  0.00     0.036 A 
ATOM     21  C   UNL d   1      -0.888  -6.384  -1.103  0.00  0.00     0.031 A 
ATOM     22  C   UNL d   1      -1.460  -7.575  -1.563  0.00  0.00     0.026 A 
ATOM     23  C   UNL d   1      -0.645  -8.649  -1.900  0.00  0.00     0.034 A 
ATOM     24  C   UNL d   1       0.736  -8.553  -1.745  0.00  0.00     0.026 A 
ATOM     25 CL   UNL d   1      -1.343 -10.088  -2.532  0.00  0.00    -0.084 Cl
ATOM     26  C   UNL d   1       1.306  -7.360  -1.283  0.00  0.00     0.031 A 
ENDBRANCH  16  20
ENDBRANCH   1  14
TORSDOF 4
