REMARK WARNING: 32 MAX_TORS EXCEEDED!!!
REMARK  34 active torsions:
REMARK  status: ('A' for Active; 'I' for Inactive)
REMARK    1  A    between atoms: N_2  and  S_1 
REMARK    2  A    between atoms: C_3  and  S_1 
REMARK       I    between atoms: C_7  and  N_2 
REMARK    3  A    between atoms: C_5  and  C_11 
REMARK       I    between atoms: N_62  and  C_5 
REMARK       I    between atoms: N_20  and  C_7 
REMARK    4  A    between atoms: C_8  and  C_19 
REMARK       I    between atoms: N_10  and  C_8 
REMARK    5  A    between atoms: C_11  and  N_10 
REMARK    6  A    between atoms: C_12  and  C_11 
REMARK    7  A    between atoms: C_13  and  C_12 
REMARK    8  A    between atoms: O_22  and  C_13 
REMARK    9  A    between atoms: O_28  and  C_14 
REMARK       I    between atoms: C16_49  and  N_15 
REMARK   10  A    between atoms: N_15  and  C_19 
REMARK   11  A    between atoms: C_19  and  C_32 
REMARK   12  A    between atoms: C_26  and  O_22 
REMARK   13  A    between atoms: C_36  and  N_27 
REMARK   14  A    between atoms: C_32  and  C_38 
REMARK   15  A    between atoms: C_38  and  C_36 
REMARK   16  A    between atoms: C3_44  and  C23_50 
REMARK   17  A    between atoms: O4_51  and  C16_49 
REMARK   18  A    between atoms: C23_50  and  O4_51 
REMARK   19  A    between atoms: C_61  and  CA_63 
REMARK       I    between atoms: N_70  and  C_61 
REMARK   20  A    between atoms: CA_63  and  N_62 
REMARK   21  A    between atoms: CB_65  and  CA_63 
REMARK   22  A    between atoms: CG_66  and  CB_65 
REMARK   23  A    between atoms: C_73  and  N_70 
REMARK   24  A    between atoms: C_71  and  C_73 
REMARK       I    between atoms: N_88  and  C_71 
REMARK       I    between atoms: C_72  and  N_78 
REMARK   25  A    between atoms: O_74  and  C_72 
REMARK   26  A    between atoms: C_79  and  C_73 
REMARK   27  A    between atoms: C_77  and  O_74 
REMARK   28  A    between atoms: N_78  and  C_83 
REMARK   29  A    between atoms: C_84  and  C_79 
REMARK   30  A    between atoms: C_83  and  C_85 
REMARK   31  A    between atoms: C_85  and  C_84 
REMARK   32  A    between atoms: CA_91  and  N_88 
REMARK   33  A    between atoms: C_89  and  CA_91 
REMARK   34  A    between atoms: OXT_92  and  C_89 
ROOT
ATOM      1  C   UNK d   1      -1.274  -2.043   8.576  0.00  0.00     0.241 C 
ATOM      2  N   UNK d   1      -2.046  -3.199   8.685  0.00  0.00    -0.346 N 
ATOM      3  O   UNK d   1      -0.526  -1.680   9.477  0.00  0.00    -0.271 OA
ATOM      4  H   UNK d   1      -2.198  -3.587   7.758  0.00  0.00     0.163 HD
ENDROOT
BRANCH   1   5
ATOM      5  C   UNK d   1      -1.526  -1.124   7.281  0.00  0.00     0.179 C 
BRANCH   5   6
ATOM      6  N   UNK d   1      -2.190  -1.890   6.215  0.00  0.00    -0.324 N 
ATOM      7  C16 <1> d   1      -1.389  -2.423   5.254  0.00  0.00     0.361 C 
ATOM      8  O9  <1> d   1      -0.234  -2.726   5.435  0.00  0.00    -0.239 OA
ATOM      9  H   UNK d   1      -3.045  -1.518   5.811  0.00  0.00     0.165 HD
BRANCH   7  10
ATOM     10  O4  <1> d   1      -2.045  -2.386   4.080  0.00  0.00    -0.303 OA
BRANCH  10  11
ATOM     11  C23 <1> d   1      -1.207  -2.192   2.930  0.00  0.00     0.194 C 
BRANCH  11  12
ATOM     12  C3  <1> d   1      -0.152  -3.275   2.664  0.00  0.00     0.078 A 
ATOM     13  C6  <1> d   1      -0.782  -4.604   2.299  0.00  0.00    -0.036 A 
ATOM     14  C4  <1> d   1      -0.468  -4.929   0.964  0.00  0.00    -0.018 A 
ATOM     15  C34 <1> d   1      -1.538  -5.447   3.102  0.00  0.00     0.009 A 
ATOM     16  C32 <1> d   1      -0.947  -6.105   0.411  0.00  0.00     0.013 A 
ATOM     17  C5  <1> d   1       0.393  -3.898   0.410  0.00  0.00    -0.018 A 
ATOM     18  C56 <1> d   1      -1.726  -6.954   1.210  0.00  0.00     0.001 A 
ATOM     19  C55 <1> d   1      -2.014  -6.630   2.546  0.00  0.00     0.001 A 
ATOM     20  C7  <1> d   1       0.628  -2.930   1.420  0.00  0.00    -0.036 A 
ATOM     21  C33 <1> d   1       0.970  -3.752  -0.830  0.00  0.00     0.013 A 
ATOM     22  C35 <1> d   1       1.470  -1.841   1.203  0.00  0.00     0.009 A 
ATOM     23  C58 <1> d   1       2.059  -1.707  -0.049  0.00  0.00     0.001 A 
ATOM     24  C57 <1> d   1       1.801  -2.653  -1.064  0.00  0.00     0.001 A 
ENDBRANCH  11  12
ENDBRANCH  10  11
ENDBRANCH   7  10
ENDBRANCH   5   6
BRANCH   5  25
ATOM     25  C   UNK d   1      -2.259   0.256   7.332  0.00  0.00     0.037 C 
BRANCH  25  26
ATOM     26  C   UNK d   1      -2.057   1.189   8.530  0.00  0.00     0.023 C 
BRANCH  26  27
ATOM     27  C   UNK d   1      -0.854   2.119   8.429  0.00  0.00     0.138 C 
BRANCH  27  28
ATOM     28  N   UNK d   1      -0.575   2.736   9.726  0.00  0.00    -0.226 N 
ATOM     29  C   UNK d   1       0.404   2.263  10.545  0.00  0.00     0.681 C 
ATOM     30  N   UNK d   1       0.351   2.829  11.815  0.00  0.00    -0.113 N 
ATOM     31  N   UNK d   1       1.255   1.394  10.151  0.00  0.00    -0.234 N 
ATOM     32  H   UNK d   1      -0.122   3.730  11.847  0.00  0.00     0.197 HD
ATOM     33  H   UNK d   1       1.894   1.103  10.880  0.00  0.00     0.174 HD
ATOM     34  HN  UNK d   1       1.286   1.030   9.199  1.00  0.00     0.174 HD
ATOM     35  H   UNK d   1      -1.396   3.094  10.197  0.00  0.00     0.177 HD
BRANCH  30  36
ATOM     36  S   UNK d   1       1.237   2.674  13.238  0.00  0.00     0.277 S 
ATOM     37  O   UNK d   1       0.588   1.804  14.141  0.00  0.00    -0.200 OA
ATOM     38  O   UNK d   1       1.425   4.047  13.668  0.00  0.00    -0.200 OA
BRANCH  36  39
ATOM     39  C   UNK d   1       2.854   2.020  12.813  0.00  0.00     0.092 C 
ATOM     40  C   UNK d   1       3.826   2.933  12.324  0.00  0.00    -0.029 C 
ATOM     41  C   UNK d   1       5.193   2.569  12.372  0.00  0.00    -0.021 C 
ATOM     42  C   UNK d   1       3.440   4.284  11.771  0.00  0.00     0.050 C 
ATOM     43  C   UNK d   1       6.290   3.579  12.141  0.00  0.00     0.052 C 
ATOM     44  C   UNK d   1       5.559   1.252  12.694  0.00  0.00     0.075 C 
ATOM     45  C   UNK d   1       4.575   0.318  12.997  0.00  0.00     0.045 C 
ATOM     46  C   UNK d   1       3.220   0.681  13.120  0.00  0.00    -0.035 C 
ATOM     47  C   UNK d   1       2.327  -0.476  13.502  0.00  0.00     0.050 C 
BRANCH  44  48
ATOM     48  O   UNK d   1       6.902   0.974  12.668  0.00  0.00    -0.355 OA
ATOM     49  C   UNK d   1       7.315  -0.270  13.224  0.00  0.00     0.210 C 
ENDBRANCH  44  48
ENDBRANCH  36  39
ENDBRANCH  30  36
ENDBRANCH  27  28
ENDBRANCH  26  27
ENDBRANCH  25  26
ENDBRANCH   5  25
ENDBRANCH   1   5
BRANCH   2  50
ATOM     50  C   UNK d   1      -2.032  -4.265   9.791  0.00  0.00     0.185 C 
BRANCH  50  51
ATOM     51  C   UNK d   1      -1.668  -3.791  11.417  0.00  0.00     0.241 C 
ATOM     52  N   LEU d   2      -2.410  -2.749  11.937  0.00  0.00    -0.346 N 
ATOM     53  H   LEU d   2      -3.198  -2.658  11.334  0.00  0.00     0.163 HD
ATOM     54  O   UNK d   1      -0.845  -4.381  12.117  0.00  0.00    -0.271 OA
BRANCH  52  55
ATOM     55  CA  LEU d   2      -2.765  -2.161  13.280  0.00  0.00     0.177 C 
BRANCH  55  56
ATOM     56  C   LEU d   2      -2.445  -2.441  14.753  0.00  0.00     0.241 C 
ATOM     57  N   UNK d   3      -1.363  -3.171  15.082  0.00  0.00    -0.346 N 
ATOM     58  H   UNK d   3      -0.835  -3.551  14.294  0.00  0.00     0.163 HD
ATOM     59  O   LEU d   2      -3.191  -1.978  15.626  0.00  0.00    -0.271 OA
BRANCH  57  60
ATOM     60  C   UNK d   3      -1.296  -3.913  16.345  0.00  0.00     0.176 C 
BRANCH  60  61
ATOM     61  C   UNK d   3      -1.529  -3.260  17.765  0.00  0.00     0.240 C 
ATOM     62  N   GLY d   4      -2.698  -2.558  17.962  0.00  0.00    -0.349 N 
ATOM     63  H   GLY d   4      -3.326  -2.538  17.159  0.00  0.00     0.163 HD
ATOM     64  O   UNK d   3      -0.794  -3.533  18.715  0.00  0.00    -0.271 OA
BRANCH  62  65
ATOM     65  CA  GLY d   4      -3.246  -2.347  19.301  0.00  0.00     0.232 C 
BRANCH  65  66
ATOM     66  C   GLY d   4      -4.379  -1.327  19.364  0.00  0.00     0.158 C 
ATOM     67  O   GLY d   4      -5.135  -1.204  20.318  0.00  0.00    -0.649 OA
BRANCH  66  68
ATOM     68  OXT GLY d   4      -4.448  -0.513  18.281  0.00  0.00    -0.775 OA
ATOM     69  HXT GLY d   4      -3.706  -0.682  17.660  0.00  0.00     0.167 HD
ENDBRANCH  66  68
ENDBRANCH  65  66
ENDBRANCH  62  65
ENDBRANCH  60  61
BRANCH  60  70
ATOM     70  C   UNK d   3      -2.038  -5.264  16.207  0.00  0.00     0.035 C 
BRANCH  70  71
ATOM     71  C   UNK d   3      -3.558  -5.398  16.466  0.00  0.00     0.004 C 
BRANCH  71  72
ATOM     72  C   UNK d   3      -4.639  -4.765  15.550  0.00  0.00     0.020 C 
BRANCH  72  73
ATOM     73  C   UNK d   3      -4.559  -5.051  14.043  0.00  0.00     0.125 C 
BRANCH  73  74
ATOM     74  N   UNK d   3      -5.309  -4.084  13.178  0.00  0.00    -0.337 N 
ATOM     75  C   UNK d   3      -4.869  -3.902  11.865  0.00  0.00     0.361 C 
ATOM     76  O   UNK d   3      -4.049  -4.685  11.463  0.00  0.00    -0.238 OA
ATOM     77  H   UNK d   3      -5.922  -3.395  13.587  0.00  0.00     0.164 HD
BRANCH  75  78
ATOM     78  O   UNK d   3      -5.283  -2.740  11.187  0.00  0.00    -0.294 OA
BRANCH  78  79
ATOM     79  C   UNK d   3      -5.019  -2.079   9.794  0.00  0.00     0.061 C 
ATOM     80  C   UNK d   3      -4.810  -2.850   8.464  0.00  0.00     0.046 C 
ATOM     81  C   UNK d   3      -6.230  -1.179   9.435  0.00  0.00     0.046 C 
ATOM     82  C   UNK d   3      -3.929  -1.033   9.910  0.00  0.00     0.046 C 
ENDBRANCH  78  79
ENDBRANCH  75  78
ENDBRANCH  73  74
ENDBRANCH  72  73
ENDBRANCH  71  72
ENDBRANCH  70  71
ENDBRANCH  60  70
ENDBRANCH  57  60
ENDBRANCH  55  56
BRANCH  55  83
ATOM     83  CB  LEU d   2      -3.115  -0.665  13.203  0.00  0.00     0.038 C 
BRANCH  83  84
ATOM     84  CG  LEU d   2      -1.906   0.242  13.293  0.00  0.00    -0.020 C 
ATOM     85  CD1 LEU d   2      -0.903  -0.170  12.230  0.00  0.00     0.009 C 
ATOM     86  CD2 LEU d   2      -2.403   1.684  13.163  0.00  0.00     0.009 C 
ENDBRANCH  83  84
ENDBRANCH  55  83
ENDBRANCH  52  55
ENDBRANCH  50  51
BRANCH  50  87
ATOM     87  C   UNK d   1      -3.155  -5.520   9.450  0.00  0.00     0.146 C 
BRANCH  87  88
ATOM     88  C   UNK d   1      -4.855  -5.856   9.512  0.00  0.00     0.262 C 
ATOM     89  O   UNK d   1      -5.231  -7.021   9.364  0.00  0.00    -0.265 OA
BRANCH  88  90
ATOM     90  O   UNK d   1      -5.785  -4.847   9.694  0.00  0.00    -0.311 OA
BRANCH  90  91
ATOM     91  C   UNK d   1      -7.305  -4.850   9.849  0.00  0.00     0.060 C 
ATOM     92  C   UNK d   1      -7.809  -3.760  10.863  0.00  0.00     0.045 C 
ATOM     93  C   UNK d   1      -7.996  -4.538   8.503  0.00  0.00     0.045 C 
ATOM     94  C   UNK d   1      -7.864  -6.134  10.454  0.00  0.00     0.045 C 
ENDBRANCH  90  91
ENDBRANCH  88  90
ENDBRANCH  87  88
ENDBRANCH  50  87
ENDBRANCH   2  50
TORSDOF 34
