REMARK  5 active torsions:
REMARK  status: ('A' for Active; 'I' for Inactive)
REMARK    1  A    between atoms: C_6  and  C_1 
REMARK    2  A    between atoms: C_9  and  C_3 
REMARK    3  A    between atoms: S_10  and  C_5 
REMARK    4  A    between atoms: O_14  and  C_6 
REMARK    5  A    between atoms: O_18  and  C_15 
ROOT
ATOM      1  C   UNL d   1       1.312  -1.285  -0.015  0.00  0.00     0.094 A 
ATOM      2  C   UNL d   1      -0.690  -0.067   0.148  0.00  0.00     0.081 A 
ATOM      3  C   UNL d   1      -0.077  -1.389   0.049  0.00  0.00     0.020 A 
ATOM      4  S   UNL d   1       1.830   0.349   0.071  0.00  0.00    -0.075 SA
ATOM      5  C   UNL d   1       0.236   0.952   0.106  0.00  0.00     0.063 A 
ATOM      6  C   UNL d   1      -2.103   0.170   0.235  0.00  0.00     0.102 C 
ATOM      7  N   UNL d   1      -3.248   0.364   0.307  0.00  0.00    -0.191 NA
ENDROOT
BRANCH   3   8
ATOM      8  C   UNL d   1      -0.785  -2.681  -0.020  0.00  0.00    -0.023 A 
ATOM      9  C   UNL d   1      -1.949  -2.809  -0.792  0.00  0.00     0.015 A 
ATOM     10  C   UNL d   1      -2.643  -4.024  -0.870  0.00  0.00     0.037 A 
ATOM     11  C   UNL d   1      -2.161  -5.151  -0.212  0.00  0.00     0.068 A 
ATOM     12  C   UNL d   1      -0.997  -5.041   0.548  0.00  0.00     0.037 A 
ATOM     13  C   UNL d   1      -0.330  -3.814   0.668  0.00  0.00     0.015 A 
BRANCH  11  14
ATOM     14  O   UNL d   1      -2.721  -6.397  -0.237  0.00  0.00    -0.356 OA
ATOM     15  C   UNL d   1      -3.949  -6.530  -0.944  0.00  0.00     0.210 C 
ENDBRANCH  11  14
ENDBRANCH   3   8
BRANCH   5  16
ATOM     16  S   UNL d   1      -0.030   2.693  -0.011  0.00  0.00    -0.126 SA
ATOM     17  C   UNL d   1      -0.883   3.070   1.533  0.00  0.00     0.096 C 
ENDBRANCH   5  16
BRANCH   1  18
ATOM     18  C   UNL d   1       2.315  -2.321  -0.213  0.00  0.00     0.300 C 
ATOM     19  O   UNL d   1       2.193  -3.303  -0.934  0.00  0.00    -0.259 OA
BRANCH  18  20
ATOM     20  O   UNL d   1       3.404  -2.094   0.583  0.00  0.00    -0.322 OA
ATOM     21  C   UNL d   1       4.385  -3.133   0.547  0.00  0.00     0.213 C 
ENDBRANCH  18  20
ENDBRANCH   1  18
TORSDOF 5
