REMARK  5 active torsions:
REMARK  status: ('A' for Active; 'I' for Inactive)
REMARK    1  A    between atoms: C_5  and  C_1 
REMARK    2  A    between atoms: C_8  and  C_2 
REMARK       I    between atoms: N_12  and  C_8 
REMARK    3  A    between atoms: C_20  and  N_12 
REMARK    4  A    between atoms: O_16  and  C_21 
REMARK    5  A    between atoms: C_21  and  C_20 
ROOT
ATOM      1  C   UNL d   1      -1.286  -0.866   0.174  0.00  0.00     0.086 A 
ATOM      2  C   UNL d   1       0.048  -1.326  -0.098  0.00  0.00     0.092 A 
ATOM      3  N   UNL d   1      -1.252   0.423   0.550  0.00  0.00    -0.259 N 
ATOM      4  HN  UNL d   1      -2.046   0.991   0.847  1.00  0.00     0.195 HD
ATOM      5  O   UNL d   1       0.054   0.832   0.459  0.00  0.00    -0.241 OA
ATOM      6  C   UNL d   1       0.837  -0.208   0.081  0.00  0.00     0.090 A 
ATOM      7  C   UNL d   1       2.270   0.117  -0.068  0.00  0.00     0.080 C 
ENDROOT
BRANCH   1   8
ATOM      8  C   UNL d   1      -2.569  -1.587   0.152  0.00  0.00     0.037 A 
ATOM      9  C   UNL d   1      -2.743  -2.816   0.824  0.00  0.00     0.048 A 
ATOM     10 CL   UNL d   1      -1.526  -3.540   1.826  0.00  0.00    -0.083 Cl
ATOM     11  C   UNL d   1      -3.972  -3.495   0.791  0.00  0.00     0.025 A 
ATOM     12  C   UNL d   1      -5.073  -2.937   0.152  0.00  0.00     0.003 A 
ATOM     13  C   UNL d   1      -4.941  -1.704  -0.476  0.00  0.00     0.025 A 
ATOM     14  C   UNL d   1      -3.701  -1.044  -0.498  0.00  0.00     0.048 A 
ATOM     15 CL   UNL d   1      -3.673   0.449  -1.384  0.00  0.00    -0.083 Cl
ENDBRANCH   1   8
BRANCH   2  16
ATOM     16  C   UNL d   1       0.482  -2.650  -0.498  0.00  0.00     0.256 C 
ATOM     17  O   UNL d   1      -0.159  -3.339  -1.278  0.00  0.00    -0.267 OA
ATOM     18  N   UNL d   1       1.623  -3.091   0.143  0.00  0.00    -0.355 N 
ATOM     19  H   UNL d   1       1.964  -2.560   0.934  0.00  0.00     0.162 HD
BRANCH  18  20
ATOM     20  C   UNL d   1       2.008  -4.493   0.138  0.00  0.00     0.148 C 
BRANCH  20  21
ATOM     21  C   UNL d   1       3.525  -4.655   0.177  0.00  0.00     0.183 C 
BRANCH  21  22
ATOM     22  O   UNL d   1       4.049  -4.063   1.365  0.00  0.00    -0.399 OA
ATOM     23  H   UNL d   1       5.006  -4.246   1.369  0.00  0.00     0.209 HD
ENDBRANCH  21  22
ENDBRANCH  20  21
ENDBRANCH  18  20
ENDBRANCH   2  16
TORSDOF 5
