REMARK  7 active torsions:
REMARK  status: ('A' for Active; 'I' for Inactive)
REMARK    1  A    between atoms: C_7  and  C_1 
REMARK    2  A    between atoms: C_8  and  N_2 
REMARK    3  A    between atoms: C_16  and  C_3 
REMARK    4  A    between atoms: O_12  and  C_7 
REMARK    5  A    between atoms: N_9  and  O_12 
REMARK    6  A    between atoms: C_18  and  C_15 
REMARK    7  A    between atoms: C_28  and  C_16 
ROOT
ATOM      1  C   UNL d   1      -0.345   1.238  -0.022  0.00  0.00     0.082 C 
ATOM      2  N   UNL d   1       0.920  -0.598  -0.041  0.00  0.00    -0.260 N 
ATOM      3  C   UNL d   1       0.979   0.797   0.005  0.00  0.00     0.052 C 
ATOM      4  N   UNL d   1      -0.353  -1.030  -0.244  0.00  0.00    -0.304 N 
ATOM      5  HN  UNL d   1      -0.664  -1.985  -0.424  1.00  0.00     0.186 HD
ATOM      6  C   UNL d   1      -1.104   0.062  -0.155  0.00  0.00     0.127 C 
ENDROOT
BRANCH   1   7
ATOM      7  C   UNL d   1      -0.845   2.600   0.081  0.00  0.00     0.318 C 
ATOM      8  O   UNL d   1      -0.123   3.593   0.156  0.00  0.00    -0.257 OA
BRANCH   7   9
ATOM      9  O   UNL d   1      -2.219   2.637   0.145  0.00  0.00    -0.195 OA
BRANCH   9  10
ATOM     10  N   UNL d   1      -2.584   3.521   1.174  0.00  0.00    -0.268 N 
ATOM     11  C   UNL d   1      -3.862   3.687   1.196  0.00  0.00     0.126 C 
ATOM     12  HN  UNL d   1      -1.928   3.970   1.813  1.00  0.00     0.194 HD
BRANCH  11  13
ATOM     13  C   UNL d   1      -4.491   4.451   2.288  0.00  0.00    -0.019 A 
ATOM     14  C   UNL d   1      -3.712   4.910   3.361  0.00  0.00     0.016 A 
ATOM     15  C   UNL d   1      -4.321   5.572   4.426  0.00  0.00     0.043 A 
ATOM     16  C   UNL d   1      -5.696   5.772   4.407  0.00  0.00     0.116 A 
ATOM     17  C   UNL d   1      -6.475   5.326   3.343  0.00  0.00     0.043 A 
ATOM     18  F   UNL d   1      -6.283   6.399   5.435  0.00  0.00    -0.206 F 
ATOM     19  C   UNL d   1      -5.873   4.658   2.275  0.00  0.00     0.016 A 
ENDBRANCH  11  13
ENDBRANCH   9  10
ENDBRANCH   7   9
ENDBRANCH   1   7
BRANCH   3  20
ATOM     20  C   UNL d   1       2.236   1.624   0.014  0.00  0.00     0.060 C 
BRANCH  20  21
ATOM     21  C   UNL d   1       3.123   1.462  -1.224  0.00  0.00     0.002 C 
ATOM     22  C   UNL d   1       2.435   1.846  -2.526  0.00  0.00     0.005 C 
ENDBRANCH  20  21
ENDBRANCH   3  20
BRANCH   2  23
ATOM     23  C   UNL d   1       1.965  -1.566   0.018  0.00  0.00     0.056 A 
ATOM     24  C   UNL d   1       3.154  -1.334   0.720  0.00  0.00     0.033 A 
ATOM     25  C   UNL d   1       4.215  -2.239   0.623  0.00  0.00     0.026 A 
ATOM     26  C   UNL d   1       4.079  -3.390  -0.148  0.00  0.00     0.034 A 
ATOM     27  C   UNL d   1       2.870  -3.675  -0.777  0.00  0.00     0.026 A 
ATOM     28 CL   UNL d   1       5.414  -4.458  -0.328  0.00  0.00    -0.084 Cl
ATOM     29  C   UNL d   1       1.806  -2.774  -0.680  0.00  0.00     0.033 A 
ENDBRANCH   2  23
TORSDOF 7
