REMARK  2 active torsions:
REMARK  status: ('A' for Active; 'I' for Inactive)
REMARK    1  A    between atoms: C_7  and  C_5 
REMARK    2  A    between atoms: C_10  and  C_7 
ROOT
ATOM      1  N   UNL d   1       0.500   1.706  -0.001  0.00  0.00    -0.350 N 
ATOM      2  HN  UNL d   1       0.312   2.709   0.004  1.00  0.00     0.166 HD
ATOM      3  N   UNL d   1       0.969  -1.095  -0.018  0.00  0.00    -0.320 N 
ATOM      4  C   UNL d   1       2.048  -0.249   0.000  0.00  0.00     0.272 A 
ATOM      5  C   UNL d   1       1.722   1.256  -0.015  0.00  0.00     0.101 A 
ATOM      6  C   UNL d   1      -0.555   0.775   0.009  0.00  0.00     0.059 A 
ATOM      7  C   UNL d   1      -0.340  -0.611  -0.014  0.00  0.00     0.061 A 
ATOM      8  O   UNL d   1       3.203  -0.652   0.023  0.00  0.00    -0.266 OA
ATOM      9  C   UNL d   1      -1.867   1.249   0.028  0.00  0.00     0.032 A 
ATOM     10  C   UNL d   1      -1.409  -1.508  -0.027  0.00  0.00     0.032 A 
ATOM     11  C   UNL d   1      -2.944   0.358   0.020  0.00  0.00     0.002 A 
ATOM     12  C   UNL d   1      -2.715  -1.018  -0.011  0.00  0.00     0.002 A 
ATOM     13  H   UNL d   1       1.161  -2.087  -0.018  0.00  0.00     0.169 HD
ENDROOT
BRANCH   5  14
ATOM     14  C   UNL d   1       2.909   2.158  -0.064  0.00  0.00     0.036 C 
BRANCH  14  15
ATOM     15  C   UNL d   1       2.778   3.492  -0.113  0.00  0.00     0.021 C 
ATOM     16  C   UNL d   1       3.913   4.355  -0.201  0.00  0.00     0.004 A 
ATOM     17  S   UNL d   1       3.675   6.066  -0.201  0.00  0.00    -0.102 SA
ATOM     18  C   UNL d   1       5.267   4.069  -0.304  0.00  0.00     0.019 A 
ATOM     19  C   UNL d   1       5.346   6.385  -0.341  0.00  0.00     0.050 A 
ATOM     20  C   UNL d   1       6.089   5.230  -0.387  0.00  0.00     0.008 A 
ENDBRANCH  14  15
ENDBRANCH   5  14
TORSDOF 2
