REMARK  3 active torsions:
REMARK  status: ('A' for Active; 'I' for Inactive)
REMARK    1  A    between atoms: S_4  and  C_1 
REMARK    2  A    between atoms: C_7  and  C_2 
REMARK    3  A    between atoms: O_12  and  C_7 
ROOT
ATOM      1  C   UNL d   1      -0.023  -1.308  -0.037  0.00  0.00     0.088 A 
ATOM      2  C   UNL d   1       0.308   1.010  -0.048  0.00  0.00     0.101 A 
ATOM      3  C   UNL d   1      -0.634  -0.013  -0.036  0.00  0.00     0.079 A 
ATOM      4  S   UNL d   1       1.907   0.378  -0.065  0.00  0.00    -0.092 SA
ATOM      5  C   UNL d   1       1.354  -1.230  -0.045  0.00  0.00     0.075 A 
ATOM      6 CL   UNL d   1      -2.333   0.235  -0.008  0.00  0.00    -0.081 Cl
ENDROOT
BRANCH   1   7
ATOM      7  S   UNL d   1      -0.856  -2.830   0.033  0.00  0.00     0.174 S 
ATOM      8  O   UNL d   1       0.201  -3.819  -0.047  0.00  0.00    -0.223 OA
ATOM      9  O   UNL d   1      -1.713  -2.722   1.193  0.00  0.00    -0.223 OA
ATOM     10  C   UNL d   1      -1.830  -2.942  -1.442  0.00  0.00     0.167 C 
ENDBRANCH   1   7
BRANCH   2  11
ATOM     11  C   UNL d   1       0.083   2.449  -0.048  0.00  0.00     0.185 C 
ATOM     12  O   UNL d   1      -1.003   3.008  -0.078  0.00  0.00    -0.646 OA
BRANCH  11  13
ATOM     13  O   UNL d   1       1.234   3.174  -0.019  0.00  0.00    -0.772 OA
ATOM     14  H   UNL d   1       2.032   2.613   0.014  0.00  0.00     0.167 HD
ENDBRANCH  11  13
ENDBRANCH   2  11
TORSDOF 3
