REMARK  5 active torsions:
REMARK  status: ('A' for Active; 'I' for Inactive)
REMARK    1  A    between atoms: O_5  and  N_1 
REMARK    2  A    between atoms: C_3  and  O_5 
REMARK    3  A    between atoms: C_9  and  C_3 
REMARK    4  A    between atoms: C_4  and  C_8 
REMARK    5  A    between atoms: C_10  and  C_11 
ROOT
ATOM      1  O   UNL d   1      -1.475   1.219  -2.056  0.00  0.00    -0.195 OA
ENDROOT
BRANCH   1   2
ATOM      2  C   UNL d   1      -0.958   1.102  -0.797  0.00  0.00     0.315 C 
ATOM      3  O   UNL d   1      -0.008   1.723  -0.342  0.00  0.00    -0.257 OA
BRANCH   2   4
ATOM      4  C   UNL d   1      -1.737   0.100  -0.013  0.00  0.00     0.041 A 
ATOM      5  C   UNL d   1      -1.326  -0.223   1.284  0.00  0.00     0.018 A 
ATOM      6  C   UNL d   1      -2.075  -1.113   2.071  0.00  0.00     0.009 A 
ATOM      7  C   UNL d   1      -3.257  -1.707   1.587  0.00  0.00    -0.051 A 
ATOM      8  C   UNL d   1      -3.657  -1.359   0.285  0.00  0.00     0.009 A 
ATOM      9  C   UNL d   1      -2.914  -0.472  -0.503  0.00  0.00     0.018 A 
BRANCH   7  10
ATOM     10  C   UNL d   1      -4.055  -2.705   2.450  0.00  0.00    -0.024 C 
ATOM     11  C   UNL d   1      -5.317  -3.252   1.740  0.00  0.00     0.019 C 
ATOM     12  C   UNL d   1      -3.164  -3.917   2.793  0.00  0.00     0.019 C 
ATOM     13  C   UNL d   1      -4.526  -2.045   3.762  0.00  0.00     0.019 C 
ENDBRANCH   7  10
ENDBRANCH   2   4
ENDBRANCH   1   2
BRANCH   1  14
ATOM     14  N   UNL d   1      -1.664   2.583  -2.354  0.00  0.00    -0.261 N 
ATOM     15  C   UNL d   1      -2.018   2.771  -3.591  0.00  0.00     0.039 C 
ATOM     16  C   UNL d   1      -2.040   1.664  -4.625  0.00  0.00     0.071 C 
ATOM     17  HN  UNL d   1      -1.538   3.336  -1.677  1.00  0.00     0.194 HD
BRANCH  15  18
ATOM     18  C   UNL d   1      -2.432   4.145  -4.004  0.00  0.00    -0.009 A 
ATOM     19  C   UNL d   1      -1.863   5.247  -3.357  0.00  0.00     0.059 A 
ATOM     20  C   UNL d   1      -2.282   6.532  -3.691  0.00  0.00     0.155 A 
ATOM     21  F   UNL d   1      -1.734   7.585  -3.072  0.00  0.00    -0.203 F 
ATOM     22  C   UNL d   1      -3.267   6.725  -4.652  0.00  0.00     0.154 A 
ATOM     23  C   UNL d   1      -3.849   5.638  -5.292  0.00  0.00     0.046 A 
ATOM     24  F   UNL d   1      -3.675   7.965  -4.965  0.00  0.00    -0.203 F 
ATOM     25  C   UNL d   1      -3.434   4.343  -4.967  0.00  0.00     0.017 A 
ENDBRANCH  15  18
ENDBRANCH   1  14
TORSDOF 5
