REMARK  2 active torsions:
REMARK  status: ('A' for Active; 'I' for Inactive)
REMARK    1  A    between atoms: C_2  and  C_1 
REMARK       I    between atoms: N_3  and  C_1 
REMARK    2  A    between atoms: C_9  and  N_3 
ROOT
ATOM      1  C   UNL d   1      -3.309  -0.642  -0.798  0.00  0.00     0.104 A 
ATOM      2  C   UNL d   1      -1.921  -0.550  -0.841  0.00  0.00     0.069 A 
ATOM      3  C   UNL d   1      -3.940  -1.279   0.273  0.00  0.00     0.102 A 
ATOM      4  C   UNL d   1      -1.143  -1.048   0.207  0.00  0.00     0.037 A 
ATOM      5  O   UNL d   1      -3.991  -0.070  -1.840  0.00  0.00    -0.346 OA
ATOM      6  O   UNL d   1      -5.302  -1.382   0.388  0.00  0.00    -0.346 OA
ATOM      7  C   UNL d   1      -3.173  -1.824   1.300  0.00  0.00     0.042 A 
ATOM      8  C   UNL d   1      -1.776  -1.716   1.263  0.00  0.00     0.032 A 
ATOM      9  C   UNL d   1      -5.339   0.215  -1.460  0.00  0.00     0.202 C 
ATOM     10  C   UNL d   1      -5.974  -1.009  -0.823  0.00  0.00     0.202 C 
ENDROOT
BRANCH   4  11
ATOM     11  N   UNL d   1       0.260  -0.894   0.257  0.00  0.00    -0.327 N 
ATOM     12  C   UNL d   1       1.001  -0.030  -0.524  0.00  0.00     0.226 C 
ATOM     13  O   UNL d   1       0.569   0.777  -1.338  0.00  0.00    -0.273 OA
ATOM     14  H   UNL d   1       0.745  -1.373   1.004  0.00  0.00     0.169 HD
BRANCH  12  15
ATOM     15  C   UNL d   1       2.472  -0.086  -0.272  0.00  0.00     0.078 A 
ATOM     16  C   UNL d   1       3.231   1.189   0.023  0.00  0.00     0.015 A 
ATOM     17  C   UNL d   1       3.420   0.500  -1.297  0.00  0.00     0.015 A 
ENDBRANCH  12  15
ENDBRANCH   4  11
TORSDOF 2
