REMARK  5 active torsions:
REMARK  status: ('A' for Active; 'I' for Inactive)
REMARK    1  A    between atoms: C_3  and  C_1 
REMARK    2  A    between atoms: O_14  and  C_2 
REMARK       I    between atoms: N_7  and  C_3 
REMARK    3  A    between atoms: C_8  and  N_7 
REMARK    4  A    between atoms: O_17  and  C_11 
REMARK    5  A    between atoms: O_18  and  C_15 
ROOT
ATOM      1  C   UNL d   1      -2.762   2.269  -0.679  0.00  0.00     0.259 C 
ATOM      2  N   UNL d   1      -3.945   2.110   0.035  0.00  0.00    -0.320 N 
ATOM      3  O   UNL d   1      -2.190   1.366  -1.285  0.00  0.00    -0.267 OA
ATOM      4  H   UNL d   1      -4.524   2.939   0.093  0.00  0.00     0.169 HD
ENDROOT
BRANCH   2   5
ATOM      5  C   UNL d   1      -4.617   0.871   0.030  0.00  0.00     0.071 A 
ATOM      6  C   UNL d   1      -4.207  -0.040   1.020  0.00  0.00     0.069 A 
ATOM      7  C   UNL d   1      -4.774  -1.313   1.106  0.00  0.00     0.070 A 
ATOM      8  C   UNL d   1      -5.764  -1.672   0.194  0.00  0.00     0.039 A 
ATOM      9  C   UNL d   1      -6.175  -0.772  -0.793  0.00  0.00     0.042 A 
ATOM     10  C   UNL d   1      -5.620   0.513  -0.882  0.00  0.00     0.095 A 
BRANCH   7  11
ATOM     11  O   UNL d   1      -4.445  -2.280   2.012  0.00  0.00    -0.356 OA
ATOM     12  C   UNL d   1      -3.399  -1.973   2.928  0.00  0.00     0.210 C 
ENDBRANCH   7  11
BRANCH  10  13
ATOM     13  O   UNL d   1      -6.038   1.200  -1.988  0.00  0.00    -0.354 OA
ATOM     14  C   UNL d   1      -6.268   2.592  -1.876  0.00  0.00     0.210 C 
ENDBRANCH  10  13
ENDBRANCH   2   5
BRANCH   1  15
ATOM     15  C   UNL d   1      -2.217   3.631  -0.629  0.00  0.00     0.074 A 
ATOM     16  C   UNL d   1      -1.505   4.312  -1.686  0.00  0.00     0.113 A 
ATOM     17  C   UNL d   1      -1.103   5.573  -1.293  0.00  0.00     0.108 A 
ATOM     18 CL   UNL d   1      -0.311   6.819  -2.182  0.00  0.00    -0.073 Cl
ATOM     19  S   UNL d   1      -1.505   5.928   0.317  0.00  0.00    -0.086 SA
ATOM     20  C   UNL d   1      -2.271   4.417   0.513  0.00  0.00     0.071 A 
BRANCH  16  21
ATOM     21  O   UNL d   1      -1.389   3.774  -2.930  0.00  0.00    -0.353 OA
ATOM     22  C   UNL d   1      -0.126   3.955  -3.562  0.00  0.00     0.210 C 
ENDBRANCH  16  21
ENDBRANCH   1  15
TORSDOF 5
