REMARK  2 active torsions:
REMARK  status: ('A' for Active; 'I' for Inactive)
REMARK    1  A    between atoms: C_4  and  N_1 
REMARK    2  A    between atoms: C_3  and  C_4 
ROOT
ATOM      1  C   UNL d   1       0.031  -2.723   0.209  0.00  0.00     0.173 C 
ENDROOT
BRANCH   1   2
ATOM      2  C   UNL d   1       1.330  -3.446   0.512  0.00  0.00     0.004 A 
ATOM      3  C   UNL d   1       1.728  -3.727   1.834  0.00  0.00     0.043 A 
ATOM      4 CL   UNL d   1       0.732  -3.354   3.201  0.00  0.00    -0.084 Cl
ATOM      5  C   UNL d   1       2.977  -4.296   2.109  0.00  0.00     0.024 A 
ATOM      6  C   UNL d   1       3.844  -4.624   1.072  0.00  0.00     0.003 A 
ATOM      7  C   UNL d   1       3.457  -4.389  -0.243  0.00  0.00     0.024 A 
ATOM      8  C   UNL d   1       2.217  -3.801  -0.523  0.00  0.00     0.043 A 
ATOM      9 CL   UNL d   1       1.843  -3.529  -2.190  0.00  0.00    -0.084 Cl
ENDBRANCH   1   2
BRANCH   1  10
ATOM     10  N   UNL d   1       0.167  -1.276  -0.020  0.00  0.00    -0.320 N 
ATOM     11  C   UNL d   1      -0.696  -0.687  -0.955  0.00  0.00     0.253 A 
ATOM     12  C   UNL d   1      -0.529   0.792  -1.174  0.00  0.00     0.006 A 
ATOM     13  O   UNL d   1      -1.552  -1.310  -1.580  0.00  0.00    -0.267 OA
ATOM     14  C   UNL d   1      -1.329   1.449  -2.252  0.00  0.00     0.054 C 
ATOM     15  C   UNL d   1       0.347   1.472  -0.417  0.00  0.00     0.013 A 
ATOM     16  C   UNL d   1       1.112   0.815   0.603  0.00  0.00     0.018 A 
ATOM     17  C   UNL d   1       1.008  -0.507   0.770  0.00  0.00     0.094 A 
ENDBRANCH   1  10
TORSDOF 2
