REMARK  3 active torsions:
REMARK  status: ('A' for Active; 'I' for Inactive)
REMARK    1  A    between atoms: C_11  and  N_2 
REMARK    2  A    between atoms: C_13  and  N_5 
REMARK    3  A    between atoms: C_16  and  C_10 
ROOT
ATOM      1  C   UNL d   1      -0.029  -0.727   0.014  0.00  0.00     0.137 C 
ATOM      2  N   UNL d   1       1.213  -1.400   0.027  0.00  0.00    -0.248 N 
ATOM      3  C   UNL d   1      -0.047   0.618  -0.135  0.00  0.00     0.085 C 
ATOM      4  C   UNL d   1       2.449  -0.705   0.108  0.00  0.00     0.342 C 
ATOM      5  N   UNL d   1       2.394   0.688   0.005  0.00  0.00    -0.229 N 
ATOM      6  N   UNL d   1      -1.277  -1.371   0.178  0.00  0.00    -0.303 N 
ATOM      7  C   UNL d   1       1.244   1.317  -0.433  0.00  0.00     0.271 C 
ATOM      8  C   UNL d   1      -2.501  -0.732  -0.065  0.00  0.00     0.260 C 
ATOM      9  C   UNL d   1      -1.301   1.396  -0.053  0.00  0.00    -0.026 C 
ATOM     10  C   UNL d   1      -2.486   0.760  -0.079  0.00  0.00     0.049 C 
ATOM     11  O   UNL d   1       3.529  -1.307   0.160  0.00  0.00    -0.245 OA
ATOM     12  O   UNL d   1       1.202   2.400  -1.016  0.00  0.00    -0.266 OA
ATOM     13  O   UNL d   1      -3.568  -1.335  -0.180  0.00  0.00    -0.267 OA
ATOM     14  C   UNL d   1      -1.462  -2.752   0.608  0.00  0.00     0.161 C 
ATOM     15  C   UNL d   1      -1.224   2.900   0.118  0.00  0.00     0.050 C 
ENDROOT
BRANCH   2  16
ATOM     16  C   UNL d   1       1.359  -2.827  -0.102  0.00  0.00     0.045 A 
ATOM     17  C   UNL d   1       2.027  -3.560   0.894  0.00  0.00     0.030 A 
ATOM     18  C   UNL d   1       2.102  -4.951   0.824  0.00  0.00     0.002 A 
ATOM     19  C   UNL d   1       1.525  -5.624  -0.250  0.00  0.00     0.000 A 
ATOM     20  C   UNL d   1       0.901  -4.904  -1.270  0.00  0.00     0.002 A 
ATOM     21  C   UNL d   1       0.828  -3.509  -1.204  0.00  0.00     0.030 A 
ENDBRANCH   2  16
BRANCH   5  22
ATOM     22  C   UNL d   1       3.653   1.409   0.034  0.00  0.00     0.047 A 
ATOM     23  C   UNL d   1       3.977   2.405  -0.901  0.00  0.00     0.030 A 
ATOM     24  C   UNL d   1       5.200   3.084  -0.848  0.00  0.00     0.002 A 
ATOM     25  C   UNL d   1       6.122   2.788   0.149  0.00  0.00     0.000 A 
ATOM     26  C   UNL d   1       5.827   1.806   1.089  0.00  0.00     0.002 A 
ATOM     27  C   UNL d   1       4.605   1.122   1.028  0.00  0.00     0.030 A 
ENDBRANCH   5  22
BRANCH  10  28
ATOM     28  C   UNL d   1      -3.779   1.470  -0.052  0.00  0.00    -0.020 A 
ATOM     29  C   UNL d   1      -4.362   1.916  -1.245  0.00  0.00     0.012 A 
ATOM     30  C   UNL d   1      -5.583   2.591  -1.220  0.00  0.00     0.001 A 
ATOM     31  C   UNL d   1      -6.227   2.827  -0.006  0.00  0.00     0.000 A 
ATOM     32  C   UNL d   1      -5.653   2.385   1.186  0.00  0.00     0.001 A 
ATOM     33  C   UNL d   1      -4.435   1.704   1.164  0.00  0.00     0.012 A 
ENDBRANCH  10  28
TORSDOF 3
