REMARK  3 active torsions:
REMARK  status: ('A' for Active; 'I' for Inactive)
REMARK    1  A    between atoms: C_3  and  C_6 
REMARK    2  A    between atoms: N_8  and  C_14 
REMARK    3  A    between atoms: O_21  and  C_11 
ROOT
ATOM      1  C   UNL d   1       4.591   0.788   0.028  0.00  0.00     0.102 C 
ATOM      2  N   UNL d   1       3.450   1.401  -0.003  0.00  0.00    -0.365 N 
ATOM      3  HN  UNL d   1       3.406   2.420  -0.033  1.00  0.00     0.165 HD
ENDROOT
BRANCH   2   4
ATOM      4  C   UNL d   1       2.271   0.630   0.005  0.00  0.00     0.034 A 
ATOM      5  C   UNL d   1       1.211   1.078   0.807  0.00  0.00     0.061 A 
ATOM      6  C   UNL d   1       0.022   0.340   0.798  0.00  0.00     0.061 A 
ATOM      7  N   UNL d   1      -1.170   0.518   1.449  0.00  0.00    -0.300 N 
ATOM      8  C   UNL d   1      -0.146  -0.809   0.035  0.00  0.00     0.009 A 
ATOM      9  N   UNL d   1      -2.088  -0.429   1.185  0.00  0.00    -0.311 N 
ATOM     10  H   UNL d   1      -1.421   1.266   2.086  0.00  0.00     0.187 HD
ATOM     11  C   UNL d   1      -1.462  -1.234   0.321  0.00  0.00     0.120 A 
ATOM     12  HN  UNL d   1      -3.035  -0.513   1.555  1.00  0.00     0.186 HD
ATOM     13  C   UNL d   1       0.909  -1.250  -0.778  0.00  0.00     0.017 A 
ATOM     14  C   UNL d   1       2.102  -0.510  -0.792  0.00  0.00     0.030 A 
ENDBRANCH   2   4
BRANCH   1  15
ATOM     15  C   UNL d   1       5.863   1.539   0.024  0.00  0.00     0.014 A 
ATOM     16  C   UNL d   1       5.903   2.933   0.158  0.00  0.00     0.077 A 
ATOM     17  C   UNL d   1       7.123   3.605   0.171  0.00  0.00     0.039 A 
ATOM     18  C   UNL d   1       8.312   2.886   0.036  0.00  0.00     0.026 A 
ATOM     19  C   UNL d   1       8.271   1.499  -0.108  0.00  0.00     0.035 A 
ATOM     20  C   UNL d   1       7.053   0.818  -0.111  0.00  0.00     0.039 A 
ATOM     21 CL   UNL d   1       9.737   0.617  -0.285  0.00  0.00    -0.084 Cl
BRANCH  16  22
ATOM     22  O   UNL d   1       4.777   3.698   0.288  0.00  0.00    -0.360 OA
ATOM     23  H   UNL d   1       4.004   3.095   0.196  0.00  0.00     0.217 HD
ENDBRANCH  16  22
ENDBRANCH   1  15
TORSDOF 3
