REMARK  3 active torsions:
REMARK  status: ('A' for Active; 'I' for Inactive)
REMARK    1  A    between atoms: C_5  and  C_1 
REMARK    2  A    between atoms: O_9  and  C_5 
REMARK    3  A    between atoms: C_11  and  O_9 
ROOT
ATOM      1  C   UNL d   1      -0.912  -1.272  -0.047  0.00  0.00     0.048 A 
ATOM      2  C   UNL d   1      -1.218   0.033  -0.057  0.00  0.00     0.021 A 
ATOM      3  N   UNL d   1      -0.059   0.755  -0.044  0.00  0.00    -0.330 N 
ATOM      4  C   UNL d   1       1.059  -0.054  -0.013  0.00  0.00     0.226 A 
ATOM      5  C   UNL d   1       0.579  -1.492  -0.023  0.00  0.00     0.150 A 
ATOM      6  O   UNL d   1       2.216   0.328   0.021  0.00  0.00    -0.273 OA
ATOM      7  C   UNL d   1      -2.523   0.748  -0.039  0.00  0.00     0.069 C 
ATOM      8  H   UNL d   1       0.006   1.764  -0.026  0.00  0.00     0.168 HD
ENDROOT
BRANCH   1   9
ATOM      9  C   UNL d   1      -1.865  -2.388   0.034  0.00  0.00     0.291 C 
ATOM     10  O   UNL d   1      -3.077  -2.267   0.076  0.00  0.00    -0.260 OA
BRANCH   9  11
ATOM     11  O   UNL d   1      -1.177  -3.549   0.159  0.00  0.00    -0.318 OA
BRANCH  11  12
ATOM     12  C   UNL d   1      -1.942  -4.657   0.655  0.00  0.00     0.174 C 
ATOM     13  C   UNL d   1      -1.868  -4.635   2.172  0.00  0.00     0.034 C 
ENDBRANCH  11  12
ENDBRANCH   9  11
ENDBRANCH   1   9
TORSDOF 3
