REMARK  2 active torsions:
REMARK  status: ('A' for Active; 'I' for Inactive)
REMARK    1  A    between atoms: C_12  and  C_5 
REMARK    2  A    between atoms: O_21  and  C_17 
ROOT
ATOM      1  C   UNL d   1      -2.762   0.596  -0.130  0.00  0.00     0.128 C 
ATOM      2  C   UNL d   1      -1.400   1.278  -0.063  0.00  0.00     0.191 C 
ATOM      3  N   UNL d   1      -2.977  -0.105  -1.424  0.00  0.00    -0.321 N 
ATOM      4  HN  UNL d   1      -2.235  -0.508  -1.996  1.00  0.00     0.181 HD
ATOM      5  C   UNL d   1      -3.967   1.559  -0.081  0.00  0.00     0.076 C 
ATOM      6  C   UNL d   1      -0.167   0.457  -0.146  0.00  0.00     0.029 A 
ATOM      7  N   UNL d   1      -4.205  -0.133  -1.715  0.00  0.00    -0.339 N 
ATOM      8  HN  UNL d   1      -4.597  -0.636  -2.511  1.00  0.00     0.179 HD
ATOM      9  C   UNL d   1      -2.766  -0.445   1.003  0.00  0.00     0.121 C 
ATOM     10  S   UNL d   1      -1.596  -1.823   0.700  0.00  0.00    -0.126 SA
ATOM     11  C   UNL d   1      -0.163  -0.910   0.152  0.00  0.00     0.014 A 
ATOM     12  O   UNL d   1      -1.258   2.470   0.201  0.00  0.00    -0.289 OA
ATOM     13  C   UNL d   1      -5.002   0.660  -0.752  0.00  0.00     0.151 C 
ATOM     14  C   UNL d   1       1.039   1.119  -0.436  0.00  0.00     0.016 A 
ATOM     15  C   UNL d   1       1.053  -1.609   0.089  0.00  0.00     0.019 A 
ATOM     16  C   UNL d   1       2.244   0.420  -0.457  0.00  0.00     0.001 A 
ATOM     17  C   UNL d   1       2.249  -0.948  -0.207  0.00  0.00     0.001 A 
ENDROOT
BRANCH   5  18
ATOM     18  C   UNL d   1      -3.873   2.884  -0.847  0.00  0.00    -0.049 A 
ATOM     19  C   UNL d   1      -3.457   2.953  -2.186  0.00  0.00     0.010 A 
ATOM     20  C   UNL d   1      -3.353   4.179  -2.846  0.00  0.00     0.037 A 
ATOM     21  C   UNL d   1      -3.679   5.366  -2.197  0.00  0.00     0.068 A 
ATOM     22  C   UNL d   1      -4.104   5.318  -0.871  0.00  0.00     0.037 A 
ATOM     23  C   UNL d   1      -4.200   4.087  -0.202  0.00  0.00     0.010 A 
BRANCH  21  24
ATOM     24  O   UNL d   1      -3.507   6.492  -2.952  0.00  0.00    -0.356 OA
ATOM     25  C   UNL d   1      -4.182   7.661  -2.513  0.00  0.00     0.210 C 
ENDBRANCH  21  24
ENDBRANCH   5  18
TORSDOF 2
