REMARK  2 active torsions:
REMARK  status: ('A' for Active; 'I' for Inactive)
REMARK    1  A    between atoms: C_8  and  C_1 
REMARK       I    between atoms: C_7  and  N_9 
REMARK       I    between atoms: N_15  and  C_7 
REMARK    2  A    between atoms: C_10  and  C_8 
ROOT
ATOM      1  C   UNL d   1      -2.523   1.520   0.272  0.00  0.00     0.164 C 
ATOM      2  O   UNL d   1      -2.526   2.545   0.970  0.00  0.00    -0.292 OA
ENDROOT
BRANCH   1   3
ATOM      3  C   UNL d   1      -1.155   0.798   0.063  0.00  0.00     0.023 A 
ATOM      4  C   UNL d   1       0.036   1.614   0.009  0.00  0.00    -0.041 A 
ATOM      5  C   UNL d   1       1.351   1.021  -0.015  0.00  0.00    -0.049 A 
ATOM      6  C   UNL d   1       0.013   3.132   0.022  0.00  0.00     0.050 C 
ATOM      7  C   UNL d   1       2.623   1.856  -0.031  0.00  0.00     0.049 C 
ATOM      8  C   UNL d   1       1.501  -0.385  -0.013  0.00  0.00    -0.049 A 
ATOM      9  C   UNL d   1       0.356  -1.199   0.029  0.00  0.00    -0.049 A 
ATOM     10  C   UNL d   1       2.902  -0.979  -0.024  0.00  0.00     0.049 C 
ATOM     11  C   UNL d   1      -0.968  -0.630   0.068  0.00  0.00    -0.041 A 
ATOM     12  C   UNL d   1       0.576  -2.707   0.077  0.00  0.00     0.049 C 
ATOM     13  C   UNL d   1      -2.055  -1.670   0.171  0.00  0.00     0.050 C 
ENDBRANCH   1   3
BRANCH   1  14
ATOM     14  C   UNL d   1      -3.898   1.016  -0.237  0.00  0.00     0.064 C 
ATOM     15  C   UNL d   1      -4.117   0.913  -1.742  0.00  0.00     0.032 C 
ATOM     16  C   UNL d   1      -4.904   2.051  -2.404  0.00  0.00     0.128 C 
ATOM     17  N   UNL d   1      -5.981   2.651  -1.612  0.00  0.00    -0.334 N 
ATOM     18  C   UNL d   1      -6.958   3.372  -2.328  0.00  0.00     0.317 C 
ATOM     19  C   UNL d   1      -5.678   2.874  -0.199  0.00  0.00     0.128 C 
ATOM     20  O   UNL d   1      -7.087   3.252  -3.543  0.00  0.00    -0.247 OA
ATOM     21  N   UNL d   1      -7.744   4.204  -1.582  0.00  0.00    -0.347 N 
ATOM     22  C   UNL d   1      -8.780   5.016  -2.161  0.00  0.00     0.151 C 
ATOM     23  H   UNL d   1      -7.426   4.487  -0.665  0.00  0.00     0.163 HD
ATOM     24  C   UNL d   1      -5.103   1.649   0.478  0.00  0.00     0.032 C 
ENDBRANCH   1  14
TORSDOF 2
