REMARK  8 active torsions:
REMARK  status: ('A' for Active; 'I' for Inactive)
REMARK       I    between atoms: N_3  and  C_1 
REMARK    1  A    between atoms: C_6  and  C_1 
REMARK       I    between atoms: C_2  and  N_4 
REMARK    2  A    between atoms: C_12  and  C_2 
REMARK    3  A    between atoms: N_4  and  N_3 
REMARK    4  A    between atoms: S_5  and  C_8 
REMARK    5  A    between atoms: C_15  and  S_5 
REMARK    6  A    between atoms: O_7  and  C_12 
REMARK    7  A    between atoms: C_9  and  O_7 
REMARK    8  A    between atoms: C_18  and  C_15 
ROOT
ATOM      1  O   UNL d   1      -0.298   5.894  -2.032  0.00  0.00    -0.341 OA
ENDROOT
BRANCH   1   2
ATOM      2  C   UNL d   1      -0.397   5.856  -0.608  0.00  0.00     0.280 C 
BRANCH   2   3
ATOM      3  C   UNL d   1      -1.748   5.387  -0.064  0.00  0.00     0.260 C 
ATOM      4  N   UNL d   1      -2.525   4.651  -0.931  0.00  0.00    -0.265 N 
ATOM      5  H   UNL d   1      -2.338   4.593  -1.934  0.00  0.00     0.190 HD
ATOM      6  O   UNL d   1      -2.085   5.590   1.105  0.00  0.00    -0.269 OA
BRANCH   4   7
ATOM      7  N   UNL d   1      -3.767   4.188  -0.469  0.00  0.00    -0.263 N 
ATOM      8  C   UNL d   1      -4.699   3.740  -1.383  0.00  0.00     0.270 C 
ATOM      9  O   UNL d   1      -4.505   3.774  -2.597  0.00  0.00    -0.266 OA
ATOM     10  H   UNL d   1      -3.867   4.111   0.540  0.00  0.00     0.190 HD
BRANCH   8  11
ATOM     11  C   UNL d   1      -5.962   3.165  -0.831  0.00  0.00     0.033 A 
ATOM     12  C   UNL d   1      -6.470   3.518   0.428  0.00  0.00     0.019 A 
ATOM     13  C   UNL d   1      -7.657   2.941   0.896  0.00  0.00     0.025 A 
ATOM     14  C   UNL d   1      -8.341   2.016   0.106  0.00  0.00     0.034 A 
ATOM     15  C   UNL d   1      -7.853   1.667  -1.150  0.00  0.00     0.025 A 
ATOM     16 CL   UNL d   1      -9.797   1.307   0.686  0.00  0.00    -0.084 Cl
ATOM     17  C   UNL d   1      -6.668   2.244  -1.620  0.00  0.00     0.019 A 
ENDBRANCH   8  11
ENDBRANCH   4   7
ENDBRANCH   2   3
ENDBRANCH   1   2
BRANCH   1  18
ATOM     18  C   UNL d   1       0.170   7.082  -2.534  0.00  0.00     0.086 A 
ATOM     19  C   UNL d   1       1.221   7.122  -3.468  0.00  0.00     0.034 A 
ATOM     20  C   UNL d   1       1.629   8.387  -3.947  0.00  0.00     0.021 A 
ATOM     21  C   UNL d   1       1.006   9.567  -3.542  0.00  0.00     0.002 A 
ATOM     22  C   UNL d   1      -0.063   9.509  -2.661  0.00  0.00     0.003 A 
ATOM     23  C   UNL d   1      -0.487   8.273  -2.174  0.00  0.00     0.038 A 
BRANCH  19  24
ATOM     24  S   UNL d   1       2.164   5.790  -4.217  0.00  0.00    -0.122 SA
BRANCH  24  25
ATOM     25  C   UNL d   1       1.734   4.269  -3.338  0.00  0.00     0.118 C 
BRANCH  25  26
ATOM     26  C   UNL d   1       0.459   3.549  -3.721  0.00  0.00    -0.049 A 
ATOM     27  C   UNL d   1      -0.368   3.911  -4.796  0.00  0.00     0.009 A 
ATOM     28  C   UNL d   1      -1.529   3.185  -5.083  0.00  0.00     0.024 A 
ATOM     29  C   UNL d   1      -1.867   2.079  -4.309  0.00  0.00     0.034 A 
ATOM     30  C   UNL d   1      -1.054   1.693  -3.247  0.00  0.00     0.024 A 
ATOM     31 CL   UNL d   1      -3.282   1.171  -4.674  0.00  0.00    -0.084 Cl
ATOM     32  C   UNL d   1       0.101   2.422  -2.959  0.00  0.00     0.009 A 
ENDBRANCH  25  26
ENDBRANCH  24  25
ENDBRANCH  19  24
ENDBRANCH   1  18
TORSDOF 8
