REMARK  9 active torsions:
REMARK  status: ('A' for Active; 'I' for Inactive)
REMARK    1  A    between atoms: C_11  and  C_1 
REMARK    2  A    between atoms: S_2  and  C_9 
REMARK    3  A    between atoms: N_14  and  S_2 
REMARK    4  A    between atoms: S_3  and  N_13 
REMARK    5  A    between atoms: C_20  and  S_3 
REMARK    6  A    between atoms: C_12  and  C_8 
REMARK    7  A    between atoms: N_13  and  N_18 
REMARK    8  A    between atoms: C_19  and  N_14 
REMARK    9  A    between atoms: C_16  and  C_19 
REMARK       I    between atoms: N_18  and  C_16 
ROOT
ATOM      1  S   UNL d   1       5.264   4.658   0.869  0.00  0.00     0.248 S 
ATOM      2  O   UNL d   1       4.394   3.756   0.154  0.00  0.00    -0.205 OA
ATOM      3  O   UNL d   1       5.790   4.362   2.183  0.00  0.00    -0.205 OA
ENDROOT
BRANCH   1   4
ATOM      4  C   UNL d   1       6.695   4.855  -0.179  0.00  0.00     0.116 A 
ATOM      5  S   UNL d   1       7.853   6.013   0.324  0.00  0.00    -0.075 SA
ATOM      6  C   UNL d   1       8.824   5.757  -1.061  0.00  0.00     0.034 A 
ATOM      7  C   UNL d   1       8.299   4.770  -1.871  0.00  0.00     0.023 A 
ATOM      8  C   UNL d   1       7.077   4.241  -1.357  0.00  0.00     0.034 A 
BRANCH   6   9
ATOM      9  C   UNL d   1      10.072   6.528  -1.385  0.00  0.00     0.067 A 
ATOM     10  C   UNL d   1      10.716   7.482  -0.573  0.00  0.00     0.068 A 
ATOM     11  C   UNL d   1      11.784   7.958  -1.316  0.00  0.00     0.136 A 
ATOM     12  N   UNL d   1      11.698   7.313  -2.521  0.00  0.00    -0.292 N 
ATOM     13  N   UNL d   1      10.704   6.398  -2.557  0.00  0.00    -0.297 N 
ATOM     14  C   UNL d   1      12.429   7.519  -3.751  0.00  0.00     0.178 C 
ATOM     15  HN  UNL d   1      10.483   5.750  -3.313  1.00  0.00     0.187 HD
BRANCH  11  16
ATOM     16  C   UNL d   1      12.793   8.968  -0.936  0.00  0.00     0.434 C 
ATOM     17  F   UNL d   1      13.749   9.188  -1.867  0.00  0.00    -0.165 F 
ATOM     18  F   UNL d   1      12.210  10.167  -0.688  0.00  0.00    -0.165 F 
ATOM     19  F   UNL d   1      13.440   8.606   0.201  0.00  0.00    -0.165 F 
ENDBRANCH  11  16
ENDBRANCH   6   9
ENDBRANCH   1   4
BRANCH   1  20
ATOM     20  N   UNL d   1       4.478   6.169   0.985  0.00  0.00    -0.206 NA
ATOM     21  H   UNL d   1       5.143   6.856   1.346  0.00  0.00     0.140 HD
BRANCH  20  22
ATOM     22  C   UNL d   1       3.774   6.584  -0.251  0.00  0.00     0.208 C 
BRANCH  22  23
ATOM     23  C   UNL d   1       3.031   7.902  -0.124  0.00  0.00     0.250 C 
ATOM     24  N   UNL d   1       2.507   8.185   1.121  0.00  0.00    -0.259 N 
ATOM     25  H   UNL d   1       2.647   7.583   1.933  0.00  0.00     0.190 HD
ATOM     26  O   UNL d   1       2.892   8.668  -1.079  0.00  0.00    -0.270 OA
BRANCH  24  27
ATOM     27  N   UNL d   1       1.801   9.443   1.280  0.00  0.00    -0.220 N 
ATOM     28  H   UNL d   1       1.634  10.029   0.453  0.00  0.00     0.200 HD
BRANCH  27  29
ATOM     29  S   UNL d   1       1.643  10.189   2.780  0.00  0.00     0.276 S 
ATOM     30  O   UNL d   1       0.956  11.446   2.587  0.00  0.00    -0.199 OA
ATOM     31  O   UNL d   1       1.193   9.185   3.721  0.00  0.00    -0.199 OA
BRANCH  29  32
ATOM     32  C   UNL d   1       3.341  10.568   3.159  0.00  0.00     0.081 A 
ATOM     33  C   UNL d   1       4.064  11.397   2.293  0.00  0.00     0.027 A 
ATOM     34  C   UNL d   1       5.402  11.684   2.574  0.00  0.00     0.025 A 
ATOM     35  C   UNL d   1       6.002  11.149   3.715  0.00  0.00     0.034 A 
ATOM     36  C   UNL d   1       5.276  10.328   4.581  0.00  0.00     0.025 A 
ATOM     37 CL   UNL d   1       7.649  11.504   4.058  0.00  0.00    -0.084 Cl
ATOM     38  C   UNL d   1       3.939  10.034   4.305  0.00  0.00     0.027 A 
ENDBRANCH  29  32
ENDBRANCH  27  29
ENDBRANCH  24  27
ENDBRANCH  22  23
ENDBRANCH  20  22
ENDBRANCH   1  20
TORSDOF 9
