REMARK  4 active torsions:
REMARK  status: ('A' for Active; 'I' for Inactive)
REMARK    1  A    between atoms: C_3  and  C_1 
REMARK    2  A    between atoms: O_15  and  C_3 
REMARK    3  A    between atoms: N_7  and  O_15 
REMARK    4  A    between atoms: C_20  and  C_18 
ROOT
ATOM      1  N   UNL d   1      -4.871  -2.304   0.199  0.00  0.00    -0.268 N 
ATOM      2  HN  UNL d   1      -4.830  -3.289   0.459  1.00  0.00     0.194 HD
ATOM      3  C   UNL d   1      -5.958  -1.651  -0.054  0.00  0.00     0.126 C 
ENDROOT
BRANCH   1   4
ATOM      4  O   UNL d   1      -3.751  -1.460   0.064  0.00  0.00    -0.195 OA
BRANCH   4   5
ATOM      5  C   UNL d   1      -2.610  -2.192   0.232  0.00  0.00     0.316 C 
ATOM      6  O   UNL d   1      -2.523  -3.381   0.518  0.00  0.00    -0.257 OA
BRANCH   5   7
ATOM      7  C   UNL d   1      -1.395  -1.343   0.139  0.00  0.00     0.063 A 
ATOM      8  C   UNL d   1      -1.228  -0.258  -0.734  0.00  0.00     0.052 A 
ATOM      9  C   UNL d   1      -0.012   0.443  -0.754  0.00  0.00     0.048 A 
ATOM     10 CL   UNL d   1      -2.428   0.256  -1.866  0.00  0.00    -0.083 Cl
ATOM     11  C   UNL d   1       1.036   0.059   0.082  0.00  0.00     0.035 A 
ATOM     12  C   UNL d   1       0.889  -1.022   0.942  0.00  0.00     0.025 A 
ATOM     13 CL   UNL d   1       2.525   0.918   0.037  0.00  0.00    -0.084 Cl
ATOM     14  C   UNL d   1      -0.321  -1.721   0.968  0.00  0.00     0.021 A 
ENDBRANCH   5   7
ENDBRANCH   4   5
ENDBRANCH   1   4
BRANCH   3  15
ATOM     15  C   UNL d   1      -7.279  -2.315  -0.001  0.00  0.00    -0.016 A 
ATOM     16  C   UNL d   1      -8.428  -1.569  -0.285  0.00  0.00     0.052 A 
ATOM     17  C   UNL d   1      -9.636  -2.236  -0.265  0.00  0.00     0.105 A 
ATOM     18  O   UNL d   1     -10.852  -1.686  -0.537  0.00  0.00    -0.323 OA
ATOM     19  C   UNL d   1      -9.727  -3.577   0.034  0.00  0.00     0.105 A 
ATOM     20  C   UNL d   1     -11.704  -2.848  -0.442  0.00  0.00     0.352 A 
ATOM     21  O   UNL d   1     -11.006  -4.035  -0.016  0.00  0.00    -0.323 OA
ATOM     22  C   UNL d   1      -8.614  -4.331   0.334  0.00  0.00     0.040 A 
ATOM     23  C   UNL d   1      -7.372  -3.689   0.313  0.00  0.00     0.016 A 
ENDBRANCH   3  15
TORSDOF 4
