REMARK  0 active torsions:
REMARK  status: ('A' for Active; 'I' for Inactive)
ROOT
ATOM      1  N   UNL d   1       0.942   0.391  -0.002  0.00  0.00    -0.287 N 
ATOM      2  N   UNL d   1       1.138  -2.000  -0.004  0.00  0.00    -0.326 N 
ATOM      3  HN  UNL d   1       1.752  -2.815  -0.006  1.00  0.00     0.169 HD
ATOM      4  C   UNL d   1       1.610  -0.806  -0.004  0.00  0.00     0.157 A 
ATOM      5  C   UNL d   1      -0.465   0.360  -0.001  0.00  0.00     0.127 A 
ATOM      6  C   UNL d   1      -0.239  -2.135  -0.001  0.00  0.00     0.116 A 
ATOM      7  C   UNL d   1      -1.101  -0.893   0.000  0.00  0.00     0.047 A 
ATOM      8  S   UNL d   1       3.362  -0.491  -0.007  0.00  0.00    -0.064 SA
ATOM      9  C   UNL d   1       1.754   1.508  -0.001  0.00  0.00     0.108 A 
ATOM     10  N   UNL d   1      -1.169   1.528  -0.000  0.00  0.00    -0.351 N 
ATOM     11  HN  UNL d   1      -0.690   2.429  -0.001  1.00  0.00     0.166 HD
ATOM     12  S   UNL d   1      -0.905  -3.693   0.003  0.00  0.00    -0.059 SA
ATOM     13  C   UNL d   1       3.069   1.240  -0.003  0.00  0.00     0.071 A 
ATOM     14  C   UNL d   1      -2.503  -0.923   0.002  0.00  0.00     0.020 A 
ATOM     15  C   UNL d   1      -2.518   1.456   0.001  0.00  0.00     0.090 A 
ATOM     16  C   UNL d   1      -3.222   0.268   0.002  0.00  0.00     0.018 A 
ENDROOT
TORSDOF 0
