REMARK  5 active torsions:
REMARK  status: ('A' for Active; 'I' for Inactive)
REMARK    1  A    between atoms: C_4  and  C_1 
REMARK    2  A    between atoms: C_2  and  S_7 
REMARK    3  A    between atoms: C_3  and  C_2 
REMARK    4  A    between atoms: S_7  and  C_16 
REMARK    5  A    between atoms: C_16  and  C_18 
ROOT
ATOM      1  S   UNL d   1       1.087  -4.458  -2.320  0.00  0.00    -0.083 SA
ENDROOT
BRANCH   1   2
ATOM      2  C   UNL d   1       0.863  -5.993  -3.148  0.00  0.00     0.219 C 
ATOM      3  O   UNL d   1       0.541  -6.029  -4.329  0.00  0.00    -0.280 OA
BRANCH   2   4
ATOM      4  C   UNL d   1       1.071  -7.261  -2.379  0.00  0.00     0.023 A 
ATOM      5  C   UNL d   1       1.414  -7.297  -1.020  0.00  0.00     0.041 A 
ATOM      6  C   UNL d   1       1.583  -8.522  -0.360  0.00  0.00     0.056 A 
ATOM      7 CL   UNL d   1       2.002  -8.475   1.317  0.00  0.00    -0.083 Cl
ATOM      8  C   UNL d   1       1.410  -9.726  -1.052  0.00  0.00     0.055 A 
ATOM      9  C   UNL d   1       1.067  -9.699  -2.405  0.00  0.00     0.026 A 
ATOM     10 CL   UNL d   1       1.602 -11.267  -0.298  0.00  0.00    -0.083 Cl
ATOM     11  C   UNL d   1       0.900  -8.476  -3.063  0.00  0.00     0.018 A 
ENDBRANCH   2   4
ENDBRANCH   1   2
BRANCH   1  12
ATOM     12  C   UNL d   1       0.094  -3.399  -3.409  0.00  0.00     0.121 C 
BRANCH  12  13
ATOM     13  C   UNL d   1       0.052  -1.972  -2.913  0.00  0.00    -0.048 A 
ATOM     14  C   UNL d   1       0.964  -1.021  -3.400  0.00  0.00     0.024 A 
ATOM     15  C   UNL d   1       0.928   0.312  -2.955  0.00  0.00     0.048 A 
ATOM     16  C   UNL d   1      -0.030   0.683  -2.001  0.00  0.00     0.016 A 
ATOM     17  C   UNL d   1      -0.930  -0.258  -1.499  0.00  0.00     0.001 A 
ATOM     18  C   UNL d   1      -0.888  -1.577  -1.950  0.00  0.00     0.008 A 
BRANCH  15  19
ATOM     19  C   UNL d   1       1.894   1.341  -3.490  0.00  0.00     0.417 C 
ATOM     20  F   UNL d   1       2.769   0.846  -4.409  0.00  0.00    -0.166 F 
ATOM     21  F   UNL d   1       2.659   1.899  -2.510  0.00  0.00    -0.166 F 
ATOM     22  F   UNL d   1       1.260   2.379  -4.103  0.00  0.00    -0.166 F 
ENDBRANCH  15  19
ENDBRANCH  12  13
ENDBRANCH   1  12
TORSDOF 5
