REMARK  5 active torsions:
REMARK  status: ('A' for Active; 'I' for Inactive)
REMARK    1  A    between atoms: N_2  and  S_1 
REMARK    2  A    between atoms: C_4  and  S_1 
REMARK       I    between atoms: C_3  and  N_7 
REMARK    3  A    between atoms: O_8  and  C_3 
REMARK    4  A    between atoms: N_7  and  C_17 
REMARK    5  A    between atoms: C_12  and  O_8 
ROOT
ATOM      1  N   UNL d   1       0.300   0.930   0.358  0.00  0.00    -0.206 NA
ATOM      2  C   UNL d   1      -1.124   1.258   0.046  0.00  0.00     0.109 C 
ATOM      3  C   UNL d   1       1.254   1.991  -0.079  0.00  0.00     0.109 C 
ATOM      4  C   UNL d   1       0.889   3.349   0.493  0.00  0.00     0.041 C 
ATOM      5  C   UNL d   1      -1.530   2.626   0.578  0.00  0.00     0.041 C 
ATOM      6  C   UNL d   1      -0.559   3.751   0.237  0.00  0.00     0.089 C 
ENDROOT
BRANCH   1   7
ATOM      7  S   UNL d   1       0.771  -0.630  -0.223  0.00  0.00     0.243 S 
ATOM      8  O   UNL d   1       2.216  -0.659  -0.336  0.00  0.00    -0.206 OA
ATOM      9  O   UNL d   1      -0.068  -0.984  -1.347  0.00  0.00    -0.206 OA
BRANCH   7  10
ATOM     10  C   UNL d   1       0.346  -1.731   1.112  0.00  0.00     0.074 A 
ATOM     11  C   UNL d   1      -0.908  -2.352   1.125  0.00  0.00     0.026 A 
ATOM     12  C   UNL d   1      -1.164  -3.361   2.059  0.00  0.00     0.025 A 
ATOM     13  C   UNL d   1      -0.167  -3.751   2.955  0.00  0.00     0.034 A 
ATOM     14  C   UNL d   1       1.082  -3.129   2.942  0.00  0.00     0.025 A 
ATOM     15 CL   UNL d   1      -0.469  -5.032   4.063  0.00  0.00    -0.084 Cl
ATOM     16  C   UNL d   1       1.339  -2.115   2.017  0.00  0.00     0.026 A 
ENDBRANCH   7  10
ENDBRANCH   1   7
BRANCH   6  17
ATOM     17  N   UNL d   1      -0.782   4.469  -1.020  0.00  0.00    -0.332 N 
ATOM     18  C   UNL d   1      -0.635   4.164  -2.339  0.00  0.00     0.361 C 
ATOM     19  O   UNL d   1      -0.674   5.064  -3.168  0.00  0.00    -0.238 OA
ATOM     20  H   UNL d   1      -0.919   5.469  -0.930  0.00  0.00     0.165 HD
BRANCH  18  21
ATOM     21  O   UNL d   1      -0.455   2.855  -2.615  0.00  0.00    -0.294 OA
BRANCH  21  22
ATOM     22  C   UNL d   1      -0.218   2.428  -3.993  0.00  0.00     0.061 C 
ATOM     23  C   UNL d   1       1.142   2.936  -4.491  0.00  0.00     0.046 C 
ATOM     24  C   UNL d   1      -0.178   0.895  -3.946  0.00  0.00     0.046 C 
ATOM     25  C   UNL d   1      -1.352   2.833  -4.948  0.00  0.00     0.046 C 
ENDBRANCH  21  22
ENDBRANCH  18  21
ENDBRANCH   6  17
TORSDOF 5
