REMARK  2 active torsions:
REMARK  status: ('A' for Active; 'I' for Inactive)
REMARK    1  A    between atoms: C_7  and  C_19 
REMARK    2  A    between atoms: C_19  and  C_14 
ROOT
ATOM      1  C   UNL d   1       7.281  -2.633   1.156  0.00  0.00    -0.004 A 
ATOM      2  C   UNL d   1       7.951  -2.847  -0.082  0.00  0.00    -0.013 A 
ATOM      3  C   UNL d   1       5.854  -2.578   1.186  0.00  0.00     0.062 A 
ATOM      4  C   UNL d   1       5.093  -2.739   0.008  0.00  0.00    -0.032 A 
ATOM      5  C   UNL d   1       9.389  -2.951  -0.125  0.00  0.00    -0.015 A 
ATOM      6  C   UNL d   1       5.165  -2.391   2.441  0.00  0.00     0.101 C 
ATOM      7  N   UNL d   1       4.597  -2.261   3.442  0.00  0.00    -0.191 NA
ATOM      8  C   UNL d   1       7.153  -2.950  -1.242  0.00  0.00     0.014 A 
ATOM      9  C   UNL d   1       8.071  -2.499   2.317  0.00  0.00     0.014 A 
ATOM     10  C   UNL d   1       5.763  -2.889  -1.204  0.00  0.00     0.010 A 
ATOM     11  C   UNL d   1      10.129  -2.804   1.072  0.00  0.00    -0.025 A 
ATOM     12  C   UNL d   1       9.462  -2.579   2.275  0.00  0.00     0.013 A 
ATOM     13  C   UNL d   1      10.139  -3.203  -1.304  0.00  0.00     0.013 A 
ATOM     14  C   UNL d   1      11.533  -2.884   1.062  0.00  0.00     0.012 A 
ATOM     15  C   UNL d   1      11.534  -3.284  -1.304  0.00  0.00     0.001 A 
ATOM     16  C   UNL d   1      12.232  -3.118  -0.120  0.00  0.00     0.001 A 
ENDROOT
BRANCH   4  17
ATOM     17  C   UNL d   1       3.580  -2.796  -0.003  0.00  0.00     0.078 C 
BRANCH  17  18
ATOM     18  C   UNL d   1       2.890  -1.454  -0.021  0.00  0.00    -0.051 A 
ATOM     19  C   UNL d   1       2.000  -1.131   1.010  0.00  0.00     0.020 A 
ATOM     20  C   UNL d   1       1.294   0.093   1.075  0.00  0.00    -0.013 A 
ATOM     21  C   UNL d   1       1.528   1.037   0.039  0.00  0.00    -0.004 A 
ATOM     22  C   UNL d   1       0.372   0.395   2.140  0.00  0.00    -0.015 A 
ATOM     23  C   UNL d   1       2.425   0.708  -1.014  0.00  0.00     0.056 A 
ATOM     24  C   UNL d   1       0.854   2.271   0.098  0.00  0.00     0.014 A 
ATOM     25  C   UNL d   1       2.709   1.633  -2.078  0.00  0.00     0.100 C 
ATOM     26  C   UNL d   1       3.077  -0.532  -1.048  0.00  0.00     0.031 A 
ATOM     27  N   UNL d   1       2.950   2.377  -2.936  0.00  0.00    -0.191 NA
ATOM     28  C   UNL d   1      -0.035   2.570   1.130  0.00  0.00     0.013 A 
ATOM     29  C   UNL d   1      -0.287   1.647   2.145  0.00  0.00    -0.025 A 
ATOM     30  C   UNL d   1      -1.198   1.971   3.166  0.00  0.00     0.012 A 
ATOM     31  C   UNL d   1      -1.478   1.075   4.193  0.00  0.00     0.001 A 
ATOM     32  C   UNL d   1      -0.846  -0.159   4.215  0.00  0.00     0.001 A 
ATOM     33  C   UNL d   1       0.062  -0.489   3.207  0.00  0.00     0.013 A 
ENDBRANCH  17  18
ENDBRANCH   4  17
TORSDOF 2
