REMARK  4 active torsions:
REMARK  status: ('A' for Active; 'I' for Inactive)
REMARK    1  A    between atoms: C_10  and  C_1 
REMARK    2  A    between atoms: C_11  and  C_6 
REMARK    3  A    between atoms: C_8  and  C_7 
REMARK       I    between atoms: N_12  and  C_8 
REMARK    4  A    between atoms: C_16  and  N_12 
ROOT
ATOM      1  C   UNL d   1       4.180   3.446   0.213  0.00  0.00     0.073 A 
ATOM      2  S   UNL d   1       2.845   2.824   1.091  0.00  0.00    -0.083 SA
ATOM      3  C   UNL d   1       2.480   1.657  -0.104  0.00  0.00     0.034 A 
ATOM      4  C   UNL d   1       4.389   2.690  -0.933  0.00  0.00     0.026 A 
ATOM      5  C   UNL d   1       3.411   1.670  -1.120  0.00  0.00     0.023 A 
ENDROOT
BRANCH   3   6
ATOM      6  C   UNL d   1       1.320   0.707  -0.042  0.00  0.00     0.067 A 
ATOM      7  C   UNL d   1       0.271   0.725   0.897  0.00  0.00     0.068 A 
ATOM      8  C   UNL d   1      -0.551  -0.341   0.572  0.00  0.00     0.136 A 
ATOM      9  N   UNL d   1       0.050  -0.946  -0.498  0.00  0.00    -0.292 N 
ATOM     10  N   UNL d   1       1.159  -0.294  -0.913  0.00  0.00    -0.297 N 
ATOM     11  C   UNL d   1      -0.293  -2.158  -1.208  0.00  0.00     0.178 C 
ATOM     12  HN  UNL d   1       1.747  -0.518  -1.717  1.00  0.00     0.187 HD
BRANCH   8  13
ATOM     13  C   UNL d   1      -1.801  -0.766   1.235  0.00  0.00     0.434 C 
ATOM     14  F   UNL d   1      -2.424  -1.814   0.650  0.00  0.00    -0.165 F 
ATOM     15  F   UNL d   1      -1.571  -1.121   2.525  0.00  0.00    -0.165 F 
ATOM     16  F   UNL d   1      -2.704   0.247   1.268  0.00  0.00    -0.165 F 
ENDBRANCH   8  13
ENDBRANCH   3   6
BRANCH   1  17
ATOM     17  C   UNL d   1       5.086   4.489   0.699  0.00  0.00     0.265 C 
ATOM     18  N   UNL d   1       4.622   5.581   1.469  0.00  0.00    -0.318 N 
ATOM     19  C   UNL d   1       3.224   6.001   1.593  0.00  0.00     0.159 C 
ATOM     20  O   UNL d   1       6.290   4.380   0.427  0.00  0.00    -0.267 OA
BRANCH  18  21
ATOM     21  C   UNL d   1       5.552   6.559   1.951  0.00  0.00     0.037 A 
ATOM     22  C   UNL d   1       6.492   7.148   1.096  0.00  0.00     0.029 A 
ATOM     23  C   UNL d   1       7.324   8.173   1.556  0.00  0.00     0.002 A 
ATOM     24  C   UNL d   1       7.243   8.598   2.880  0.00  0.00     0.000 A 
ATOM     25  C   UNL d   1       6.327   8.003   3.746  0.00  0.00     0.002 A 
ATOM     26  C   UNL d   1       5.474   6.999   3.280  0.00  0.00     0.029 A 
ENDBRANCH  18  21
ENDBRANCH   1  17
TORSDOF 4
