REMARK  3 active torsions:
REMARK  status: ('A' for Active; 'I' for Inactive)
REMARK    1  A    between atoms: C_8  and  N_1 
REMARK    2  A    between atoms: S_10  and  C_2 
REMARK    3  A    between atoms: C_15  and  C_11 
ROOT
ATOM      1  N   UNL d   1       2.438  -0.604   0.090  0.00  0.00    -0.257 N 
ATOM      2  C   UNL d   1       2.333   0.782   0.045  0.00  0.00     0.152 A 
ATOM      3  C   UNL d   1       1.305  -1.401   0.268  0.00  0.00     0.266 A 
ATOM      4  N   UNL d   1       1.210   1.423   0.081  0.00  0.00    -0.336 N 
ATOM      5  HN  UNL d   1       1.191   2.443   0.080  1.00  0.00     0.168 HD
ATOM      6  C   UNL d   1       0.010  -0.702   0.227  0.00  0.00     0.059 A 
ATOM      7  C   UNL d   1       0.024   0.684   0.120  0.00  0.00     0.049 A 
ATOM      8  O   UNL d   1       1.313  -2.618   0.439  0.00  0.00    -0.267 OA
ATOM      9  C   UNL d   1      -1.197  -1.412   0.240  0.00  0.00     0.019 A 
ATOM     10  C   UNL d   1      -1.193   1.365   0.017  0.00  0.00     0.030 A 
ATOM     11  C   UNL d   1      -2.405  -0.725   0.127  0.00  0.00     0.001 A 
ATOM     12  C   UNL d   1      -2.402   0.665   0.011  0.00  0.00     0.002 A 
ENDROOT
BRANCH   1  13
ATOM     13  C   UNL d   1       3.673  -1.286  -0.068  0.00  0.00     0.051 A 
ATOM     14  C   UNL d   1       4.083  -1.756  -1.335  0.00  0.00    -0.031 A 
ATOM     15  C   UNL d   1       5.340  -2.376  -1.435  0.00  0.00     0.009 A 
ATOM     16  C   UNL d   1       6.154  -2.539  -0.311  0.00  0.00     0.001 A 
ATOM     17  C   UNL d   1       5.728  -2.085   0.933  0.00  0.00     0.002 A 
ATOM     18  C   UNL d   1       4.490  -1.460   1.060  0.00  0.00     0.031 A 
BRANCH  14  19
ATOM     19  C   UNL d   1       3.254  -1.565  -2.589  0.00  0.00     0.036 C 
ATOM     20  C   UNL d   1       2.912  -2.869  -3.299  0.00  0.00     0.010 C 
ENDBRANCH  14  19
ENDBRANCH   1  13
BRANCH   2  21
ATOM     21  S   UNL d   1       3.769   1.790  -0.074  0.00  0.00    -0.106 SA
ATOM     22  H   UNL d   1       4.634   0.874  -0.519  0.00  0.00     0.110 HD
ENDBRANCH   2  21
TORSDOF 3
