REMARK  2 active torsions:
REMARK  status: ('A' for Active; 'I' for Inactive)
REMARK    1  A    between atoms: C_8  and  C_3 
REMARK    2  A    between atoms: O_16  and  C_12 
ROOT
ATOM      1  N   UNL d   1      -2.273   0.283   0.004  0.00  0.00    -0.308 N 
ATOM      2  HN  UNL d   1      -3.273   0.082   0.042  1.00  0.00     0.170 HD
ATOM      3  C   UNL d   1      -1.855   1.512  -0.042  0.00  0.00     0.118 A 
ATOM      4  C   UNL d   1      -1.359  -0.749  -0.000  0.00  0.00     0.259 A 
ATOM      5  N   UNL d   1      -0.530   1.882  -0.086  0.00  0.00    -0.341 N 
ATOM      6  C   UNL d   1       0.094  -0.440  -0.001  0.00  0.00     0.059 A 
ATOM      7  C   UNL d   1       0.465   0.906  -0.004  0.00  0.00     0.049 A 
ATOM      8  O   UNL d   1      -1.701  -1.927   0.009  0.00  0.00    -0.267 OA
ATOM      9  C   UNL d   1       1.061  -1.451   0.006  0.00  0.00     0.019 A 
ATOM     10  C   UNL d   1       1.821   1.239  -0.020  0.00  0.00     0.030 A 
ATOM     11  C   UNL d   1       2.413  -1.110   0.005  0.00  0.00     0.001 A 
ATOM     12  C   UNL d   1       2.792   0.233  -0.007  0.00  0.00     0.002 A 
ATOM     13  H   UNL d   1      -0.264   2.834   0.127  0.00  0.00     0.167 HD
ENDROOT
BRANCH   3  14
ATOM     14  C   UNL d   1      -2.889   2.596  -0.043  0.00  0.00     0.008 A 
ATOM     15  C   UNL d   1      -4.115   2.389   0.601  0.00  0.00     0.018 A 
ATOM     16  C   UNL d   1      -5.074   3.403   0.617  0.00  0.00     0.037 A 
ATOM     17  C   UNL d   1      -4.810   4.613  -0.016  0.00  0.00     0.065 A 
ATOM     18  C   UNL d   1      -3.603   4.827  -0.675  0.00  0.00     0.037 A 
ATOM     19  C   UNL d   1      -2.640   3.815  -0.690  0.00  0.00     0.018 A 
BRANCH  17  20
ATOM     20  O   UNL d   1      -5.774   5.576   0.028  0.00  0.00    -0.361 OA
ATOM     21  H   UNL d   1      -5.463   6.356  -0.460  0.00  0.00     0.217 HD
ENDBRANCH  17  20
ENDBRANCH   3  14
TORSDOF 2
