REMARK  4 active torsions:
REMARK  status: ('A' for Active; 'I' for Inactive)
REMARK    1  A    between atoms: C_2  and  S_1 
REMARK    2  A    between atoms: C_3  and  S_1 
REMARK    3  A    between atoms: C_7  and  C_3 
REMARK    4  A    between atoms: O_13  and  C_7 
ROOT
ATOM      1  S   UNL d   1       0.991   0.052   0.045  0.00  0.00     0.216 S 
ATOM      2  O   UNL d   1       0.181   0.896   0.909  0.00  0.00    -0.219 OA
ATOM      3  O   UNL d   1       2.428   0.234  -0.002  0.00  0.00    -0.219 OA
ENDROOT
BRANCH   1   4
ATOM      4  C   UNL d   1       0.380   0.392  -1.578  0.00  0.00     0.205 A 
ATOM      5  N   UNL d   1       0.508   1.595  -2.231  0.00  0.00    -0.337 N 
ATOM      6  C   UNL d   1      -0.115   1.479  -3.446  0.00  0.00     0.110 A 
ATOM      7  C   UNL d   1       1.136   2.797  -1.742  0.00  0.00     0.158 C 
ATOM      8  C   UNL d   1      -0.610   0.199  -3.477  0.00  0.00     0.107 A 
ATOM      9  N   UNL d   1      -0.327  -0.460  -2.309  0.00  0.00    -0.342 N 
ATOM     10  HN  UNL d   1      -0.602  -1.408  -2.055  1.00  0.00     0.167 HD
ENDBRANCH   1   4
BRANCH   1  11
ATOM     11  C   UNL d   1       0.573  -1.622   0.367  0.00  0.00     0.259 C 
BRANCH  11  12
ATOM     12  C   UNL d   1       1.186  -2.559  -0.616  0.00  0.00     0.272 C 
ATOM     13  O   UNL d   1       2.043  -2.311  -1.447  0.00  0.00    -0.264 OA
BRANCH  12  14
ATOM     14  O   UNL d   1       0.663  -3.808  -0.401  0.00  0.00    -0.326 OA
ATOM     15  C   UNL d   1       1.157  -4.818  -1.285  0.00  0.00     0.213 C 
ENDBRANCH  12  14
ENDBRANCH  11  12
ENDBRANCH   1  11
TORSDOF 4
