REMARK  2 active torsions:
REMARK  status: ('A' for Active; 'I' for Inactive)
REMARK    1  A    between atoms: C_8  and  N_2 
REMARK    2  A    between atoms: C_10  and  C_7 
ROOT
ATOM      1  C   UNL d   1       0.134  -0.760  -0.053  0.00  0.00     0.058 A 
ATOM      2  N   UNL d   1       0.579   1.449  -0.044  0.00  0.00    -0.220 N 
ATOM      3  C   UNL d   1       1.249   0.218  -0.122  0.00  0.00     0.279 A 
ATOM      4  N   UNL d   1      -0.811   1.344   0.039  0.00  0.00    -0.294 N 
ATOM      5  HN  UNL d   1      -1.481   2.110   0.107  1.00  0.00     0.187 HD
ATOM      6  C   UNL d   1      -1.079   0.067   0.011  0.00  0.00     0.038 A 
ATOM      7  C   UNL d   1       0.198  -2.098   0.003  0.00  0.00     0.030 C 
ATOM      8  O   UNL d   1       2.433  -0.046  -0.212  0.00  0.00    -0.265 OA
ATOM      9  C   UNL d   1      -2.465  -0.489   0.053  0.00  0.00     0.071 C 
ENDROOT
BRANCH   7  10
ATOM     10  C   UNL d   1       1.472  -2.818   0.069  0.00  0.00    -0.035 A 
ATOM     11  C   UNL d   1       2.043  -3.083   1.321  0.00  0.00     0.013 A 
ATOM     12  C   UNL d   1       3.308  -3.667   1.407  0.00  0.00     0.024 A 
ATOM     13  C   UNL d   1       4.000  -3.990   0.243  0.00  0.00     0.034 A 
ATOM     14  C   UNL d   1       3.433  -3.746  -1.008  0.00  0.00     0.024 A 
ATOM     15 CL   UNL d   1       5.573  -4.681   0.349  0.00  0.00    -0.084 Cl
ATOM     16  C   UNL d   1       2.166  -3.162  -1.096  0.00  0.00     0.013 A 
ENDBRANCH   7  10
BRANCH   2  17
ATOM     17  C   UNL d   1       1.169   2.737  -0.052  0.00  0.00     0.060 A 
ATOM     18  C   UNL d   1       2.522   2.923  -0.371  0.00  0.00     0.031 A 
ATOM     19  C   UNL d   1       3.094   4.199  -0.375  0.00  0.00     0.002 A 
ATOM     20  C   UNL d   1       2.325   5.310  -0.044  0.00  0.00     0.000 A 
ATOM     21  C   UNL d   1       0.981   5.145   0.281  0.00  0.00     0.002 A 
ATOM     22  C   UNL d   1       0.406   3.870   0.267  0.00  0.00     0.031 A 
ENDBRANCH   2  17
TORSDOF 2
