REMARK  7 active torsions:
REMARK  status: ('A' for Active; 'I' for Inactive)
REMARK    1  A    between atoms: N_4  and  C_1 
REMARK       I    between atoms: C_2  and  N_3 
REMARK    2  A    between atoms: C_6  and  C_2 
REMARK    3  A    between atoms: N_3  and  N_4 
REMARK    4  A    between atoms: C_14  and  C_13 
REMARK    5  A    between atoms: C_15  and  C_14 
REMARK    6  A    between atoms: C_17  and  C_15 
REMARK    7  A    between atoms: C_16  and  C_17 
ROOT
ATOM      1  C   UNL d   1      -1.072   2.617   2.659  0.00  0.00     0.033 A 
ATOM      2  C   UNL d   1      -1.734   1.389   2.737  0.00  0.00     0.017 A 
ATOM      3  C   UNL d   1      -1.806   3.808   2.704  0.00  0.00     0.017 A 
ATOM      4  C   UNL d   1      -3.197   3.769   2.786  0.00  0.00     0.008 A 
ATOM      5  C   UNL d   1      -3.131   1.354   2.809  0.00  0.00     0.008 A 
ATOM      6  C   UNL d   1      -3.876   2.543   2.816  0.00  0.00    -0.058 A 
ENDROOT
BRANCH   1   7
ATOM      7  C   UNL d   1       0.411   2.650   2.564  0.00  0.00     0.270 C 
ATOM      8  N   UNL d   1       0.921   3.685   1.792  0.00  0.00    -0.264 N 
ATOM      9  H   UNL d   1       0.349   4.047   1.039  0.00  0.00     0.190 HD
ATOM     10  O   UNL d   1       1.102   1.806   3.116  0.00  0.00    -0.266 OA
BRANCH   8  11
ATOM     11  N   UNL d   1       2.306   3.727   1.612  0.00  0.00    -0.274 N 
ATOM     12  H   UNL d   1       2.850   3.035   2.131  0.00  0.00     0.189 HD
BRANCH  11  13
ATOM     13  C   UNL d   1       2.942   4.726   0.946  0.00  0.00     0.184 C 
ATOM     14  S   UNL d   1       4.598   4.804   0.861  0.00  0.00    -0.040 SA
ATOM     15  N   UNL d   1       2.178   5.646   0.310  0.00  0.00    -0.375 N 
ATOM     16  H   UNL d   1       1.211   5.786   0.549  0.00  0.00     0.158 HD
ATOM     17  H   UNL d   1       2.659   6.429  -0.118  0.00  0.00     0.158 HD
ENDBRANCH  11  13
ENDBRANCH   8  11
ENDBRANCH   1   7
BRANCH   6  18
ATOM     18  C   UNL d   1      -5.386   2.505   2.865  0.00  0.00     0.038 C 
BRANCH  18  19
ATOM     19  C   UNL d   1      -6.066   3.223   1.692  0.00  0.00     0.005 C 
BRANCH  19  20
ATOM     20  C   UNL d   1      -5.739   2.602   0.330  0.00  0.00    -0.000 C 
BRANCH  20  21
ATOM     21  C   UNL d   1      -6.432   3.364  -0.800  0.00  0.00    -0.005 C 
ATOM     22  C   UNL d   1      -6.104   2.771  -2.160  0.00  0.00     0.005 C 
ENDBRANCH  20  21
ENDBRANCH  19  20
ENDBRANCH  18  19
ENDBRANCH   6  18
TORSDOF 7
