REMARK  4 active torsions:
REMARK  status: ('A' for Active; 'I' for Inactive)
REMARK    1  A    between atoms: C_5  and  C_1 
REMARK    2  A    between atoms: N_4  and  C_2 
REMARK    3  A    between atoms: S_3  and  N_4 
REMARK    4  A    between atoms: O_13  and  C_5 
ROOT
ATOM      1  C   UNL d   1       0.031   1.456   0.028  0.00  0.00     0.102 A 
ATOM      2  C   UNL d   1       1.358   1.050   0.016  0.00  0.00     0.046 A 
ATOM      3  S   UNL d   1      -1.030   0.097   0.053  0.00  0.00    -0.094 SA
ATOM      4  C   UNL d   1       1.480  -0.374  -0.009  0.00  0.00     0.033 A 
ATOM      5  C   UNL d   1       0.263  -1.012   0.019  0.00  0.00     0.052 A 
ENDROOT
BRANCH   2   6
ATOM      6  N   UNL d   1       2.490   1.890  -0.042  0.00  0.00    -0.184 NA
ATOM      7  H   UNL d   1       3.134   1.683  -0.811  0.00  0.00     0.146 HD
BRANCH   6   8
ATOM      8  S   UNL d   1       3.472   2.077   1.334  0.00  0.00     0.210 S 
ATOM      9  O   UNL d   1       3.178   1.036   2.293  0.00  0.00    -0.211 OA
ATOM     10  O   UNL d   1       4.812   2.266   0.820  0.00  0.00    -0.211 OA
ATOM     11  C   UNL d   1       2.895   3.631   1.976  0.00  0.00     0.180 C 
ENDBRANCH   6   8
ENDBRANCH   2   6
BRANCH   1  12
ATOM     12  C   UNL d   1      -0.572   2.777   0.003  0.00  0.00     0.301 C 
ATOM     13  O   UNL d   1      -1.772   3.028  -0.019  0.00  0.00    -0.259 OA
BRANCH  12  14
ATOM     14  O   UNL d   1       0.391   3.747   0.001  0.00  0.00    -0.322 OA
ATOM     15  C   UNL d   1      -0.111   5.083  -0.044  0.00  0.00     0.213 C 
ENDBRANCH  12  14
ENDBRANCH   1  12
TORSDOF 4
