REMARK  3 active torsions:
REMARK  status: ('A' for Active; 'I' for Inactive)
REMARK    1  A    between atoms: N_5  and  S_1 
REMARK    2  A    between atoms: C_7  and  S_1 
REMARK    3  A    between atoms: C_4  and  N_5 
ROOT
ATOM      1  N   UNL d   1       0.239  -1.124  -1.214  0.00  0.00    -0.210 NA
ATOM      2  H   UNL d   1       0.800  -1.729  -0.615  0.00  0.00     0.140 HD
ENDROOT
BRANCH   1   3
ATOM      3  C   UNL d   1       0.799  -0.935  -2.574  0.00  0.00     0.080 C 
ATOM      4  C   UNL d   1       1.392  -2.255  -3.195  0.00  0.00    -0.020 C 
ATOM      5  C   UNL d   1       1.302  -1.968  -4.735  0.00  0.00    -0.035 C 
ATOM      6  C   UNL d   1       0.355  -3.400  -3.012  0.00  0.00     0.012 C 
ATOM      7  C   UNL d   1       2.773  -2.629  -2.688  0.00  0.00     0.018 C 
ATOM      8  C   UNL d   1       1.647  -3.131  -5.684  0.00  0.00     0.016 C 
ATOM      9  C   UNL d   1       2.103  -0.748  -5.236  0.00  0.00     0.016 C 
ATOM     10  C   UNL d   1      -0.213  -1.716  -4.642  0.00  0.00    -0.004 C 
ATOM     11  C   UNL d   1      -0.311  -0.602  -3.593  0.00  0.00     0.027 C 
ATOM     12  C   UNL d   1      -0.770  -2.997  -3.977  0.00  0.00     0.006 C 
ENDBRANCH   1   3
BRANCH   1  13
ATOM     13  S   UNL d   1      -0.176   0.244  -0.295  0.00  0.00     0.241 S 
ATOM     14  O   UNL d   1       0.977   1.113  -0.294  0.00  0.00    -0.206 OA
ATOM     15  O   UNL d   1      -0.745  -0.253   0.943  0.00  0.00    -0.206 OA
BRANCH  13  16
ATOM     16  C   UNL d   1      -1.486   1.040  -1.198  0.00  0.00     0.074 A 
ATOM     17  C   UNL d   1      -2.676   0.345  -1.460  0.00  0.00     0.026 A 
ATOM     18  C   UNL d   1      -3.607   0.895  -2.347  0.00  0.00     0.025 A 
ATOM     19  C   UNL d   1      -3.375   2.149  -2.913  0.00  0.00     0.034 A 
ATOM     20  C   UNL d   1      -2.223   2.870  -2.596  0.00  0.00     0.025 A 
ATOM     21 CL   UNL d   1      -4.502   2.802  -4.039  0.00  0.00    -0.084 Cl
ATOM     22  C   UNL d   1      -1.272   2.313  -1.738  0.00  0.00     0.026 A 
ENDBRANCH  13  16
ENDBRANCH   1  13
TORSDOF 3
