REMARK  8 active torsions:
REMARK  status: ('A' for Active; 'I' for Inactive)
REMARK    1  A    between atoms: C_4  and  C_1 
REMARK    2  A    between atoms: C_5  and  C_2 
REMARK       I    between atoms: N_6  and  C_4 
REMARK       I    between atoms: N_7  and  C_5 
REMARK    3  A    between atoms: C_10  and  N_6 
REMARK    4  A    between atoms: C_11  and  N_7 
REMARK    5  A    between atoms: C_19  and  C_10 
REMARK    6  A    between atoms: C_18  and  C_11 
REMARK    7  A    between atoms: O_16  and  C_19 
REMARK    8  A    between atoms: O_17  and  C_18 
ROOT
ATOM      1  C   UNL d   1       0.320   1.212   0.012  0.00  0.00     0.071 A 
ATOM      2  C   UNL d   1       0.294  -1.234  -0.030  0.00  0.00     0.071 A 
ATOM      3  C   UNL d   1       1.002  -0.019  -0.015  0.00  0.00     0.147 A 
ATOM      4  F   UNL d   1       2.345  -0.033  -0.022  0.00  0.00    -0.204 F 
ATOM      5  C   UNL d   1      -1.089   1.205   0.031  0.00  0.00     0.020 A 
ATOM      6  C   UNL d   1      -1.114  -1.198  -0.032  0.00  0.00     0.020 A 
ATOM      7  C   UNL d   1      -1.802   0.011   0.004  0.00  0.00     0.002 A 
ENDROOT
BRANCH   1   8
ATOM      8  C   UNL d   1       0.967   2.566   0.032  0.00  0.00     0.255 C 
ATOM      9  N   UNL d   1       2.338   2.639   0.118  0.00  0.00    -0.346 N 
ATOM     10  H   UNL d   1       2.874   1.793  -0.055  0.00  0.00     0.163 HD
ATOM     11  O   UNL d   1       0.254   3.561  -0.014  0.00  0.00    -0.268 OA
BRANCH   9  12
ATOM     12  C   UNL d   1       3.137   3.891   0.055  0.00  0.00     0.047 C 
ATOM     13  C   UNL d   1       3.174   4.430  -1.386  0.00  0.00     0.040 C 
ATOM     14  C   UNL d   1       2.607   4.995   0.992  0.00  0.00     0.040 C 
BRANCH  12  15
ATOM     15  C   UNL d   1       4.574   3.551   0.532  0.00  0.00     0.194 C 
BRANCH  15  16
ATOM     16  O   UNL d   1       5.161   2.543  -0.289  0.00  0.00    -0.398 OA
ATOM     17  H   UNL d   1       6.071   2.421   0.034  0.00  0.00     0.209 HD
ENDBRANCH  15  16
ENDBRANCH  12  15
ENDBRANCH   9  12
ENDBRANCH   1   8
BRANCH   2  18
ATOM     18  C   UNL d   1       0.912  -2.603  -0.041  0.00  0.00     0.255 C 
ATOM     19  N   UNL d   1       2.284  -2.705  -0.097  0.00  0.00    -0.346 N 
ATOM     20  H   UNL d   1       2.833  -1.869   0.076  0.00  0.00     0.163 HD
ATOM     21  O   UNL d   1       0.177  -3.582  -0.004  0.00  0.00    -0.268 OA
BRANCH  19  22
ATOM     22  C   UNL d   1       3.054  -3.972   0.013  0.00  0.00     0.047 C 
ATOM     23  C   UNL d   1       3.048  -4.473   1.467  0.00  0.00     0.040 C 
ATOM     24  C   UNL d   1       2.523  -5.088  -0.907  0.00  0.00     0.040 C 
BRANCH  22  25
ATOM     25  C   UNL d   1       4.509  -3.672  -0.440  0.00  0.00     0.194 C 
BRANCH  25  26
ATOM     26  O   UNL d   1       5.097  -2.654   0.368  0.00  0.00    -0.398 OA
ATOM     27  H   UNL d   1       6.016  -2.558   0.063  0.00  0.00     0.209 HD
ENDBRANCH  25  26
ENDBRANCH  22  25
ENDBRANCH  19  22
ENDBRANCH   2  18
TORSDOF 8
