REMARK  4 active torsions:
REMARK  status: ('A' for Active; 'I' for Inactive)
REMARK    1  A    between atoms: S_4  and  C_1 
REMARK    2  A    between atoms: C_3  and  C_2 
REMARK    3  A    between atoms: O_9  and  C_3 
REMARK    4  A    between atoms: C_8  and  S_4 
ROOT
ATOM      1  C   UNL d   1      -0.615   1.283  -0.034  0.00  0.00     0.091 A 
ATOM      2  C   UNL d   1       0.766   1.248   0.161  0.00  0.00     0.071 A 
ATOM      3  N   UNL d   1      -1.349   0.159  -0.256  0.00  0.00    -0.359 N 
ATOM      4  HN  UNL d   1      -2.360   0.208  -0.384  1.00  0.00     0.166 HD
ATOM      5  C   UNL d   1       1.405  -0.002   0.100  0.00  0.00     0.022 A 
ATOM      6  C   UNL d   1      -0.700  -1.026  -0.300  0.00  0.00     0.089 A 
ATOM      7  C   UNL d   1       0.664  -1.156  -0.128  0.00  0.00     0.018 A 
ENDROOT
BRANCH   1   8
ATOM      8  S   UNL d   1      -1.599   2.768   0.081  0.00  0.00    -0.072 SA
BRANCH   8   9
ATOM      9  C   UNL d   1      -1.786   3.201  -1.635  0.00  0.00     0.007 A 
ATOM     10  C   UNL d   1      -2.808   2.629  -2.402  0.00  0.00     0.020 A 
ATOM     11  C   UNL d   1      -3.021   3.048  -3.719  0.00  0.00     0.025 A 
ATOM     12  C   UNL d   1      -2.212   4.040  -4.270  0.00  0.00     0.034 A 
ATOM     13  C   UNL d   1      -1.185   4.608  -3.519  0.00  0.00     0.025 A 
ATOM     14 CL   UNL d   1      -2.495   4.580  -5.878  0.00  0.00    -0.084 Cl
ATOM     15  C   UNL d   1      -0.973   4.191  -2.201  0.00  0.00     0.020 A 
ENDBRANCH   8   9
ENDBRANCH   1   8
BRANCH   2  16
ATOM     16  C   UNL d   1       1.638   2.421   0.405  0.00  0.00     0.179 C 
ATOM     17  O   UNL d   1       2.806   2.434   0.050  0.00  0.00    -0.646 OA
BRANCH  16  18
ATOM     18  O   UNL d   1       1.099   3.429   1.121  0.00  0.00    -0.773 OA
ATOM     19  H   UNL d   1       0.155   3.332   1.353  0.00  0.00     0.167 HD
ENDBRANCH  16  18
ENDBRANCH   2  16
TORSDOF 4
