REMARK  9 active torsions:
REMARK  status: ('A' for Active; 'I' for Inactive)
REMARK    1  A    between atoms: N_2  and  C_1 
REMARK    2  A    between atoms: N_9  and  C_1 
REMARK    3  A    between atoms: C_6  and  N_2 
REMARK    4  A    between atoms: O_14  and  C_3 
REMARK    5  A    between atoms: O_15  and  C_5 
REMARK    6  A    between atoms: C_16  and  N_9 
REMARK    7  A    between atoms: C_11  and  C_20 
REMARK    8  A    between atoms: O_17  and  C_12 
REMARK    9  A    between atoms: C_20  and  C_16 
ROOT
ATOM      1  N   UNL d   1       2.439  -0.031   0.103  0.00  0.00    -0.367 N 
ATOM      2  H   UNL d   1       2.908   0.870   0.082  0.00  0.00     0.161 HD
ENDROOT
BRANCH   1   3
ATOM      3  C   UNL d   1       1.077   0.058   0.010  0.00  0.00     0.172 C 
ATOM      4  S   UNL d   1       0.428   1.600  -0.004  0.00  0.00    -0.041 SA
BRANCH   3   5
ATOM      5  N   UNL d   1       0.410  -1.145  -0.031  0.00  0.00    -0.333 N 
ATOM      6  H   UNL d   1       0.789  -1.853   0.583  0.00  0.00     0.168 HD
BRANCH   5   7
ATOM      7  C   UNL d   1      -0.879  -1.405  -0.546  0.00  0.00     0.036 A 
ATOM      8  C   UNL d   1      -1.397  -0.689  -1.628  0.00  0.00     0.066 A 
ATOM      9  C   UNL d   1      -2.690  -0.929  -2.093  0.00  0.00     0.070 A 
ATOM     10  C   UNL d   1      -3.449  -1.941  -1.500  0.00  0.00     0.037 A 
ATOM     11  C   UNL d   1      -2.914  -2.711  -0.463  0.00  0.00     0.005 A 
ATOM     12  C   UNL d   1      -1.626  -2.448   0.007  0.00  0.00     0.029 A 
BRANCH   9  13
ATOM     13  O   UNL d   1      -3.308  -0.249  -3.107  0.00  0.00    -0.356 OA
ATOM     14  C   UNL d   1      -2.603   0.867  -3.643  0.00  0.00     0.210 C 
ENDBRANCH   9  13
ENDBRANCH   5   7
ENDBRANCH   3   5
ENDBRANCH   1   3
BRANCH   1  15
ATOM     15  C   UNL d   1       3.233  -1.231  -0.079  0.00  0.00     0.126 C 
BRANCH  15  16
ATOM     16  C   UNL d   1       4.732  -0.945  -0.156  0.00  0.00     0.058 C 
BRANCH  16  17
ATOM     17  C   UNL d   1       5.476  -2.242  -0.343  0.00  0.00    -0.054 A 
ATOM     18  C   UNL d   1       5.719  -2.740  -1.633  0.00  0.00     0.046 A 
ATOM     19  C   UNL d   1       6.264  -4.018  -1.828  0.00  0.00     0.102 A 
ATOM     20  C   UNL d   1       6.620  -4.783  -0.705  0.00  0.00     0.101 A 
ATOM     21  C   UNL d   1       6.384  -4.279   0.580  0.00  0.00     0.040 A 
ATOM     22  C   UNL d   1       5.819  -3.019   0.764  0.00  0.00     0.010 A 
BRANCH  19  23
ATOM     23  O   UNL d   1       6.457  -4.548  -3.074  0.00  0.00    -0.353 OA
ATOM     24  C   UNL d   1       5.566  -4.110  -4.096  0.00  0.00     0.210 C 
ENDBRANCH  19  23
BRANCH  20  25
ATOM     25  O   UNL d   1       7.129  -6.056  -0.692  0.00  0.00    -0.353 OA
ATOM     26  C   UNL d   1       7.939  -6.439  -1.793  0.00  0.00     0.210 C 
ENDBRANCH  20  25
ENDBRANCH  16  17
ENDBRANCH  15  16
ENDBRANCH   1  15
TORSDOF 9
