REMARK  6 active torsions:
REMARK  status: ('A' for Active; 'I' for Inactive)
REMARK    1  A    between atoms: C_2  and  C_1 
REMARK       I    between atoms: N_3  and  C_1 
REMARK       I    between atoms: C_4  and  N_3 
REMARK       I    between atoms: N_12  and  C_4 
REMARK    2  A    between atoms: C_5  and  C_8 
REMARK    3  A    between atoms: C_6  and  C_9 
REMARK    4  A    between atoms: O_27  and  C_7 
REMARK    5  A    between atoms: C_11  and  N_12 
REMARK    6  A    between atoms: O_29  and  C_13 
ROOT
ATOM      1  C   UNL d   1       0.817  -0.367   0.367  0.00  0.00     0.265 C 
ATOM      2  N   UNL d   1      -0.302  -0.857   1.052  0.00  0.00    -0.275 N 
ATOM      3  C   UNL d   1      -1.592  -0.488   1.453  0.00  0.00     0.327 C 
ATOM      4  N   UNL d   1      -2.132   0.622   0.866  0.00  0.00    -0.309 N 
ATOM      5  O   UNL d   1       1.876  -0.986   0.428  0.00  0.00    -0.267 OA
ATOM      6  O   UNL d   1      -2.126  -1.147   2.342  0.00  0.00    -0.247 OA
ATOM      7  H   UNL d   1      -0.043  -1.671   1.597  0.00  0.00     0.173 HD
ATOM      8  H   UNL d   1      -1.629   1.007   0.090  0.00  0.00     0.170 HD
ENDROOT
BRANCH   4   9
ATOM      9  C   UNL d   1      -3.333   1.288   1.175  0.00  0.00     0.037 A 
ATOM     10  C   UNL d   1      -4.315   0.788   2.030  0.00  0.00     0.045 A 
ATOM     11  C   UNL d   1      -5.454   1.554   2.343  0.00  0.00     0.050 A 
ATOM     12  C   UNL d   1      -5.572   2.851   1.818  0.00  0.00     0.032 A 
ATOM     13  C   UNL d   1      -4.594   3.369   0.958  0.00  0.00     0.050 A 
ATOM     14  C   UNL d   1      -3.506   2.556   0.605  0.00  0.00     0.045 A 
BRANCH  11  15
ATOM     15  C   UNL d   1      -6.518   0.983   3.251  0.00  0.00     0.417 C 
ATOM     16  F   UNL d   1      -7.594   1.808   3.400  0.00  0.00    -0.166 F 
ATOM     17  F   UNL d   1      -7.020  -0.197   2.795  0.00  0.00    -0.166 F 
ATOM     18  F   UNL d   1      -6.060   0.742   4.509  0.00  0.00    -0.166 F 
ENDBRANCH  11  15
BRANCH  13  19
ATOM     19  C   UNL d   1      -4.689   4.781   0.434  0.00  0.00     0.417 C 
ATOM     20  F   UNL d   1      -5.315   5.627   1.297  0.00  0.00    -0.166 F 
ATOM     21  F   UNL d   1      -3.470   5.337   0.190  0.00  0.00    -0.166 F 
ATOM     22  F   UNL d   1      -5.378   4.858  -0.739  0.00  0.00    -0.166 F 
ENDBRANCH  13  19
ENDBRANCH   4   9
BRANCH   1  23
ATOM     23  C   UNL d   1       0.752   0.843  -0.469  0.00  0.00     0.100 C 
ATOM     24  C   UNL d   1      -0.136   0.911  -1.556  0.00  0.00     0.108 C 
ATOM     25  C   UNL d   1      -0.312   2.129  -2.227  0.00  0.00     0.068 C 
ATOM     26 CL   UNL d   1      -1.550   2.329  -3.413  0.00  0.00    -0.081 Cl
ATOM     27  C   UNL d   1       0.457   3.236  -1.887  0.00  0.00     0.029 C 
ATOM     28  C   UNL d   1       1.418   3.137  -0.877  0.00  0.00     0.039 C 
ATOM     29  C   UNL d   1       1.589   1.940  -0.178  0.00  0.00     0.086 C 
BRANCH  24  30
ATOM     30  O   UNL d   1      -1.009  -0.116  -1.827  0.00  0.00    -0.353 OA
ATOM     31  C   UNL d   1      -0.370  -1.219  -2.475  0.00  0.00     0.210 C 
ENDBRANCH  24  30
BRANCH  29  32
ATOM     32  O   UNL d   1       2.447   1.860   0.889  0.00  0.00    -0.355 OA
ATOM     33  C   UNL d   1       3.762   2.370   0.657  0.00  0.00     0.210 C 
ENDBRANCH  29  32
ENDBRANCH   1  23
TORSDOF 6
