REMARK  6 active torsions:
REMARK  status: ('A' for Active; 'I' for Inactive)
REMARK    1  A    between atoms: N_2  and  S_1 
REMARK    2  A    between atoms: C_5  and  S_1 
REMARK    3  A    between atoms: N_3  and  N_2 
REMARK    4  A    between atoms: C_4  and  N_3 
REMARK    5  A    between atoms: N_8  and  C_4 
REMARK    6  A    between atoms: C_12  and  N_8 
ROOT
ATOM      1  N   UNL d   1       0.732   1.071  -0.836  0.00  0.00    -0.221 N 
ATOM      2  H   UNL d   1       0.824   0.806  -1.820  0.00  0.00     0.200 HD
ENDROOT
BRANCH   1   3
ATOM      3  S   UNL d   1       1.192  -0.126   0.267  0.00  0.00     0.276 S 
ATOM      4  O   UNL d   1       0.873  -1.402  -0.320  0.00  0.00    -0.199 OA
ATOM      5  O   UNL d   1       0.704   0.273   1.571  0.00  0.00    -0.199 OA
BRANCH   3   6
ATOM      6  C   UNL d   1       2.963   0.052   0.264  0.00  0.00     0.081 A 
ATOM      7  C   UNL d   1       3.586   0.812   1.262  0.00  0.00     0.026 A 
ATOM      8  C   UNL d   1       4.976   0.949   1.261  0.00  0.00     0.008 A 
ATOM      9  C   UNL d   1       5.751   0.321   0.276  0.00  0.00    -0.062 A 
ATOM     10  C   UNL d   1       5.115  -0.451  -0.706  0.00  0.00     0.008 A 
ATOM     11  C   UNL d   1       7.243   0.490   0.283  0.00  0.00     0.048 C 
ATOM     12  C   UNL d   1       3.727  -0.594  -0.711  0.00  0.00     0.026 A 
ENDBRANCH   3   6
ENDBRANCH   1   3
BRANCH   1  13
ATOM     13  N   UNL d   1       0.812   2.472  -0.463  0.00  0.00    -0.266 N 
ATOM     14  H   UNL d   1       0.713   2.690   0.529  0.00  0.00     0.190 HD
BRANCH  13  15
ATOM     15  C   UNL d   1       1.481   3.369  -1.254  0.00  0.00     0.191 C 
ATOM     16  S   UNL d   1       2.612   2.947  -2.417  0.00  0.00    -0.039 SA
BRANCH  15  17
ATOM     17  N   UNL d   1       1.251   4.697  -1.032  0.00  0.00    -0.332 N 
ATOM     18  H   UNL d   1       1.969   5.292  -1.434  0.00  0.00     0.168 HD
BRANCH  17  19
ATOM     19  C   UNL d   1       0.005   5.346  -0.847  0.00  0.00     0.034 A 
ATOM     20  C   UNL d   1      -1.220   4.686  -0.726  0.00  0.00     0.029 A 
ATOM     21  C   UNL d   1      -2.416   5.411  -0.701  0.00  0.00     0.002 A 
ATOM     22  C   UNL d   1      -2.400   6.800  -0.800  0.00  0.00     0.000 A 
ATOM     23  C   UNL d   1      -1.185   7.470  -0.902  0.00  0.00     0.002 A 
ATOM     24  C   UNL d   1       0.011   6.746  -0.919  0.00  0.00     0.029 A 
ENDBRANCH  17  19
ENDBRANCH  15  17
ENDBRANCH  13  15
ENDBRANCH   1  13
TORSDOF 6
