REMARK  1 active torsions:
REMARK  status: ('A' for Active; 'I' for Inactive)
REMARK    1  A    between atoms: C_3  and  N_1 
ROOT
ATOM      1  C   UNL d   1       2.136  -1.514   0.054  0.00  0.00     0.051 A 
ATOM      2  C   UNL d   1       3.172  -1.383   0.996  0.00  0.00     0.057 A 
ATOM      3  C   UNL d   1       4.295  -2.217   0.955  0.00  0.00     0.074 A 
ATOM      4  C   UNL d   1       4.409  -3.185  -0.036  0.00  0.00     0.138 A 
ATOM      5  C   UNL d   1       2.276  -2.510  -0.932  0.00  0.00     0.034 A 
ATOM      6  C   UNL d   1       3.406  -3.334  -0.984  0.00  0.00     0.046 A 
ATOM      7 CL   UNL d   1       5.523  -2.045   2.150  0.00  0.00    -0.081 Cl
ATOM      8  F   UNL d   1       5.479  -3.990  -0.096  0.00  0.00    -0.204 F 
ENDROOT
BRANCH   1   9
ATOM      9  N   UNL d   1       0.981  -0.674   0.106  0.00  0.00    -0.248 N 
ATOM     10  C   UNL d   1       0.868   0.512   0.836  0.00  0.00     0.259 A 
ATOM     11  C   UNL d   1      -0.499   1.066   0.704  0.00  0.00     0.084 A 
ATOM     12  O   UNL d   1       1.706   1.105   1.502  0.00  0.00    -0.267 OA
ATOM     13  C   UNL d   1      -1.268   0.309  -0.077  0.00  0.00     0.074 A 
ATOM     14  S   UNL d   1      -0.471  -1.074  -0.725  0.00  0.00    -0.016 SA
ENDBRANCH   1   9
TORSDOF 1
