REMARK  5 active torsions:
REMARK  status: ('A' for Active; 'I' for Inactive)
REMARK    1  A    between atoms: C_2  and  S_1 
REMARK    2  A    between atoms: C_5  and  S_1 
REMARK    3  A    between atoms: C_3  and  C_2 
REMARK       I    between atoms: N_9  and  C_3 
REMARK    4  A    between atoms: C_4  and  C_6 
REMARK    5  A    between atoms: C_21  and  N_9 
ROOT
ATOM      1  S   UNL d   1       1.267   0.159  -0.119  0.00  0.00     0.207 S 
ATOM      2  O   UNL d   1       0.877   1.273  -0.973  0.00  0.00    -0.220 OA
ATOM      3  O   UNL d   1       1.035  -1.196  -0.585  0.00  0.00    -0.220 OA
ENDROOT
BRANCH   1   4
ATOM      4  C   UNL d   1       0.445   0.338   1.459  0.00  0.00     0.143 C 
ATOM      5  C   UNL d   1      -1.071   0.196   1.256  0.00  0.00     0.042 C 
ATOM      6  C   UNL d   1       0.904  -0.783   2.420  0.00  0.00     0.042 C 
BRANCH   4   7
ATOM      7  C   UNL d   1       0.785   1.698   2.088  0.00  0.00     0.245 C 
ATOM      8  N   UNL d   1       0.512   2.838   1.346  0.00  0.00    -0.326 N 
ATOM      9  H   UNL d   1       0.172   2.719   0.391  0.00  0.00     0.169 HD
ATOM     10  O   UNL d   1       1.196   1.725   3.255  0.00  0.00    -0.271 OA
BRANCH   8  11
ATOM     11  C   UNL d   1       0.755   4.176   1.742  0.00  0.00     0.034 A 
ATOM     12  C   UNL d   1       1.420   4.529   2.920  0.00  0.00     0.029 A 
ATOM     13  C   UNL d   1       1.584   5.870   3.285  0.00  0.00     0.002 A 
ATOM     14  C   UNL d   1       1.090   6.880   2.467  0.00  0.00     0.000 A 
ATOM     15  C   UNL d   1       0.458   6.548   1.272  0.00  0.00     0.002 A 
ATOM     16  C   UNL d   1       0.298   5.205   0.904  0.00  0.00     0.029 A 
ENDBRANCH   8  11
ENDBRANCH   4   7
ENDBRANCH   1   4
BRANCH   1  17
ATOM     17  C   UNL d   1       3.013   0.294   0.209  0.00  0.00     0.129 A 
ATOM     18  N   UNL d   1       3.385   1.484   0.737  0.00  0.00    -0.356 N 
ATOM     19  C   UNL d   1       4.703   1.642   0.995  0.00  0.00     0.105 A 
ATOM     20  HN  UNL d   1       2.708   2.222   0.930  1.00  0.00     0.166 HD
ATOM     21  C   UNL d   1       5.660   0.666   0.749  0.00  0.00     0.063 A 
ATOM     22  C   UNL d   1       5.227  -0.557   0.216  0.00  0.00     0.020 A 
ATOM     23  C   UNL d   1       3.878  -0.752  -0.065  0.00  0.00     0.043 A 
BRANCH  21  24
ATOM     24  C   UNL d   1       7.109   0.927   1.030  0.00  0.00     0.418 C 
ATOM     25  F   UNL d   1       7.357   2.175   1.514  0.00  0.00    -0.166 F 
ATOM     26  F   UNL d   1       7.625   0.061   1.945  0.00  0.00    -0.166 F 
ATOM     27  F   UNL d   1       7.882   0.798  -0.083  0.00  0.00    -0.166 F 
ENDBRANCH  21  24
ENDBRANCH   1  17
TORSDOF 5
