REMARK  2 active torsions:
REMARK  status: ('A' for Active; 'I' for Inactive)
REMARK    1  A    between atoms: N_2  and  C_1 
REMARK       I    between atoms: C_4  and  N_2 
REMARK       I    between atoms: N_8  and  C_4 
REMARK    2  A    between atoms: C_9  and  N_8 
ROOT
ATOM      1  N   UNL d   1       5.373  -0.995  -0.970  0.00  0.00    -0.303 N 
ATOM      2  C   UNL d   1       4.227  -0.494  -0.400  0.00  0.00     0.321 C 
ATOM      3  N   UNL d   1       4.251   0.773   0.066  0.00  0.00    -0.338 N 
ATOM      4  O   UNL d   1       3.216  -1.192  -0.378  0.00  0.00    -0.247 OA
ATOM      5  H   UNL d   1       5.210  -1.915  -1.358  0.00  0.00     0.171 HD
ATOM      6  H   UNL d   1       5.150   1.228   0.063  0.00  0.00     0.164 HD
ENDROOT
BRANCH   1   7
ATOM      7  C   UNL d   1       6.575  -0.391  -1.296  0.00  0.00     0.079 C 
ATOM      8  S   UNL d   1       7.040   1.122  -0.692  0.00  0.00    -0.072 SA
ATOM      9  C   UNL d   1       8.364   1.249  -1.771  0.00  0.00     0.017 A 
ATOM     10  C   UNL d   1       9.173   2.380  -1.985  0.00  0.00     0.020 A 
ATOM     11  C   UNL d   1       8.562   0.054  -2.463  0.00  0.00    -0.016 A 
ATOM     12  C   UNL d   1      10.184   2.309  -2.942  0.00  0.00     0.001 A 
ATOM     13  C   UNL d   1      10.424   1.123  -3.624  0.00  0.00     0.001 A 
ATOM     14  C   UNL d   1       9.638  -0.009  -3.381  0.00  0.00     0.013 A 
ATOM     15  C   UNL d   1       7.543  -0.909  -2.127  0.00  0.00     0.050 C 
ENDBRANCH   1   7
BRANCH   3  16
ATOM     16  C   UNL d   1       3.129   1.575   0.495  0.00  0.00     0.094 C 
ATOM     17  C   UNL d   1       2.363   1.116   1.751  0.00  0.00     0.064 C 
ATOM     18  C   UNL d   1       1.182   2.045   1.652  0.00  0.00    -0.050 A 
ATOM     19  C   UNL d   1       0.368   2.521   2.664  0.00  0.00     0.007 A 
ATOM     20  C   UNL d   1       0.999   2.461   0.322  0.00  0.00    -0.050 A 
ATOM     21  C   UNL d   1      -0.622   3.450   2.331  0.00  0.00     0.001 A 
ATOM     22  C   UNL d   1      -0.802   3.865   1.000  0.00  0.00     0.001 A 
ATOM     23  C   UNL d   1       0.004   3.358  -0.021  0.00  0.00     0.007 A 
ATOM     24  C   UNL d   1       2.040   1.839  -0.565  0.00  0.00     0.064 C 
ENDBRANCH   3  16
TORSDOF 2
