REMARK  5 active torsions:
REMARK  status: ('A' for Active; 'I' for Inactive)
REMARK    1  A    between atoms: N_8  and  C_1 
REMARK       I    between atoms: C_9  and  N_8 
REMARK    2  A    between atoms: C_10  and  C_9 
REMARK    3  A    between atoms: C_13  and  C_16 
REMARK    4  A    between atoms: O_27  and  C_18 
REMARK    5  A    between atoms: O_28  and  C_19 
ROOT
ATOM      1  C   UNL d   1       2.293   0.707   0.532  0.00  0.00     0.155 C 
ATOM      2  S   UNL d   1       2.317  -0.793   1.401  0.00  0.00    -0.011 SA
ATOM      3  C   UNL d   1      -0.105  -0.787   0.211  0.00  0.00     0.051 A 
ATOM      4  C   UNL d   1       1.118  -1.555   0.415  0.00  0.00     0.229 C 
ATOM      5  N   UNL d   1       1.221   1.277   0.073  0.00  0.00    -0.336 N 
ATOM      6  HN  UNL d   1       1.274   2.204  -0.349  1.00  0.00     0.168 HD
ATOM      7  C   UNL d   1      -0.022   0.605   0.159  0.00  0.00     0.051 A 
ATOM      8  C   UNL d   1      -1.318  -1.471   0.148  0.00  0.00     0.058 A 
ATOM      9  C   UNL d   1      -1.222   1.310   0.104  0.00  0.00     0.070 A 
ATOM     10  C   UNL d   1      -2.515  -0.761   0.137  0.00  0.00     0.102 A 
ATOM     11  C   UNL d   1      -2.467   0.646   0.132  0.00  0.00     0.103 A 
ATOM     12  O   UNL d   1       1.230  -2.707   0.014  0.00  0.00    -0.279 OA
ENDROOT
BRANCH   1  13
ATOM     13  N   UNL d   1       3.496   1.345   0.292  0.00  0.00    -0.303 N 
ATOM     14  C   UNL d   1       4.797   0.930   0.591  0.00  0.00     0.259 C 
ATOM     15  O   UNL d   1       5.083  -0.070   1.236  0.00  0.00    -0.267 OA
ATOM     16  H   UNL d   1       3.370   2.164  -0.283  0.00  0.00     0.171 HD
BRANCH  14  17
ATOM     17  C   UNL d   1       5.914   1.790   0.120  0.00  0.00     0.054 A 
ATOM     18  C   UNL d   1       7.176   1.254  -0.176  0.00  0.00     0.021 A 
ATOM     19  N   UNL d   1       8.240   2.041  -0.500  0.00  0.00    -0.355 N 
ATOM     20  C   UNL d   1       7.473  -0.221  -0.192  0.00  0.00     0.069 C 
ATOM     21  C   UNL d   1       8.087   3.393  -0.522  0.00  0.00     0.117 A 
ATOM     22  HN  UNL d   1       9.142   1.621  -0.723  1.00  0.00     0.166 HD
ATOM     23  C   UNL d   1       6.854   3.986  -0.262  0.00  0.00     0.035 A 
ATOM     24  C   UNL d   1       5.763   3.181   0.064  0.00  0.00     0.021 A 
BRANCH  21  25
ATOM     25  C   UNL d   1       9.294   4.282  -0.799  0.00  0.00     0.432 C 
ATOM     26  F   UNL d   1      10.458   3.607  -1.012  0.00  0.00    -0.165 F 
ATOM     27  F   UNL d   1       9.113   5.072  -1.898  0.00  0.00    -0.165 F 
ATOM     28  F   UNL d   1       9.545   5.144   0.230  0.00  0.00    -0.165 F 
ENDBRANCH  21  25
ENDBRANCH  14  17
ENDBRANCH   1  13
BRANCH  11  29
ATOM     29  O   UNL d   1      -3.549   1.494   0.119  0.00  0.00    -0.353 OA
ATOM     30  C   UNL d   1      -4.716   1.041   0.802  0.00  0.00     0.210 C 
ENDBRANCH  11  29
BRANCH  10  31
ATOM     31  O   UNL d   1      -3.726  -1.397   0.087  0.00  0.00    -0.353 OA
ATOM     32  C   UNL d   1      -3.771  -2.701   0.666  0.00  0.00     0.210 C 
ENDBRANCH  10  31
TORSDOF 5
