REMARK  3 active torsions:
REMARK  status: ('A' for Active; 'I' for Inactive)
REMARK    1  A    between atoms: C_3  and  N_1 
REMARK    2  A    between atoms: C_2  and  S_4 
REMARK    3  A    between atoms: S_4  and  C_9 
ROOT
ATOM      1  C   UNL d   1       0.336   1.134  -0.694  0.00  0.00     0.118 A 
ATOM      2  N   UNL d   1      -1.472   2.727  -0.616  0.00  0.00    -0.358 N 
ATOM      3  HN  UNL d   1      -2.272   3.129  -0.127  1.00  0.00     0.166 HD
ATOM      4  C   UNL d   1      -1.092   3.190  -1.834  0.00  0.00     0.076 A 
ATOM      5  C   UNL d   1      -0.756   1.711  -0.069  0.00  0.00     0.124 A 
ATOM      6  C   UNL d   1       0.729   1.617  -1.941  0.00  0.00     0.040 A 
ATOM      7  C   UNL d   1       0.009   2.669  -2.512  0.00  0.00     0.040 A 
ENDROOT
BRANCH   4   8
ATOM      8  S   UNL d   1      -2.000   4.586  -2.438  0.00  0.00    -0.048 SA
BRANCH   8   9
ATOM      9  C   UNL d   1      -2.666   4.011  -3.927  0.00  0.00     0.110 C 
ATOM     10  N   UNL d   1      -2.091   3.159  -4.710  0.00  0.00    -0.378 N 
ATOM     11  C   UNL d   1      -2.893   3.016  -5.943  0.00  0.00     0.131 C 
ATOM     12  HN  UNL d   1      -1.222   2.664  -4.509  1.00  0.00     0.160 HD
ATOM     13  C   UNL d   1      -4.343   3.382  -5.676  0.00  0.00     0.101 C 
ATOM     14  S   UNL d   1      -4.203   4.668  -4.426  0.00  0.00    -0.103 SA
ENDBRANCH   8   9
ENDBRANCH   4   8
BRANCH   1  15
ATOM     15  N   UNL d   1       1.057   0.049  -0.045  0.00  0.00    -0.114 N 
ATOM     16  O   UNL d   1       0.669  -0.313   1.075  0.00  0.00    -0.532 OA
ATOM     17  O   UNL d   1       2.015  -0.448  -0.651  0.00  0.00    -0.532 OA
ENDBRANCH   1  15
TORSDOF 3
