REMARK  1 active torsions:
REMARK  status: ('A' for Active; 'I' for Inactive)
REMARK    1  A    between atoms: C_7  and  C_6 
ROOT
ATOM      1  C   UNL d   1      -1.135  -0.863   0.043  0.00  0.00     0.047 A 
ATOM      2  C   UNL d   1       0.365  -0.989  -0.004  0.00  0.00     0.257 A 
ATOM      3  N   UNL d   1       0.828   0.305  -0.173  0.00  0.00    -0.322 N 
ATOM      4  C   UNL d   1      -1.451   0.565  -0.055  0.00  0.00     0.006 A 
ATOM      5  C   UNL d   1      -0.222   1.219  -0.203  0.00  0.00     0.046 A 
ATOM      6  C   UNL d   1      -1.891  -1.967   0.093  0.00  0.00     0.055 C 
ATOM      7  O   UNL d   1       1.026  -2.008   0.065  0.00  0.00    -0.267 OA
ATOM      8  C   UNL d   1      -2.623   1.299  -0.003  0.00  0.00     0.015 A 
ATOM      9  C   UNL d   1      -0.117   2.588  -0.342  0.00  0.00     0.030 A 
ATOM     10  C   UNL d   1      -2.542   2.691  -0.133  0.00  0.00     0.001 A 
ATOM     11  C   UNL d   1      -1.301   3.329  -0.310  0.00  0.00     0.002 A 
ATOM     12  H   UNL d   1       1.809   0.528  -0.247  0.00  0.00     0.169 HD
ENDROOT
BRANCH   6  13
ATOM     13  C   UNL d   1      -3.303  -1.925   0.007  0.00  0.00     0.075 A 
ATOM     14  O   UNL d   1      -4.129  -1.768   1.095  0.00  0.00    -0.323 OA
ATOM     15  C   UNL d   1      -5.412  -1.759   0.656  0.00  0.00     0.142 A 
ATOM     16  C   UNL d   1      -5.453  -1.906  -0.707  0.00  0.00     0.027 A 
ATOM     17  C   UNL d   1      -4.107  -2.027  -1.122  0.00  0.00     0.039 A 
ENDBRANCH   6  13
TORSDOF 1
