REMARK  2 active torsions:
REMARK  status: ('A' for Active; 'I' for Inactive)
REMARK    1  A    between atoms: C_2  and  C_1 
REMARK    2  A    between atoms: O_8  and  C_1 
ROOT
ATOM      1  C   UNL d   1      -1.026   0.052  -0.603  0.00  0.00     0.088 C 
ATOM      2  N   UNL d   1       1.805   0.003   0.272  0.00  0.00     0.083 N 
ATOM      3  C   UNL d   1      -0.120   1.301  -0.579  0.00  0.00     0.073 C 
ATOM      4  C   UNL d   1      -0.142  -1.210  -0.674  0.00  0.00     0.073 C 
ATOM      5  C   UNL d   1       0.984   1.197   0.472  0.00  0.00     0.273 C 
ATOM      6  C   UNL d   1       0.974  -1.196   0.372  0.00  0.00     0.273 C 
ATOM      7  H   UNL d   1       2.244   0.038  -0.648  0.00  0.00     0.315 HD
ENDROOT
BRANCH   1   8
ATOM      8  C   UNL d   1      -2.079   0.052  -1.721  0.00  0.00    -0.024 A 
ATOM      9  C   UNL d   1      -2.213   1.100  -2.648  0.00  0.00     0.012 A 
ATOM     10  C   UNL d   1      -3.195   1.064  -3.646  0.00  0.00     0.024 A 
ATOM     11  C   UNL d   1      -4.061  -0.020  -3.731  0.00  0.00     0.034 A 
ATOM     12  C   UNL d   1      -3.962  -1.066  -2.820  0.00  0.00     0.024 A 
ATOM     13 CL   UNL d   1      -5.264  -0.062  -4.959  0.00  0.00    -0.084 Cl
ATOM     14  C   UNL d   1      -2.983  -1.026  -1.821  0.00  0.00     0.012 A 
ENDBRANCH   1   8
BRANCH   1  15
ATOM     15  O   UNL d   1      -1.746   0.026   0.640  0.00  0.00    -0.385 OA
ATOM     16  H   UNL d   1      -2.553   0.558   0.523  0.00  0.00     0.211 HD
ENDBRANCH   1  15
TORSDOF 2
