REMARK  1 active torsions:
REMARK  status: ('A' for Active; 'I' for Inactive)
REMARK    1  A    between atoms: C_11  and  C_5 
ROOT
ATOM      1  C   UNL d   1       0.193   0.636   0.004  0.00  0.00     0.059 A 
ATOM      2  C   UNL d   1      -0.128  -0.669   0.001  0.00  0.00     0.003 A 
ATOM      3  C   UNL d   1      -1.535  -0.900  -0.002  0.00  0.00    -0.029 A 
ATOM      4  S   UNL d   1      -1.108   1.670   0.007  0.00  0.00    -0.078 SA
ATOM      5  C   UNL d   1      -2.211   0.341   0.005  0.00  0.00     0.058 A 
ATOM      6  S   UNL d   1       1.828   0.954   0.004  0.00  0.00    -0.070 SA
ATOM      7  C   UNL d   1       2.168  -0.734   0.003  0.00  0.00     0.093 A 
ATOM      8  C   UNL d   1       1.011  -1.530   0.002  0.00  0.00    -0.022 A 
ATOM      9  C   UNL d   1       3.515  -1.225   0.003  0.00  0.00     0.107 C 
ATOM     10  N   UNL d   1       4.595  -1.648   0.003  0.00  0.00    -0.191 NA
ATOM     11  C   UNL d   1      -2.285  -2.195  -0.011  0.00  0.00     0.050 C 
ATOM     12  C   UNL d   1       1.098  -3.023   0.004  0.00  0.00     0.051 C 
ENDROOT
BRANCH   5  13
ATOM     13  C   UNL d   1      -3.667   0.557   0.011  0.00  0.00     0.163 C 
ATOM     14  O   UNL d   1      -4.466  -0.386   0.013  0.00  0.00    -0.292 OA
ATOM     15  C   UNL d   1      -4.260   1.948   0.017  0.00  0.00     0.097 C 
ENDBRANCH   5  13
TORSDOF 1
