REMARK  3 active torsions:
REMARK  status: ('A' for Active; 'I' for Inactive)
REMARK    1  A    between atoms: O_10  and  N_7 
REMARK    2  A    between atoms: C_9  and  O_10 
REMARK    3  A    between atoms: C_12  and  C_9 
ROOT
ATOM      1  C   UNL d   1      -0.703   0.567   0.076  0.00  0.00     0.024 A 
ATOM      2  C   UNL d   1      -1.136  -0.750   0.021  0.00  0.00     0.025 A 
ATOM      3  N   UNL d   1      -0.033  -1.563  -0.012  0.00  0.00    -0.353 N 
ATOM      4  C   UNL d   1       0.722   0.548   0.090  0.00  0.00     0.005 A 
ATOM      5  C   UNL d   1       1.118  -0.795   0.024  0.00  0.00     0.045 A 
ATOM      6  C   UNL d   1      -1.674   1.657   0.091  0.00  0.00     0.045 C 
ATOM      7  N   UNL d   1      -1.268   2.859   0.360  0.00  0.00    -0.261 N 
ATOM      8  HN  UNL d   1      -0.300   3.102   0.571  1.00  0.00     0.194 HD
ATOM      9  C   UNL d   1      -2.558  -1.202  -0.024  0.00  0.00     0.058 C 
ATOM     10  C   UNL d   1      -0.031  -3.008  -0.095  0.00  0.00     0.156 C 
ATOM     11  C   UNL d   1       1.724   1.541   0.131  0.00  0.00     0.014 A 
ATOM     12  C   UNL d   1       2.471  -1.174  -0.004  0.00  0.00     0.030 A 
ATOM     13  C   UNL d   1      -3.112   1.273  -0.254  0.00  0.00     0.060 C 
ATOM     14  C   UNL d   1      -3.488  -0.057   0.402  0.00  0.00     0.012 C 
ATOM     15  C   UNL d   1       3.074   1.172   0.098  0.00  0.00     0.001 A 
ATOM     16  C   UNL d   1       3.440  -0.168   0.031  0.00  0.00     0.002 A 
ENDROOT
BRANCH   7  17
ATOM     17  O   UNL d   1      -2.329   3.787   0.326  0.00  0.00    -0.199 OA
BRANCH  17  18
ATOM     18  C   UNL d   1      -1.892   5.028   0.706  0.00  0.00     0.285 C 
ATOM     19  O   UNL d   1      -0.754   5.323   1.068  0.00  0.00    -0.263 OA
BRANCH  18  20
ATOM     20  C   UNL d   1      -3.026   6.045   0.694  0.00  0.00     0.087 C 
ATOM     21  C   UNL d   1      -3.731   6.098   2.054  0.00  0.00     0.015 C 
ATOM     22  C   UNL d   1      -4.911   5.139   2.177  0.00  0.00     0.001 C 
ATOM     23  C   UNL d   1      -5.892   5.335   1.032  0.00  0.00     0.000 C 
ATOM     24  C   UNL d   1      -5.213   5.068  -0.303  0.00  0.00     0.001 C 
ATOM     25  C   UNL d   1      -3.974   5.937  -0.513  0.00  0.00     0.015 C 
ENDBRANCH  18  20
ENDBRANCH  17  18
ENDBRANCH   7  17
TORSDOF 3
