REMARK  5 active torsions:
REMARK  status: ('A' for Active; 'I' for Inactive)
REMARK    1  A    between atoms: C_13  and  C_3 
REMARK    2  A    between atoms: C_4  and  O_12 
REMARK    3  A    between atoms: C_8  and  C_4 
REMARK    4  A    between atoms: C_16  and  C_5 
REMARK    5  A    between atoms: O_12  and  N_9 
ROOT
ATOM      1  C   UNL d   1      -0.175  -3.553  -0.088  0.00  0.00    -0.039 A 
ATOM      2  C   UNL d   1       0.657  -4.689  -0.101  0.00  0.00    -0.043 A 
ATOM      3  C   UNL d   1      -1.562  -3.694  -0.036  0.00  0.00    -0.005 A 
ATOM      4  C   UNL d   1      -1.250  -6.171   0.018  0.00  0.00    -0.049 A 
ATOM      5  C   UNL d   1       0.134  -5.977  -0.053  0.00  0.00     0.016 A 
ATOM      6  C   UNL d   1      -2.069  -5.015   0.000  0.00  0.00     0.022 A 
ATOM      7  C   UNL d   1       2.125  -4.319  -0.132  0.00  0.00    -0.020 C 
ATOM      8  C   UNL d   1       0.669  -2.311  -0.071  0.00  0.00     0.041 C 
ATOM      9  C   UNL d   1       2.032  -2.836  -0.552  0.00  0.00     0.018 C 
ATOM     10  C   UNL d   1       2.924  -5.130  -1.160  0.00  0.00     0.020 C 
ATOM     11  C   UNL d   1       2.751  -4.480   1.260  0.00  0.00     0.020 C 
ENDROOT
BRANCH   3  12
ATOM     12  C   UNL d   1      -2.527  -2.524  -0.011  0.00  0.00     0.039 C 
ATOM     13  N   UNL d   1      -2.083  -1.299  -0.024  0.00  0.00    -0.261 N 
ATOM     14  HN  UNL d   1      -1.095  -1.047  -0.044  1.00  0.00     0.194 HD
ATOM     15  C   UNL d   1      -4.017  -2.854   0.037  0.00  0.00     0.071 C 
BRANCH  13  16
ATOM     16  O   UNL d   1      -3.143  -0.363  -0.005  0.00  0.00    -0.194 OA
BRANCH  16  17
ATOM     17  C   UNL d   1      -2.694   0.936  -0.045  0.00  0.00     0.322 C 
ATOM     18  O   UNL d   1      -1.516   1.285  -0.071  0.00  0.00    -0.257 OA
BRANCH  17  19
ATOM     19  C   UNL d   1      -3.816   1.873  -0.053  0.00  0.00     0.082 A 
ATOM     20  S   UNL d   1      -5.457   1.361  -0.037  0.00  0.00    -0.096 SA
ATOM     21  C   UNL d   1      -6.042   2.967  -0.057  0.00  0.00     0.050 A 
ATOM     22  C   UNL d   1      -5.018   3.886  -0.078  0.00  0.00     0.009 A 
ATOM     23  C   UNL d   1      -3.739   3.256  -0.078  0.00  0.00     0.026 A 
ENDBRANCH  17  19
ENDBRANCH  16  17
ENDBRANCH  13  16
ENDBRANCH   3  12
BRANCH   4  24
ATOM     24  C   UNL d   1      -1.854  -7.589   0.074  0.00  0.00    -0.024 C 
ATOM     25  C   UNL d   1      -2.075  -8.084  -1.368  0.00  0.00     0.019 C 
ATOM     26  C   UNL d   1      -0.927  -8.590   0.804  0.00  0.00     0.019 C 
ATOM     27  C   UNL d   1      -3.208  -7.636   0.820  0.00  0.00     0.019 C 
ENDBRANCH   4  24
TORSDOF 5
