REMARK  10 active torsions:
REMARK  status: ('A' for Active; 'I' for Inactive)
REMARK    1  A    between atoms: C_8  and  N_1 
REMARK    2  A    between atoms: C_10  and  C_2 
REMARK    3  A    between atoms: S_9  and  C_5 
REMARK    4  A    between atoms: C_15  and  C_8 
REMARK    5  A    between atoms: C_16  and  S_9 
REMARK    6  A    between atoms: C_11  and  C_16 
REMARK       I    between atoms: N_12  and  C_11 
REMARK    7  A    between atoms: C_21  and  N_12 
REMARK    8  A    between atoms: C_23  and  C_13 
REMARK    9  A    between atoms: O_29  and  C_15 
REMARK   10  A    between atoms: O_30  and  C_15 
ROOT
ATOM      1  N   UNL d   1      -0.203  -1.229  -0.037  0.00  0.00    -0.306 N 
ATOM      2  C   UNL d   1       0.898  -0.456  -0.393  0.00  0.00     0.134 C 
ATOM      3  N   UNL d   1       0.471   0.786  -0.567  0.00  0.00    -0.283 N 
ATOM      4  HN  UNL d   1       1.011   1.550  -0.973  1.00  0.00     0.188 HD
ATOM      5  C   UNL d   1      -1.172  -0.320   0.295  0.00  0.00     0.163 C 
ATOM      6  N   UNL d   1      -0.812   0.873  -0.112  0.00  0.00    -0.278 N 
ATOM      7  HN  UNL d   1      -1.388   1.714  -0.092  1.00  0.00     0.189 HD
ENDROOT
BRANCH   5   8
ATOM      8  S   UNL d   1      -2.599  -0.636   1.238  0.00  0.00    -0.083 SA
BRANCH   8   9
ATOM      9  C   UNL d   1      -3.411   0.978   1.075  0.00  0.00     0.185 C 
BRANCH   9  10
ATOM     10  C   UNL d   1      -4.766   1.125   1.748  0.00  0.00     0.231 C 
ATOM     11  N   UNL d   1      -5.284   0.018   2.396  0.00  0.00    -0.327 N 
ATOM     12  H   UNL d   1      -4.656  -0.766   2.522  0.00  0.00     0.169 HD
ATOM     13  O   UNL d   1      -5.328   2.217   1.672  0.00  0.00    -0.272 OA
BRANCH  11  14
ATOM     14  C   UNL d   1      -6.595  -0.117   2.916  0.00  0.00     0.034 A 
ATOM     15  C   UNL d   1      -7.608   0.816   2.693  0.00  0.00     0.030 A 
ATOM     16  C   UNL d   1      -8.907   0.599   3.166  0.00  0.00     0.010 A 
ATOM     17  C   UNL d   1      -9.231  -0.559   3.879  0.00  0.00    -0.055 A 
ATOM     18  C   UNL d   1      -8.208  -1.484   4.131  0.00  0.00     0.010 A 
ATOM     19  C   UNL d   1      -6.905  -1.267   3.650  0.00  0.00     0.030 A 
BRANCH  17  20
ATOM     20  C   UNL d   1     -10.658  -0.838   4.320  0.00  0.00     0.010 C 
ATOM     21  C   UNL d   1     -11.212   0.253   5.241  0.00  0.00     0.015 C 
ATOM     22  C   UNL d   1     -11.572  -1.025   3.103  0.00  0.00     0.015 C 
ENDBRANCH  17  20
ENDBRANCH  11  14
ENDBRANCH   9  10
ENDBRANCH   8   9
ENDBRANCH   5   8
BRANCH   1  23
ATOM     23  C   UNL d   1      -0.238  -2.677  -0.001  0.00  0.00     0.193 C 
BRANCH  23  24
ATOM     24  C   UNL d   1      -1.556  -3.384  -0.376  0.00  0.00     0.276 C 
BRANCH  24  25
ATOM     25  O   UNL d   1      -1.892  -3.053  -1.726  0.00  0.00    -0.364 OA
ATOM     26  C   UNL d   1      -3.218  -3.455  -2.058  0.00  0.00     0.204 C 
ENDBRANCH  24  25
BRANCH  24  27
ATOM     27  O   UNL d   1      -1.415  -4.807  -0.262  0.00  0.00    -0.364 OA
ATOM     28  C   UNL d   1      -1.272  -5.260   1.077  0.00  0.00     0.204 C 
ENDBRANCH  24  27
ENDBRANCH  23  24
ENDBRANCH   1  23
BRANCH   2  29
ATOM     29  C   UNL d   1       2.315  -0.841  -0.472  0.00  0.00     0.010 A 
ATOM     30  C   UNL d   1       3.166  -0.142  -1.346  0.00  0.00     0.017 A 
ATOM     31  C   UNL d   1       4.552  -0.345  -1.325  0.00  0.00     0.025 A 
ATOM     32  C   UNL d   1       5.102  -1.254  -0.428  0.00  0.00     0.034 A 
ATOM     33  C   UNL d   1       4.278  -1.973   0.433  0.00  0.00     0.025 A 
ATOM     34 CL   UNL d   1       6.808  -1.458  -0.346  0.00  0.00    -0.084 Cl
ATOM     35  C   UNL d   1       2.893  -1.763   0.415  0.00  0.00     0.017 A 
ENDBRANCH   2  29
TORSDOF 10
