REMARK  3 active torsions:
REMARK  status: ('A' for Active; 'I' for Inactive)
REMARK    1  A    between atoms: N_10  and  C_4 
REMARK    2  A    between atoms: C_7  and  C_6 
REMARK    3  A    between atoms: C_8  and  C_9 
ROOT
ATOM      1  N   UNL d   1       0.599  -1.279  -0.619  0.00  0.00    -0.296 N 
ATOM      2  HN  UNL d   1       0.669  -2.163  -1.123  1.00  0.00     0.187 HD
ATOM      3  C   UNL d   1       1.092   0.615   0.534  0.00  0.00     0.081 A 
ATOM      4  C   UNL d   1      -0.257   0.628   0.272  0.00  0.00     0.117 A 
ATOM      5  N   UNL d   1      -0.508  -0.542  -0.401  0.00  0.00    -0.281 N 
ATOM      6  C   UNL d   1       1.589  -0.594  -0.025  0.00  0.00     0.062 A 
ATOM      7  C   UNL d   1      -1.769  -1.065  -0.862  0.00  0.00     0.179 C 
ENDROOT
BRANCH   6   8
ATOM      8  C   UNL d   1       2.964  -1.093  -0.011  0.00  0.00    -0.008 A 
ATOM      9  C   UNL d   1       3.854  -0.748   1.011  0.00  0.00     0.014 A 
ATOM     10  C   UNL d   1       5.170  -1.238   1.009  0.00  0.00     0.009 A 
ATOM     11  C   UNL d   1       5.641  -2.079  -0.016  0.00  0.00    -0.051 A 
ATOM     12  C   UNL d   1       4.732  -2.421  -1.030  0.00  0.00     0.009 A 
ATOM     13  C   UNL d   1       3.417  -1.939  -1.027  0.00  0.00     0.014 A 
BRANCH  11  14
ATOM     14  C   UNL d   1       7.096  -2.579  -0.010  0.00  0.00    -0.024 C 
ATOM     15  C   UNL d   1       7.444  -3.469  -1.226  0.00  0.00     0.019 C 
ATOM     16  C   UNL d   1       8.059  -1.373  -0.036  0.00  0.00     0.019 C 
ATOM     17  C   UNL d   1       7.371  -3.413   1.259  0.00  0.00     0.019 C 
ENDBRANCH  11  14
ENDBRANCH   6   8
BRANCH   4  18
ATOM     18  N   UNL d   1      -1.188   1.551   0.588  0.00  0.00    -0.384 N 
ATOM     19  H   UNL d   1      -2.112   1.571   0.169  0.00  0.00     0.157 HD
ATOM     20  H   UNL d   1      -0.902   2.455   0.959  0.00  0.00     0.157 HD
ENDBRANCH   4  18
TORSDOF 3
