REMARK  3 active torsions:
REMARK  status: ('A' for Active; 'I' for Inactive)
REMARK    1  A    between atoms: C_2  and  C_1 
REMARK    2  A    between atoms: C_3  and  C_1 
REMARK    3  A    between atoms: C_6  and  C_2 
REMARK       I    between atoms: N_7  and  C_3 
ROOT
ATOM      1  C   UNL d   1       0.555   0.699  -1.426  0.00  0.00     0.168 C 
ATOM      2  O   UNL d   1       1.234   0.331  -2.386  0.00  0.00    -0.292 OA
ENDROOT
BRANCH   1   3
ATOM      3  C   UNL d   1       1.210   0.987  -0.099  0.00  0.00     0.186 C 
BRANCH   3   4
ATOM      4  C   UNL d   1       1.121   2.417   0.344  0.00  0.00     0.222 C 
ATOM      5  O   UNL d   1       0.595   2.755   1.401  0.00  0.00    -0.273 OA
ATOM      6  N   UNL d   1       1.683   3.341  -0.482  0.00  0.00    -0.370 N 
ATOM      7  H   UNL d   1       2.176   3.098  -1.332  0.00  0.00     0.159 HD
ATOM      8  H   UNL d   1       1.656   4.311  -0.198  0.00  0.00     0.159 HD
ENDBRANCH   3   4
ENDBRANCH   1   3
BRANCH   1   9
ATOM      9  C   UNL d   1      -0.924   0.859  -1.592  0.00  0.00     0.010 A 
ATOM     10  C   UNL d   1      -1.767   1.264  -0.551  0.00  0.00     0.015 A 
ATOM     11  C   UNL d   1      -3.134   1.445  -0.781  0.00  0.00     0.001 A 
ATOM     12  C   UNL d   1      -3.672   1.201  -2.044  0.00  0.00     0.000 A 
ATOM     13  C   UNL d   1      -2.847   0.770  -3.079  0.00  0.00     0.001 A 
ATOM     14  C   UNL d   1      -1.479   0.601  -2.855  0.00  0.00     0.015 A 
ENDBRANCH   1   9
TORSDOF 3
