REMARK  5 active torsions:
REMARK  status: ('A' for Active; 'I' for Inactive)
REMARK    1  A    between atoms: N_5  and  C_8 
REMARK    2  A    between atoms: C_13  and  C_7 
REMARK    3  A    between atoms: O_16  and  C_17 
REMARK    4  A    between atoms: C_19  and  O_16 
REMARK    5  A    between atoms: C_18  and  C_19 
ROOT
ATOM      1  C   UNL d   1      -3.864   0.403   0.083  0.00  0.00    -0.035 A 
ATOM      2  C   UNL d   1      -6.244  -1.076   0.116  0.00  0.00     0.069 A 
ATOM      3  C   UNL d   1      -4.118  -0.496   1.123  0.00  0.00     0.014 A 
ATOM      4  C   UNL d   1      -4.821   0.590  -0.916  0.00  0.00     0.014 A 
ATOM      5  C   UNL d   1      -6.013  -0.138  -0.893  0.00  0.00     0.037 A 
ATOM      6  C   UNL d   1      -5.309  -1.226   1.142  0.00  0.00     0.037 A 
ENDROOT
BRANCH   2   7
ATOM      7  O   UNL d   1      -7.341  -1.890   0.189  0.00  0.00    -0.347 OA
BRANCH   7   8
ATOM      8  C   UNL d   1      -7.998  -2.121  -1.059  0.00  0.00     0.214 C 
BRANCH   8   9
ATOM      9  C   UNL d   1      -8.811  -3.391  -0.974  0.00  0.00    -0.034 A 
ATOM     10  C   UNL d   1     -10.179  -3.383  -1.284  0.00  0.00     0.012 A 
ATOM     11  C   UNL d   1     -10.918  -4.568  -1.251  0.00  0.00     0.037 A 
ATOM     12  C   UNL d   1     -10.282  -5.769  -0.911  0.00  0.00     0.102 A 
ATOM     13  C   UNL d   1      -8.916  -5.793  -0.608  0.00  0.00     0.037 A 
ATOM     14  C   UNL d   1      -8.186  -4.604  -0.642  0.00  0.00     0.012 A 
BRANCH  12  15
ATOM     15  N   UNL d   1     -11.057  -7.015  -0.875  0.00  0.00    -0.116 N 
ATOM     16  O   UNL d   1     -12.262  -6.953  -1.153  0.00  0.00    -0.532 OA
ATOM     17  O   UNL d   1     -10.458  -8.058  -0.572  0.00  0.00    -0.532 OA
ENDBRANCH  12  15
ENDBRANCH   8   9
ENDBRANCH   7   8
ENDBRANCH   2   7
BRANCH   1  18
ATOM     18  C   UNL d   1      -2.603   1.141   0.028  0.00  0.00     0.036 C 
ATOM     19  C   UNL d   1      -1.494   0.716  -0.591  0.00  0.00     0.076 A 
ATOM     20  C   UNL d   1      -0.247   1.525  -0.605  0.00  0.00     0.264 A 
ATOM     21  S   UNL d   1      -1.246  -0.760  -1.451  0.00  0.00    -0.055 SA
ATOM     22  N   UNL d   1       0.731   0.849  -1.278  0.00  0.00    -0.307 N 
ATOM     23  O   UNL d   1      -0.109   2.624  -0.097  0.00  0.00    -0.267 OA
ATOM     24  C   UNL d   1       0.424  -0.371  -1.799  0.00  0.00     0.146 A 
ATOM     25  H   UNL d   1       1.648   1.254  -1.377  0.00  0.00     0.170 HD
ATOM     26  S   UNL d   1       1.505  -1.310  -2.630  0.00  0.00    -0.052 SA
ENDBRANCH   1  18
TORSDOF 5
