REMARK  1 active torsions:
REMARK  status: ('A' for Active; 'I' for Inactive)
REMARK    1  A    between atoms: C_2  and  C_1 
REMARK       I    between atoms: N_3  and  C_1 
ROOT
ATOM      1  C   UNL d   1       0.265  -0.357  -1.191  0.00  0.00     0.086 C 
ATOM      2  C   UNL d   1      -1.056   0.416  -1.428  0.00  0.00     0.053 C 
ATOM      3  C   UNL d   1      -0.125  -1.849  -1.190  0.00  0.00     0.053 C 
ATOM      4  C   UNL d   1      -1.322  -1.857  -2.089  0.00  0.00    -0.051 A 
ATOM      5  C   UNL d   1      -1.850  -0.573  -2.223  0.00  0.00    -0.051 A 
ATOM      6  C   UNL d   1      -2.992  -0.344  -2.973  0.00  0.00     0.007 A 
ATOM      7  C   UNL d   1      -1.913  -2.943  -2.710  0.00  0.00     0.007 A 
ATOM      8  C   UNL d   1      -3.593  -1.433  -3.611  0.00  0.00     0.001 A 
ATOM      9  C   UNL d   1      -3.054  -2.721  -3.483  0.00  0.00     0.001 A 
ENDROOT
BRANCH   1  10
ATOM     10  C   UNL d   1       0.959   0.077   0.095  0.00  0.00     0.224 C 
ATOM     11  N   UNL d   1       2.201  -0.462   0.388  0.00  0.00    -0.348 N 
ATOM     12  C   UNL d   1       2.857  -0.122   1.657  0.00  0.00     0.152 C 
ATOM     13  C   UNL d   1       2.993  -1.360  -0.457  0.00  0.00     0.152 C 
ATOM     14  C   UNL d   1       4.290   0.361   1.415  0.00  0.00     0.187 C 
ATOM     15  O   UNL d   1       5.039  -0.603   0.655  0.00  0.00    -0.388 OA
ATOM     16  C   UNL d   1       4.421  -0.829  -0.619  0.00  0.00     0.187 C 
ATOM     17  O   UNL d   1       0.437   0.908   0.841  0.00  0.00    -0.273 OA
ENDBRANCH   1  10
TORSDOF 1
