REMARK  3 active torsions:
REMARK  status: ('A' for Active; 'I' for Inactive)
REMARK    1  A    between atoms: C_8  and  C_1 
REMARK       I    between atoms: C_7  and  N_9 
REMARK       I    between atoms: N_10  and  C_7 
REMARK    2  A    between atoms: N_9  and  C_15 
REMARK    3  A    between atoms: C_16  and  N_10 
ROOT
ATOM      1  C   UNL d   1       2.045  -1.641   0.546  0.00  0.00    -0.006 A 
ATOM      2  C   UNL d   1       2.041  -2.925  -0.025  0.00  0.00     0.016 A 
ATOM      3  C   UNL d   1       3.258  -1.154   1.029  0.00  0.00     0.016 A 
ATOM      4  C   UNL d   1       4.453  -3.122   0.221  0.00  0.00     0.036 A 
ATOM      5  C   UNL d   1       4.439  -1.894   0.887  0.00  0.00     0.030 A 
ATOM      6  C   UNL d   1       3.229  -3.660  -0.183  0.00  0.00     0.030 A 
ENDROOT
BRANCH   4   7
ATOM      7  N   UNL d   1       5.646  -3.808  -0.137  0.00  0.00    -0.309 N 
ATOM      8  C   UNL d   1       6.932  -3.301  -0.012  0.00  0.00     0.325 C 
ATOM      9  N   UNL d   1       7.882  -4.075  -0.658  0.00  0.00    -0.309 N 
ATOM     10  O   UNL d   1       7.194  -2.253   0.568  0.00  0.00    -0.247 OA
ATOM     11  H   UNL d   1       7.566  -4.913  -1.120  0.00  0.00     0.170 HD
ATOM     12  H   UNL d   1       5.531  -4.658  -0.664  0.00  0.00     0.170 HD
BRANCH   9  13
ATOM     13  C   UNL d   1       9.250  -3.734  -0.837  0.00  0.00     0.036 A 
ATOM     14  C   UNL d   1       9.850  -2.600  -0.277  0.00  0.00     0.029 A 
ATOM     15  C   UNL d   1      11.178  -2.269  -0.556  0.00  0.00     0.002 A 
ATOM     16  C   UNL d   1      11.935  -3.080  -1.392  0.00  0.00     0.000 A 
ATOM     17  C   UNL d   1      11.368  -4.233  -1.930  0.00  0.00     0.002 A 
ATOM     18  C   UNL d   1      10.035  -4.562  -1.650  0.00  0.00     0.029 A 
ENDBRANCH   9  13
ENDBRANCH   4   7
BRANCH   1  19
ATOM     19  C   UNL d   1       0.827  -0.815   0.527  0.00  0.00     0.077 A 
ATOM     20  C   UNL d   1       0.390   0.248   1.369  0.00  0.00     0.057 A 
ATOM     21  C   UNL d   1      -0.791   0.707   0.843  0.00  0.00     0.131 A 
ATOM     22 BR   UNL d   1       1.182   0.935   2.923  0.00  0.00    -0.047 Br
ATOM     23  N   UNL d   1      -1.020  -0.070  -0.248  0.00  0.00    -0.306 N 
ATOM     24  N   UNL d   1      -0.081  -1.004  -0.455  0.00  0.00    -0.297 N 
ATOM     25  C   UNL d   1      -2.145   0.035  -1.146  0.00  0.00     0.177 C 
ATOM     26  HN  UNL d   1      -0.057  -1.707  -1.194  1.00  0.00     0.187 HD
ENDBRANCH   1  19
TORSDOF 3
