REMARK  5 active torsions:
REMARK  status: ('A' for Active; 'I' for Inactive)
REMARK    1  A    between atoms: C_3  and  S_1 
REMARK    2  A    between atoms: C_6  and  S_1 
REMARK    3  A    between atoms: C_4  and  N_2 
REMARK    4  A    between atoms: C_13  and  C_3 
REMARK    5  A    between atoms: N_5  and  C_13 
ROOT
ATOM      1  N   UNL d   1      -1.138   4.063   1.823  0.00  0.00    -0.364 N 
ATOM      2  N   UNL d   1       0.395   1.946   3.176  0.00  0.00     0.092 N 
ATOM      3  C   UNL d   1       0.327   4.073   1.748  0.00  0.00     0.154 C 
ATOM      4  C   UNL d   1      -1.701   2.707   1.861  0.00  0.00     0.154 C 
ATOM      5  C   UNL d   1       0.881   3.336   2.989  0.00  0.00     0.292 C 
ATOM      6  C   UNL d   1      -1.092   1.948   3.074  0.00  0.00     0.292 C 
ENDROOT
BRANCH   2   7
ATOM      7  C   UNL d   1       1.009   0.969   2.256  0.00  0.00     0.287 C 
BRANCH   7   8
ATOM      8  C   UNL d   1       2.499   0.808   2.544  0.00  0.00     0.176 C 
BRANCH   8   9
ATOM      9  S   UNL d   1       3.246  -0.444   1.532  0.00  0.00     0.177 S 
ATOM     10  O   UNL d   1       3.172  -0.025   0.147  0.00  0.00    -0.223 OA
ATOM     11  O   UNL d   1       2.757  -1.746   1.950  0.00  0.00    -0.223 OA
BRANCH   9  12
ATOM     12  C   UNL d   1       4.959  -0.337   2.025  0.00  0.00     0.059 A 
ATOM     13  C   UNL d   1       5.420  -1.112   3.096  0.00  0.00     0.026 A 
ATOM     14  C   UNL d   1       6.748  -0.990   3.506  0.00  0.00     0.044 A 
ATOM     15  C   UNL d   1       7.596  -0.108   2.841  0.00  0.00     0.116 A 
ATOM     16  C   UNL d   1       7.146   0.651   1.765  0.00  0.00     0.044 A 
ATOM     17  F   UNL d   1       8.867   0.014   3.246  0.00  0.00    -0.206 F 
ATOM     18  C   UNL d   1       5.819   0.535   1.346  0.00  0.00     0.026 A 
ENDBRANCH   9  12
ENDBRANCH   8   9
ENDBRANCH   7   8
ENDBRANCH   2   7
BRANCH   1  19
ATOM     19  C   UNL d   1      -1.801   5.002   1.036  0.00  0.00     0.102 A 
ATOM     20  N   UNL d   1      -2.722   4.608   0.132  0.00  0.00    -0.352 N 
ATOM     21  C   UNL d   1      -3.394   5.566  -0.551  0.00  0.00     0.089 A 
ATOM     22  HN  UNL d   1      -2.907   3.619  -0.031  1.00  0.00     0.166 HD
ATOM     23  C   UNL d   1      -3.210   6.925  -0.372  0.00  0.00     0.017 A 
ATOM     24  C   UNL d   1      -2.271   7.330   0.560  0.00  0.00     0.005 A 
ATOM     25  C   UNL d   1      -1.561   6.361   1.264  0.00  0.00     0.048 A 
ENDBRANCH   1  19
TORSDOF 5
