REMARK  5 active torsions:
REMARK  status: ('A' for Active; 'I' for Inactive)
REMARK    1  A    between atoms: C_5  and  C_1 
REMARK    2  A    between atoms: C_3  and  C_2 
REMARK       I    between atoms: N_15  and  C_5 
REMARK    3  A    between atoms: C_8  and  C_19 
REMARK    4  A    between atoms: C_18  and  N_15 
REMARK    5  A    between atoms: C_19  and  C_18 
ROOT
ATOM      1  C   UNL d   1       0.930   0.020   0.045  0.00  0.00     0.113 C 
ATOM      2  C   UNL d   1       2.282   0.010   0.002  0.00  0.00     0.043 C 
ATOM      3  C   UNL d   1       0.141   0.899  -0.764  0.00  0.00     0.105 C 
ATOM      4  N   UNL d   1      -0.517   1.594  -1.417  0.00  0.00    -0.191 NA
ENDROOT
BRANCH   1   5
ATOM      5  C   UNL d   1       0.278  -0.941   1.012  0.00  0.00     0.262 C 
ATOM      6  O   UNL d   1       0.936  -1.680   1.741  0.00  0.00    -0.267 OA
ATOM      7  N   UNL d   1      -1.102  -0.942   1.033  0.00  0.00    -0.356 N 
ATOM      8  H   UNL d   1      -1.629  -0.328   0.426  0.00  0.00     0.162 HD
BRANCH   7   9
ATOM      9  C   UNL d   1      -1.847  -1.806   1.943  0.00  0.00     0.127 C 
BRANCH   9  10
ATOM     10  C   UNL d   1      -3.366  -1.670   1.786  0.00  0.00     0.060 C 
BRANCH  10  11
ATOM     11  C   UNL d   1      -4.112  -2.581   2.712  0.00  0.00    -0.029 A 
ATOM     12  C   UNL d   1      -4.485  -3.885   2.446  0.00  0.00     0.096 A 
ATOM     13  N   UNL d   1      -5.104  -4.393   3.556  0.00  0.00    -0.365 N 
ATOM     14  C   UNL d   1      -5.160  -3.442   4.547  0.00  0.00     0.042 A 
ATOM     15  H   UNL d   1      -5.467  -5.332   3.643  0.00  0.00     0.165 HD
ATOM     16  C   UNL d   1      -4.563  -2.286   4.041  0.00  0.00    -0.002 A 
ATOM     17  C   UNL d   1      -5.688  -3.522   5.842  0.00  0.00     0.030 A 
ATOM     18  C   UNL d   1      -4.510  -1.145   4.870  0.00  0.00     0.014 A 
ATOM     19  C   UNL d   1      -5.042  -1.205   6.164  0.00  0.00     0.001 A 
ATOM     20  C   UNL d   1      -5.617  -2.379   6.643  0.00  0.00     0.002 A 
ENDBRANCH  10  11
ENDBRANCH   9  10
ENDBRANCH   7   9
ENDBRANCH   1   5
BRANCH   2  21
ATOM     21  C   UNL d   1       3.089   0.893  -0.868  0.00  0.00     0.009 A 
ATOM     22  C   UNL d   1       3.460   2.184  -0.448  0.00  0.00     0.046 A 
ATOM     23 CL   UNL d   1       2.997   2.807   1.100  0.00  0.00    -0.083 Cl
ATOM     24  C   UNL d   1       4.211   3.025  -1.279  0.00  0.00     0.025 A 
ATOM     25  C   UNL d   1       4.608   2.591  -2.542  0.00  0.00     0.003 A 
ATOM     26  C   UNL d   1       4.240   1.321  -2.980  0.00  0.00     0.025 A 
ATOM     27  C   UNL d   1       3.484   0.480  -2.155  0.00  0.00     0.046 A 
ATOM     28 CL   UNL d   1       3.039  -1.067  -2.791  0.00  0.00    -0.083 Cl
ENDBRANCH   2  21
TORSDOF 5
