REMARK  6 active torsions:
REMARK  status: ('A' for Active; 'I' for Inactive)
REMARK    1  A    between atoms: C_9  and  N_1 
REMARK    2  A    between atoms: C_8  and  C_5 
REMARK    3  A    between atoms: C_12  and  C_8 
REMARK    4  A    between atoms: C_10  and  C_9 
REMARK    5  A    between atoms: O_20  and  C_12 
REMARK    6  A    between atoms: C_24  and  O_20 
ROOT
ATOM      1  N   UNL d   1       2.384  -0.662  -0.008  0.00  0.00    -0.252 N 
ATOM      2  N   UNL d   1       2.391   0.715  -0.001  0.00  0.00    -0.298 N 
ATOM      3  HN  UNL d   1       3.275   1.223  -0.009  1.00  0.00     0.187 HD
ATOM      4  C   UNL d   1       1.229  -1.435   0.035  0.00  0.00     0.273 A 
ATOM      5  C   UNL d   1       1.266   1.361   0.014  0.00  0.00     0.046 A 
ATOM      6  C   UNL d   1      -0.053  -0.703   0.022  0.00  0.00     0.046 A 
ATOM      7  C   UNL d   1      -0.056   0.685  -0.013  0.00  0.00     0.004 A 
ATOM      8  O   UNL d   1       1.221  -2.665   0.058  0.00  0.00    -0.266 OA
ATOM      9  C   UNL d   1      -1.263  -1.417   0.014  0.00  0.00     0.018 A 
ATOM     10  C   UNL d   1      -1.280   1.368  -0.078  0.00  0.00     0.014 A 
ATOM     11  C   UNL d   1      -2.476  -0.734  -0.039  0.00  0.00     0.001 A 
ATOM     12  C   UNL d   1      -2.484   0.657  -0.088  0.00  0.00     0.001 A 
ENDROOT
BRANCH   1  13
ATOM     13  C   UNL d   1       3.692  -1.318  -0.074  0.00  0.00     0.194 C 
BRANCH  13  14
ATOM     14  C   UNL d   1       4.141  -1.548  -1.496  0.00  0.00     0.000 A 
ATOM     15  C   UNL d   1       4.904  -0.584  -2.161  0.00  0.00     0.125 A 
ATOM     16  C   UNL d   1       5.238  -0.720  -3.506  0.00  0.00     0.062 A 
ATOM     17  F   UNL d   1       5.330   0.505  -1.505  0.00  0.00    -0.205 F 
ATOM     18  C   UNL d   1       4.807  -1.844  -4.203  0.00  0.00     0.013 A 
ATOM     19  C   UNL d   1       4.083  -2.844  -3.554  0.00  0.00     0.020 A 
ATOM     20 BR   UNL d   1       5.172  -1.998  -6.051  0.00  0.00    -0.051 Br
ATOM     21  C   UNL d   1       3.749  -2.695  -2.204  0.00  0.00     0.013 A 
ENDBRANCH  13  14
ENDBRANCH   1  13
BRANCH   5  22
ATOM     22  C   UNL d   1       1.357   2.876   0.022  0.00  0.00     0.170 C 
BRANCH  22  23
ATOM     23  C   UNL d   1       0.741   3.529   1.220  0.00  0.00     0.264 C 
ATOM     24  O   UNL d   1       0.187   2.945   2.143  0.00  0.00    -0.265 OA
BRANCH  23  25
ATOM     25  O   UNL d   1       0.764   4.887   1.066  0.00  0.00    -0.322 OA
BRANCH  25  26
ATOM     26  C   UNL d   1      -0.188   5.611   1.860  0.00  0.00     0.174 C 
ATOM     27  C   UNL d   1      -1.451   5.761   1.031  0.00  0.00     0.034 C 
ENDBRANCH  25  26
ENDBRANCH  23  25
ENDBRANCH  22  23
ENDBRANCH   5  22
TORSDOF 6
