REMARK  6 active torsions:
REMARK  status: ('A' for Active; 'I' for Inactive)
REMARK    1  A    between atoms: N_2  and  C_1 
REMARK    2  A    between atoms: C_3  and  O_5 
REMARK    3  A    between atoms: C_4  and  C_11 
REMARK    4  A    between atoms: O_5  and  C_6 
REMARK    5  A    between atoms: O_25  and  C_9 
REMARK    6  A    between atoms: C_12  and  C_10 
ROOT
ATOM      1  C   UNL d   1       2.352  -2.870   0.188  0.00  0.00     0.126 C 
ATOM      2  C   UNL d   1       3.107  -2.828   1.377  0.00  0.00     0.048 C 
ATOM      3  C   UNL d   1       2.962  -3.429  -0.952  0.00  0.00     0.103 C 
ATOM      4  C   UNL d   1       5.125  -3.514   0.192  0.00  0.00    -0.030 C 
ATOM      5  C   UNL d   1       4.486  -3.077   1.357  0.00  0.00     0.031 C 
ATOM      6  C   UNL d   1       4.329  -3.748  -0.933  0.00  0.00     0.049 C 
ATOM      7 BR   UNL d   1       2.360  -2.585   3.117  0.00  0.00    -0.048 Br
ENDROOT
BRANCH   1   8
ATOM      8  O   UNL d   1       1.042  -2.474   0.066  0.00  0.00    -0.304 OA
BRANCH   8   9
ATOM      9  C   UNL d   1       0.520  -1.404   0.758  0.00  0.00     0.109 A 
ATOM     10  C   UNL d   1       1.120  -0.184   1.095  0.00  0.00     0.137 A 
ATOM     11  C   UNL d   1       0.476   0.730   1.954  0.00  0.00     0.055 A 
ATOM     12  C   UNL d   1      -0.811   0.456   2.442  0.00  0.00     0.050 A 
ATOM     13  C   UNL d   1      -1.458  -0.709   2.004  0.00  0.00     0.019 A 
ATOM     14  C   UNL d   1      -0.801  -1.622   1.173  0.00  0.00     0.040 A 
BRANCH  10  15
ATOM     15  N   UNL d   1       2.425   0.202   0.587  0.00  0.00    -0.113 N 
ATOM     16  O   UNL d   1       2.594   0.144  -0.641  0.00  0.00    -0.532 OA
ATOM     17  O   UNL d   1       3.257   0.609   1.411  0.00  0.00    -0.532 OA
ENDBRANCH  10  15
BRANCH  12  18
ATOM     18  C   UNL d   1      -1.496   1.375   3.426  0.00  0.00     0.417 C 
ATOM     19  F   UNL d   1      -0.706   2.399   3.849  0.00  0.00    -0.166 F 
ATOM     20  F   UNL d   1      -2.615   1.950   2.907  0.00  0.00    -0.166 F 
ATOM     21  F   UNL d   1      -1.894   0.720   4.551  0.00  0.00    -0.166 F 
ENDBRANCH  12  18
ENDBRANCH   8   9
ENDBRANCH   1   8
BRANCH   3  22
ATOM     22  O   UNL d   1       2.377  -3.808  -2.133  0.00  0.00    -0.353 OA
ATOM     23  C   UNL d   1       1.221  -3.125  -2.584  0.00  0.00     0.210 C 
ENDBRANCH   3  22
BRANCH   4  24
ATOM     24  C   UNL d   1       6.621  -3.736   0.115  0.00  0.00     0.141 C 
ATOM     25  S   UNL d   1       7.240  -4.857   1.410  0.00  0.00    -0.148 SA
ATOM     26  C   UNL d   1       8.710  -3.891   1.837  0.00  0.00     0.085 C 
ATOM     27  C   UNL d   1       8.340  -2.424   1.759  0.00  0.00     0.085 C 
ATOM     28  S   UNL d   1       7.528  -2.153   0.166  0.00  0.00    -0.148 SA
ENDBRANCH   4  24
TORSDOF 6
