REMARK  5 active torsions:
REMARK  status: ('A' for Active; 'I' for Inactive)
REMARK    1  A    between atoms: C_6  and  C_1 
REMARK    2  A    between atoms: C_12  and  C_2 
REMARK       I    between atoms: N_10  and  C_6 
REMARK    3  A    between atoms: C_7  and  C_13 
REMARK       I    between atoms: C_9  and  N_11 
REMARK    4  A    between atoms: C_14  and  C_9 
REMARK    5  A    between atoms: N_11  and  N_10 
ROOT
ATOM      1  C   UNL d   1       0.578  -2.661   0.061  0.00  0.00     0.275 C 
ATOM      2  N   UNL d   1      -0.250  -3.767  -0.027  0.00  0.00    -0.263 N 
ATOM      3  O   UNL d   1       1.798  -2.764   0.136  0.00  0.00    -0.266 OA
ATOM      4  H   UNL d   1      -1.233  -3.716   0.236  0.00  0.00     0.190 HD
ENDROOT
BRANCH   1   5
ATOM      5  C   UNL d   1      -0.114  -1.385   0.040  0.00  0.00     0.094 A 
ATOM      6  C   UNL d   1       0.283  -0.204   0.648  0.00  0.00     0.126 A 
ATOM      7  O   UNL d   1      -0.620   0.773   0.335  0.00  0.00    -0.236 OA
ATOM      8  N   UNL d   1      -1.605   0.273  -0.479  0.00  0.00    -0.264 N 
ATOM      9  C   UNL d   1      -1.300  -1.013  -0.670  0.00  0.00     0.047 A 
ATOM     10  HN  UNL d   1      -2.405   0.779  -0.859  1.00  0.00     0.194 HD
ATOM     11  C   UNL d   1      -2.154  -1.815  -1.581  0.00  0.00     0.071 C 
BRANCH   6  12
ATOM     12  C   UNL d   1       1.336   0.253   1.550  0.00  0.00     0.001 A 
ATOM     13  C   UNL d   1       1.810   1.577   1.466  0.00  0.00     0.016 A 
ATOM     14  C   UNL d   1       2.740   2.072   2.384  0.00  0.00     0.024 A 
ATOM     15  C   UNL d   1       3.209   1.247   3.400  0.00  0.00     0.034 A 
ATOM     16  C   UNL d   1       2.770  -0.073   3.490  0.00  0.00     0.024 A 
ATOM     17 CL   UNL d   1       4.320   1.864   4.559  0.00  0.00    -0.084 Cl
ATOM     18  C   UNL d   1       1.840  -0.569   2.567  0.00  0.00     0.016 A 
ENDBRANCH   6  12
ENDBRANCH   1   5
BRANCH   2  19
ATOM     19  N   UNL d   1       0.295  -5.065  -0.028  0.00  0.00    -0.263 N 
ATOM     20  C   UNL d   1      -0.504  -6.081   0.461  0.00  0.00     0.270 C 
ATOM     21  O   UNL d   1      -1.609  -5.855   0.955  0.00  0.00    -0.266 OA
ATOM     22  H   UNL d   1       1.277  -5.168  -0.280  0.00  0.00     0.190 HD
BRANCH  20  23
ATOM     23  C   UNL d   1      -0.002  -7.476   0.361  0.00  0.00     0.033 A 
ATOM     24  C   UNL d   1      -0.422  -8.400   1.327  0.00  0.00     0.018 A 
ATOM     25  C   UNL d   1      -0.108  -9.756   1.198  0.00  0.00     0.017 A 
ATOM     26  C   UNL d   1       0.617 -10.217   0.090  0.00  0.00     0.048 A 
ATOM     27  C   UNL d   1       1.061  -9.282  -0.863  0.00  0.00     0.017 A 
ATOM     28  C   UNL d   1       0.755  -7.919  -0.730  0.00  0.00     0.018 A 
BRANCH  26  29
ATOM     29  C   UNL d   1       0.875 -11.694  -0.112  0.00  0.00     0.417 C 
ATOM     30  F   UNL d   1       0.389 -12.475   0.893  0.00  0.00    -0.166 F 
ATOM     31  F   UNL d   1       0.305 -12.165  -1.257  0.00  0.00    -0.166 F 
ATOM     32  F   UNL d   1       2.201 -11.987  -0.206  0.00  0.00    -0.166 F 
ENDBRANCH  26  29
ENDBRANCH  20  23
ENDBRANCH   2  19
TORSDOF 5
