REMARK  4 active torsions:
REMARK  status: ('A' for Active; 'I' for Inactive)
REMARK    1  A    between atoms: C_3  and  C_1 
REMARK    2  A    between atoms: C_2  and  C_8 
REMARK    3  A    between atoms: C_6  and  C_3 
REMARK    4  A    between atoms: C_9  and  C_4 
ROOT
ATOM      1  C   UNL d   1       0.977  -0.112   0.148  0.00  0.00     0.098 C 
ATOM      2  C   UNL d   1       0.250   0.038  -0.982  0.00  0.00     0.064 C 
ATOM      3  C   UNL d   1       0.368  -0.456   1.408  0.00  0.00     0.103 C 
ATOM      4  N   UNL d   1      -0.103  -0.727   2.440  0.00  0.00    -0.191 NA
ENDROOT
BRANCH   1   5
ATOM      5  C   UNL d   1       2.474   0.001   0.041  0.00  0.00     0.202 C 
ATOM      6  O   UNL d   1       3.053  -0.173  -1.027  0.00  0.00    -0.286 OA
BRANCH   5   7
ATOM      7  C   UNL d   1       3.282   0.336   1.258  0.00  0.00     0.016 A 
ATOM      8  C   UNL d   1       2.819   1.216   2.248  0.00  0.00     0.031 A 
ATOM      9  C   UNL d   1       3.617   1.538   3.362  0.00  0.00     0.048 A 
ATOM     10  C   UNL d   1       4.896   0.974   3.468  0.00  0.00     0.016 A 
ATOM     11  C   UNL d   1       5.372   0.108   2.482  0.00  0.00     0.002 A 
ATOM     12  C   UNL d   1       4.572  -0.201   1.377  0.00  0.00     0.015 A 
BRANCH   9  13
ATOM     13  C   UNL d   1       3.122   2.494   4.422  0.00  0.00     0.417 C 
ATOM     14  F   UNL d   1       1.865   2.962   4.184  0.00  0.00    -0.166 F 
ATOM     15  F   UNL d   1       3.086   1.933   5.661  0.00  0.00    -0.166 F 
ATOM     16  F   UNL d   1       3.913   3.597   4.531  0.00  0.00    -0.166 F 
ENDBRANCH   9  13
ENDBRANCH   5   7
ENDBRANCH   1   5
BRANCH   2  17
ATOM     17  C   UNL d   1      -1.177   0.034  -0.950  0.00  0.00     0.076 A 
ATOM     18  O   UNL d   1      -1.893   0.536   0.117  0.00  0.00    -0.323 OA
ATOM     19  C   UNL d   1      -3.213   0.373  -0.120  0.00  0.00     0.142 A 
ATOM     20  C   UNL d   1      -3.404  -0.195  -1.351  0.00  0.00     0.027 A 
ATOM     21  C   UNL d   1      -2.105  -0.410  -1.886  0.00  0.00     0.039 A 
ENDBRANCH   2  17
TORSDOF 4
