REMARK  2 active torsions:
REMARK  status: ('A' for Active; 'I' for Inactive)
REMARK    1  A    between atoms: N_15  and  C_10 
REMARK    2  A    between atoms: C_16  and  N_15 
ROOT
ATOM      1  S   UNL d   1      -1.032  -1.442   0.051  0.00  0.00     0.270 S 
ATOM      2  C   UNL d   1      -1.730  -0.197   2.283  0.00  0.00     0.101 A 
ATOM      3  N   UNL d   1      -1.453  -1.476   1.687  0.00  0.00    -0.269 N 
ATOM      4  C   UNL d   1      -2.024   0.961   1.567  0.00  0.00     0.057 A 
ATOM      5  C   UNL d   1      -2.116  -0.275  -0.558  0.00  0.00     0.146 C 
ATOM      6  C   UNL d   1      -2.077   1.026   0.100  0.00  0.00     0.210 C 
ATOM      7  S   UNL d   1      -1.790   0.052   3.964  0.00  0.00    -0.075 SA
ATOM      8  C   UNL d   1      -2.342   2.065   2.465  0.00  0.00    -0.032 A 
ATOM      9  C   UNL d   1      -2.226   1.685   3.793  0.00  0.00    -0.012 A 
ATOM     10  C   UNL d   1      -3.103  -0.610  -1.401  0.00  0.00     0.119 C 
ATOM     11  O   UNL d   1      -1.345  -2.747  -0.494  0.00  0.00    -0.200 OA
ATOM     12  O   UNL d   1       0.326  -0.939  -0.032  0.00  0.00    -0.200 OA
ATOM     13  O   UNL d   1      -2.192   2.062  -0.549  0.00  0.00    -0.286 OA
ATOM     14  C   UNL d   1      -1.132  -2.703   2.421  0.00  0.00     0.170 C 
ATOM     15  C   UNL d   1      -2.781   3.443   2.063  0.00  0.00     0.050 C 
ATOM     16  C   UNL d   1      -2.463   2.521   5.010  0.00  0.00     0.057 C 
ENDROOT
BRANCH  10  17
ATOM     17  N   UNL d   1      -4.117   0.189  -1.868  0.00  0.00    -0.351 N 
ATOM     18  H   UNL d   1      -3.944   1.194  -1.899  0.00  0.00     0.166 HD
BRANCH  17  19
ATOM     19  C   UNL d   1      -5.202  -0.172  -2.664  0.00  0.00     0.104 A 
ATOM     20  N   UNL d   1      -5.743   0.817  -3.404  0.00  0.00    -0.351 N 
ATOM     21  C   UNL d   1      -6.772   0.498  -4.228  0.00  0.00     0.113 A 
ATOM     22  HN  UNL d   1      -5.391   1.772  -3.345  1.00  0.00     0.166 HD
ATOM     23  C   UNL d   1      -7.313  -0.772  -4.334  0.00  0.00     0.049 A 
ATOM     24  C   UNL d   1      -6.781  -1.774  -3.538  0.00  0.00     0.029 A 
ATOM     25 CL   UNL d   1      -8.599  -1.103  -5.416  0.00  0.00    -0.083 Cl
ATOM     26  C   UNL d   1      -5.712  -1.470  -2.693  0.00  0.00     0.050 A 
ENDBRANCH  17  19
ENDBRANCH  10  17
TORSDOF 2
