REMARK  6 active torsions:
REMARK  status: ('A' for Active; 'I' for Inactive)
REMARK    1  A    between atoms: C_6  and  C_1 
REMARK    2  A    between atoms: C_7  and  N_2 
REMARK    3  A    between atoms: O_10  and  C_3 
REMARK    4  A    between atoms: O_11  and  C_6 
REMARK    5  A    between atoms: C_12  and  C_7 
REMARK    6  A    between atoms: C_13  and  O_11 
ROOT
ATOM      1  C   UNL d   1      -0.777   1.369  -0.027  0.00  0.00     0.073 A 
ATOM      2  N   UNL d   1      -1.127  -0.858  -0.097  0.00  0.00    -0.338 N 
ATOM      3  C   UNL d   1       0.438   0.824  -0.161  0.00  0.00     0.148 A 
ATOM      4  C   UNL d   1       0.233  -0.647  -0.211  0.00  0.00     0.278 A 
ATOM      5  C   UNL d   1      -1.872   0.370   0.034  0.00  0.00     0.174 A 
ATOM      6  O   UNL d   1       1.108  -1.483  -0.325  0.00  0.00    -0.265 OA
ENDROOT
BRANCH   2   7
ATOM      7  C   UNL d   1      -1.747  -2.168  -0.109  0.00  0.00     0.165 C 
BRANCH   7   8
ATOM      8  C   UNL d   1      -2.068  -2.702   1.266  0.00  0.00    -0.040 A 
ATOM      9  C   UNL d   1      -3.392  -2.994   1.628  0.00  0.00     0.009 A 
ATOM     10  C   UNL d   1      -3.683  -3.543   2.880  0.00  0.00     0.001 A 
ATOM     11  C   UNL d   1      -2.657  -3.806   3.785  0.00  0.00     0.000 A 
ATOM     12  C   UNL d   1      -1.337  -3.526   3.437  0.00  0.00     0.001 A 
ATOM     13  C   UNL d   1      -1.043  -2.979   2.185  0.00  0.00     0.009 A 
ENDBRANCH   7   8
ENDBRANCH   2   7
BRANCH   1  14
ATOM     14  C   UNL d   1      -0.951   2.806   0.129  0.00  0.00     0.293 C 
ATOM     15  O   UNL d   1      -0.008   3.586   0.153  0.00  0.00    -0.259 OA
BRANCH  14  16
ATOM     16  O   UNL d   1      -2.255   3.106   0.330  0.00  0.00    -0.318 OA
BRANCH  16  17
ATOM     17  C   UNL d   1      -2.493   4.413   0.875  0.00  0.00     0.174 C 
ATOM     18  C   UNL d   1      -2.444   4.303   2.388  0.00  0.00     0.034 C 
ENDBRANCH  16  17
ENDBRANCH  14  16
ENDBRANCH   1  14
BRANCH   3  19
ATOM     19  O   UNL d   1       1.655   1.440  -0.211  0.00  0.00    -0.355 OA
ATOM     20  H   UNL d   1       1.508   2.405  -0.118  0.00  0.00     0.218 HD
ENDBRANCH   3  19
TORSDOF 6
