REMARK  9 active torsions:
REMARK  status: ('A' for Active; 'I' for Inactive)
REMARK    1  A    between atoms: C_8  and  C_1 
REMARK    2  A    between atoms: C_12  and  C_4 
REMARK    3  A    between atoms: S_11  and  C_6 
REMARK    4  A    between atoms: O_20  and  C_8 
REMARK    5  A    between atoms: C_15  and  S_11 
REMARK    6  A    between atoms: O_24  and  C_12 
REMARK    7  A    between atoms: O_25  and  C_12 
REMARK    8  A    between atoms: C_13  and  C_15 
REMARK    9  A    between atoms: C_14  and  C_13 
ROOT
ATOM      1  C   UNL d   1      -1.556   1.411   0.060  0.00  0.00     0.068 A 
ATOM      2  N   UNL d   1      -1.511  -0.991  -0.085  0.00  0.00    -0.348 N 
ATOM      3  HN  UNL d   1      -2.014  -1.873  -0.180  1.00  0.00     0.166 HD
ATOM      4  C   UNL d   1      -2.216   0.186  -0.035  0.00  0.00     0.082 A 
ATOM      5  C   UNL d   1       0.559   0.184   0.049  0.00  0.00     0.079 A 
ATOM      6  C   UNL d   1      -0.165  -0.999  -0.011  0.00  0.00     0.091 A 
ATOM      7  C   UNL d   1      -0.150   1.396   0.083  0.00  0.00     0.045 A 
ATOM      8  C   UNL d   1       1.987   0.216   0.104  0.00  0.00     0.102 C 
ATOM      9  N   UNL d   1       3.145   0.311   0.150  0.00  0.00    -0.191 NA
ENDROOT
BRANCH   6  10
ATOM     10  S   UNL d   1       0.584  -2.616   0.074  0.00  0.00    -0.103 SA
BRANCH  10  11
ATOM     11  C   UNL d   1      -0.909  -3.683   0.053  0.00  0.00     0.164 C 
BRANCH  11  12
ATOM     12  C   UNL d   1      -0.543  -5.126   0.355  0.00  0.00     0.169 C 
ATOM     13  O   UNL d   1       0.357  -5.454   1.127  0.00  0.00    -0.291 OA
BRANCH  12  14
ATOM     14  C   UNL d   1      -1.351  -6.213  -0.270  0.00  0.00     0.011 A 
ATOM     15  C   UNL d   1      -0.735  -7.457  -0.475  0.00  0.00     0.017 A 
ATOM     16  C   UNL d   1      -1.453  -8.524  -1.019  0.00  0.00     0.025 A 
ATOM     17  C   UNL d   1      -2.796  -8.354  -1.348  0.00  0.00     0.034 A 
ATOM     18  C   UNL d   1      -3.421  -7.122  -1.146  0.00  0.00     0.025 A 
ATOM     19 CL   UNL d   1      -3.690  -9.674  -1.993  0.00  0.00    -0.084 Cl
ATOM     20  C   UNL d   1      -2.700  -6.048  -0.609  0.00  0.00     0.017 A 
ENDBRANCH  12  14
ENDBRANCH  11  12
ENDBRANCH  10  11
ENDBRANCH   6  10
BRANCH   1  21
ATOM     21  C   UNL d   1      -2.278   2.695   0.254  0.00  0.00     0.295 C 
ATOM     22  O   UNL d   1      -3.373   2.785   0.781  0.00  0.00    -0.259 OA
BRANCH  21  23
ATOM     23  O   UNL d   1      -1.516   3.732  -0.170  0.00  0.00    -0.322 OA
ATOM     24  C   UNL d   1      -2.060   5.027   0.109  0.00  0.00     0.213 C 
ENDBRANCH  21  23
ENDBRANCH   1  21
BRANCH   4  25
ATOM     25  C   UNL d   1      -3.733   0.027  -0.127  0.00  0.00     0.310 C 
BRANCH  25  26
ATOM     26  O   UNL d   1      -4.043  -0.036  -1.528  0.00  0.00    -0.360 OA
ATOM     27  C   UNL d   1      -5.439  -0.162  -1.762  0.00  0.00     0.205 C 
ENDBRANCH  25  26
BRANCH  25  28
ATOM     28  O   UNL d   1      -4.177  -1.181   0.524  0.00  0.00    -0.360 OA
ATOM     29  C   UNL d   1      -3.933  -1.178   1.924  0.00  0.00     0.205 C 
ENDBRANCH  25  28
ENDBRANCH   4  25
TORSDOF 9
