REMARK  2 active torsions:
REMARK  status: ('A' for Active; 'I' for Inactive)
REMARK    1  A    between atoms: N_2  and  C_1 
REMARK    2  A    between atoms: C_6  and  N_2 
REMARK       I    between atoms: C_7  and  N_2 
REMARK       I    between atoms: N_15  and  C_7 
ROOT
ATOM      1  N   UNL d   1       2.986   0.679   0.411  0.00  0.00    -0.244 N 
ATOM      2  C   UNL d   1       3.194   2.016   0.805  0.00  0.00     0.328 C 
ATOM      3  O   UNL d   1       2.397   2.691   1.452  0.00  0.00    -0.246 OA
ATOM      4  N   UNL d   1       4.436   2.525   0.449  0.00  0.00    -0.347 N 
ATOM      5  C   UNL d   1       4.840   3.877   0.747  0.00  0.00     0.151 C 
ATOM      6  H   UNL d   1       5.075   1.946  -0.076  0.00  0.00     0.163 HD
ENDROOT
BRANCH   1   7
ATOM      7  C   UNL d   1       1.733   0.159   0.046  0.00  0.00     0.152 C 
ATOM      8  N   UNL d   1       1.533  -1.104  -0.167  0.00  0.00    -0.369 N 
ATOM      9  C   UNL d   1       0.139  -1.352  -0.579  0.00  0.00     0.142 C 
ATOM     10  HN  UNL d   1       2.243  -1.829  -0.062  1.00  0.00     0.161 HD
ATOM     11  C   UNL d   1      -0.769  -0.248  -0.034  0.00  0.00     0.024 C 
ATOM     12  S   UNL d   1       0.336   1.193  -0.137  0.00  0.00    -0.083 SA
ATOM     13  C   UNL d   1      -1.165  -0.511   1.421  0.00  0.00     0.029 C 
ATOM     14  C   UNL d   1      -2.009  -0.046  -0.902  0.00  0.00     0.029 C 
ENDBRANCH   1   7
BRANCH   1  15
ATOM     15  C   UNL d   1       4.097  -0.230   0.433  0.00  0.00     0.048 A 
ATOM     16  C   UNL d   1       4.395  -1.039  -0.675  0.00  0.00     0.057 A 
ATOM     17  C   UNL d   1       5.477  -1.919  -0.628  0.00  0.00     0.074 A 
ATOM     18 CL   UNL d   1       5.851  -2.871  -2.013  0.00  0.00    -0.081 Cl
ATOM     19  C   UNL d   1       6.250  -2.010   0.526  0.00  0.00     0.138 A 
ATOM     20  C   UNL d   1       5.967  -1.216   1.633  0.00  0.00     0.046 A 
ATOM     21  F   UNL d   1       7.285  -2.859   0.593  0.00  0.00    -0.204 F 
ATOM     22  C   UNL d   1       4.901  -0.316   1.583  0.00  0.00     0.033 A 
ENDBRANCH   1  15
TORSDOF 2
