REMARK  7 active torsions:
REMARK  status: ('A' for Active; 'I' for Inactive)
REMARK    1  A    between atoms: C_2  and  S_1 
REMARK    2  A    between atoms: N_5  and  S_1 
REMARK    3  A    between atoms: C_3  and  C_6 
REMARK    4  A    between atoms: C_4  and  C_7 
REMARK    5  A    between atoms: C_10  and  N_5 
REMARK    6  A    between atoms: O_9  and  C_8 
REMARK    7  A    between atoms: C_11  and  O_9 
ROOT
ATOM      1  S   UNL d   1       0.683   0.045   0.281  0.00  0.00     0.248 S 
ATOM      2  O   UNL d   1      -0.201   1.188   0.179  0.00  0.00    -0.205 OA
ATOM      3  O   UNL d   1       2.109   0.242   0.424  0.00  0.00    -0.205 OA
ENDROOT
BRANCH   1   4
ATOM      4  C   UNL d   1       0.342  -1.011  -1.105  0.00  0.00     0.108 C 
ATOM      5  C   UNL d   1       1.222  -2.009  -1.528  0.00  0.00     0.099 C 
ATOM      6  C   UNL d   1       0.780  -2.938  -2.486  0.00  0.00     0.039 C 
ATOM      7  C   UNL d   1      -0.422  -2.744  -3.162  0.00  0.00     0.003 C 
ATOM      8  C   UNL d   1      -1.227  -1.655  -2.844  0.00  0.00     0.002 C 
ATOM      9  C   UNL d   1      -0.867  -0.810  -1.795  0.00  0.00     0.028 C 
BRANCH   5  10
ATOM     10  O   UNL d   1       2.497  -2.089  -1.015  0.00  0.00    -0.308 OA
BRANCH  10  11
ATOM     11  C   UNL d   1       3.550  -2.338  -1.886  0.00  0.00     0.098 A 
ATOM     12  C   UNL d   1       4.693  -2.967  -1.373  0.00  0.00     0.069 A 
ATOM     13  C   UNL d   1       5.751  -3.320  -2.218  0.00  0.00     0.050 A 
ATOM     14 CL   UNL d   1       4.832  -3.346   0.306  0.00  0.00    -0.081 Cl
ATOM     15  C   UNL d   1       5.670  -3.043  -3.581  0.00  0.00     0.035 A 
ATOM     16  C   UNL d   1       4.567  -2.370  -4.098  0.00  0.00     0.026 A 
ATOM     17 CL   UNL d   1       6.938  -3.534  -4.636  0.00  0.00    -0.084 Cl
ATOM     18  C   UNL d   1       3.527  -1.988  -3.247  0.00  0.00     0.041 A 
ENDBRANCH  10  11
ENDBRANCH   5  10
ENDBRANCH   1   4
BRANCH   1  19
ATOM     19  N   UNL d   1       0.073  -0.851   1.593  0.00  0.00    -0.181 NA
ATOM     20  H   UNL d   1      -0.538  -0.257   2.162  0.00  0.00     0.146 HD
BRANCH  19  21
ATOM     21  C   UNL d   1       0.972  -1.699   2.294  0.00  0.00     0.024 A 
ATOM     22  C   UNL d   1       1.860  -1.163   3.226  0.00  0.00     0.040 A 
ATOM     23  C   UNL d   1       2.808  -1.983   3.856  0.00  0.00     0.050 A 
ATOM     24  C   UNL d   1       2.814  -3.358   3.565  0.00  0.00     0.032 A 
ATOM     25  C   UNL d   1       1.915  -3.907   2.635  0.00  0.00     0.050 A 
ATOM     26  C   UNL d   1       0.986  -3.062   2.007  0.00  0.00     0.040 A 
BRANCH  23  27
ATOM     27  C   UNL d   1       3.801  -1.396   4.830  0.00  0.00     0.417 C 
ATOM     28  F   UNL d   1       4.981  -2.076   4.862  0.00  0.00    -0.166 F 
ATOM     29  F   UNL d   1       4.122  -0.102   4.556  0.00  0.00    -0.166 F 
ATOM     30  F   UNL d   1       3.331  -1.403   6.108  0.00  0.00    -0.166 F 
ENDBRANCH  23  27
BRANCH  25  31
ATOM     31  C   UNL d   1       1.939  -5.378   2.300  0.00  0.00     0.417 C 
ATOM     32  F   UNL d   1       3.078  -6.008   2.702  0.00  0.00    -0.166 F 
ATOM     33  F   UNL d   1       0.912  -6.055   2.882  0.00  0.00    -0.166 F 
ATOM     34  F   UNL d   1       1.832  -5.615   0.963  0.00  0.00    -0.166 F 
ENDBRANCH  25  31
ENDBRANCH  19  21
ENDBRANCH   1  19
TORSDOF 7
