REMARK  5 active torsions:
REMARK  status: ('A' for Active; 'I' for Inactive)
REMARK    1  A    between atoms: C_6  and  C_1 
REMARK    2  A    between atoms: C_12  and  N_2 
REMARK    3  A    between atoms: C_16  and  C_3 
REMARK       I    between atoms: N_8  and  C_6 
REMARK    4  A    between atoms: C_9  and  N_8 
REMARK    5  A    between atoms: C_21  and  C_16 
ROOT
ATOM      1  C   UNL d   1      -0.202   1.245  -0.425  0.00  0.00     0.073 C 
ATOM      2  N   UNL d   1       0.909  -0.681  -0.329  0.00  0.00    -0.260 N 
ATOM      3  C   UNL d   1       1.055   0.676  -0.662  0.00  0.00     0.051 C 
ATOM      4  N   UNL d   1      -0.404  -1.027  -0.313  0.00  0.00    -0.304 N 
ATOM      5  HN  UNL d   1      -0.804  -1.965  -0.333  1.00  0.00     0.186 HD
ATOM      6  C   UNL d   1      -1.050   0.130  -0.266  0.00  0.00     0.126 C 
ENDROOT
BRANCH   1   7
ATOM      7  C   UNL d   1      -0.682   2.627  -0.397  0.00  0.00     0.255 C 
ATOM      8  N   UNL d   1       0.287   3.594  -0.306  0.00  0.00    -0.352 N 
ATOM      9  H   UNL d   1       1.211   3.274  -0.066  0.00  0.00     0.163 HD
ATOM     10  O   UNL d   1      -1.881   2.878  -0.380  0.00  0.00    -0.268 OA
BRANCH   8  11
ATOM     11  C   UNL d   1       0.033   4.995  -0.021  0.00  0.00     0.093 C 
ATOM     12  C   UNL d   1      -0.334   5.281   1.449  0.00  0.00     0.064 C 
ATOM     13  C   UNL d   1      -0.817   6.693   1.323  0.00  0.00    -0.050 A 
ATOM     14  C   UNL d   1      -0.891   7.661   2.309  0.00  0.00     0.007 A 
ATOM     15  C   UNL d   1      -1.218   6.961   0.006  0.00  0.00    -0.050 A 
ATOM     16  C   UNL d   1      -1.364   8.925   1.955  0.00  0.00     0.001 A 
ATOM     17  C   UNL d   1      -1.775   9.194   0.639  0.00  0.00     0.001 A 
ATOM     18  C   UNL d   1      -1.714   8.204  -0.346  0.00  0.00     0.007 A 
ATOM     19  C   UNL d   1      -1.026   5.748  -0.863  0.00  0.00     0.064 C 
ENDBRANCH   8  11
ENDBRANCH   1   7
BRANCH   3  20
ATOM     20  C   UNL d   1       2.310   1.277  -1.232  0.00  0.00     0.060 C 
BRANCH  20  21
ATOM     21  C   UNL d   1       2.839   0.578  -2.490  0.00  0.00     0.002 C 
ATOM     22  C   UNL d   1       1.929   0.776  -3.696  0.00  0.00     0.005 C 
ENDBRANCH  20  21
ENDBRANCH   3  20
BRANCH   2  23
ATOM     23  C   UNL d   1       1.871  -1.678   0.027  0.00  0.00     0.056 A 
ATOM     24  C   UNL d   1       3.145  -1.353   0.504  0.00  0.00     0.031 A 
ATOM     25  C   UNL d   1       4.024  -2.362   0.915  0.00  0.00     0.002 A 
ATOM     26  C   UNL d   1       3.639  -3.700   0.859  0.00  0.00     0.000 A 
ATOM     27  C   UNL d   1       2.370  -4.036   0.395  0.00  0.00     0.002 A 
ATOM     28  C   UNL d   1       1.489  -3.032  -0.012  0.00  0.00     0.031 A 
ENDBRANCH   2  23
TORSDOF 5
