REMARK  1 active torsions:
REMARK  status: ('A' for Active; 'I' for Inactive)
REMARK    1  A    between atoms: C_7  and  C_4 
ROOT
ATOM      1  N   UNL d   1       0.181  -0.644   1.001  0.00  0.00    -0.303 N 
ATOM      2  HN  UNL d   1       0.294  -1.226   1.831  1.00  0.00     0.186 HD
ATOM      3  N   UNL d   1      -0.821   0.265   0.763  0.00  0.00    -0.266 N 
ATOM      4  C   UNL d   1       0.958  -0.616  -0.042  0.00  0.00     0.020 A 
ATOM      5  C   UNL d   1      -0.721   0.934  -0.453  0.00  0.00     0.243 A 
ATOM      6  C   UNL d   1       0.500   0.355  -1.101  0.00  0.00     0.159 A 
ATOM      7  O   UNL d   1      -1.451   1.792  -0.915  0.00  0.00    -0.271 OA
ATOM      8  C   UNL d   1      -1.871   0.492   1.721  0.00  0.00     0.181 C 
ENDROOT
BRANCH   4   9
ATOM      9  C   UNL d   1       2.207  -1.471  -0.201  0.00  0.00    -0.011 C 
ATOM     10  C   UNL d   1       2.409  -2.367   1.033  0.00  0.00     0.021 C 
ATOM     11  C   UNL d   1       2.060  -2.360  -1.442  0.00  0.00     0.021 C 
ATOM     12  C   UNL d   1       3.431  -0.558  -0.354  0.00  0.00     0.021 C 
ENDBRANCH   4   9
TORSDOF 1
