REMARK  3 active torsions:
REMARK  status: ('A' for Active; 'I' for Inactive)
REMARK    1  A    between atoms: N_2  and  S_1 
REMARK    2  A    between atoms: C_3  and  S_1 
REMARK    3  A    between atoms: C_15  and  C_8 
ROOT
ATOM      1  C   UNL d   1       0.546  -0.791  -1.263  0.00  0.00     0.122 A 
ATOM      2  S   UNL d   1      -0.118   0.264  -2.428  0.00  0.00    -0.074 SA
ATOM      3  C   UNL d   1      -0.372  -1.000  -3.561  0.00  0.00     0.033 A 
ATOM      4  C   UNL d   1       0.547  -2.098  -1.707  0.00  0.00     0.034 A 
ATOM      5  C   UNL d   1       0.040  -2.213  -3.036  0.00  0.00     0.023 A 
ENDROOT
BRANCH   1   6
ATOM      6  S   UNL d   1       1.075  -0.033   0.250  0.00  0.00     0.289 S 
ATOM      7  O   UNL d   1      -0.060   0.722   0.752  0.00  0.00    -0.198 OA
ATOM      8  O   UNL d   1       1.714  -1.082   1.025  0.00  0.00    -0.198 OA
BRANCH   6   9
ATOM      9  N   UNL d   1       2.318   1.125  -0.079  0.00  0.00    -0.181 N 
ATOM     10  N   UNL d   1       2.916   1.274  -1.296  0.00  0.00    -0.289 N 
ATOM     11  C   UNL d   1       3.789   2.268  -1.124  0.00  0.00     0.025 A 
ATOM     12  HN  UNL d   1       2.735   0.743  -2.149  1.00  0.00     0.188 HD
ATOM     13  C   UNL d   1       4.605   2.760  -2.260  0.00  0.00     0.070 C 
ATOM     14  C   UNL d   1       3.803   2.723   0.211  0.00  0.00     0.053 A 
ATOM     15  C   UNL d   1       2.859   1.968   0.879  0.00  0.00     0.044 A 
ATOM     16  C   UNL d   1       2.467   2.020   2.311  0.00  0.00     0.071 C 
ENDBRANCH   6   9
ENDBRANCH   1   6
BRANCH   3  17
ATOM     17  C   UNL d   1      -0.935  -0.716  -4.889  0.00  0.00     0.049 A 
ATOM     18  N   UNL d   1      -0.544  -1.575  -5.862  0.00  0.00    -0.365 N 
ATOM     19  C   UNL d   1      -1.022  -1.359  -7.108  0.00  0.00     0.088 A 
ATOM     20  HN  UNL d   1       0.085  -2.353  -5.662  1.00  0.00     0.165 HD
ATOM     21  C   UNL d   1      -1.892  -0.332  -7.436  0.00  0.00     0.017 A 
ATOM     22  C   UNL d   1      -2.296   0.530  -6.426  0.00  0.00     0.004 A 
ATOM     23  C   UNL d   1      -1.811   0.339  -5.135  0.00  0.00     0.031 A 
ENDBRANCH   3  17
TORSDOF 3
