REMARK  3 active torsions:
REMARK  status: ('A' for Active; 'I' for Inactive)
REMARK    1  A    between atoms: C_2  and  C_1 
REMARK       I    between atoms: N_6  and  C_2 
REMARK    2  A    between atoms: C_3  and  N_8 
REMARK    3  A    between atoms: N_8  and  N_6 
ROOT
ATOM      1  C   UNL d   1      -1.171   2.264   0.644  0.00  0.00     0.291 C 
ATOM      2  N   UNL d   1      -0.734   3.500   0.188  0.00  0.00    -0.281 N 
ATOM      3  O   UNL d   1      -0.396   1.316   0.778  0.00  0.00    -0.264 OA
ATOM      4  H   UNL d   1      -1.403   4.205  -0.116  0.00  0.00     0.184 HD
ENDROOT
BRANCH   2   5
ATOM      5  N   UNL d   1       0.563   3.585  -0.351  0.00  0.00    -0.201 NA
ATOM      6  H   UNL d   1       1.114   2.768  -0.056  0.00  0.00     0.153 HD
BRANCH   5   7
ATOM      7  C   UNL d   1       1.242   4.808  -0.084  0.00  0.00     0.051 A 
ATOM      8  C   UNL d   1       2.639   4.739   0.082  0.00  0.00     0.050 A 
ATOM      9  C   UNL d   1       3.407   5.894   0.250  0.00  0.00     0.035 A 
ATOM     10 CL   UNL d   1       5.112   5.764   0.452  0.00  0.00    -0.084 Cl
ATOM     11  C   UNL d   1       2.812   7.149   0.237  0.00  0.00     0.026 A 
ATOM     12  C   UNL d   1       1.437   7.249   0.044  0.00  0.00     0.027 A 
ATOM     13  C   UNL d   1       0.656   6.096  -0.132  0.00  0.00     0.057 A 
ATOM     14 CL   UNL d   1      -1.025   6.364  -0.455  0.00  0.00    -0.082 Cl
ENDBRANCH   5   7
ENDBRANCH   2   5
BRANCH   1  15
ATOM     15  C   UNL d   1      -2.580   2.192   0.935  0.00  0.00     0.168 A 
ATOM     16  O   UNL d   1      -3.352   3.310   0.796  0.00  0.00    -0.233 OA
ATOM     17  N   UNL d   1      -4.661   3.017   1.140  0.00  0.00    -0.272 N 
ATOM     18  C   UNL d   1      -4.657   1.726   1.478  0.00  0.00     0.117 A 
ATOM     19  HN  UNL d   1      -5.459   3.653   1.136  1.00  0.00     0.194 HD
ATOM     20  C   UNL d   1      -3.379   1.155   1.362  0.00  0.00     0.064 A 
ENDBRANCH   1  15
TORSDOF 3
