REMARK  4 active torsions:
REMARK  status: ('A' for Active; 'I' for Inactive)
REMARK    1  A    between atoms: C_9  and  C_1 
REMARK    2  A    between atoms: C_10  and  C_1 
REMARK    3  A    between atoms: N_11  and  C_6 
REMARK    4  A    between atoms: C_12  and  C_7 
ROOT
ATOM      1  C   UNL d   1       1.450  -0.196   0.229  0.00  0.00     0.308 C 
ATOM      2  N   UNL d   1       0.817   1.094  -0.057  0.00  0.00    -0.314 N 
ATOM      3  HN  UNL d   1       1.398   1.929  -0.134  1.00  0.00     0.166 HD
ATOM      4  N   UNL d   1       0.510  -1.330   0.146  0.00  0.00    -0.328 N 
ATOM      5  HN  UNL d   1       0.839  -2.293   0.217  1.00  0.00     0.164 HD
ATOM      6  C   UNL d   1      -0.444   1.196  -0.212  0.00  0.00     0.226 C 
ATOM      7  C   UNL d   1      -0.732  -1.065  -0.018  0.00  0.00     0.160 C 
ATOM      8  O   UNL d   1      -1.287   0.150  -0.156  0.00  0.00    -0.262 OA
ENDROOT
BRANCH   1   9
ATOM      9  C   UNL d   1       2.614  -0.384  -0.768  0.00  0.00     0.441 C 
ATOM     10  F   UNL d   1       3.436   0.693  -0.818  0.00  0.00    -0.166 F 
ATOM     11  F   UNL d   1       3.387  -1.462  -0.502  0.00  0.00    -0.166 F 
ATOM     12  F   UNL d   1       2.138  -0.562  -2.032  0.00  0.00    -0.166 F 
ENDBRANCH   1   9
BRANCH   1  13
ATOM     13  C   UNL d   1       2.121  -0.126   1.619  0.00  0.00     0.441 C 
ATOM     14  F   UNL d   1       2.764   1.051   1.826  0.00  0.00    -0.166 F 
ATOM     15  F   UNL d   1       1.187  -0.224   2.607  0.00  0.00    -0.166 F 
ATOM     16  F   UNL d   1       3.019  -1.111   1.845  0.00  0.00    -0.166 F 
ENDBRANCH   1  13
BRANCH   6  17
ATOM     17  N   UNL d   1      -1.046   2.410  -0.476  0.00  0.00    -0.347 N 
ATOM     18  C   UNL d   1      -2.468   2.658  -0.238  0.00  0.00     0.126 C 
ATOM     19  C   UNL d   1      -3.017   3.636  -1.278  0.00  0.00     0.020 C 
ATOM     20  C   UNL d   1      -2.187   4.916  -1.358  0.00  0.00     0.003 C 
ATOM     21  C   UNL d   1      -0.714   4.588  -1.562  0.00  0.00     0.020 C 
ATOM     22  C   UNL d   1      -0.217   3.627  -0.488  0.00  0.00     0.126 C 
ENDBRANCH   6  17
BRANCH   7  23
ATOM     23  C   UNL d   1      -1.781  -2.108  -0.107  0.00  0.00     0.021 A 
ATOM     24  C   UNL d   1      -1.605  -3.279  -0.864  0.00  0.00    -0.048 A 
ATOM     25  C   UNL d   1      -0.388  -3.580  -1.693  0.00  0.00     0.049 C 
ATOM     26  C   UNL d   1      -2.623  -4.256  -0.835  0.00  0.00     0.007 A 
ATOM     27  C   UNL d   1      -3.792  -4.058  -0.101  0.00  0.00     0.001 A 
ATOM     28  C   UNL d   1      -3.966  -2.882   0.624  0.00  0.00     0.001 A 
ATOM     29  C   UNL d   1      -2.962  -1.914   0.625  0.00  0.00     0.016 A 
ENDBRANCH   7  23
TORSDOF 4
