REMARK  6 active torsions:
REMARK  status: ('A' for Active; 'I' for Inactive)
REMARK    1  A    between atoms: C_7  and  C_1 
REMARK    2  A    between atoms: C_10  and  C_2 
REMARK    3  A    between atoms: O_15  and  C_7 
REMARK    4  A    between atoms: N_11  and  N_8 
REMARK    5  A    between atoms: C_12  and  N_11 
REMARK    6  A    between atoms: C_21  and  O_15 
ROOT
ATOM      1  N   UNL d   1      -0.748  -3.478   0.238  0.00  0.00    -0.320 N 
ATOM      2  HN  UNL d   1      -0.521  -4.467   0.340  1.00  0.00     0.181 HD
ATOM      3  C   UNL d   1       0.184  -2.576   0.104  0.00  0.00     0.032 C 
ATOM      4  C   UNL d   1      -0.098  -1.091  -0.008  0.00  0.00     0.070 C 
ENDROOT
BRANCH   3   5
ATOM      5  C   UNL d   1       1.558  -3.082   0.055  0.00  0.00     0.053 A 
ATOM      6  C   UNL d   1       2.802  -2.477   0.446  0.00  0.00     0.144 A 
ATOM      7  N   UNL d   1       3.840  -3.279   0.148  0.00  0.00    -0.254 N 
ATOM      8  O   UNL d   1       3.307  -4.410  -0.407  0.00  0.00    -0.241 OA
ATOM      9  HN  UNL d   1       4.829  -3.082   0.305  1.00  0.00     0.195 HD
ATOM     10  C   UNL d   1       1.958  -4.301  -0.472  0.00  0.00     0.087 A 
ATOM     11  C   UNL d   1       1.298  -5.455  -1.116  0.00  0.00     0.080 C 
BRANCH   6  12
ATOM     12  C   UNL d   1       3.056  -1.180   1.056  0.00  0.00     0.312 C 
ATOM     13  O   UNL d   1       2.249  -0.597   1.778  0.00  0.00    -0.258 OA
BRANCH  12  14
ATOM     14  O   UNL d   1       4.235  -0.632   0.635  0.00  0.00    -0.317 OA
BRANCH  14  15
ATOM     15  C   UNL d   1       4.303   0.799   0.713  0.00  0.00     0.175 C 
ATOM     16  C   UNL d   1       3.702   1.362  -0.563  0.00  0.00     0.034 C 
ENDBRANCH  14  15
ENDBRANCH  12  14
ENDBRANCH   6  12
ENDBRANCH   3   5
BRANCH   1  17
ATOM     17  N   UNL d   1      -2.041  -3.038   0.236  0.00  0.00    -0.204 NA
ATOM     18  H   UNL d   1      -2.444  -2.859  -0.690  0.00  0.00     0.153 HD
BRANCH  17  19
ATOM     19  C   UNL d   1      -2.974  -3.782   1.011  0.00  0.00     0.049 A 
ATOM     20  C   UNL d   1      -4.351  -3.751   0.719  0.00  0.00     0.056 A 
ATOM     21 CL   UNL d   1      -4.939  -2.918  -0.680  0.00  0.00    -0.082 Cl
ATOM     22  C   UNL d   1      -5.279  -4.405   1.537  0.00  0.00     0.026 A 
ATOM     23  C   UNL d   1      -4.846  -5.079   2.678  0.00  0.00     0.002 A 
ATOM     24  C   UNL d   1      -3.491  -5.096   2.999  0.00  0.00     0.002 A 
ATOM     25  C   UNL d   1      -2.565  -4.446   2.178  0.00  0.00     0.027 A 
ENDBRANCH  17  19
ENDBRANCH   1  17
TORSDOF 6
