REMARK  5 active torsions:
REMARK  status: ('A' for Active; 'I' for Inactive)
REMARK    1  A    between atoms: N_3  and  C_1 
REMARK       I    between atoms: C_2  and  N_4 
REMARK    2  A    between atoms: C_6  and  C_2 
REMARK    3  A    between atoms: N_4  and  N_3 
REMARK    4  A    between atoms: C_19  and  C_18 
REMARK    5  A    between atoms: C_20  and  C_19 
ROOT
ATOM      1  C   UNL d   1       3.649  -3.693   0.189  0.00  0.00     0.266 C 
ATOM      2  N   UNL d   1       4.064  -3.289   1.449  0.00  0.00    -0.283 N 
ATOM      3  O   UNL d   1       3.819  -3.025  -0.826  0.00  0.00    -0.266 OA
ATOM      4  H   UNL d   1       3.609  -3.665   2.278  0.00  0.00     0.184 HD
ENDROOT
BRANCH   2   5
ATOM      5  N   UNL d   1       4.545  -1.975   1.571  0.00  0.00    -0.201 NA
ATOM      6  H   UNL d   1       4.831  -1.633   0.644  0.00  0.00     0.153 HD
BRANCH   5   7
ATOM      7  C   UNL d   1       5.562  -1.801   2.553  0.00  0.00     0.051 A 
ATOM      8  C   UNL d   1       6.559  -0.841   2.277  0.00  0.00     0.050 A 
ATOM      9  C   UNL d   1       7.530  -0.511   3.225  0.00  0.00     0.035 A 
ATOM     10 CL   UNL d   1       8.729   0.665   2.847  0.00  0.00    -0.084 Cl
ATOM     11  C   UNL d   1       7.529  -1.110   4.479  0.00  0.00     0.026 A 
ATOM     12  C   UNL d   1       6.544  -2.048   4.785  0.00  0.00     0.027 A 
ATOM     13  C   UNL d   1       5.562  -2.384   3.841  0.00  0.00     0.057 A 
ATOM     14 CL   UNL d   1       4.349  -3.502   4.381  0.00  0.00    -0.082 Cl
ENDBRANCH   5   7
ENDBRANCH   2   5
BRANCH   1  15
ATOM     15  C   UNL d   1       2.952  -5.004   0.142  0.00  0.00     0.033 A 
ATOM     16  C   UNL d   1       1.934  -5.208  -0.796  0.00  0.00     0.017 A 
ATOM     17  C   UNL d   1       1.264  -6.433  -0.845  0.00  0.00     0.008 A 
ATOM     18  C   UNL d   1       1.611  -7.472   0.031  0.00  0.00    -0.058 A 
ATOM     19  C   UNL d   1       2.660  -7.272   0.939  0.00  0.00     0.008 A 
ATOM     20  C   UNL d   1       3.321  -6.044   1.002  0.00  0.00     0.017 A 
BRANCH  18  21
ATOM     21  C   UNL d   1       0.875  -8.792  -0.014  0.00  0.00     0.038 C 
BRANCH  21  22
ATOM     22  C   UNL d   1       0.217  -9.189   1.313  0.00  0.00     0.000 C 
ATOM     23  C   UNL d   1      -0.860  -8.212   1.764  0.00  0.00     0.005 C 
ENDBRANCH  21  22
ENDBRANCH  18  21
ENDBRANCH   1  15
TORSDOF 5
