REMARK  6 active torsions:
REMARK  status: ('A' for Active; 'I' for Inactive)
REMARK    1  A    between atoms: C_2  and  C_1 
REMARK       I    between atoms: N_3  and  C_1 
REMARK       I    between atoms: C_4  and  N_3 
REMARK       I    between atoms: N_7  and  C_4 
REMARK    2  A    between atoms: C_5  and  N_7 
REMARK    3  A    between atoms: O_16  and  C_6 
REMARK    4  A    between atoms: O_18  and  C_8 
REMARK    5  A    between atoms: O_19  and  C_11 
REMARK    6  A    between atoms: O_20  and  C_12 
ROOT
ATOM      1  C   UNL d   1       1.217   0.207   0.446  0.00  0.00     0.244 C 
ATOM      2  N   UNL d   1       0.469  -0.774  -0.177  0.00  0.00    -0.180 NA
ATOM      3  C   UNL d   1      -0.753  -1.192   0.307  0.00  0.00     0.284 C 
ATOM      4  N   UNL d   1      -1.823  -0.547  -0.294  0.00  0.00    -0.210 NA
ATOM      5  O   UNL d   1       2.377  -0.070   0.762  0.00  0.00    -0.273 OA
ATOM      6  O   UNL d   1      -0.821  -2.188   1.023  0.00  0.00    -0.260 OA
ATOM      7  H   UNL d   1       1.076  -1.583  -0.105  0.00  0.00     0.141 HD
ATOM      8  H   UNL d   1      -1.518  -0.219  -1.205  0.00  0.00     0.138 HD
ENDROOT
BRANCH   1   9
ATOM      9  C   UNL d   1       0.682   1.585   0.676  0.00  0.00     0.095 A 
ATOM     10  C   UNL d   1      -0.043   2.261  -0.339  0.00  0.00     0.107 A 
ATOM     11  C   UNL d   1      -0.424   3.593  -0.101  0.00  0.00     0.068 A 
ATOM     12 CL   UNL d   1      -1.426   4.557  -1.130  0.00  0.00    -0.081 Cl
ATOM     13  C   UNL d   1      -0.016   4.245   1.070  0.00  0.00     0.029 A 
ATOM     14  C   UNL d   1       0.724   3.584   2.046  0.00  0.00     0.039 A 
ATOM     15  C   UNL d   1       1.059   2.239   1.875  0.00  0.00     0.086 A 
BRANCH  10  16
ATOM     16  O   UNL d   1      -0.289   1.508  -1.458  0.00  0.00    -0.353 OA
ATOM     17  C   UNL d   1      -0.766   2.076  -2.663  0.00  0.00     0.210 C 
ENDBRANCH  10  16
BRANCH  15  18
ATOM     18  O   UNL d   1       1.652   1.492   2.855  0.00  0.00    -0.355 OA
ATOM     19  C   UNL d   1       2.416   2.113   3.885  0.00  0.00     0.210 C 
ENDBRANCH  15  18
ENDBRANCH   1   9
BRANCH   4  20
ATOM     20  C   UNL d   1      -3.047  -1.270  -0.347  0.00  0.00     0.083 C 
ATOM     21  C   UNL d   1      -3.870  -1.452   0.775  0.00  0.00     0.092 C 
ATOM     22  C   UNL d   1      -4.867  -2.432   0.730  0.00  0.00     0.039 C 
ATOM     23  C   UNL d   1      -5.063  -3.201  -0.417  0.00  0.00     0.006 C 
ATOM     24  C   UNL d   1      -4.311  -2.948  -1.563  0.00  0.00     0.039 C 
ATOM     25  C   UNL d   1      -3.331  -1.952  -1.552  0.00  0.00     0.092 C 
BRANCH  21  26
ATOM     26  O   UNL d   1      -3.807  -0.783   1.969  0.00  0.00    -0.354 OA
ATOM     27  C   UNL d   1      -3.371   0.570   1.917  0.00  0.00     0.210 C 
ENDBRANCH  21  26
BRANCH  25  28
ATOM     28  O   UNL d   1      -2.541  -1.641  -2.636  0.00  0.00    -0.354 OA
ATOM     29  C   UNL d   1      -3.103  -1.962  -3.908  0.00  0.00     0.210 C 
ENDBRANCH  25  28
ENDBRANCH   4  20
TORSDOF 6
