REMARK  4 active torsions:
REMARK  status: ('A' for Active; 'I' for Inactive)
REMARK    1  A    between atoms: C_2  and  S_1 
REMARK    2  A    between atoms: N_3  and  S_1 
REMARK    3  A    between atoms: C_19  and  N_3 
REMARK    4  A    between atoms: C_20  and  C_19 
ROOT
ATOM      1  S   UNL d   1       0.844  -0.021   0.029  0.00  0.00     0.259 S 
ATOM      2  O   UNL d   1       0.070  -0.432  -1.118  0.00  0.00    -0.201 OA
ATOM      3  O   UNL d   1       2.292  -0.021   0.014  0.00  0.00    -0.201 OA
ENDROOT
BRANCH   1   4
ATOM      4  C   UNL d   1       0.311  -1.014   1.408  0.00  0.00     0.082 A 
ATOM      5  C   UNL d   1      -0.946  -1.629   1.354  0.00  0.00     0.062 A 
ATOM      6  C   UNL d   1      -1.300  -2.446   2.408  0.00  0.00     0.076 A 
ATOM      7  O   UNL d   1      -2.498  -3.104   2.503  0.00  0.00    -0.350 OA
ATOM      8  C   UNL d   1      -0.458  -2.661   3.489  0.00  0.00    -0.023 A 
ATOM      9  C   UNL d   1      -2.308  -4.014   3.613  0.00  0.00     0.180 C 
ATOM     10  C   UNL d   1      -1.149  -3.518   4.480  0.00  0.00     0.068 C 
ATOM     11  C   UNL d   1       0.791  -2.068   3.550  0.00  0.00     0.011 A 
ATOM     12  C   UNL d   1       1.186  -1.246   2.488  0.00  0.00     0.026 A 
ENDBRANCH   1   4
BRANCH   1  13
ATOM     13  N   UNL d   1       0.319   1.523   0.439  0.00  0.00    -0.311 N 
ATOM     14  H   UNL d   1      -0.692   1.587   0.551  0.00  0.00     0.172 HD
BRANCH  13  15
ATOM     15  C   UNL d   1       1.119   2.278   1.403  0.00  0.00     0.170 C 
BRANCH  15  16
ATOM     16  C   UNL d   1       0.502   3.627   1.694  0.00  0.00    -0.037 A 
ATOM     17  C   UNL d   1      -0.291   3.809   2.839  0.00  0.00     0.048 A 
ATOM     18  C   UNL d   1      -0.816   5.063   3.074  0.00  0.00     0.105 A 
ATOM     19  O   UNL d   1      -1.582   5.413   4.142  0.00  0.00    -0.323 OA
ATOM     20  C   UNL d   1      -0.597   6.116   2.218  0.00  0.00     0.105 A 
ATOM     21  C   UNL d   1      -1.788   6.817   3.879  0.00  0.00     0.352 A 
ATOM     22  O   UNL d   1      -1.195   7.261   2.641  0.00  0.00    -0.323 OA
ATOM     23  C   UNL d   1       0.153   5.972   1.072  0.00  0.00     0.040 A 
ATOM     24  C   UNL d   1       0.704   4.712   0.809  0.00  0.00     0.012 A 
ENDBRANCH  15  16
ENDBRANCH  13  15
ENDBRANCH   1  13
TORSDOF 4
