REMARK  6 active torsions:
REMARK  status: ('A' for Active; 'I' for Inactive)
REMARK    1  A    between atoms: N_11  and  C_2 
REMARK    2  A    between atoms: C_13  and  C_7 
REMARK    3  A    between atoms: C_20  and  N_11 
REMARK    4  A    between atoms: O_22  and  C_13 
REMARK    5  A    between atoms: C_14  and  C_20 
REMARK    6  A    between atoms: C_24  and  O_22 
ROOT
ATOM      1  C   UNL d   1       0.182  -0.838   0.010  0.00  0.00     0.060 A 
ATOM      2  C   UNL d   1      -1.028  -1.597  -0.001  0.00  0.00     0.062 A 
ATOM      3  C   UNL d   1       0.119   0.550   0.059  0.00  0.00     0.136 A 
ATOM      4  N   UNL d   1       2.327   0.017  -0.005  0.00  0.00    -0.301 N 
ATOM      5  HN  UNL d   1       3.343   0.103  -0.021  1.00  0.00     0.187 HD
ATOM      6  N   UNL d   1       1.408   1.000   0.025  0.00  0.00    -0.280 N 
ATOM      7  C   UNL d   1      -2.210  -0.812   0.025  0.00  0.00     0.082 A 
ATOM      8  C   UNL d   1       1.591  -1.106  -0.009  0.00  0.00     0.038 A 
ATOM      9  N   UNL d   1      -0.983   1.318   0.116  0.00  0.00    -0.349 N 
ATOM     10  HN  UNL d   1      -0.965   2.336   0.174  1.00  0.00     0.167 HD
ATOM     11  C   UNL d   1      -2.117   0.586   0.086  0.00  0.00     0.109 A 
ATOM     12  C   UNL d   1       1.849   2.372   0.011  0.00  0.00     0.179 C 
ATOM     13  C   UNL d   1       2.281  -2.418  -0.020  0.00  0.00     0.071 C 
ENDROOT
BRANCH   2  14
ATOM     14  N   UNL d   1      -0.956  -2.979  -0.093  0.00  0.00    -0.382 N 
ATOM     15  H   UNL d   1      -0.027  -3.381  -0.145  0.00  0.00     0.160 HD
BRANCH  14  16
ATOM     16  C   UNL d   1      -1.880  -3.909   0.550  0.00  0.00     0.184 C 
BRANCH  16  17
ATOM     17  C   UNL d   1      -1.237  -5.175   1.034  0.00  0.00     0.070 A 
ATOM     18  O   UNL d   1      -0.102  -5.585   0.388  0.00  0.00    -0.325 OA
ATOM     19  C   UNL d   1       0.263  -6.770   0.941  0.00  0.00     0.142 A 
ATOM     20  C   UNL d   1      -0.607  -7.122   1.945  0.00  0.00     0.027 A 
ATOM     21  C   UNL d   1      -1.573  -6.090   2.011  0.00  0.00     0.036 A 
ENDBRANCH  16  17
ENDBRANCH  14  16
ENDBRANCH   2  14
BRANCH   7  22
ATOM     22  C   UNL d   1      -3.575  -1.359  -0.177  0.00  0.00     0.297 C 
ATOM     23  O   UNL d   1      -3.846  -2.339  -0.852  0.00  0.00    -0.259 OA
BRANCH  22  24
ATOM     24  O   UNL d   1      -4.498  -0.562   0.430  0.00  0.00    -0.318 OA
BRANCH  24  25
ATOM     25  C   UNL d   1      -5.858  -0.800   0.034  0.00  0.00     0.174 C 
ATOM     26  C   UNL d   1      -6.135  -0.065  -1.268  0.00  0.00     0.034 C 
ENDBRANCH  24  25
ENDBRANCH  22  24
ENDBRANCH   7  22
TORSDOF 6
