REMARK  5 active torsions:
REMARK  status: ('A' for Active; 'I' for Inactive)
REMARK    1  A    between atoms: C_6  and  C_1 
REMARK    2  A    between atoms: C_3  and  C_2 
REMARK       I    between atoms: N_14  and  C_3 
REMARK    3  A    between atoms: C_7  and  O_10 
REMARK    4  A    between atoms: O_10  and  C_13 
REMARK    5  A    between atoms: N_19  and  N_14 
ROOT
ATOM      1  C   UNL d   1       4.822  -3.907  -3.291  0.00  0.00     0.048 A 
ATOM      2  N   UNL d   1       2.623  -4.860  -2.975  0.00  0.00    -0.346 N 
ATOM      3  HN  UNL d   1       1.797  -5.320  -3.357  1.00  0.00     0.167 HD
ATOM      4  C   UNL d   1       2.693  -4.503  -1.671  0.00  0.00     0.147 A 
ATOM      5  C   UNL d   1       3.697  -4.579  -3.749  0.00  0.00     0.107 A 
ATOM      6  C   UNL d   1       4.853  -3.512  -1.952  0.00  0.00     0.022 A 
ATOM      7  C   UNL d   1       3.767  -3.814  -1.126  0.00  0.00     0.057 A 
ENDROOT
BRANCH   4   8
ATOM      8  O   UNL d   1       1.651  -4.822  -0.806  0.00  0.00    -0.294 OA
BRANCH   8   9
ATOM      9  C   UNL d   1       0.849  -5.893  -1.132  0.00  0.00     0.078 A 
ATOM     10  C   UNL d   1       1.339  -7.081  -1.681  0.00  0.00     0.053 A 
ATOM     11  C   UNL d   1       0.469  -8.125  -2.028  0.00  0.00     0.050 A 
ATOM     12  C   UNL d   1      -0.897  -7.990  -1.739  0.00  0.00     0.016 A 
ATOM     13  C   UNL d   1      -1.381  -6.830  -1.133  0.00  0.00     0.004 A 
ATOM     14  C   UNL d   1      -0.509  -5.780  -0.831  0.00  0.00     0.037 A 
BRANCH  11  15
ATOM     15  C   UNL d   1       0.989  -9.356  -2.725  0.00  0.00     0.417 C 
ATOM     16  F   UNL d   1       2.327  -9.321  -2.980  0.00  0.00    -0.166 F 
ATOM     17  F   UNL d   1       0.388  -9.567  -3.929  0.00  0.00    -0.166 F 
ATOM     18  F   UNL d   1       0.780 -10.492  -2.001  0.00  0.00    -0.166 F 
ENDBRANCH  11  15
ENDBRANCH   8   9
ENDBRANCH   4   8
BRANCH   1  19
ATOM     19  C   UNL d   1       5.937  -3.684  -4.233  0.00  0.00     0.267 C 
ATOM     20  O   UNL d   1       6.136  -4.469  -5.157  0.00  0.00    -0.266 OA
ATOM     21  N   UNL d   1       6.702  -2.542  -4.026  0.00  0.00    -0.290 N 
ATOM     22  H   UNL d   1       6.361  -1.804  -3.416  0.00  0.00     0.183 HD
BRANCH  21  23
ATOM     23  N   UNL d   1       7.691  -2.212  -4.979  0.00  0.00    -0.247 NA
ATOM     24  H   UNL d   1       7.552  -2.844  -5.782  0.00  0.00     0.143 HD
ATOM     25  H   UNL d   1       8.598  -2.500  -4.603  0.00  0.00     0.143 HD
ENDBRANCH  21  23
ENDBRANCH   1  19
TORSDOF 5
