REMARK  4 active torsions:
REMARK  status: ('A' for Active; 'I' for Inactive)
REMARK    1  A    between atoms: C_3  and  S_1 
REMARK    2  A    between atoms: C_8  and  S_1 
REMARK    3  A    between atoms: C_6  and  C_3 
REMARK    4  A    between atoms: C_5  and  N_7 
REMARK       I    between atoms: N_7  and  C_6 
ROOT
ATOM      1  C   UNL d   1       0.768  -2.495  -0.477  0.00  0.00     0.236 C 
ATOM      2  N   UNL d   1       2.030  -2.377  -1.029  0.00  0.00    -0.324 N 
ATOM      3  O   UNL d   1       0.062  -3.504  -0.589  0.00  0.00    -0.272 OA
ATOM      4  H   UNL d   1       2.646  -1.654  -0.648  0.00  0.00     0.169 HD
ENDROOT
BRANCH   1   5
ATOM      5  C   UNL d   1       0.252  -1.440   0.449  0.00  0.00     0.248 C 
BRANCH   5   6
ATOM      6  S   UNL d   1       0.858   0.177   0.275  0.00  0.00     0.183 S 
ATOM      7  O   UNL d   1       2.297   0.095   0.072  0.00  0.00    -0.222 OA
ATOM      8  O   UNL d   1       0.321   0.920   1.399  0.00  0.00    -0.222 OA
BRANCH   6   9
ATOM      9  C   UNL d   1       0.184   0.956  -1.171  0.00  0.00     0.059 A 
ATOM     10  C   UNL d   1      -0.391   0.253  -2.230  0.00  0.00     0.025 A 
ATOM     11  C   UNL d   1      -0.976   0.970  -3.284  0.00  0.00     0.025 A 
ATOM     12  C   UNL d   1      -0.989   2.367  -3.270  0.00  0.00     0.034 A 
ATOM     13  C   UNL d   1      -0.396   3.066  -2.224  0.00  0.00     0.025 A 
ATOM     14 CL   UNL d   1      -1.764   3.233  -4.538  0.00  0.00    -0.084 Cl
ATOM     15  C   UNL d   1       0.193   2.361  -1.175  0.00  0.00     0.025 A 
ENDBRANCH   6   9
ENDBRANCH   5   6
ENDBRANCH   1   5
BRANCH   2  16
ATOM     16  C   UNL d   1       2.651  -3.404  -1.797  0.00  0.00     0.077 C 
ATOM     17  C   UNL d   1       1.944  -4.375  -2.530  0.00  0.00     0.184 C 
ATOM     18  C   UNL d   1       2.593  -5.472  -3.080  0.00  0.00     0.195 C 
ATOM     19  F   UNL d   1       0.635  -4.225  -2.794  0.00  0.00    -0.200 F 
ATOM     20  F   UNL d   1       1.889  -6.418  -3.719  0.00  0.00    -0.199 F 
ATOM     21  C   UNL d   1       3.970  -5.583  -2.973  0.00  0.00     0.158 C 
ATOM     22  C   UNL d   1       4.709  -4.577  -2.361  0.00  0.00     0.048 C 
ATOM     23  F   UNL d   1       4.600  -6.653  -3.476  0.00  0.00    -0.203 F 
ATOM     24  C   UNL d   1       4.054  -3.481  -1.780  0.00  0.00     0.036 C 
ENDBRANCH   2  16
TORSDOF 4
