REMARK  2 active torsions:
REMARK  status: ('A' for Active; 'I' for Inactive)
REMARK    1  A    between atoms: N_8  and  C_2 
REMARK    2  A    between atoms: C_9  and  C_3 
ROOT
ATOM      1  C   UNL d   1      -0.748  -0.010   0.121  0.00  0.00     0.089 A 
ATOM      2  C   UNL d   1       0.122   1.077   0.058  0.00  0.00     0.093 A 
ATOM      3  C   UNL d   1      -0.102  -1.290  -0.044  0.00  0.00     0.004 A 
ATOM      4  S   UNL d   1       1.745   0.501  -0.110  0.00  0.00    -0.082 SA
ATOM      5  C   UNL d   1       1.263  -1.129  -0.166  0.00  0.00     0.065 A 
ATOM      6  C   UNL d   1      -2.153   0.144   0.370  0.00  0.00     0.103 C 
ATOM      7  N   UNL d   1      -3.298   0.264   0.538  0.00  0.00    -0.191 NA
ENDROOT
BRANCH   2   8
ATOM      8  N   UNL d   1      -0.175   2.420   0.135  0.00  0.00    -0.383 N 
ATOM      9  C   UNL d   1       0.793   3.400   0.614  0.00  0.00     0.149 C 
ATOM     10  C   UNL d   1      -1.299   2.980  -0.614  0.00  0.00     0.149 C 
ENDBRANCH   2   8
BRANCH   3  11
ATOM     11  C   UNL d   1      -0.710  -2.625  -0.080  0.00  0.00    -0.024 A 
ATOM     12  C   UNL d   1      -1.888  -2.850  -0.808  0.00  0.00     0.012 A 
ATOM     13  C   UNL d   1      -2.478  -4.117  -0.836  0.00  0.00     0.001 A 
ATOM     14  C   UNL d   1      -1.890  -5.178  -0.152  0.00  0.00     0.000 A 
ATOM     15  C   UNL d   1      -0.712  -4.973   0.562  0.00  0.00     0.001 A 
ATOM     16  C   UNL d   1      -0.128  -3.703   0.603  0.00  0.00     0.012 A 
ENDBRANCH   3  11
TORSDOF 2
