REMARK  6 active torsions:
REMARK  status: ('A' for Active; 'I' for Inactive)
REMARK    1  A    between atoms: C_2  and  C_1 
REMARK    2  A    between atoms: S_17  and  C_7 
REMARK    3  A    between atoms: S_13  and  C_9 
REMARK    4  A    between atoms: C_19  and  S_13 
REMARK    5  A    between atoms: C_14  and  C_19 
REMARK       I    between atoms: N_16  and  C_14 
REMARK    6  A    between atoms: C_22  and  N_16 
ROOT
ATOM      1  C   UNL d   1       0.155   1.369   0.149  0.00  0.00     0.141 C 
ATOM      2  N   UNL d   1       1.045   0.323   0.266  0.00  0.00    -0.315 N 
ATOM      3  N   UNL d   1      -1.071   0.864   0.097  0.00  0.00    -0.282 N 
ATOM      4  HN  UNL d   1      -1.929   1.392  -0.064  1.00  0.00     0.188 HD
ATOM      5  C   UNL d   1       0.282  -0.790   0.477  0.00  0.00     0.163 C 
ATOM      6  N   UNL d   1      -0.987  -0.492   0.297  0.00  0.00    -0.278 N 
ATOM      7  HN  UNL d   1      -1.767  -1.150   0.305  1.00  0.00     0.189 HD
ATOM      8  C   UNL d   1       2.483   0.332   0.120  0.00  0.00     0.160 C 
ENDROOT
BRANCH   5   9
ATOM      9  S   UNL d   1       0.883  -2.286   1.092  0.00  0.00    -0.083 SA
BRANCH   9  10
ATOM     10  C   UNL d   1      -0.570  -3.362   1.040  0.00  0.00     0.185 C 
BRANCH  10  11
ATOM     11  C   UNL d   1      -1.580  -3.179   2.172  0.00  0.00     0.231 C 
ATOM     12  N   UNL d   1      -1.933  -1.879   2.468  0.00  0.00    -0.327 N 
ATOM     13  H   UNL d   1      -1.663  -1.173   1.785  0.00  0.00     0.169 HD
ATOM     14  O   UNL d   1      -2.097  -4.173   2.684  0.00  0.00    -0.272 OA
BRANCH  12  15
ATOM     15  C   UNL d   1      -2.804  -1.433   3.478  0.00  0.00     0.034 A 
ATOM     16  C   UNL d   1      -3.217  -2.228   4.549  0.00  0.00     0.031 A 
ATOM     17  C   UNL d   1      -4.103  -1.718   5.504  0.00  0.00     0.026 A 
ATOM     18  C   UNL d   1      -4.576  -0.414   5.387  0.00  0.00     0.034 A 
ATOM     19  C   UNL d   1      -4.155   0.395   4.335  0.00  0.00     0.026 A 
ATOM     20 CL   UNL d   1      -5.684   0.203   6.549  0.00  0.00    -0.084 Cl
ATOM     21  C   UNL d   1      -3.260  -0.111   3.389  0.00  0.00     0.031 A 
ENDBRANCH  12  15
ENDBRANCH  10  11
ENDBRANCH   9  10
ENDBRANCH   5   9
BRANCH   1  22
ATOM     22  C   UNL d   1       0.423   2.782   0.120  0.00  0.00     0.059 A 
ATOM     23  S   UNL d   1       1.694   3.473   1.050  0.00  0.00    -0.078 SA
ATOM     24  C   UNL d   1       1.404   5.045   0.458  0.00  0.00     0.052 A 
ATOM     25  C   UNL d   1       0.282   5.075  -0.340  0.00  0.00    -0.005 A 
ATOM     26  C   UNL d   1      -0.305   3.775  -0.531  0.00  0.00    -0.025 A 
ATOM     27  C   UNL d   1      -0.283   6.234  -0.961  0.00  0.00     0.010 C 
ATOM     28  C   UNL d   1      -1.526   3.577  -1.392  0.00  0.00     0.045 C 
ATOM     29  C   UNL d   1      -2.169   4.881  -1.909  0.00  0.00     0.032 C 
ATOM     30  C   UNL d   1      -1.409   6.160  -1.682  0.00  0.00    -0.025 C 
BRANCH  24  31
ATOM     31  S   UNL d   1       2.501   6.359   0.882  0.00  0.00    -0.126 SA
ATOM     32  C   UNL d   1       1.528   7.202   2.150  0.00  0.00     0.096 C 
ENDBRANCH  24  31
ENDBRANCH   1  22
TORSDOF 6
