REMARK  5 active torsions:
REMARK  status: ('A' for Active; 'I' for Inactive)
REMARK    1  A    between atoms: C_10  and  C_3 
REMARK    2  A    between atoms: C_9  and  C_4 
REMARK    3  A    between atoms: C_8  and  N_14 
REMARK    4  A    between atoms: N_14  and  N_11 
REMARK    5  A    between atoms: C_19  and  C_21 
ROOT
ATOM      1  C   UNL d   1      -0.066  -2.642  -0.035  0.00  0.00    -0.002 A 
ATOM      2  C   UNL d   1       0.479  -3.439   0.988  0.00  0.00     0.015 A 
ATOM      3  C   UNL d   1      -0.796  -3.277  -1.052  0.00  0.00     0.015 A 
ATOM      4  C   UNL d   1      -0.458  -5.434  -0.005  0.00  0.00    -0.020 A 
ATOM      5  C   UNL d   1      -0.993  -4.659  -1.038  0.00  0.00     0.014 A 
ATOM      6  C   UNL d   1       0.280  -4.828   1.011  0.00  0.00     0.014 A 
ENDROOT
BRANCH   4   7
ATOM      7  C   UNL d   1      -0.683  -6.895   0.009  0.00  0.00     0.113 C 
ATOM      8  N   UNL d   1      -1.309  -7.465  -0.969  0.00  0.00    -0.327 N 
ATOM      9  HN  UNL d   1      -1.640  -6.940  -1.778  1.00  0.00     0.180 HD
BRANCH   8  10
ATOM     10  N   UNL d   1      -1.501  -8.806  -0.855  0.00  0.00    -0.203 NA
ATOM     11  H   UNL d   1      -1.808  -9.171   0.049  0.00  0.00     0.153 HD
BRANCH  10  12
ATOM     12  C   UNL d   1      -2.217  -9.404  -1.923  0.00  0.00     0.066 A 
ATOM     13  C   UNL d   1      -2.953 -10.580  -1.712  0.00  0.00     0.142 A 
ATOM     14  C   UNL d   1      -3.644 -11.205  -2.745  0.00  0.00     0.086 A 
ATOM     15  F   UNL d   1      -3.018 -11.105  -0.478  0.00  0.00    -0.204 F 
ATOM     16  C   UNL d   1      -3.580 -10.661  -4.021  0.00  0.00     0.119 A 
ATOM     17  C   UNL d   1      -2.835  -9.516  -4.276  0.00  0.00     0.044 A 
ATOM     18  F   UNL d   1      -4.244 -11.250  -5.024  0.00  0.00    -0.206 F 
ATOM     19  C   UNL d   1      -2.148  -8.895  -3.230  0.00  0.00     0.031 A 
ENDBRANCH  10  12
ENDBRANCH   8  10
ENDBRANCH   4   7
BRANCH   1  20
ATOM     20  C   UNL d   1       0.158  -1.186  -0.026  0.00  0.00     0.084 A 
ATOM     21  N   UNL d   1       1.229  -0.595   0.469  0.00  0.00    -0.352 N 
ATOM     22  C   UNL d   1       1.159   0.784   0.305  0.00  0.00     0.024 A 
ATOM     23  HN  UNL d   1       2.005  -1.085   0.913  1.00  0.00     0.166 HD
ATOM     24  C   UNL d   1      -0.017   1.220  -0.281  0.00  0.00     0.077 A 
ATOM     25  S   UNL d   1      -1.031  -0.103  -0.648  0.00  0.00    -0.081 SA
BRANCH  22  26
ATOM     26  C   UNL d   1       2.319   1.662   0.754  0.00  0.00    -0.008 C 
ATOM     27  C   UNL d   1       3.466   0.822   1.352  0.00  0.00     0.021 C 
ATOM     28  C   UNL d   1       2.881   2.448  -0.448  0.00  0.00     0.021 C 
ATOM     29  C   UNL d   1       1.845   2.661   1.828  0.00  0.00     0.021 C 
ENDBRANCH  22  26
ENDBRANCH   1  20
TORSDOF 5
