REMARK  8 active torsions:
REMARK  status: ('A' for Active; 'I' for Inactive)
REMARK    1  A    between atoms: C_10  and  N_1 
REMARK    2  A    between atoms: C_7  and  C_5 
REMARK       I    between atoms: C_9  and  N_12 
REMARK    3  A    between atoms: C_18  and  C_9 
REMARK    4  A    between atoms: N_12  and  C_27 
REMARK    5  A    between atoms: C_13  and  C_24 
REMARK    6  A    between atoms: O_28  and  C_13 
REMARK    7  A    between atoms: C_14  and  C_18 
REMARK    8  A    between atoms: C_24  and  C_14 
ROOT
ATOM      1  C   UNL d   1       2.146  -1.308  -0.130  0.00  0.00     0.057 A 
ATOM      2  C   UNL d   1       2.342  -2.230  -1.167  0.00  0.00     0.034 A 
ATOM      3  C   UNL d   1       3.159  -1.099   0.808  0.00  0.00     0.034 A 
ATOM      4  C   UNL d   1       4.496  -2.850  -0.226  0.00  0.00     0.034 A 
ATOM      5  C   UNL d   1       3.525  -2.979  -1.225  0.00  0.00     0.032 A 
ATOM      6  C   UNL d   1       4.314  -1.885   0.770  0.00  0.00     0.032 A 
ENDROOT
BRANCH   1   7
ATOM      7  N   UNL d   1       0.929  -0.587  -0.005  0.00  0.00    -0.255 N 
ATOM      8  C   UNL d   1      -0.362  -0.994  -0.320  0.00  0.00     0.076 C 
ATOM      9  C   UNL d   1      -1.132   0.151  -0.271  0.00  0.00     0.069 C 
ATOM     10  C   UNL d   1      -0.801  -2.354  -0.491  0.00  0.00     0.033 A 
ATOM     11  C   UNL d   1      -0.299   1.153   0.287  0.00  0.00     0.135 C 
ATOM     12  N   UNL d   1       0.938   0.671   0.514  0.00  0.00    -0.289 N 
ATOM     13  HN  UNL d   1       1.713   1.146   0.976  1.00  0.00     0.187 HD
ATOM     14  S   UNL d   1      -2.031  -2.776  -1.607  0.00  0.00    -0.100 SA
ATOM     15  C   UNL d   1      -0.382  -3.458   0.230  0.00  0.00     0.021 A 
ATOM     16  C   UNL d   1      -2.000  -4.418  -1.125  0.00  0.00     0.050 A 
ATOM     17  C   UNL d   1      -1.067  -4.651  -0.141  0.00  0.00     0.008 A 
BRANCH  11  18
ATOM     18  C   UNL d   1      -0.726   2.548   0.655  0.00  0.00     0.434 C 
ATOM     19  F   UNL d   1       0.236   3.271   1.284  0.00  0.00    -0.165 F 
ATOM     20  F   UNL d   1      -1.099   3.262  -0.443  0.00  0.00    -0.165 F 
ATOM     21  F   UNL d   1      -1.807   2.533   1.483  0.00  0.00    -0.165 F 
ENDBRANCH  11  18
ENDBRANCH   1   7
BRANCH   4  22
ATOM     22  N   UNL d   1       5.614  -3.712  -0.271  0.00  0.00    -0.327 N 
ATOM     23  C   UNL d   1       6.463  -3.976   0.788  0.00  0.00     0.222 C 
ATOM     24  O   UNL d   1       6.359  -3.530   1.929  0.00  0.00    -0.273 OA
ATOM     25  H   UNL d   1       5.729  -4.266  -1.122  0.00  0.00     0.169 HD
BRANCH  23  26
ATOM     26  C   UNL d   1       7.570  -4.969   0.473  0.00  0.00     0.112 C 
BRANCH  26  27
ATOM     27  C   UNL d   1       7.223  -6.454   0.768  0.00  0.00    -0.030 C 
ATOM     28  C   UNL d   1       8.512  -7.282   0.579  0.00  0.00     0.016 C 
ATOM     29  C   UNL d   1       6.771  -6.633   2.234  0.00  0.00     0.016 C 
BRANCH  27  30
ATOM     30  C   UNL d   1       6.098  -7.007  -0.134  0.00  0.00     0.119 C 
BRANCH  30  31
ATOM     31  C   UNL d   1       6.378  -6.872  -1.607  0.00  0.00     0.140 C 
ATOM     32  O   UNL d   1       6.142  -5.843  -2.231  0.00  0.00    -0.650 OA
BRANCH  31  33
ATOM     33  O   UNL d   1       6.947  -7.958  -2.166  0.00  0.00    -0.776 OA
ATOM     34  H   UNL d   1       7.106  -8.697  -1.546  0.00  0.00     0.167 HD
ENDBRANCH  31  33
ENDBRANCH  30  31
ENDBRANCH  27  30
ENDBRANCH  26  27
ENDBRANCH  23  26
ENDBRANCH   4  22
TORSDOF 8
