REMARK  3 active torsions:
REMARK  status: ('A' for Active; 'I' for Inactive)
REMARK    1  A    between atoms: C_2  and  S_1 
REMARK    2  A    between atoms: C_4  and  S_1 
REMARK    3  A    between atoms: C_10  and  C_4 
ROOT
ATOM      1  S   UNL d   1       1.052   0.120  -0.009  0.00  0.00     0.186 S 
ATOM      2  O   UNL d   1       2.477  -0.072  -0.210  0.00  0.00    -0.222 OA
ATOM      3  O   UNL d   1       0.521   0.743   1.186  0.00  0.00    -0.222 OA
ENDROOT
BRANCH   1   4
ATOM      4  C   UNL d   1       0.404  -1.546   0.020  0.00  0.00     0.100 A 
ATOM      5  S   UNL d   1      -1.299  -1.719   0.025  0.00  0.00    -0.090 SA
ATOM      6  C   UNL d   1      -1.194  -3.424   0.124  0.00  0.00     0.051 A 
ATOM      7  C   UNL d   1       0.112  -3.860   0.147  0.00  0.00     0.009 A 
ATOM      8  C   UNL d   1       1.035  -2.776   0.082  0.00  0.00     0.031 A 
ENDBRANCH   1   4
BRANCH   1   9
ATOM      9  C   UNL d   1       0.338   0.862  -1.472  0.00  0.00     0.184 C 
BRANCH   9  10
ATOM     10  C   UNL d   1       0.838   2.280  -1.615  0.00  0.00    -0.042 A 
ATOM     11  C   UNL d   1       0.128   3.349  -1.043  0.00  0.00     0.031 A 
ATOM     12  C   UNL d   1       0.576   4.660  -1.206  0.00  0.00     0.034 A 
ATOM     13 CL   UNL d   1      -0.318   5.961  -0.520  0.00  0.00    -0.084 Cl
ATOM     14  C   UNL d   1       1.736   4.928  -1.929  0.00  0.00     0.024 A 
ATOM     15  C   UNL d   1       2.459   3.872  -2.485  0.00  0.00     0.002 A 
ATOM     16  C   UNL d   1       2.015   2.557  -2.328  0.00  0.00     0.008 A 
ENDBRANCH   9  10
ENDBRANCH   1   9
TORSDOF 3
