REMARK  6 active torsions:
REMARK  status: ('A' for Active; 'I' for Inactive)
REMARK    1  A    between atoms: C_4  and  C_1 
REMARK       I    between atoms: N_12  and  C_4 
REMARK    2  A    between atoms: C_19  and  C_5 
REMARK    3  A    between atoms: C_9  and  C_16 
REMARK    4  A    between atoms: N_10  and  N_12 
REMARK    5  A    between atoms: O_17  and  C_19 
REMARK    6  A    between atoms: C_18  and  O_17 
ROOT
ATOM      1  C   UNL d   1       0.581  -1.093  -0.029  0.00  0.00     0.241 A 
ATOM      2  N   UNL d   1       1.325  -0.015   0.165  0.00  0.00    -0.317 N 
ATOM      3  HN  UNL d   1       2.305   0.051   0.439  1.00  0.00     0.169 HD
ATOM      4  C   UNL d   1       0.422   0.996  -0.102  0.00  0.00     0.128 A 
ATOM      5  N   UNL d   1      -0.820   0.580  -0.388  0.00  0.00    -0.244 N 
ATOM      6  HN  UNL d   1      -1.648   1.145  -0.580  1.00  0.00     0.196 HD
ATOM      7  O   UNL d   1      -0.711  -0.808  -0.359  0.00  0.00    -0.212 OA
ENDROOT
BRANCH   1   8
ATOM      8  C   UNL d   1       0.968  -2.482   0.095  0.00  0.00     0.313 C 
ATOM      9  N   UNL d   1       2.264  -2.666   0.581  0.00  0.00    -0.263 N 
ATOM     10  H   UNL d   1       2.841  -1.858   0.794  0.00  0.00     0.190 HD
ATOM     11  O   UNL d   1       0.214  -3.414  -0.187  0.00  0.00    -0.262 OA
BRANCH   9  12
ATOM     12  N   UNL d   1       2.750  -3.933   0.712  0.00  0.00    -0.308 N 
ATOM     13  C   UNL d   1       3.943  -4.066   1.190  0.00  0.00     0.122 C 
ATOM     14  HN  UNL d   1       2.193  -4.744   0.442  1.00  0.00     0.186 HD
BRANCH  13  15
ATOM     15  C   UNL d   1       4.557  -5.405   1.344  0.00  0.00     0.024 A 
ATOM     16  C   UNL d   1       4.371  -6.424   0.393  0.00  0.00     0.047 A 
ATOM     17 CL   UNL d   1       3.533  -6.201  -1.104  0.00  0.00    -0.083 Cl
ATOM     18  C   UNL d   1       4.939  -7.690   0.594  0.00  0.00     0.025 A 
ATOM     19  C   UNL d   1       5.706  -7.950   1.726  0.00  0.00     0.003 A 
ATOM     20  C   UNL d   1       5.914  -6.940   2.662  0.00  0.00     0.025 A 
ATOM     21  C   UNL d   1       5.346  -5.673   2.475  0.00  0.00     0.047 A 
ATOM     22 CL   UNL d   1       5.639  -4.494   3.708  0.00  0.00    -0.083 Cl
ENDBRANCH  13  15
ENDBRANCH   9  12
ENDBRANCH   1   8
BRANCH   4  23
ATOM     23  C   UNL d   1       0.745   2.451  -0.001  0.00  0.00     0.254 C 
BRANCH  23  24
ATOM     24  O   UNL d   1       0.838   3.064  -1.294  0.00  0.00    -0.342 OA
BRANCH  24  25
ATOM     25  C   UNL d   1       1.009   4.424  -1.317  0.00  0.00     0.090 A 
ATOM     26  C   UNL d   1       1.766   4.971  -2.366  0.00  0.00     0.067 A 
ATOM     27 CL   UNL d   1       2.519   3.965  -3.553  0.00  0.00    -0.081 Cl
ATOM     28  C   UNL d   1       1.942   6.355  -2.473  0.00  0.00     0.026 A 
ATOM     29  C   UNL d   1       1.354   7.208  -1.541  0.00  0.00     0.002 A 
ATOM     30  C   UNL d   1       0.583   6.678  -0.510  0.00  0.00     0.003 A 
ATOM     31  C   UNL d   1       0.406   5.296  -0.402  0.00  0.00     0.038 A 
ENDBRANCH  24  25
ENDBRANCH  23  24
ENDBRANCH   4  23
TORSDOF 6
