REMARK  3 active torsions:
REMARK  status: ('A' for Active; 'I' for Inactive)
REMARK    1  A    between atoms: C_3  and  C_1 
REMARK    2  A    between atoms: O_4  and  C_1 
REMARK    3  A    between atoms: C_2  and  O_4 
ROOT
ATOM      1  C   UNL d   1       0.941  -0.435  -0.250  0.00  0.00     0.302 C 
ATOM      2  O   UNL d   1       0.443   0.444  -0.936  0.00  0.00    -0.259 OA
ENDROOT
BRANCH   1   3
ATOM      3  C   UNL d   1       2.378  -0.846  -0.291  0.00  0.00     0.083 A 
ATOM      4  C   UNL d   1       3.356   0.082  -0.708  0.00  0.00     0.052 A 
ATOM      5 CL   UNL d   1       3.020   1.709  -1.195  0.00  0.00    -0.083 Cl
ATOM      6  C   UNL d   1       4.716  -0.274  -0.738  0.00  0.00     0.025 A 
ATOM      7  C   UNL d   1       5.127  -1.538  -0.344  0.00  0.00     0.003 A 
ATOM      8  C   UNL d   1       4.178  -2.470   0.050  0.00  0.00     0.025 A 
ATOM      9  C   UNL d   1       2.811  -2.144   0.054  0.00  0.00     0.052 A 
ATOM     10 CL   UNL d   1       1.763  -3.474   0.433  0.00  0.00    -0.083 Cl
ENDBRANCH   1   3
BRANCH   1  11
ATOM     11  O   UNL d   1       0.270  -1.160   0.717  0.00  0.00    -0.271 OA
BRANCH  11  12
ATOM     12  C   UNL d   1      -1.132  -1.046   0.785  0.00  0.00     0.122 A 
ATOM     13  C   UNL d   1      -1.968  -1.350  -0.297  0.00  0.00     0.070 A 
ATOM     14  C   UNL d   1      -3.356  -1.256  -0.150  0.00  0.00     0.033 A 
ATOM     15 CL   UNL d   1      -1.370  -1.947  -1.805  0.00  0.00    -0.081 Cl
ATOM     16  C   UNL d   1      -3.925  -0.923   1.087  0.00  0.00    -0.059 A 
ATOM     17  C   UNL d   1      -3.084  -0.677   2.178  0.00  0.00     0.033 A 
ATOM     18  C   UNL d   1      -5.416  -0.833   1.221  0.00  0.00     0.048 C 
ATOM     19  C   UNL d   1      -1.695  -0.738   2.029  0.00  0.00     0.070 A 
ATOM     20 CL   UNL d   1      -0.706  -0.468   3.419  0.00  0.00    -0.081 Cl
ENDBRANCH  11  12
ENDBRANCH   1  11
TORSDOF 3
