REMARK  7 active torsions:
REMARK  status: ('A' for Active; 'I' for Inactive)
REMARK    1  A    between atoms: N_4  and  C_1 
REMARK    2  A    between atoms: N_9  and  C_1 
REMARK    3  A    between atoms: C_2  and  C_3 
REMARK    4  A    between atoms: O_12  and  C_2 
REMARK    5  A    between atoms: C_7  and  N_4 
REMARK    6  A    between atoms: C_13  and  N_9 
REMARK    7  A    between atoms: C_10  and  C_13 
ROOT
ATOM      1  C   UNL d   1       2.796  -1.600   3.600  0.00  0.00     0.041 A 
ATOM      2  C   UNL d   1       2.016  -0.889   2.675  0.00  0.00     0.047 A 
ATOM      3  C   UNL d   1       0.997  -1.531   1.967  0.00  0.00     0.035 A 
ATOM      4  C   UNL d   1       2.533  -2.956   3.828  0.00  0.00     0.018 A 
ATOM      5  C   UNL d   1       1.507  -3.595   3.131  0.00  0.00     0.003 A 
ATOM      6  C   UNL d   1       0.742  -2.884   2.203  0.00  0.00     0.029 A 
ENDROOT
BRANCH   3   7
ATOM      7  N   UNL d   1       0.369  -0.815   0.931  0.00  0.00    -0.333 N 
ATOM      8  H   UNL d   1       0.818   0.041   0.629  0.00  0.00     0.168 HD
BRANCH   7   9
ATOM      9  C   UNL d   1      -0.838  -1.047   0.329  0.00  0.00     0.172 C 
ATOM     10  S   UNL d   1      -2.254  -1.512   1.080  0.00  0.00    -0.041 SA
BRANCH   9  11
ATOM     11  N   UNL d   1      -0.866  -0.775  -1.013  0.00  0.00    -0.364 N 
ATOM     12  H   UNL d   1      -1.787  -0.882  -1.421  0.00  0.00     0.162 HD
BRANCH  11  13
ATOM     13  C   UNL d   1       0.235  -1.061  -1.915  0.00  0.00     0.148 C 
BRANCH  13  14
ATOM     14  C   UNL d   1       0.488   0.073  -2.856  0.00  0.00    -0.018 C 
ATOM     15  C   UNL d   1      -0.016   1.314  -2.805  0.00  0.00     0.008 C 
ENDBRANCH  13  14
ENDBRANCH  11  13
ENDBRANCH   9  11
ENDBRANCH   7   9
ENDBRANCH   3   7
BRANCH   1  16
ATOM     16  C   UNL d   1       3.953  -0.978   4.293  0.00  0.00     0.293 C 
ATOM     17  O   UNL d   1       4.627  -1.542   5.144  0.00  0.00    -0.259 OA
BRANCH  16  18
ATOM     18  O   UNL d   1       4.193   0.256   3.779  0.00  0.00    -0.323 OA
ATOM     19  C   UNL d   1       5.412   0.851   4.216  0.00  0.00     0.213 C 
ENDBRANCH  16  18
ENDBRANCH   1  16
TORSDOF 7
