REMARK  3 active torsions:
REMARK  status: ('A' for Active; 'I' for Inactive)
REMARK    1  A    between atoms: O_2  and  C_1 
REMARK    2  A    between atoms: C_3  and  O_2 
REMARK    3  A    between atoms: N_9  and  C_7 
ROOT
ATOM      1  C   UNL d   1       0.083  -3.374  -0.754  0.00  0.00     0.169 A 
ATOM      2  N   UNL d   1       0.474  -4.663  -0.584  0.00  0.00    -0.345 N 
ATOM      3  HN  UNL d   1       1.274  -4.908   0.001  1.00  0.00     0.167 HD
ATOM      4  C   UNL d   1      -1.067  -2.981  -1.457  0.00  0.00     0.058 A 
ATOM      5  C   UNL d   1      -0.246  -5.602  -1.226  0.00  0.00     0.090 A 
ATOM      6  C   UNL d   1      -1.751  -3.988  -2.139  0.00  0.00     0.029 A 
ATOM      7  C   UNL d   1      -1.346  -5.316  -2.017  0.00  0.00     0.019 A 
ENDROOT
BRANCH   1   8
ATOM      8  O   UNL d   1       0.831  -2.363  -0.153  0.00  0.00    -0.291 OA
BRANCH   8   9
ATOM      9  C   UNL d   1       2.202  -2.535  -0.085  0.00  0.00     0.084 A 
ATOM     10  C   UNL d   1       2.875  -2.084   1.071  0.00  0.00    -0.022 A 
ATOM     11  C   UNL d   1       4.286  -2.188   1.122  0.00  0.00    -0.053 A 
ATOM     12  C   UNL d   1       2.107  -1.490   2.222  0.00  0.00     0.052 C 
ATOM     13  C   UNL d   1       5.112  -1.710   2.287  0.00  0.00     0.049 C 
ATOM     14  C   UNL d   1       4.978  -2.764   0.043  0.00  0.00     0.007 A 
ATOM     15  C   UNL d   1       4.303  -3.193  -1.095  0.00  0.00     0.003 A 
ATOM     16  C   UNL d   1       2.922  -3.054  -1.168  0.00  0.00     0.038 A 
ENDBRANCH   8   9
ENDBRANCH   1   8
BRANCH   4  17
ATOM     17  N   UNL d   1      -1.399  -1.634  -1.692  0.00  0.00    -0.299 NA
ATOM     18  H   UNL d   1      -1.020  -1.016  -0.977  0.00  0.00     0.124 HD
ATOM     19  H   UNL d   1      -2.387  -1.477  -1.863  0.00  0.00     0.124 HD
ENDBRANCH   4  17
TORSDOF 3
