REMARK  2 active torsions:
REMARK  status: ('A' for Active; 'I' for Inactive)
REMARK    1  A    between atoms: C_9  and  N_1 
REMARK    2  A    between atoms: C_13  and  C_7 
ROOT
ATOM      1  C   UNL d   1       0.382  -3.380   0.722  0.00  0.00     0.095 A 
ATOM      2  C   UNL d   1      -0.495  -2.508   0.029  0.00  0.00     0.080 A 
ATOM      3  C   UNL d   1       1.411  -2.907   1.609  0.00  0.00     0.103 C 
ATOM      4  N   UNL d   1       2.224  -2.566   2.369  0.00  0.00    -0.191 NA
ATOM      5  C   UNL d   1       0.175  -4.769   0.618  0.00  0.00     0.057 A 
ATOM      6 CL   UNL d   1       1.184  -5.920   1.431  0.00  0.00    -0.083 Cl
ATOM      7  C   UNL d   1      -1.537  -3.044  -0.750  0.00  0.00     0.033 A 
ATOM      8  C   UNL d   1      -1.729  -4.424  -0.827  0.00  0.00     0.004 A 
ATOM      9  C   UNL d   1      -0.874  -5.284  -0.147  0.00  0.00     0.025 A 
ENDROOT
BRANCH   2  10
ATOM     10  N   UNL d   1      -0.306  -1.096   0.057  0.00  0.00    -0.243 N 
ATOM     11  N   UNL d   1       0.948  -0.598   0.115  0.00  0.00    -0.235 N 
ATOM     12  N   UNL d   1       0.892   0.718   0.040  0.00  0.00    -0.283 N 
ATOM     13  HN  UNL d   1       1.800  -1.151   0.202  1.00  0.00     0.209 HD
ATOM     14  C   UNL d   1      -0.418   1.089  -0.046  0.00  0.00     0.084 A 
ATOM     15  HN  UNL d   1       1.693   1.350   0.046  1.00  0.00     0.188 HD
ATOM     16  C   UNL d   1      -1.221  -0.045  -0.030  0.00  0.00     0.061 A 
ATOM     17  C   UNL d   1      -2.699  -0.175   0.046  0.00  0.00     0.073 C 
BRANCH  14  18
ATOM     18  C   UNL d   1      -0.813   2.490  -0.057  0.00  0.00    -0.006 A 
ATOM     19  C   UNL d   1       0.022   3.437   0.560  0.00  0.00     0.014 A 
ATOM     20  C   UNL d   1      -0.311   4.794   0.568  0.00  0.00     0.001 A 
ATOM     21  C   UNL d   1      -1.485   5.226  -0.042  0.00  0.00     0.000 A 
ATOM     22  C   UNL d   1      -2.319   4.302  -0.667  0.00  0.00     0.001 A 
ATOM     23  C   UNL d   1      -1.981   2.945  -0.683  0.00  0.00     0.014 A 
ENDBRANCH  14  18
ENDBRANCH   2  10
TORSDOF 2
