REMARK  3 active torsions:
REMARK  status: ('A' for Active; 'I' for Inactive)
REMARK       I    between atoms: N_3  and  C_1 
REMARK    1  A    between atoms: O_6  and  C_1 
REMARK       I    between atoms: C_2  and  N_4 
REMARK    2  A    between atoms: C_5  and  C_2 
REMARK    3  A    between atoms: C_16  and  O_6 
ROOT
ATOM      1  C   UNL d   1       0.934  -0.079  -0.121  0.00  0.00     0.363 C 
ATOM      2  C   UNL d   1      -1.091   3.336  -3.917  0.00  0.00     0.260 C 
ATOM      3  N   UNL d   1       0.429   0.850  -1.013  0.00  0.00    -0.325 N 
ATOM      4  N   UNL d   1      -0.278   2.893  -2.865  0.00  0.00    -0.344 N 
ATOM      5  O   UNL d   1       1.708  -0.965  -0.463  0.00  0.00    -0.238 OA
ATOM      6  C   UNL d   1       0.731   0.685  -2.443  0.00  0.00     0.148 C 
ATOM      7  C   UNL d   1      -0.638   1.804  -0.684  0.00  0.00     0.148 C 
ATOM      8  C   UNL d   1      -0.438   3.136  -1.428  0.00  0.00     0.146 C 
ATOM      9  C   UNL d   1       0.869   2.030  -3.171  0.00  0.00     0.146 C 
ATOM     10  O   UNL d   1      -0.729   3.147  -5.077  0.00  0.00    -0.267 OA
ENDROOT
BRANCH   1  11
ATOM     11  O   UNL d   1       0.512   0.111   1.161  0.00  0.00    -0.294 OA
BRANCH  11  12
ATOM     12  C   UNL d   1       1.046  -0.727   2.225  0.00  0.00     0.061 C 
ATOM     13  C   UNL d   1       2.558  -0.508   2.396  0.00  0.00     0.046 C 
ATOM     14  C   UNL d   1       0.349  -0.263   3.517  0.00  0.00     0.046 C 
ATOM     15  C   UNL d   1       0.698  -2.208   2.017  0.00  0.00     0.046 C 
ENDBRANCH  11  12
ENDBRANCH   1  11
BRANCH   2  16
ATOM     16  C   UNL d   1      -2.363   3.994  -3.615  0.00  0.00     0.072 A 
ATOM     17  S   UNL d   1      -2.928   5.204  -4.706  0.00  0.00    -0.097 SA
ATOM     18  C   UNL d   1      -4.348   5.470  -3.795  0.00  0.00     0.050 A 
ATOM     19  C   UNL d   1      -4.414   4.652  -2.693  0.00  0.00     0.009 A 
ATOM     20  C   UNL d   1      -3.296   3.770  -2.619  0.00  0.00     0.025 A 
ENDBRANCH   2  16
TORSDOF 3
