REMARK  2 active torsions:
REMARK  status: ('A' for Active; 'I' for Inactive)
REMARK       I    between atoms: N_2  and  C_1 
REMARK       I    between atoms: N_8  and  C_1 
REMARK    1  A    between atoms: C_3  and  N_2 
REMARK    2  A    between atoms: N_7  and  N_8 
ROOT
ATOM      1  C   UNL d   1       1.007   0.032   0.274  0.00  0.00     0.336 C 
ATOM      2  N   UNL d   1       2.368   0.061   0.013  0.00  0.00    -0.286 N 
ATOM      3  N   UNL d   1       0.391  -1.002  -0.444  0.00  0.00    -0.271 N 
ATOM      4  O   UNL d   1       0.409   0.770   1.048  0.00  0.00    -0.246 OA
ATOM      5  H   UNL d   1       2.751  -0.532  -0.703  0.00  0.00     0.172 HD
ATOM      6  H   UNL d   1       0.917  -1.462  -1.174  0.00  0.00     0.185 HD
ENDROOT
BRANCH   2   7
ATOM      7  C   UNL d   1       3.221   0.941   0.630  0.00  0.00     0.175 A 
ATOM      8  C   UNL d   1       4.560   1.167   0.419  0.00  0.00     0.077 A 
ATOM      9  C   UNL d   1       4.888   2.172   1.344  0.00  0.00     0.119 A 
ATOM     10  N   UNL d   1       3.840   2.539   2.082  0.00  0.00    -0.270 N 
ATOM     11  O   UNL d   1       2.784   1.760   1.626  0.00  0.00    -0.220 OA
ATOM     12  HN  UNL d   1       3.818   3.240   2.822  1.00  0.00     0.194 HD
ENDBRANCH   2   7
BRANCH   3  13
ATOM     13  N   UNL d   1      -1.023  -1.109  -0.448  0.00  0.00    -0.223 NA
ATOM     14  C   UNL d   1      -1.543  -1.741  -1.676  0.00  0.00     0.140 C 
ATOM     15  C   UNL d   1      -1.281  -3.254  -1.729  0.00  0.00     0.183 C 
ATOM     16  O   UNL d   1      -1.798  -3.920  -0.573  0.00  0.00    -0.389 OA
ATOM     17  C   UNL d   1      -1.244  -3.365   0.628  0.00  0.00     0.183 C 
ATOM     18  C   UNL d   1      -1.518  -1.858   0.728  0.00  0.00     0.140 C 
ENDBRANCH   3  13
TORSDOF 2
