REMARK  4 active torsions:
REMARK  status: ('A' for Active; 'I' for Inactive)
REMARK    1  A    between atoms: S_13  and  C_4 
REMARK    2  A    between atoms: S_14  and  C_5 
REMARK    3  A    between atoms: C_15  and  S_13 
REMARK    4  A    between atoms: C_16  and  S_14 
ROOT
ATOM      1  C   UNL d   1      -0.371  -1.242  -0.067  0.00  0.00     0.103 A 
ATOM      2  N   UNL d   1      -0.810   1.062  -0.186  0.00  0.00    -0.319 N 
ATOM      3  HN  UNL d   1      -1.351   1.924  -0.252  1.00  0.00     0.175 HD
ATOM      4  C   UNL d   1       0.921  -0.749  -0.044  0.00  0.00     0.082 A 
ATOM      5  C   UNL d   1      -1.313  -0.168  -0.141  0.00  0.00     0.099 A 
ATOM      6  S   UNL d   1       0.839   0.963  -0.118  0.00  0.00    -0.005 SA
ATOM      7  C   UNL d   1      -0.698  -2.631  -0.010  0.00  0.00     0.104 C 
ATOM      8  N   UNL d   1      -0.930  -3.768   0.010  0.00  0.00    -0.191 NA
ENDROOT
BRANCH   4   9
ATOM      9  S   UNL d   1       2.460  -1.579   0.115  0.00  0.00    -0.107 SA
BRANCH   9  10
ATOM     10  C   UNL d   1       2.582  -2.514  -1.436  0.00  0.00     0.173 C 
ATOM     11  C   UNL d   1       2.476  -1.678  -2.638  0.00  0.00    -0.107 C 
ATOM     12  C   UNL d   1       2.393  -1.021  -3.640  0.00  0.00     0.013 C 
ENDBRANCH   9  10
ENDBRANCH   4   9
BRANCH   5  13
ATOM     13  S   UNL d   1      -3.065  -0.390  -0.137  0.00  0.00    -0.098 SA
BRANCH  13  14
ATOM     14  C   UNL d   1      -3.631   1.198  -0.816  0.00  0.00     0.173 C 
ATOM     15  C   UNL d   1      -5.098   1.277  -0.862  0.00  0.00    -0.107 C 
ATOM     16  C   UNL d   1      -6.296   1.377  -0.898  0.00  0.00     0.013 C 
ENDBRANCH  13  14
ENDBRANCH   5  13
TORSDOF 4
