REMARK  1 active torsions:
REMARK  status: ('A' for Active; 'I' for Inactive)
REMARK    1  A    between atoms: N_2  and  C_1 
ROOT
ATOM      1  C   UNL d   1      -0.445   1.234   0.087  0.00  0.00     0.102 A 
ATOM      2  C   UNL d   1      -1.317   0.116   0.019  0.00  0.00     0.052 A 
ATOM      3  N   UNL d   1      -0.626  -1.029  -0.034  0.00  0.00    -0.301 N 
ATOM      4  HN  UNL d   1      -0.996  -1.980  -0.050  1.00  0.00     0.187 HD
ATOM      5  C   UNL d   1       0.835   0.711  -0.046  0.00  0.00     0.054 A 
ATOM      6  N   UNL d   1       0.662  -0.651  -0.061  0.00  0.00    -0.299 N 
ATOM      7  C   UNL d   1      -2.796   0.034  -0.098  0.00  0.00     0.072 C 
ATOM      8  C   UNL d   1       2.181   1.344  -0.089  0.00  0.00     0.072 C 
ATOM      9  C   UNL d   1       1.671  -1.685  -0.078  0.00  0.00     0.177 C 
ENDROOT
BRANCH   1  10
ATOM     10  N   UNL d   1      -0.791   2.610   0.199  0.00  0.00    -0.239 N 
ATOM     11  N   UNL d   1      -0.061   3.590  -0.400  0.00  0.00    -0.015 NA
ATOM     12  N   UNL d   1      -0.671   4.752  -0.227  0.00  0.00    -0.293 N 
ATOM     13  C   UNL d   1      -1.739   4.542   0.582  0.00  0.00     0.131 C 
ATOM     14  HN  UNL d   1      -0.389   5.645  -0.630  1.00  0.00     0.183 HD
ATOM     15  C   UNL d   1      -1.819   3.210   0.921  0.00  0.00     0.045 C 
ATOM     16  C   UNL d   1      -2.686   2.556   1.927  0.00  0.00     0.071 C 
ENDBRANCH   1  10
TORSDOF 1
