REMARK  7 active torsions:
REMARK  status: ('A' for Active; 'I' for Inactive)
REMARK    1  A    between atoms: N_2  and  C_1 
REMARK    2  A    between atoms: C_3  and  C_6 
REMARK    3  A    between atoms: O_8  and  C_5 
REMARK    4  A    between atoms: C_15  and  O_8 
REMARK    5  A    between atoms: O_16  and  C_17 
REMARK    6  A    between atoms: C_18  and  O_16 
REMARK    7  A    between atoms: C_23  and  C_18 
ROOT
ATOM      1  C   UNL d   1       3.089   2.119  -0.606  0.00  0.00     0.076 A 
ATOM      2  C   UNL d   1       5.857   1.896  -0.902  0.00  0.00     0.069 A 
ATOM      3  C   UNL d   1       3.619   1.499  -1.740  0.00  0.00     0.040 A 
ATOM      4  C   UNL d   1       3.938   2.742   0.307  0.00  0.00     0.040 A 
ATOM      5  C   UNL d   1       5.322   2.636   0.155  0.00  0.00     0.039 A 
ATOM      6  C   UNL d   1       5.003   1.371  -1.874  0.00  0.00     0.039 A 
ENDROOT
BRANCH   1   7
ATOM      7  O   UNL d   1       1.741   2.172  -0.338  0.00  0.00    -0.308 OA
BRANCH   7   8
ATOM      8  C   UNL d   1       1.003   1.010  -0.418  0.00  0.00     0.109 A 
ATOM      9  C   UNL d   1      -0.379   1.103  -0.611  0.00  0.00     0.137 A 
ATOM     10  C   UNL d   1      -1.193  -0.038  -0.721  0.00  0.00     0.055 A 
ATOM     11  C   UNL d   1      -0.618  -1.313  -0.633  0.00  0.00     0.050 A 
ATOM     12  C   UNL d   1       0.759  -1.414  -0.386  0.00  0.00     0.019 A 
ATOM     13  C   UNL d   1       1.554  -0.269  -0.254  0.00  0.00     0.040 A 
BRANCH   9  14
ATOM     14  N   UNL d   1      -1.021   2.401  -0.684  0.00  0.00    -0.113 N 
ATOM     15  O   UNL d   1      -1.946   2.610   0.113  0.00  0.00    -0.532 OA
ATOM     16  O   UNL d   1      -0.637   3.184  -1.564  0.00  0.00    -0.532 OA
ENDBRANCH   9  14
BRANCH  11  17
ATOM     17  C   UNL d   1      -1.442  -2.566  -0.815  0.00  0.00     0.417 C 
ATOM     18  F   UNL d   1      -2.776  -2.326  -0.925  0.00  0.00    -0.166 F 
ATOM     19  F   UNL d   1      -1.089  -3.251  -1.937  0.00  0.00    -0.166 F 
ATOM     20  F   UNL d   1      -1.298  -3.439   0.219  0.00  0.00    -0.166 F 
ENDBRANCH  11  17
ENDBRANCH   7   8
ENDBRANCH   1   7
BRANCH   2  21
ATOM     21  O   UNL d   1       7.187   1.623  -1.082  0.00  0.00    -0.347 OA
BRANCH  21  22
ATOM     22  C   UNL d   1       7.997   1.710   0.091  0.00  0.00     0.214 C 
BRANCH  22  23
ATOM     23  C   UNL d   1       9.224   0.850  -0.082  0.00  0.00    -0.034 A 
ATOM     24  C   UNL d   1      10.413   1.390  -0.590  0.00  0.00     0.009 A 
ATOM     25  C   UNL d   1      11.554   0.595  -0.711  0.00  0.00     0.001 A 
ATOM     26  C   UNL d   1      11.515  -0.747  -0.336  0.00  0.00     0.000 A 
ATOM     27  C   UNL d   1      10.332  -1.300   0.149  0.00  0.00     0.001 A 
ATOM     28  C   UNL d   1       9.190  -0.508   0.270  0.00  0.00     0.009 A 
ENDBRANCH  22  23
ENDBRANCH  21  22
ENDBRANCH   2  21
TORSDOF 7
