REMARK  4 active torsions:
REMARK  status: ('A' for Active; 'I' for Inactive)
REMARK    1  A    between atoms: S_9  and  C_1 
REMARK       I    between atoms: C_7  and  N_10 
REMARK    2  A    between atoms: C_16  and  S_9 
REMARK    3  A    between atoms: N_10  and  C_15 
REMARK    4  A    between atoms: C_15  and  C_16 
ROOT
ATOM      1  C   UNL d   1      -1.445  -0.074  -0.103  0.00  0.00     0.007 A 
ATOM      2  C   UNL d   1       1.371   0.074  -0.057  0.00  0.00     0.040 A 
ATOM      3  C   UNL d   1      -0.784   1.165  -0.080  0.00  0.00     0.027 A 
ATOM      4  C   UNL d   1       0.731  -1.165  -0.056  0.00  0.00     0.032 A 
ATOM      5  C   UNL d   1      -0.672  -1.256  -0.091  0.00  0.00    -0.044 A 
ATOM      6  C   UNL d   1       0.623   1.255  -0.078  0.00  0.00    -0.039 A 
ATOM      7 CL   UNL d   1       3.099   0.090  -0.046  0.00  0.00    -0.084 Cl
ATOM      8  C   UNL d   1      -1.292  -2.629  -0.148  0.00  0.00     0.049 C 
ATOM      9  C   UNL d   1       1.286   2.604  -0.132  0.00  0.00     0.050 C 
ENDROOT
BRANCH   1  10
ATOM     10  S   UNL d   1      -3.238  -0.193  -0.063  0.00  0.00    -0.128 SA
BRANCH  10  11
ATOM     11  C   UNL d   1      -3.812   1.276  -0.990  0.00  0.00     0.099 C 
BRANCH  11  12
ATOM     12  C   UNL d   1      -5.340   1.214  -1.107  0.00  0.00     0.133 C 
BRANCH  12  13
ATOM     13  N   UNL d   1      -5.895   2.368  -1.796  0.00  0.00    -0.361 N 
ATOM     14  C   UNL d   1      -6.244   3.509  -1.114  0.00  0.00     0.213 C 
ATOM     15  O   UNL d   1      -6.087   3.648   0.098  0.00  0.00    -0.274 OA
ATOM     16  C   UNL d   1      -6.838   4.597  -1.964  0.00  0.00     0.117 C 
ATOM     17  H   UNL d   1      -6.030   2.319  -2.798  0.00  0.00     0.162 HD
ENDBRANCH  12  13
ENDBRANCH  11  12
ENDBRANCH  10  11
ENDBRANCH   1  10
TORSDOF 4
