REMARK  3 active torsions:
REMARK  status: ('A' for Active; 'I' for Inactive)
REMARK    1  A    between atoms: C_8  and  C_3 
REMARK    2  A    between atoms: C_7  and  O_10 
REMARK    3  A    between atoms: O_10  and  C_16 
ROOT
ATOM      1  N   UNL d   1       2.190  -0.218   0.146  0.00  0.00    -0.332 N 
ATOM      2  C   UNL d   1       1.315   0.823   0.004  0.00  0.00     0.255 C 
ATOM      3  C   UNL d   1       1.841  -1.560  -0.213  0.00  0.00     0.219 C 
ATOM      4  N   UNL d   1       0.498  -1.854   0.248  0.00  0.00    -0.364 N 
ATOM      5  C   UNL d   1      -0.118   0.476  -0.062  0.00  0.00     0.058 A 
ATOM      6  C   UNL d   1      -0.469  -0.875   0.029  0.00  0.00     0.045 A 
ATOM      7  O   UNL d   1       1.710   1.986  -0.037  0.00  0.00    -0.268 OA
ATOM      8  C   UNL d   1      -1.093   1.475  -0.149  0.00  0.00     0.019 A 
ATOM      9  C   UNL d   1      -1.826  -1.212   0.069  0.00  0.00     0.030 A 
ATOM     10  C   UNL d   1      -2.440   1.121  -0.133  0.00  0.00     0.001 A 
ATOM     11  C   UNL d   1      -2.806  -0.221  -0.025  0.00  0.00     0.002 A 
ATOM     12  H   UNL d   1       3.163   0.045   0.112  0.00  0.00     0.165 HD
ATOM     13  H   UNL d   1       0.203  -2.803   0.050  0.00  0.00     0.162 HD
ENDROOT
BRANCH   3  14
ATOM     14  C   UNL d   1       2.769  -2.555   0.447  0.00  0.00    -0.016 A 
ATOM     15  C   UNL d   1       2.851  -2.599   1.850  0.00  0.00     0.014 A 
ATOM     16  C   UNL d   1       3.623  -3.560   2.501  0.00  0.00     0.038 A 
ATOM     17  C   UNL d   1       4.300  -4.523   1.760  0.00  0.00     0.078 A 
ATOM     18  C   UNL d   1       4.271  -4.454   0.362  0.00  0.00     0.038 A 
ATOM     19  C   UNL d   1       3.508  -3.481  -0.294  0.00  0.00     0.014 A 
BRANCH  17  20
ATOM     20  O   UNL d   1       5.042  -5.542   2.271  0.00  0.00    -0.255 OA
BRANCH  20  21
ATOM     21  C   UNL d   1       4.708  -6.088   3.542  0.00  0.00     0.530 C 
ATOM     22  F   UNL d   1       3.546  -5.640   4.061  0.00  0.00    -0.144 F 
ATOM     23  F   UNL d   1       4.605  -7.430   3.416  0.00  0.00    -0.144 F 
ATOM     24  F   UNL d   1       5.705  -5.824   4.415  0.00  0.00    -0.144 F 
ENDBRANCH  20  21
ENDBRANCH  17  20
ENDBRANCH   3  14
TORSDOF 3
