REMARK  8 active torsions:
REMARK  status: ('A' for Active; 'I' for Inactive)
REMARK    1  A    between atoms: S_8  and  C_1 
REMARK    2  A    between atoms: C_9  and  S_8 
REMARK    3  A    between atoms: C_10  and  C_9 
REMARK    4  A    between atoms: C_14  and  C_10 
REMARK    5  A    between atoms: C_11  and  C_12 
REMARK    6  A    between atoms: C_12  and  C_13 
REMARK    7  A    between atoms: C_13  and  C_15 
REMARK    8  A    between atoms: C_15  and  C_14 
ROOT
ATOM      1  S   UNL d   1      -0.803   2.822  -0.005  0.00  0.00    -0.092 SA
ENDROOT
BRANCH   1   2
ATOM      2  C   UNL d   1      -0.440   1.142  -0.004  0.00  0.00     0.160 A 
ATOM      3  N   UNL d   1       0.852   0.716  -0.001  0.00  0.00    -0.331 N 
ATOM      4  C   UNL d   1       0.792  -0.643  -0.000  0.00  0.00     0.199 A 
ATOM      5  H   UNL d   1       1.672   1.302   0.001  0.00  0.00     0.168 HD
ATOM      6  N   UNL d   1      -0.466  -1.025  -0.003  0.00  0.00    -0.294 N 
ATOM      7  N   UNL d   1      -1.249   0.113  -0.006  0.00  0.00    -0.279 N 
ATOM      8  HN  UNL d   1      -0.803  -1.988  -0.004  1.00  0.00     0.187 HD
ATOM      9  HN  UNL d   1      -2.269   0.145  -0.008  1.00  0.00     0.189 HD
ENDBRANCH   1   2
BRANCH   1  10
ATOM     10  C   UNL d   1      -2.624   2.795  -0.006  0.00  0.00     0.082 C 
BRANCH  10  11
ATOM     11  C   UNL d   1      -3.142   4.235  -0.009  0.00  0.00     0.010 C 
BRANCH  11  12
ATOM     12  C   UNL d   1      -4.673   4.292  -0.011  0.00  0.00     0.001 C 
BRANCH  12  13
ATOM     13  C   UNL d   1      -5.169   5.741  -0.014  0.00  0.00     0.000 C 
BRANCH  13  14
ATOM     14  C   UNL d   1      -6.697   5.813  -0.014  0.00  0.00     0.000 C 
BRANCH  14  15
ATOM     15  C   UNL d   1      -7.184   7.263  -0.019  0.00  0.00    -0.000 C 
BRANCH  15  16
ATOM     16  C   UNL d   1      -8.711   7.338  -0.021  0.00  0.00    -0.005 C 
ATOM     17  C   UNL d   1      -9.196   8.779  -0.026  0.00  0.00     0.005 C 
ENDBRANCH  15  16
ENDBRANCH  14  15
ENDBRANCH  13  14
ENDBRANCH  12  13
ENDBRANCH  11  12
ENDBRANCH  10  11
ENDBRANCH   1  10
TORSDOF 8
