REMARK  4 active torsions:
REMARK  status: ('A' for Active; 'I' for Inactive)
REMARK    1  A    between atoms: C_5  and  C_1 
REMARK    2  A    between atoms: C_7  and  C_2 
REMARK       I    between atoms: N_9  and  C_7 
REMARK    3  A    between atoms: C_15  and  N_9 
REMARK    4  A    between atoms: C_16  and  C_15 
ROOT
ATOM      1  C   UNL d   1      -1.325  -0.660   0.255  0.00  0.00     0.086 A 
ATOM      2  C   UNL d   1      -0.030  -1.255   0.040  0.00  0.00     0.092 A 
ATOM      3  N   UNL d   1      -1.180   0.636   0.580  0.00  0.00    -0.259 N 
ATOM      4  HN  UNL d   1      -1.922   1.280   0.855  1.00  0.00     0.195 HD
ATOM      5  O   UNL d   1       0.154   0.928   0.474  0.00  0.00    -0.241 OA
ATOM      6  C   UNL d   1       0.846  -0.190   0.147  0.00  0.00     0.090 A 
ATOM      7  C   UNL d   1       2.294   0.021  -0.052  0.00  0.00     0.080 C 
ENDROOT
BRANCH   2   8
ATOM      8  C   UNL d   1       0.309  -2.627  -0.277  0.00  0.00     0.256 C 
ATOM      9  N   UNL d   1       1.478  -3.087   0.290  0.00  0.00    -0.351 N 
ATOM     10  H   UNL d   1       1.983  -2.533   0.973  0.00  0.00     0.163 HD
ATOM     11  O   UNL d   1      -0.421  -3.344  -0.958  0.00  0.00    -0.267 OA
BRANCH   9  12
ATOM     12  C   UNL d   1       1.871  -4.477   0.215  0.00  0.00     0.179 C 
BRANCH  12  13
ATOM     13  C   UNL d   1       3.326  -4.704   0.583  0.00  0.00     0.026 A 
ATOM     14  N   UNL d   1       4.032  -3.674   1.128  0.00  0.00    -0.368 N 
ATOM     15  C   UNL d   1       5.327  -3.914   1.444  0.00  0.00     0.088 A 
ATOM     16  HN  UNL d   1       3.604  -2.763   1.291  1.00  0.00     0.165 HD
ATOM     17  C   UNL d   1       5.960  -5.132   1.256  0.00  0.00     0.017 A 
ATOM     18  C   UNL d   1       5.223  -6.176   0.716  0.00  0.00     0.003 A 
ATOM     19  C   UNL d   1       3.889  -5.964   0.377  0.00  0.00     0.027 A 
ENDBRANCH  12  13
ENDBRANCH   9  12
ENDBRANCH   2   8
BRANCH   1  20
ATOM     20  C   UNL d   1      -2.679  -1.240   0.205  0.00  0.00     0.037 A 
ATOM     21  C   UNL d   1      -3.019  -2.412   0.909  0.00  0.00     0.048 A 
ATOM     22 CL   UNL d   1      -1.930  -3.221   1.990  0.00  0.00    -0.083 Cl
ATOM     23  C   UNL d   1      -4.315  -2.953   0.840  0.00  0.00     0.025 A 
ATOM     24  C   UNL d   1      -5.317  -2.308   0.123  0.00  0.00     0.003 A 
ATOM     25  C   UNL d   1      -5.022  -1.123  -0.538  0.00  0.00     0.025 A 
ATOM     26  C   UNL d   1      -3.718  -0.601  -0.517  0.00  0.00     0.048 A 
ATOM     27 CL   UNL d   1      -3.493   0.853  -1.440  0.00  0.00    -0.083 Cl
ENDBRANCH   1  20
TORSDOF 4
