REMARK  5 active torsions:
REMARK  status: ('A' for Active; 'I' for Inactive)
REMARK    1  A    between atoms: C_7  and  C_1 
REMARK    2  A    between atoms: C_8  and  C_2 
REMARK    3  A    between atoms: O_12  and  C_7 
REMARK    4  A    between atoms: C_19  and  O_12 
REMARK    5  A    between atoms: O_16  and  C_13 
ROOT
ATOM      1  C   UNL d   1       1.452   1.034  -0.011  0.00  0.00     0.066 C 
ATOM      2  C   UNL d   1       0.219   1.903  -0.136  0.00  0.00     0.161 C 
ATOM      3  C   UNL d   1       1.360  -0.314  -0.047  0.00  0.00     0.024 C 
ATOM      4  C   UNL d   1      -1.075  -0.214  -0.092  0.00  0.00     0.321 C 
ATOM      5  N   UNL d   1       0.108  -0.883  -0.148  0.00  0.00    -0.312 N 
ATOM      6  N   UNL d   1      -0.996   1.130   0.048  0.00  0.00    -0.330 N 
ATOM      7  O   UNL d   1      -2.152  -0.797  -0.126  0.00  0.00    -0.247 OA
ATOM      8  C   UNL d   1       2.482  -1.318  -0.010  0.00  0.00     0.069 C 
ATOM      9  H   UNL d   1       0.014  -1.891  -0.193  0.00  0.00     0.170 HD
ATOM     10  H   UNL d   1      -1.885   1.609   0.060  0.00  0.00     0.165 HD
ENDROOT
BRANCH   2  11
ATOM     11  C   UNL d   1       0.174   3.092   0.812  0.00  0.00    -0.028 A 
ATOM     12  C   UNL d   1       0.252   2.900   2.203  0.00  0.00     0.046 A 
ATOM     13  C   UNL d   1       0.325   3.991   3.068  0.00  0.00     0.068 A 
ATOM     14  C   UNL d   1       0.285   5.284   2.542  0.00  0.00     0.037 A 
ATOM     15  C   UNL d   1       0.165   5.491   1.168  0.00  0.00     0.003 A 
ATOM     16  C   UNL d   1       0.105   4.399   0.305  0.00  0.00     0.010 A 
BRANCH  13  17
ATOM     17  O   UNL d   1       0.456   3.925   4.428  0.00  0.00    -0.356 OA
ATOM     18  C   UNL d   1       0.529   2.623   4.997  0.00  0.00     0.210 C 
ENDBRANCH  13  17
ENDBRANCH   2  11
BRANCH   1  19
ATOM     19  C   UNL d   1       2.768   1.703   0.163  0.00  0.00     0.293 C 
ATOM     20  O   UNL d   1       3.706   1.220   0.783  0.00  0.00    -0.259 OA
BRANCH  19  21
ATOM     21  O   UNL d   1       2.777   2.921  -0.434  0.00  0.00    -0.318 OA
BRANCH  21  22
ATOM     22  C   UNL d   1       3.973   3.700  -0.254  0.00  0.00     0.174 C 
ATOM     23  C   UNL d   1       4.132   4.214   1.171  0.00  0.00     0.034 C 
ENDBRANCH  21  22
ENDBRANCH  19  21
ENDBRANCH   1  19
TORSDOF 5
