REMARK  3 active torsions:
REMARK  status: ('A' for Active; 'I' for Inactive)
REMARK    1  A    between atoms: C_2  and  S_1 
REMARK    2  A    between atoms: O_7  and  S_1 
REMARK    3  A    between atoms: C_13  and  O_7 
ROOT
ATOM      1  S   UNL d   1       0.855   0.050  -0.283  0.00  0.00     0.306 S 
ATOM      2  O   UNL d   1       2.165  -0.036   0.325  0.00  0.00    -0.193 OA
ATOM      3  O   UNL d   1       0.589   0.798  -1.493  0.00  0.00    -0.193 OA
ENDROOT
BRANCH   1   4
ATOM      4  C   UNL d   1      -0.101   0.858   0.902  0.00  0.00     0.135 A 
ATOM      5  C   UNL d   1       0.153   2.212   1.308  0.00  0.00     0.065 A 
ATOM      6  C   UNL d   1      -0.751   2.651   2.241  0.00  0.00     0.095 A 
ATOM      7 BR   UNL d   1       1.567   3.284   0.631  0.00  0.00    -0.047 Br
ATOM      8 CL   UNL d   1      -0.845   4.191   3.002  0.00  0.00    -0.075 Cl
ATOM      9  S   UNL d   1      -1.895   1.474   2.648  0.00  0.00    -0.063 SA
ATOM     10  C   UNL d   1      -1.192   0.355   1.573  0.00  0.00     0.101 A 
ATOM     11 CL   UNL d   1      -1.946  -1.190   1.495  0.00  0.00    -0.074 Cl
ENDBRANCH   1   4
BRANCH   1  12
ATOM     12  O   UNL d   1       0.223  -1.439  -0.407  0.00  0.00    -0.228 OA
BRANCH  12  13
ATOM     13  C   UNL d   1       0.615  -2.309  -1.389  0.00  0.00     0.105 A 
ATOM     14  C   UNL d   1      -0.090  -3.504  -1.478  0.00  0.00     0.125 A 
ATOM     15  N   UNL d   1       0.145  -4.463  -2.405  0.00  0.00    -0.373 N 
ATOM     16  C   UNL d   1       1.137  -4.220  -3.287  0.00  0.00     0.088 A 
ATOM     17  HN  UNL d   1      -0.400  -5.325  -2.435  1.00  0.00     0.164 HD
ATOM     18  C   UNL d   1       1.908  -3.070  -3.272  0.00  0.00     0.020 A 
ATOM     19  C   UNL d   1       1.645  -2.103  -2.303  0.00  0.00     0.041 A 
ENDBRANCH  12  13
ENDBRANCH   1  12
TORSDOF 3
