REMARK  5 active torsions:
REMARK  status: ('A' for Active; 'I' for Inactive)
REMARK    1  A    between atoms: N_2  and  C_1 
REMARK    2  A    between atoms: N_10  and  C_3 
REMARK    3  A    between atoms: C_4  and  C_11 
REMARK    4  A    between atoms: N_5  and  N_10 
REMARK    5  A    between atoms: O_21  and  C_8 
ROOT
ATOM      1  N   UNL d   1       4.410  -1.247  -0.347  0.00  0.00    -0.309 N 
ATOM      2  HN  UNL d   1       4.012  -1.737  -1.148  1.00  0.00     0.186 HD
ATOM      3  C   UNL d   1       5.437  -1.700   0.307  0.00  0.00     0.121 C 
ENDROOT
BRANCH   1   4
ATOM      4  N   UNL d   1       3.894  -0.052   0.121  0.00  0.00    -0.295 N 
ATOM      5  C   UNL d   1       4.790   1.109  -0.000  0.00  0.00     0.178 C 
BRANCH   4   6
ATOM      6  C   UNL d   1       2.485   0.111  -0.002  0.00  0.00     0.083 A 
ATOM      7  C   UNL d   1       1.724   1.282   0.212  0.00  0.00     0.132 A 
ATOM      8  C   UNL d   1       0.314   1.325   0.142  0.00  0.00     0.062 A 
ATOM      9  C   UNL d   1      -0.389   0.171  -0.154  0.00  0.00     0.036 A 
ATOM     10  C   UNL d   1       0.298  -1.011  -0.383  0.00  0.00     0.026 A 
ATOM     11 CL   UNL d   1      -2.105   0.201  -0.225  0.00  0.00    -0.084 Cl
ATOM     12  C   UNL d   1       1.700  -1.034  -0.300  0.00  0.00     0.035 A 
BRANCH   7  13
ATOM     13  N   UNL d   1       2.320   2.552   0.543  0.00  0.00    -0.113 N 
ATOM     14  O   UNL d   1       2.683   3.267  -0.400  0.00  0.00    -0.532 OA
ATOM     15  O   UNL d   1       2.367   2.857   1.742  0.00  0.00    -0.532 OA
ENDBRANCH   7  13
ENDBRANCH   4   6
ENDBRANCH   1   4
BRANCH   3  16
ATOM     16  C   UNL d   1       6.127  -2.947  -0.081  0.00  0.00     0.017 A 
ATOM     17  C   UNL d   1       7.346  -3.285   0.516  0.00  0.00     0.099 A 
ATOM     18  C   UNL d   1       7.989  -4.474   0.158  0.00  0.00     0.069 A 
ATOM     19 CL   UNL d   1       9.494  -4.903   0.885  0.00  0.00    -0.081 Cl
ATOM     20  C   UNL d   1       7.427  -5.327  -0.791  0.00  0.00     0.050 A 
ATOM     21  C   UNL d   1       6.217  -4.979  -1.386  0.00  0.00     0.036 A 
ATOM     22  C   UNL d   1       5.564  -3.793  -1.043  0.00  0.00     0.039 A 
ATOM     23 CL   UNL d   1       5.517  -6.027  -2.558  0.00  0.00    -0.084 Cl
BRANCH  17  24
ATOM     24  O   UNL d   1       7.909  -2.440   1.438  0.00  0.00    -0.358 OA
ATOM     25  H   UNL d   1       8.760  -2.829   1.721  0.00  0.00     0.217 HD
ENDBRANCH  17  24
ENDBRANCH   3  16
TORSDOF 5
