REMARK  1 active torsions:
REMARK  status: ('A' for Active; 'I' for Inactive)
REMARK    1  A    between atoms: C_8  and  C_3 
ROOT
ATOM      1  N   UNL d   1      -1.815  -1.558  -0.020  0.00  0.00    -0.296 N 
ATOM      2  HN  UNL d   1      -2.542  -2.272  -0.041  1.00  0.00     0.187 HD
ATOM      3  C   UNL d   1      -0.557  -1.896  -0.067  0.00  0.00     0.069 A 
ATOM      4  N   UNL d   1      -2.147  -0.244   0.058  0.00  0.00    -0.265 N 
ATOM      5  C   UNL d   1       0.534  -0.880   0.016  0.00  0.00     0.009 A 
ATOM      6  C   UNL d   1      -1.275   0.812   0.005  0.00  0.00     0.271 A 
ATOM      7  C   UNL d   1       0.155   0.464  -0.013  0.00  0.00     0.046 A 
ATOM      8  O   UNL d   1      -1.652   1.977  -0.002  0.00  0.00    -0.266 OA
ATOM      9  C   UNL d   1       1.897  -1.181   0.149  0.00  0.00     0.015 A 
ATOM     10  C   UNL d   1       1.113   1.487  -0.011  0.00  0.00     0.018 A 
ATOM     11  C   UNL d   1       2.858  -0.165   0.132  0.00  0.00     0.001 A 
ATOM     12  C   UNL d   1       2.468   1.168   0.040  0.00  0.00     0.001 A 
ATOM     13  H   UNL d   1      -3.138  -0.026   0.077  0.00  0.00     0.190 HD
ENDROOT
BRANCH   3  14
ATOM     14  C   UNL d   1      -0.281  -3.364  -0.223  0.00  0.00    -0.007 A 
ATOM     15  C   UNL d   1       0.764  -3.858  -1.016  0.00  0.00     0.017 A 
ATOM     16  C   UNL d   1       0.990  -5.234  -1.108  0.00  0.00     0.043 A 
ATOM     17  C   UNL d   1       0.132  -6.118  -0.464  0.00  0.00     0.116 A 
ATOM     18  C   UNL d   1      -0.953  -5.652   0.267  0.00  0.00     0.043 A 
ATOM     19  F   UNL d   1       0.345  -7.436  -0.566  0.00  0.00    -0.206 F 
ATOM     20  C   UNL d   1      -1.157  -4.275   0.392  0.00  0.00     0.017 A 
ENDBRANCH   3  14
TORSDOF 1
