REMARK  4 active torsions:
REMARK  status: ('A' for Active; 'I' for Inactive)
REMARK    1  A    between atoms: N_2  and  S_1 
REMARK    2  A    between atoms: C_5  and  S_1 
REMARK    3  A    between atoms: C_7  and  N_2 
REMARK    4  A    between atoms: C_3  and  C_7 
ROOT
ATOM      1  S   UNL d   1       0.980   0.009  -0.061  0.00  0.00     0.241 S 
ATOM      2  O   UNL d   1       2.260  -0.496   0.387  0.00  0.00    -0.206 OA
ATOM      3  O   UNL d   1       0.797   0.563  -1.383  0.00  0.00    -0.206 OA
ENDROOT
BRANCH   1   4
ATOM      4  N   UNL d   1       0.440   1.169   1.034  0.00  0.00    -0.211 NA
ATOM      5  H   UNL d   1      -0.551   1.380   0.917  0.00  0.00     0.140 HD
BRANCH   4   6
ATOM      6  C   UNL d   1       0.842   0.977   2.431  0.00  0.00     0.151 C 
BRANCH   6   7
ATOM      7  C   UNL d   1       0.244   2.087   3.249  0.00  0.00     0.002 A 
ATOM      8  C   UNL d   1       0.695   3.389   3.425  0.00  0.00    -0.047 A 
ATOM      9  C   UNL d   1      -0.151   4.107   4.335  0.00  0.00     0.015 A 
ATOM     10  C   UNL d   1       1.901   4.000   2.786  0.00  0.00     0.049 C 
ATOM     11  C   UNL d   1      -1.204   3.352   4.795  0.00  0.00     0.051 A 
ATOM     12  S   UNL d   1      -1.195   1.781   4.135  0.00  0.00    -0.105 SA
ENDBRANCH   6   7
ENDBRANCH   4   6
ENDBRANCH   1   4
BRANCH   1  13
ATOM     13  C   UNL d   1      -0.219  -1.298   0.128  0.00  0.00     0.074 A 
ATOM     14  C   UNL d   1      -1.293  -1.380  -0.768  0.00  0.00     0.028 A 
ATOM     15  C   UNL d   1      -2.204  -2.432  -0.657  0.00  0.00     0.044 A 
ATOM     16  C   UNL d   1      -2.033  -3.388   0.340  0.00  0.00     0.116 A 
ATOM     17  C   UNL d   1      -0.958  -3.321   1.223  0.00  0.00     0.044 A 
ATOM     18  F   UNL d   1      -2.908  -4.395   0.444  0.00  0.00    -0.206 F 
ATOM     19  C   UNL d   1      -0.035  -2.279   1.111  0.00  0.00     0.028 A 
ENDBRANCH   1  13
TORSDOF 4
