REMARK  5 active torsions:
REMARK  status: ('A' for Active; 'I' for Inactive)
REMARK    1  A    between atoms: N_2  and  C_1 
REMARK    2  A    between atoms: N_3  and  C_4 
REMARK    3  A    between atoms: N_18  and  C_6 
REMARK    4  A    between atoms: C_9  and  C_17 
REMARK    5  A    between atoms: N_10  and  N_18 
ROOT
ATOM      1  C   UNL d   1      -1.833   0.056   0.028  0.00  0.00     0.133 A 
ATOM      2  C   UNL d   1       0.264  -1.207  -0.009  0.00  0.00     0.111 A 
ATOM      3  C   UNL d   1      -1.144  -1.172   0.007  0.00  0.00     0.075 A 
ATOM      4  C   UNL d   1      -1.135   1.278   0.021  0.00  0.00     0.081 A 
ATOM      5  C   UNL d   1       0.995  -0.002  -0.015  0.00  0.00    -0.027 A 
ATOM      6  C   UNL d   1       0.274   1.213  -0.002  0.00  0.00     0.042 A 
ATOM      7  C   UNL d   1       2.498   0.087  -0.022  0.00  0.00     0.050 C 
ENDROOT
BRANCH   4   8
ATOM      8  N   UNL d   1      -1.771   2.541   0.101  0.00  0.00    -0.299 N 
ATOM      9  H   UNL d   1      -2.798   2.502   0.066  0.00  0.00     0.187 HD
BRANCH   8  10
ATOM     10  N   UNL d   1      -1.130   3.609  -0.452  0.00  0.00    -0.310 N 
ATOM     11  C   UNL d   1      -1.804   4.718  -0.446  0.00  0.00     0.126 C 
ATOM     12  HN  UNL d   1      -0.189   3.541  -0.841  1.00  0.00     0.186 HD
BRANCH  11  13
ATOM     13  C   UNL d   1      -1.237   5.922  -1.002  0.00  0.00     0.021 A 
ATOM     14  S   UNL d   1      -2.105   7.391  -0.885  0.00  0.00    -0.101 SA
ATOM     15  C   UNL d   1      -0.853   8.266  -1.656  0.00  0.00     0.050 A 
ATOM     16  C   UNL d   1       0.198   7.452  -2.018  0.00  0.00     0.008 A 
ATOM     17  C   UNL d   1      -0.028   6.095  -1.645  0.00  0.00     0.021 A 
ENDBRANCH  11  13
ENDBRANCH   8  10
ENDBRANCH   4   8
BRANCH   1  18
ATOM     18  N   UNL d   1      -3.306   0.016   0.025  0.00  0.00    -0.113 N 
ATOM     19  O   UNL d   1      -3.853  -1.094  -0.025  0.00  0.00    -0.532 OA
ATOM     20  O   UNL d   1      -3.923   1.092   0.067  0.00  0.00    -0.532 OA
ENDBRANCH   1  18
BRANCH   2  21
ATOM     21  N   UNL d   1       0.911  -2.539  -0.011  0.00  0.00    -0.115 N 
ATOM     22  O   UNL d   1       0.164  -3.531  -0.004  0.00  0.00    -0.532 OA
ATOM     23  O   UNL d   1       2.143  -2.608  -0.018  0.00  0.00    -0.532 OA
ENDBRANCH   2  21
TORSDOF 5
