REMARK  6 active torsions:
REMARK  status: ('A' for Active; 'I' for Inactive)
REMARK    1  A    between atoms: S_15  and  C_6 
REMARK    2  A    between atoms: C_10  and  C_7 
REMARK    3  A    between atoms: O_20  and  C_10 
REMARK    4  A    between atoms: C_19  and  S_15 
REMARK    5  A    between atoms: C_22  and  C_19 
REMARK    6  A    between atoms: C_28  and  O_20 
ROOT
ATOM      1  S   UNL d   1      -0.820  -2.114   0.270  0.00  0.00     0.267 S 
ATOM      2  C   UNL d   1      -1.585  -0.571   0.144  0.00  0.00     0.116 A 
ATOM      3  C   UNL d   1      -0.791   0.619  -0.016  0.00  0.00     0.032 A 
ATOM      4  N   UNL d   1       0.739  -1.916  -0.362  0.00  0.00    -0.275 N 
ATOM      5  C   UNL d   1       0.725   0.539  -0.021  0.00  0.00     0.045 A 
ATOM      6  C   UNL d   1      -2.938  -0.337   0.256  0.00  0.00     0.066 A 
ATOM      7  C   UNL d   1      -1.595   1.744  -0.111  0.00  0.00     0.094 A 
ATOM      8  C   UNL d   1       1.386  -0.674  -0.187  0.00  0.00     0.063 A 
ATOM      9  S   UNL d   1      -3.263   1.319   0.015  0.00  0.00    -0.075 SA
ATOM     10  O   UNL d   1      -0.725  -2.360   1.691  0.00  0.00    -0.200 OA
ATOM     11  O   UNL d   1      -1.571  -2.965  -0.634  0.00  0.00    -0.200 OA
ATOM     12  S   UNL d   1       1.822   1.822   0.212  0.00  0.00    -0.099 SA
ATOM     13  C   UNL d   1       2.805  -0.505  -0.182  0.00  0.00     0.039 A 
ATOM     14  C   UNL d   1       3.177   0.801   0.038  0.00  0.00     0.053 A 
ATOM     15  C   UNL d   1       1.385  -3.091  -0.951  0.00  0.00     0.170 C 
ENDROOT
BRANCH   6  16
ATOM     16  S   UNL d   1      -4.192  -1.500   0.679  0.00  0.00    -0.116 SA
BRANCH  16  17
ATOM     17  C   UNL d   1      -5.617  -0.982  -0.316  0.00  0.00     0.118 C 
BRANCH  17  18
ATOM     18  C   UNL d   1      -6.772  -1.943  -0.155  0.00  0.00    -0.049 A 
ATOM     19  C   UNL d   1      -7.711  -1.762   0.874  0.00  0.00     0.009 A 
ATOM     20  C   UNL d   1      -8.779  -2.650   1.026  0.00  0.00     0.024 A 
ATOM     21  C   UNL d   1      -8.911  -3.728   0.154  0.00  0.00     0.034 A 
ATOM     22  C   UNL d   1      -7.979  -3.933  -0.860  0.00  0.00     0.024 A 
ATOM     23 CL   UNL d   1     -10.235  -4.813   0.332  0.00  0.00    -0.084 Cl
ATOM     24  C   UNL d   1      -6.910  -3.046  -1.012  0.00  0.00     0.009 A 
ENDBRANCH  17  18
ENDBRANCH  16  17
ENDBRANCH   6  16
BRANCH   7  25
ATOM     25  C   UNL d   1      -1.266   3.144  -0.320  0.00  0.00     0.301 C 
ATOM     26  O   UNL d   1      -0.325   3.580  -0.967  0.00  0.00    -0.259 OA
BRANCH  25  27
ATOM     27  O   UNL d   1      -2.138   3.926   0.383  0.00  0.00    -0.317 OA
BRANCH  27  28
ATOM     28  C   UNL d   1      -1.700   5.257   0.683  0.00  0.00     0.174 C 
ATOM     29  C   UNL d   1      -1.034   5.210   2.046  0.00  0.00     0.034 C 
ENDBRANCH  27  28
ENDBRANCH  25  27
ENDBRANCH   7  25
TORSDOF 6
