REMARK  2 active torsions:
REMARK  status: ('A' for Active; 'I' for Inactive)
REMARK    1  A    between atoms: N_4  and  C_2 
REMARK    2  A    between atoms: N_13  and  C_5 
ROOT
ATOM      1  C   UNL d   1       0.132  -0.753  -0.052  0.00  0.00     0.120 A 
ATOM      2  C   UNL d   1      -1.073  -1.479  -0.056  0.00  0.00     0.134 A 
ATOM      3  C   UNL d   1       0.129   0.718   0.021  0.00  0.00     0.114 A 
ATOM      4  C   UNL d   1      -1.070   1.501   0.095  0.00  0.00     0.061 A 
ATOM      5  C   UNL d   1      -2.258  -0.726   0.002  0.00  0.00     0.041 A 
ATOM      6  N   UNL d   1       1.410  -1.152  -0.108  0.00  0.00    -0.237 N 
ATOM      7  HN  UNL d   1       1.746  -2.114  -0.167  1.00  0.00     0.197 HD
ATOM      8  N   UNL d   1       1.408   1.122   0.001  0.00  0.00    -0.237 N 
ATOM      9  HN  UNL d   1       1.743   2.085   0.033  1.00  0.00     0.197 HD
ATOM     10  C   UNL d   1      -2.242   0.689   0.077  0.00  0.00     0.034 A 
ATOM     11  O   UNL d   1       2.181  -0.014  -0.073  0.00  0.00    -0.156 OA
ENDROOT
BRANCH   2  12
ATOM     12  N   UNL d   1      -1.097  -2.929  -0.093  0.00  0.00    -0.113 N 
ATOM     13  O   UNL d   1      -0.030  -3.550  -0.060  0.00  0.00    -0.532 OA
ATOM     14  O   UNL d   1      -2.214  -3.466  -0.149  0.00  0.00    -0.532 OA
ENDBRANCH   2  12
BRANCH   4  15
ATOM     15  N   UNL d   1      -1.182   2.887   0.255  0.00  0.00    -0.388 N 
ATOM     16  C   UNL d   1       0.003   3.656   0.629  0.00  0.00     0.149 C 
ATOM     17  C   UNL d   1      -2.156   3.612  -0.561  0.00  0.00     0.149 C 
ENDBRANCH   4  15
TORSDOF 2
