REMARK  5 active torsions:
REMARK  status: ('A' for Active; 'I' for Inactive)
REMARK    1  A    between atoms: C_7  and  C_2 
REMARK    2  A    between atoms: N_10  and  C_4 
REMARK    3  A    between atoms: C_5  and  N_10 
REMARK    4  A    between atoms: C_17  and  C_6 
REMARK    5  A    between atoms: O_19  and  C_7 
ROOT
ATOM      1  C   UNL d   1       0.704   1.102  -0.336  0.00  0.00     0.071 C 
ATOM      2  C   UNL d   1      -0.663   1.274   0.229  0.00  0.00     0.173 C 
ATOM      3  C   UNL d   1       1.179   2.018  -1.196  0.00  0.00     0.107 C 
ATOM      4  C   UNL d   1      -0.758   1.052   1.738  0.00  0.00     0.094 C 
ATOM      5  C   UNL d   1       1.637   0.117   0.262  0.00  0.00     0.164 C 
ATOM      6  C   UNL d   1       0.058  -0.177   2.174  0.00  0.00     0.025 C 
ATOM      7  O   UNL d   1      -1.589   1.661  -0.476  0.00  0.00    -0.291 OA
ATOM      8  C   UNL d   1       1.514  -0.097   1.747  0.00  0.00     0.085 C 
ATOM      9  O   UNL d   1       2.536  -0.400  -0.399  0.00  0.00    -0.292 OA
ENDROOT
BRANCH   3  10
ATOM     10  N   UNL d   1       2.472   2.115  -1.668  0.00  0.00    -0.364 N 
ATOM     11  H   UNL d   1       3.010   1.262  -1.465  0.00  0.00     0.165 HD
BRANCH  10  12
ATOM     12  C   UNL d   1       3.057   3.051  -2.461  0.00  0.00     0.055 A 
ATOM     13  C   UNL d   1       2.697   4.373  -2.685  0.00  0.00     0.106 A 
ATOM     14  S   UNL d   1       3.752   5.100  -3.851  0.00  0.00    -0.094 SA
ATOM     15  C   UNL d   1       4.694   3.692  -4.001  0.00  0.00     0.053 A 
ATOM     16  C   UNL d   1       4.234   2.685  -3.189  0.00  0.00     0.038 A 
BRANCH  13  17
ATOM     17  C   UNL d   1       1.669   5.202  -2.070  0.00  0.00     0.302 C 
ATOM     18  O   UNL d   1       1.223   5.073  -0.930  0.00  0.00    -0.259 OA
BRANCH  17  19
ATOM     19  O   UNL d   1       1.244   6.160  -2.943  0.00  0.00    -0.322 OA
ATOM     20  C   UNL d   1       0.242   7.048  -2.446  0.00  0.00     0.213 C 
ENDBRANCH  17  19
ENDBRANCH  13  17
ENDBRANCH  10  12
ENDBRANCH   3  10
BRANCH   4  21
ATOM     21  C   UNL d   1      -2.170   0.931   2.285  0.00  0.00    -0.046 A 
ATOM     22  C   UNL d   1      -3.039  -0.088   1.865  0.00  0.00     0.008 A 
ATOM     23  C   UNL d   1      -4.279  -0.262   2.483  0.00  0.00     0.001 A 
ATOM     24  C   UNL d   1      -4.670   0.586   3.517  0.00  0.00     0.000 A 
ATOM     25  C   UNL d   1      -3.830   1.621   3.923  0.00  0.00     0.001 A 
ATOM     26  C   UNL d   1      -2.589   1.794   3.311  0.00  0.00     0.008 A 
ENDBRANCH   4  21
TORSDOF 5
