REMARK  5 active torsions:
REMARK  status: ('A' for Active; 'I' for Inactive)
REMARK    1  A    between atoms: C_6  and  C_1 
REMARK    2  A    between atoms: C_12  and  C_2 
REMARK       I    between atoms: N_10  and  C_6 
REMARK    3  A    between atoms: C_7  and  C_13 
REMARK       I    between atoms: C_9  and  N_11 
REMARK    4  A    between atoms: C_14  and  C_9 
REMARK    5  A    between atoms: N_11  and  N_10 
ROOT
ATOM      1  C   UNL d   1       0.004  -1.325   0.041  0.00  0.00     0.094 A 
ATOM      2  C   UNL d   1      -1.284  -0.816   0.094  0.00  0.00     0.126 A 
ATOM      3  O   UNL d   1      -1.231   0.530  -0.135  0.00  0.00    -0.236 OA
ATOM      4  N   UNL d   1       0.076   0.936  -0.284  0.00  0.00    -0.264 N 
ATOM      5  HN  UNL d   1       0.409   1.883  -0.465  1.00  0.00     0.194 HD
ATOM      6  C   UNL d   1       0.817  -0.166  -0.143  0.00  0.00     0.047 A 
ATOM      7  C   UNL d   1       2.295  -0.047  -0.110  0.00  0.00     0.071 C 
ENDROOT
BRANCH   1   8
ATOM      8  C   UNL d   1       0.417  -2.696   0.259  0.00  0.00     0.275 C 
ATOM      9  N   UNL d   1       1.491  -3.108  -0.508  0.00  0.00    -0.263 N 
ATOM     10  H   UNL d   1       1.815  -2.601  -1.331  0.00  0.00     0.190 HD
ATOM     11  O   UNL d   1      -0.129  -3.451   1.062  0.00  0.00    -0.266 OA
BRANCH   9  12
ATOM     12  N   UNL d   1       1.968  -4.425  -0.376  0.00  0.00    -0.263 N 
ATOM     13  C   UNL d   1       2.807  -4.903  -1.366  0.00  0.00     0.270 C 
ATOM     14  O   UNL d   1       3.049  -4.234  -2.370  0.00  0.00    -0.266 OA
ATOM     15  H   UNL d   1       1.663  -4.937   0.448  0.00  0.00     0.190 HD
BRANCH  13  16
ATOM     16  C   UNL d   1       3.443  -6.244  -1.177  0.00  0.00     0.033 A 
ATOM     17  C   UNL d   1       3.360  -6.981   0.013  0.00  0.00     0.019 A 
ATOM     18  C   UNL d   1       4.049  -8.193   0.140  0.00  0.00     0.025 A 
ATOM     19  C   UNL d   1       4.821  -8.677  -0.915  0.00  0.00     0.034 A 
ATOM     20  C   UNL d   1       4.898  -7.965  -2.108  0.00  0.00     0.025 A 
ATOM     21 CL   UNL d   1       5.696 -10.146  -0.735  0.00  0.00    -0.084 Cl
ATOM     22  C   UNL d   1       4.211  -6.754  -2.237  0.00  0.00     0.019 A 
ENDBRANCH  13  16
ENDBRANCH   9  12
ENDBRANCH   1   8
BRANCH   2  23
ATOM     23  C   UNL d   1      -2.624  -1.335   0.358  0.00  0.00     0.001 A 
ATOM     24  C   UNL d   1      -3.587  -0.523   0.981  0.00  0.00     0.015 A 
ATOM     25  C   UNL d   1      -4.827  -1.040   1.370  0.00  0.00     0.017 A 
ATOM     26  C   UNL d   1      -5.138  -2.386   1.143  0.00  0.00     0.048 A 
ATOM     27  C   UNL d   1      -4.213  -3.180   0.452  0.00  0.00     0.017 A 
ATOM     28  C   UNL d   1      -2.974  -2.657   0.060  0.00  0.00     0.015 A 
BRANCH  26  29
ATOM     29  C   UNL d   1      -6.427  -2.964   1.673  0.00  0.00     0.417 C 
ATOM     30  F   UNL d   1      -6.552  -4.304   1.462  0.00  0.00    -0.166 F 
ATOM     31  F   UNL d   1      -6.555  -2.790   3.019  0.00  0.00    -0.166 F 
ATOM     32  F   UNL d   1      -7.530  -2.393   1.117  0.00  0.00    -0.166 F 
ENDBRANCH  26  29
ENDBRANCH   2  23
TORSDOF 5
