REMARK  4 active torsions:
REMARK  status: ('A' for Active; 'I' for Inactive)
REMARK    1  A    between atoms: C_8  and  C_1 
REMARK    2  A    between atoms: S_10  and  C_5 
REMARK    3  A    between atoms: C_17  and  S_10 
REMARK    4  A    between atoms: C_19  and  C_17 
ROOT
ATOM      1  N   UNL d   1       4.158  -7.592   3.055  0.00  0.00    -0.191 NA
ATOM      2  C   UNL d   1       3.864  -7.020   2.090  0.00  0.00     0.099 C 
ATOM      3  C   UNL d   1       3.501  -6.314   0.894  0.00  0.00     0.045 A 
ATOM      4  C   UNL d   1       3.026  -4.997   0.968  0.00  0.00     0.030 A 
ATOM      5  C   UNL d   1       2.680  -4.294  -0.198  0.00  0.00    -0.047 A 
ATOM      6  C   UNL d   1       3.279  -6.252  -1.513  0.00  0.00     0.002 A 
ATOM      7  C   UNL d   1       3.627  -6.939  -0.350  0.00  0.00     0.022 A 
ATOM      8  C   UNL d   1       2.806  -4.940  -1.437  0.00  0.00     0.008 A 
ENDROOT
BRANCH   5   9
ATOM      9  C   UNL d   1       2.181  -2.867  -0.124  0.00  0.00     0.121 C 
BRANCH   9  10
ATOM     10  S   UNL d   1       0.367  -2.789   0.009  0.00  0.00    -0.088 SA
BRANCH  10  11
ATOM     11  C   UNL d   1       0.122  -1.074   0.023  0.00  0.00     0.162 A 
ATOM     12  N   UNL d   1      -1.109  -0.472   0.125  0.00  0.00    -0.312 N 
ATOM     13  C   UNL d   1      -0.859   0.886   0.118  0.00  0.00     0.209 A 
ATOM     14  C   UNL d   1      -2.367  -1.170   0.217  0.00  0.00     0.160 C 
ATOM     15  N   UNL d   1       0.449   1.062  -0.001  0.00  0.00    -0.279 N 
ATOM     16  N   UNL d   1       1.058  -0.162  -0.059  0.00  0.00    -0.278 N 
ATOM     17  HN  UNL d   1       0.925   1.964  -0.044  1.00  0.00     0.188 HD
ATOM     18  HN  UNL d   1       2.059  -0.333  -0.149  1.00  0.00     0.189 HD
BRANCH  13  19
ATOM     19  C   UNL d   1      -1.857   1.988   0.225  0.00  0.00     0.450 C 
ATOM     20  F   UNL d   1      -3.136   1.564   0.396  0.00  0.00    -0.163 F 
ATOM     21  F   UNL d   1      -1.595   2.807   1.278  0.00  0.00    -0.163 F 
ATOM     22  F   UNL d   1      -1.868   2.770  -0.887  0.00  0.00    -0.163 F 
ENDBRANCH  13  19
ENDBRANCH  10  11
ENDBRANCH   9  10
ENDBRANCH   5   9
TORSDOF 4
