REMARK  3 active torsions:
REMARK  status: ('A' for Active; 'I' for Inactive)
REMARK    1  A    between atoms: C_2  and  C_1 
REMARK    2  A    between atoms: C_7  and  C_2 
REMARK    3  A    between atoms: N_8  and  C_3 
ROOT
ATOM      1  C   UNL d   1       0.886   0.180  -0.099  0.00  0.00     0.110 C 
ATOM      2  C   UNL d   1       0.150  -0.918  -0.353  0.00  0.00     0.111 C 
ATOM      3  C   UNL d   1       0.301   1.472  -0.004  0.00  0.00     0.105 C 
ATOM      4  N   UNL d   1      -0.166   2.529   0.103  0.00  0.00    -0.191 NA
ENDROOT
BRANCH   1   5
ATOM      5  C   UNL d   1       2.376   0.013  -0.035  0.00  0.00     0.204 C 
ATOM      6  O   UNL d   1       2.938  -0.963  -0.524  0.00  0.00    -0.286 OA
BRANCH   5   7
ATOM      7  C   UNL d   1       3.211   1.064   0.614  0.00  0.00     0.015 A 
ATOM      8  C   UNL d   1       2.793   1.766   1.752  0.00  0.00     0.015 A 
ATOM      9  C   UNL d   1       3.603   2.766   2.295  0.00  0.00     0.001 A 
ATOM     10  C   UNL d   1       4.846   3.043   1.728  0.00  0.00     0.000 A 
ATOM     11  C   UNL d   1       5.291   2.312   0.629  0.00  0.00     0.001 A 
ATOM     12  C   UNL d   1       4.478   1.321   0.074  0.00  0.00     0.015 A 
ENDBRANCH   5   7
ENDBRANCH   1   5
BRANCH   2  13
ATOM     13  N   UNL d   1      -1.227  -1.116  -0.440  0.00  0.00    -0.397 N 
ATOM     14  C   UNL d   1      -2.219  -0.367   0.335  0.00  0.00     0.148 C 
ATOM     15  C   UNL d   1      -1.795  -2.186  -1.262  0.00  0.00     0.148 C 
ENDBRANCH   2  13
TORSDOF 3
