REMARK  15 active torsions:
REMARK  status: ('A' for Active; 'I' for Inactive)
REMARK    1  A    between atoms: C_1  and  N_5 
REMARK    2  A    between atoms: C_2  and  O_7 
REMARK    3  A    between atoms: C_3  and  O_10 
REMARK    4  A    between atoms: C_4  and  O_9 
REMARK       I    between atoms: C_11  and  N_5 
REMARK    5  A    between atoms: C_12  and  O_7 
REMARK    6  A    between atoms: C_8  and  C_17 
REMARK    7  A    between atoms: C_13  and  O_9 
REMARK    8  A    between atoms: C_14  and  O_10 
REMARK    9  A    between atoms: C_22  and  C_11 
REMARK   10  A    between atoms: C_24  and  C_12 
REMARK   11  A    between atoms: C_23  and  C_13 
REMARK   12  A    between atoms: C_25  and  C_14 
REMARK   13  A    between atoms: C_15  and  O_16 
REMARK   14  A    between atoms: C_27  and  C_15 
REMARK   15  A    between atoms: O_16  and  C_17 
ROOT
ATOM      1  C   UNL d   1       0.764  -1.357  -0.162  0.00  0.00     0.172 C 
ATOM      2  C   UNL d   1       1.566  -0.033   0.029  0.00  0.00     0.192 C 
ATOM      3  C   UNL d   1      -0.681  -1.227   0.397  0.00  0.00     0.295 C 
ATOM      4  C   UNL d   1       0.753   1.251  -0.276  0.00  0.00     0.195 C 
ATOM      5  O   UNL d   1      -1.299   0.001  -0.004  0.00  0.00    -0.348 OA
ATOM      6  C   UNL d   1      -0.598   1.168   0.446  0.00  0.00     0.181 C 
ENDROOT
BRANCH   1   7
ATOM      7  N   UNL d   1       1.497  -2.498   0.447  0.00  0.00    -0.345 N 
ATOM      8  C   UNL d   1       2.370  -3.266  -0.297  0.00  0.00     0.252 C 
ATOM      9  O   UNL d   1       2.617  -3.050  -1.476  0.00  0.00    -0.268 OA
ATOM     10  H   UNL d   1       1.145  -2.885   1.320  0.00  0.00     0.163 HD
BRANCH   8  11
ATOM     11  C   UNL d   1       3.034  -4.417   0.377  0.00  0.00     0.032 A 
ATOM     12  C   UNL d   1       3.453  -5.489  -0.425  0.00  0.00     0.017 A 
ATOM     13  C   UNL d   1       4.195  -6.536   0.123  0.00  0.00     0.001 A 
ATOM     14  C   UNL d   1       4.528  -6.515   1.476  0.00  0.00     0.000 A 
ATOM     15  C   UNL d   1       4.096  -5.463   2.285  0.00  0.00     0.001 A 
ATOM     16  C   UNL d   1       3.345  -4.414   1.742  0.00  0.00     0.017 A 
ENDBRANCH   8  11
ENDBRANCH   1   7
BRANCH   2  17
ATOM     17  O   UNL d   1       2.835  -0.033  -0.685  0.00  0.00    -0.307 OA
BRANCH  17  18
ATOM     18  C   UNL d   1       2.770  -0.114  -2.040  0.00  0.00     0.293 C 
ATOM     19  O   UNL d   1       1.740  -0.173  -2.691  0.00  0.00    -0.259 OA
BRANCH  18  20
ATOM     20  C   UNL d   1       4.105  -0.050  -2.678  0.00  0.00     0.039 A 
ATOM     21  C   UNL d   1       4.146  -0.183  -4.074  0.00  0.00     0.017 A 
ATOM     22  C   UNL d   1       5.343  -0.017  -4.765  0.00  0.00     0.001 A 
ATOM     23  C   UNL d   1       6.511   0.275  -4.064  0.00  0.00     0.000 A 
ATOM     24  C   UNL d   1       6.487   0.372  -2.671  0.00  0.00     0.001 A 
ATOM     25  C   UNL d   1       5.286   0.206  -1.974  0.00  0.00     0.017 A 
ENDBRANCH  18  20
ENDBRANCH  17  18
ENDBRANCH   2  17
BRANCH   3  26
ATOM     26  O   UNL d   1      -1.508  -2.287  -0.128  0.00  0.00    -0.283 OA
BRANCH  26  27
ATOM     27  C   UNL d   1      -1.489  -3.460   0.543  0.00  0.00     0.295 C 
ATOM     28  O   UNL d   1      -0.818  -3.695   1.535  0.00  0.00    -0.259 OA
BRANCH  27  29
ATOM     29  C   UNL d   1      -2.415  -4.447  -0.095  0.00  0.00     0.039 A 
ATOM     30  C   UNL d   1      -2.485  -5.740   0.446  0.00  0.00     0.017 A 
ATOM     31  C   UNL d   1      -3.341  -6.697  -0.114  0.00  0.00     0.001 A 
ATOM     32  C   UNL d   1      -4.132  -6.369  -1.212  0.00  0.00     0.000 A 
ATOM     33  C   UNL d   1      -4.072  -5.085  -1.754  0.00  0.00     0.001 A 
ATOM     34  C   UNL d   1      -3.217  -4.127  -1.200  0.00  0.00     0.017 A 
ENDBRANCH  27  29
ENDBRANCH  26  27
ENDBRANCH   3  26
BRANCH   4  35
ATOM     35  O   UNL d   1       1.506   2.406   0.193  0.00  0.00    -0.307 OA
BRANCH  35  36
ATOM     36  C   UNL d   1       1.927   3.290  -0.753  0.00  0.00     0.293 C 
ATOM     37  O   UNL d   1       1.681   3.227  -1.946  0.00  0.00    -0.259 OA
BRANCH  36  38
ATOM     38  C   UNL d   1       2.751   4.388  -0.167  0.00  0.00     0.039 A 
ATOM     39  C   UNL d   1       3.358   5.306  -1.040  0.00  0.00     0.017 A 
ATOM     40  C   UNL d   1       4.148   6.348  -0.542  0.00  0.00     0.001 A 
ATOM     41  C   UNL d   1       4.335   6.482   0.832  0.00  0.00     0.000 A 
ATOM     42  C   UNL d   1       3.727   5.582   1.708  0.00  0.00     0.001 A 
ATOM     43  C   UNL d   1       2.937   4.537   1.212  0.00  0.00     0.017 A 
ENDBRANCH  36  38
ENDBRANCH  35  36
ENDBRANCH   4  35
BRANCH   6  44
ATOM     44  C   UNL d   1      -1.475   2.396   0.142  0.00  0.00     0.213 C 
BRANCH  44  45
ATOM     45  O   UNL d   1      -2.749   2.324   0.822  0.00  0.00    -0.315 OA
BRANCH  45  46
ATOM     46  C   UNL d   1      -2.746   2.651   2.137  0.00  0.00     0.293 C 
ATOM     47  O   UNL d   1      -1.759   2.958   2.787  0.00  0.00    -0.259 OA
BRANCH  46  48
ATOM     48  C   UNL d   1      -4.124   2.585   2.704  0.00  0.00     0.039 A 
ATOM     49  C   UNL d   1      -4.300   2.881   4.064  0.00  0.00     0.017 A 
ATOM     50  C   UNL d   1      -5.574   2.842   4.638  0.00  0.00     0.001 A 
ATOM     51  C   UNL d   1      -6.680   2.507   3.858  0.00  0.00     0.000 A 
ATOM     52  C   UNL d   1      -6.515   2.209   2.506  0.00  0.00     0.001 A 
ATOM     53  C   UNL d   1      -5.242   2.247   1.929  0.00  0.00     0.017 A 
ENDBRANCH  46  48
ENDBRANCH  45  46
ENDBRANCH  44  45
ENDBRANCH   6  44
TORSDOF 15
