REMARK  5 active torsions:
REMARK  status: ('A' for Active; 'I' for Inactive)
REMARK    1  A    between atoms: C_11  and  N_1 
REMARK    2  A    between atoms: C_14  and  C_6 
REMARK    3  A    between atoms: C_10  and  C_11 
REMARK    4  A    between atoms: O_18  and  C_14 
REMARK    5  A    between atoms: C_20  and  O_18 
ROOT
ATOM      1  C   UNL d   1       2.721  -4.428  -0.616  0.00  0.00     0.115 A 
ATOM      2  N   UNL d   1       1.571  -3.755  -1.042  0.00  0.00    -0.347 N 
ATOM      3  HN  UNL d   1       1.309  -3.610  -2.018  1.00  0.00     0.166 HD
ATOM      4  C   UNL d   1       0.873  -3.333  -0.007  0.00  0.00     0.071 A 
ATOM      5  C   UNL d   1       2.832  -4.540   0.758  0.00  0.00     0.087 A 
ATOM      6  S   UNL d   1       1.511  -3.775   1.530  0.00  0.00    -0.084 SA
ENDROOT
BRANCH   4   7
ATOM      7  C   UNL d   1      -0.412  -2.576  -0.102  0.00  0.00     0.213 C 
BRANCH   7   8
ATOM      8  N   UNL d   1      -0.173  -1.137  -0.123  0.00  0.00    -0.289 N 
ATOM      9  N   UNL d   1      -0.204  -0.467   1.055  0.00  0.00    -0.301 N 
ATOM     10  C   UNL d   1      -0.046   0.819   0.716  0.00  0.00     0.041 A 
ATOM     11  HN  UNL d   1      -0.322  -0.855   1.991  1.00  0.00     0.187 HD
ATOM     12  C   UNL d   1      -0.026   1.871   1.762  0.00  0.00     0.071 C 
ATOM     13  C   UNL d   1       0.069   0.959  -0.678  0.00  0.00     0.058 A 
ATOM     14  C   UNL d   1      -0.021  -0.307  -1.212  0.00  0.00     0.044 A 
ATOM     15 BR   UNL d   1       0.281   2.578  -1.597  0.00  0.00    -0.047 Br
ATOM     16  C   UNL d   1       0.026  -0.752  -2.627  0.00  0.00     0.071 C 
ENDBRANCH   7   8
ENDBRANCH   4   7
BRANCH   1  17
ATOM     17  C   UNL d   1       3.747  -4.905  -1.547  0.00  0.00     0.310 C 
ATOM     18  O   UNL d   1       4.803  -5.411  -1.179  0.00  0.00    -0.258 OA
BRANCH  17  19
ATOM     19  O   UNL d   1       3.428  -4.627  -2.843  0.00  0.00    -0.317 OA
BRANCH  19  20
ATOM     20  C   UNL d   1       4.529  -4.596  -3.756  0.00  0.00     0.175 C 
ATOM     21  C   UNL d   1       5.116  -3.196  -3.731  0.00  0.00     0.034 C 
ENDBRANCH  19  20
ENDBRANCH  17  19
ENDBRANCH   1  17
TORSDOF 5
