REMARK  3 active torsions:
REMARK  status: ('A' for Active; 'I' for Inactive)
REMARK    1  A    between atoms: C_5  and  N_1 
REMARK    2  A    between atoms: S_13  and  C_12 
REMARK    3  A    between atoms: C_15  and  S_13 
ROOT
ATOM      1  C   UNL d   1       2.100  -1.501   0.009  0.00  0.00     0.141 A 
ATOM      2  N   UNL d   1       3.071  -1.341   0.933  0.00  0.00    -0.283 N 
ATOM      3  HN  UNL d   1       2.971  -0.622   1.650  1.00  0.00     0.188 HD
ATOM      4  N   UNL d   1       4.192  -2.136   0.917  0.00  0.00    -0.292 N 
ATOM      5  HN  UNL d   1       4.925  -1.997   1.613  1.00  0.00     0.187 HD
ATOM      6  C   UNL d   1       4.325  -3.100  -0.017  0.00  0.00     0.089 A 
ATOM      7  C   UNL d   1       2.225  -2.470  -0.981  0.00  0.00     0.054 A 
ATOM      8  C   UNL d   1       3.359  -3.284  -0.992  0.00  0.00     0.042 A 
ENDROOT
BRANCH   1   9
ATOM      9  N   UNL d   1       0.916  -0.703   0.085  0.00  0.00    -0.243 N 
ATOM     10  N   UNL d   1      -0.123  -0.947  -0.772  0.00  0.00    -0.297 N 
ATOM     11  C   UNL d   1      -1.118  -0.162  -0.356  0.00  0.00     0.024 A 
ATOM     12  HN  UNL d   1      -0.135  -1.593  -1.562  1.00  0.00     0.187 HD
ATOM     13  C   UNL d   1      -2.446  -0.198  -1.015  0.00  0.00     0.070 C 
ATOM     14  C   UNL d   1      -0.724   0.645   0.723  0.00  0.00     0.052 A 
ATOM     15  C   UNL d   1       0.596   0.324   0.970  0.00  0.00     0.034 A 
ATOM     16  C   UNL d   1       1.490   0.939   1.986  0.00  0.00     0.070 C 
ENDBRANCH   1   9
BRANCH   6  17
ATOM     17  S   UNL d   1       5.789  -4.100   0.038  0.00  0.00    -0.071 SA
BRANCH  17  18
ATOM     18  C   UNL d   1       5.303  -5.385   1.177  0.00  0.00     0.007 A 
ATOM     19  C   UNL d   1       5.412  -6.721   0.766  0.00  0.00     0.020 A 
ATOM     20  C   UNL d   1       5.082  -7.761   1.640  0.00  0.00     0.025 A 
ATOM     21  C   UNL d   1       4.646  -7.470   2.929  0.00  0.00     0.034 A 
ATOM     22  C   UNL d   1       4.537  -6.146   3.354  0.00  0.00     0.025 A 
ATOM     23 CL   UNL d   1       4.248  -8.751   4.006  0.00  0.00    -0.084 Cl
ATOM     24  C   UNL d   1       4.871  -5.106   2.478  0.00  0.00     0.020 A 
ENDBRANCH  17  18
ENDBRANCH   6  17
TORSDOF 3
