REMARK  5 active torsions:
REMARK  status: ('A' for Active; 'I' for Inactive)
REMARK    1  A    between atoms: N_5  and  C_1 
REMARK    2  A    between atoms: C_10  and  C_4 
REMARK       I    between atoms: C_6  and  N_5 
REMARK       I    between atoms: N_13  and  C_6 
REMARK    3  A    between atoms: C_8  and  O_14 
REMARK    4  A    between atoms: C_22  and  N_13 
REMARK    5  A    between atoms: O_14  and  C_23 
ROOT
ATOM      1  N   UNL d   1       0.142  -2.440  -0.616  0.00  0.00    -0.288 N 
ATOM      2  C   UNL d   1       1.121  -3.366  -0.431  0.00  0.00     0.326 C 
ATOM      3  N   UNL d   1       2.359  -2.911  -0.073  0.00  0.00    -0.309 N 
ATOM      4  O   UNL d   1       0.824  -4.537  -0.668  0.00  0.00    -0.247 OA
ATOM      5  H   UNL d   1      -0.716  -2.812  -0.995  0.00  0.00     0.172 HD
ATOM      6  H   UNL d   1       2.452  -1.902  -0.021  0.00  0.00     0.170 HD
ENDROOT
BRANCH   1   7
ATOM      7  C   UNL d   1       0.133  -1.134  -0.227  0.00  0.00     0.152 A 
ATOM      8  N   UNL d   1       1.018  -0.457   0.459  0.00  0.00    -0.335 N 
ATOM      9  C   UNL d   1       0.488   0.803   0.755  0.00  0.00     0.051 A 
ATOM     10  HN  UNL d   1       1.942  -0.792   0.732  1.00  0.00     0.168 HD
ATOM     11  C   UNL d   1      -0.725   1.072   0.144  0.00  0.00     0.083 A 
ATOM     12  S   UNL d   1      -1.287  -0.313  -0.690  0.00  0.00    -0.063 SA
BRANCH   9  13
ATOM     13  C   UNL d   1       1.162   1.726   1.673  0.00  0.00    -0.006 A 
ATOM     14  C   UNL d   1       2.474   1.460   2.087  0.00  0.00     0.059 A 
ATOM     15  C   UNL d   1       3.102   2.295   3.013  0.00  0.00     0.155 A 
ATOM     16  F   UNL d   1       4.354   2.017   3.402  0.00  0.00    -0.203 F 
ATOM     17  C   UNL d   1       2.439   3.395   3.539  0.00  0.00     0.154 A 
ATOM     18  C   UNL d   1       1.141   3.684   3.138  0.00  0.00     0.046 A 
ATOM     19  F   UNL d   1       3.038   4.183   4.441  0.00  0.00    -0.203 F 
ATOM     20  C   UNL d   1       0.505   2.852   2.211  0.00  0.00     0.017 A 
ENDBRANCH   9  13
ENDBRANCH   1   7
BRANCH   3  21
ATOM     21  C   UNL d   1       3.520  -3.683   0.146  0.00  0.00     0.036 A 
ATOM     22  C   UNL d   1       3.518  -5.077   0.257  0.00  0.00     0.032 A 
ATOM     23  C   UNL d   1       4.703  -5.776   0.511  0.00  0.00     0.039 A 
ATOM     24  C   UNL d   1       5.901  -5.085   0.665  0.00  0.00     0.078 A 
ATOM     25  C   UNL d   1       5.927  -3.701   0.505  0.00  0.00     0.039 A 
ATOM     26  C   UNL d   1       4.738  -3.003   0.265  0.00  0.00     0.032 A 
BRANCH  24  27
ATOM     27  O   UNL d   1       7.030  -5.819   0.888  0.00  0.00    -0.255 OA
BRANCH  27  28
ATOM     28  C   UNL d   1       7.641  -5.511   2.137  0.00  0.00     0.530 C 
ATOM     29  F   UNL d   1       8.192  -4.278   2.123  0.00  0.00    -0.144 F 
ATOM     30  F   UNL d   1       6.757  -5.597   3.154  0.00  0.00    -0.144 F 
ATOM     31  F   UNL d   1       8.630  -6.404   2.365  0.00  0.00    -0.144 F 
ENDBRANCH  27  28
ENDBRANCH  24  27
ENDBRANCH   3  21
TORSDOF 5
