REMARK  3 active torsions:
REMARK  status: ('A' for Active; 'I' for Inactive)
REMARK       I    between atoms: N_2  and  C_1 
REMARK    1  A    between atoms: C_3  and  C_1 
REMARK       I    between atoms: C_4  and  N_2 
REMARK    2  A    between atoms: O_6  and  C_4 
REMARK    3  A    between atoms: C_5  and  O_6 
ROOT
ATOM      1  C   UNL d   1       0.697  -0.661   0.505  0.00  0.00     0.263 C 
ATOM      2  N   UNL d   1       0.500   0.630   0.962  0.00  0.00    -0.268 N 
ATOM      3  C   UNL d   1       1.115   1.114   2.094  0.00  0.00     0.372 C 
ATOM      4  O   UNL d   1       1.590  -1.411   0.881  0.00  0.00    -0.267 OA
ATOM      5  O   UNL d   1       0.560   1.910   2.847  0.00  0.00    -0.238 OA
ATOM      6  H   UNL d   1      -0.408   1.048   0.813  0.00  0.00     0.174 HD
ENDROOT
BRANCH   1   7
ATOM      7  C   UNL d   1      -0.237  -1.178  -0.526  0.00  0.00     0.075 A 
ATOM      8  C   UNL d   1       0.283  -1.877  -1.633  0.00  0.00     0.051 A 
ATOM      9 CL   UNL d   1       1.973  -1.955  -2.006  0.00  0.00    -0.083 Cl
ATOM     10  C   UNL d   1      -0.575  -2.516  -2.537  0.00  0.00     0.025 A 
ATOM     11  C   UNL d   1      -1.953  -2.449  -2.365  0.00  0.00     0.003 A 
ATOM     12  C   UNL d   1      -2.479  -1.733  -1.292  0.00  0.00     0.025 A 
ATOM     13  C   UNL d   1      -1.630  -1.106  -0.370  0.00  0.00     0.051 A 
ATOM     14 CL   UNL d   1      -2.394  -0.291   0.950  0.00  0.00    -0.083 Cl
ENDBRANCH   1   7
BRANCH   3  15
ATOM     15  O   UNL d   1       2.376   0.580   2.287  0.00  0.00    -0.258 OA
BRANCH  15  16
ATOM     16  C   UNL d   1       2.888   0.551   3.594  0.00  0.00     0.124 A 
ATOM     17  C   UNL d   1       2.311  -0.262   4.578  0.00  0.00     0.069 A 
ATOM     18 CL   UNL d   1       0.860  -1.162   4.312  0.00  0.00    -0.081 Cl
ATOM     19  C   UNL d   1       2.946  -0.410   5.813  0.00  0.00     0.027 A 
ATOM     20  C   UNL d   1       4.161   0.231   6.060  0.00  0.00     0.003 A 
ATOM     21  C   UNL d   1       4.740   1.032   5.075  0.00  0.00     0.027 A 
ATOM     22  C   UNL d   1       4.106   1.192   3.840  0.00  0.00     0.069 A 
ATOM     23 CL   UNL d   1       4.877   2.159   2.636  0.00  0.00    -0.081 Cl
ENDBRANCH  15  16
ENDBRANCH   3  15
TORSDOF 3
