REMARK  4 active torsions:
REMARK  status: ('A' for Active; 'I' for Inactive)
REMARK    1  A    between atoms: C_7  and  C_5 
REMARK    2  A    between atoms: C_10  and  C_7 
REMARK    3  A    between atoms: S_8  and  C_10 
REMARK    4  A    between atoms: C_16  and  S_8 
ROOT
ATOM      1  N   UNL d   1       0.969   1.145   0.022  0.00  0.00    -0.327 N 
ATOM      2  C   UNL d   1      -0.336   0.641   0.035  0.00  0.00     0.041 A 
ATOM      3  C   UNL d   1       2.091   0.367  -0.081  0.00  0.00     0.222 C 
ATOM      4  C   UNL d   1      -0.551  -0.737   0.149  0.00  0.00    -0.030 A 
ATOM      5  C   UNL d   1      -2.953  -0.360   0.084  0.00  0.00     0.011 A 
ATOM      6  C   UNL d   1      -1.865  -1.237   0.188  0.00  0.00     0.024 A 
ATOM      7  C   UNL d   1      -1.413   1.520  -0.052  0.00  0.00     0.031 A 
ATOM      8  O   UNL d   1       3.216   0.862  -0.033  0.00  0.00    -0.273 OA
ATOM      9  C   UNL d   1      -2.716   1.017  -0.045  0.00  0.00     0.017 A 
ATOM     10  C   UNL d   1       0.637  -1.642   0.331  0.00  0.00     0.050 C 
ATOM     11  C   UNL d   1       1.860  -1.094  -0.392  0.00  0.00     0.108 C 
ATOM     12  H   UNL d   1       1.130   2.142   0.085  0.00  0.00     0.169 HD
ENDROOT
BRANCH   5  13
ATOM     13  C   UNL d   1      -4.377  -0.821   0.075  0.00  0.00     0.169 C 
ATOM     14  O   UNL d   1      -5.206  -0.119  -0.509  0.00  0.00    -0.291 OA
BRANCH  13  15
ATOM     15  C   UNL d   1      -4.789  -2.141   0.703  0.00  0.00     0.163 C 
BRANCH  15  16
ATOM     16  S   UNL d   1      -4.306  -2.235   2.457  0.00  0.00    -0.122 SA
BRANCH  16  17
ATOM     17  C   UNL d   1      -4.877  -3.868   2.909  0.00  0.00     0.001 A 
ATOM     18  C   UNL d   1      -4.029  -4.672   3.682  0.00  0.00     0.018 A 
ATOM     19  C   UNL d   1      -4.448  -5.929   4.130  0.00  0.00     0.001 A 
ATOM     20  C   UNL d   1      -5.723  -6.391   3.814  0.00  0.00     0.000 A 
ATOM     21  C   UNL d   1      -6.576  -5.599   3.050  0.00  0.00     0.001 A 
ATOM     22  C   UNL d   1      -6.158  -4.341   2.601  0.00  0.00     0.018 A 
ENDBRANCH  16  17
ENDBRANCH  15  16
ENDBRANCH  13  15
ENDBRANCH   5  13
TORSDOF 4
