REMARK  1 active torsions:
REMARK  status: ('A' for Active; 'I' for Inactive)
REMARK    1  A    between atoms: C_7  and  C_3 
ROOT
ATOM      1  C   UNL d   1      -0.015  -0.695  -0.012  0.00  0.00     0.025 A 
ATOM      2  C   UNL d   1      -2.556  -0.663   0.015  0.00  0.00     0.059 A 
ATOM      3  C   UNL d   1      -1.288  -1.515   0.100  0.00  0.00     0.121 A 
ATOM      4  C   UNL d   1      -0.038   0.654  -0.051  0.00  0.00     0.020 A 
ATOM      5  N   UNL d   1      -1.249   1.322  -0.045  0.00  0.00    -0.362 N 
ATOM      6  C   UNL d   1      -2.481   0.688  -0.035  0.00  0.00     0.023 A 
ATOM      7  C   UNL d   1      -3.811  -1.343  -0.016  0.00  0.00     0.098 C 
ATOM      8  C   UNL d   1       1.277  -1.425  -0.155  0.00  0.00     0.158 C 
ATOM      9  N   UNL d   1      -4.833  -1.889  -0.073  0.00  0.00    -0.192 NA
ATOM     10  O   UNL d   1       1.308  -2.653  -0.207  0.00  0.00    -0.293 OA
ATOM     11  C   UNL d   1       1.213   1.497  -0.095  0.00  0.00     0.058 C 
ATOM     12  C   UNL d   1      -3.707   1.569  -0.079  0.00  0.00     0.069 C 
ATOM     13  C   UNL d   1       2.533  -0.614  -0.377  0.00  0.00     0.084 C 
ATOM     14  C   UNL d   1       2.453   0.722   0.339  0.00  0.00     0.014 C 
ATOM     15  H   UNL d   1      -1.234   2.338  -0.048  0.00  0.00     0.165 HD
ENDROOT
BRANCH   3  16
ATOM     16  C   UNL d   1      -1.295  -2.332   1.370  0.00  0.00     0.039 A 
ATOM     17  N   UNL d   1      -1.346  -1.738   2.616  0.00  0.00    -0.354 N 
ATOM     18  C   UNL d   1      -1.326  -2.728   3.479  0.00  0.00     0.180 A 
ATOM     19  HN  UNL d   1      -1.389  -0.741   2.823  1.00  0.00     0.166 HD
ATOM     20  N   UNL d   1      -1.267  -3.939   2.851  0.00  0.00    -0.360 N 
ATOM     21  C   UNL d   1      -1.259  -3.706   1.506  0.00  0.00     0.115 A 
ATOM     22  H   UNL d   1      -1.230  -4.841   3.304  0.00  0.00     0.166 HD
ENDBRANCH   3  16
TORSDOF 1
