REMARK  6 active torsions:
REMARK  status: ('A' for Active; 'I' for Inactive)
REMARK    1  A    between atoms: C_6  and  C_1 
REMARK    2  A    between atoms: C_9  and  N_2 
REMARK       I    between atoms: N_8  and  C_6 
REMARK    3  A    between atoms: C_10  and  N_8 
REMARK    4  A    between atoms: C_11  and  N_8 
REMARK    5  A    between atoms: C_15  and  C_10 
REMARK    6  A    between atoms: C_20  and  C_11 
ROOT
ATOM      1  C   UNL d   1      -0.492   2.394   0.477  0.00  0.00     0.257 C 
ATOM      2  N   UNL d   1       0.119   3.585   0.050  0.00  0.00    -0.339 N 
ATOM      3  O   UNL d   1      -1.622   2.404   0.968  0.00  0.00    -0.267 OA
ENDROOT
BRANCH   1   4
ATOM      4  C   UNL d   1       0.210   1.131   0.293  0.00  0.00     0.073 C 
ATOM      5  C   UNL d   1       0.100   0.006   1.106  0.00  0.00     0.048 C 
ATOM      6  N   UNL d   1       0.818  -1.003   0.483  0.00  0.00    -0.260 N 
ATOM      7  C   UNL d   1      -0.560  -0.122   2.436  0.00  0.00     0.071 C 
ATOM      8  N   UNL d   1       1.544  -0.521  -0.555  0.00  0.00    -0.304 N 
ATOM      9  C   UNL d   1       1.087   0.719  -0.729  0.00  0.00     0.126 C 
ATOM     10  HN  UNL d   1       2.275  -0.998  -1.083  1.00  0.00     0.186 HD
BRANCH   6  11
ATOM     11  C   UNL d   1       0.895  -2.385   0.815  0.00  0.00     0.056 A 
ATOM     12  C   UNL d   1      -0.204  -3.058   1.366  0.00  0.00     0.033 A 
ATOM     13  C   UNL d   1      -0.080  -4.393   1.760  0.00  0.00     0.026 A 
ATOM     14  C   UNL d   1       1.139  -5.051   1.605  0.00  0.00     0.034 A 
ATOM     15  C   UNL d   1       2.221  -4.404   1.011  0.00  0.00     0.026 A 
ATOM     16 CL   UNL d   1       1.310  -6.671   2.160  0.00  0.00    -0.084 Cl
ATOM     17  C   UNL d   1       2.094  -3.077   0.591  0.00  0.00     0.033 A 
ENDBRANCH   6  11
ENDBRANCH   1   4
BRANCH   2  18
ATOM     18  C   UNL d   1      -0.734   4.772  -0.082  0.00  0.00     0.166 C 
BRANCH  18  19
ATOM     19  C   UNL d   1      -0.629   5.809   1.006  0.00  0.00    -0.025 A 
ATOM     20  C   UNL d   1      -0.660   7.161   0.667  0.00  0.00     0.096 A 
ATOM     21  N   UNL d   1      -0.624   8.178   1.557  0.00  0.00    -0.375 N 
ATOM     22  C   UNL d   1      -0.569   7.838   2.861  0.00  0.00     0.087 A 
ATOM     23  HN  UNL d   1      -0.637   9.153   1.258  1.00  0.00     0.164 HD
ATOM     24  C   UNL d   1      -0.551   6.527   3.308  0.00  0.00     0.018 A 
ATOM     25  C   UNL d   1      -0.590   5.499   2.366  0.00  0.00     0.011 A 
ENDBRANCH  18  19
ENDBRANCH   2  18
BRANCH   2  26
ATOM     26  C   UNL d   1       1.573   3.780   0.095  0.00  0.00     0.165 C 
BRANCH  26  27
ATOM     27  C   UNL d   1       2.310   3.952  -1.216  0.00  0.00    -0.040 A 
ATOM     28  C   UNL d   1       1.696   4.178  -2.455  0.00  0.00     0.009 A 
ATOM     29  C   UNL d   1       2.464   4.402  -3.603  0.00  0.00     0.001 A 
ATOM     30  C   UNL d   1       3.856   4.386  -3.535  0.00  0.00     0.000 A 
ATOM     31  C   UNL d   1       4.483   4.138  -2.320  0.00  0.00     0.001 A 
ATOM     32  C   UNL d   1       3.716   3.927  -1.172  0.00  0.00     0.009 A 
ENDBRANCH  26  27
ENDBRANCH   2  26
TORSDOF 6
