REMARK  3 active torsions:
REMARK  status: ('A' for Active; 'I' for Inactive)
REMARK    1  A    between atoms: N_7  and  C_1 
REMARK    2  A    between atoms: C_12  and  C_6 
REMARK    3  A    between atoms: C_10  and  N_7 
ROOT
ATOM      1  C   UNL d   1      -0.480  -1.341  -0.131  0.00  0.00     0.079 C 
ATOM      2  C   UNL d   1      -1.367  -0.331   0.023  0.00  0.00     0.140 C 
ATOM      3  S   UNL d   1       1.158  -1.036  -0.677  0.00  0.00    -0.086 SA
ATOM      4  C   UNL d   1      -1.010   1.104  -0.090  0.00  0.00     0.265 C 
ATOM      5  N   UNL d   1       0.287   1.472  -0.215  0.00  0.00    -0.339 N 
ATOM      6  C   UNL d   1       1.454   0.645  -0.129  0.00  0.00     0.186 C 
ATOM      7  C   UNL d   1      -2.754  -0.613   0.243  0.00  0.00     0.107 C 
ATOM      8  N   UNL d   1      -3.878  -0.853   0.395  0.00  0.00    -0.191 NA
ATOM      9  O   UNL d   1      -1.864   1.987  -0.050  0.00  0.00    -0.267 OA
ATOM     10  H   UNL d   1       0.424   2.475  -0.222  0.00  0.00     0.164 HD
ENDROOT
BRANCH   1  11
ATOM     11  N   UNL d   1      -0.861  -2.677   0.009  0.00  0.00    -0.251 NA
ATOM     12  H   UNL d   1      -0.362  -3.274  -0.655  0.00  0.00     0.134 HD
BRANCH  11  13
ATOM     13  C   UNL d   1      -0.891  -3.367   1.261  0.00  0.00     0.035 A 
ATOM     14  C   UNL d   1      -1.226  -4.737   1.297  0.00  0.00     0.055 A 
ATOM     15 CL   UNL d   1      -1.526  -5.615  -0.165  0.00  0.00    -0.082 Cl
ATOM     16  C   UNL d   1      -1.313  -5.429   2.509  0.00  0.00     0.026 A 
ATOM     17  C   UNL d   1      -1.065  -4.765   3.708  0.00  0.00     0.002 A 
ATOM     18  C   UNL d   1      -0.741  -3.411   3.695  0.00  0.00     0.002 A 
ATOM     19  C   UNL d   1      -0.668  -2.715   2.484  0.00  0.00     0.025 A 
ENDBRANCH  11  13
ENDBRANCH   1  11
BRANCH   6  20
ATOM     20  C   UNL d   1       2.186   0.737   1.194  0.00  0.00    -0.023 A 
ATOM     21  C   UNL d   1       1.554   1.020   2.411  0.00  0.00     0.027 A 
ATOM     22  C   UNL d   1       2.326   1.115   3.561  0.00  0.00     0.088 A 
ATOM     23  N   UNL d   1       3.663   0.941   3.589  0.00  0.00    -0.375 N 
ATOM     24  C   UNL d   1       4.262   0.658   2.417  0.00  0.00     0.088 A 
ATOM     25  HN  UNL d   1       4.195   1.021   4.456  1.00  0.00     0.164 HD
ATOM     26  C   UNL d   1       3.579   0.545   1.216  0.00  0.00     0.027 A 
ENDBRANCH   6  20
TORSDOF 3
