REMARK  5 active torsions:
REMARK  status: ('A' for Active; 'I' for Inactive)
REMARK    1  A    between atoms: C_8  and  C_1 
REMARK    2  A    between atoms: N_7  and  C_2 
REMARK    3  A    between atoms: C_15  and  N_3 
REMARK    4  A    between atoms: S_9  and  C_8 
REMARK    5  A    between atoms: C_13  and  S_9 
ROOT
ATOM      1  C   UNL d   1      -0.207  -1.214  -0.082  0.00  0.00     0.143 C 
ATOM      2  C   UNL d   1       1.098  -0.721  -0.046  0.00  0.00     0.159 C 
ATOM      3  N   UNL d   1      -0.955  -0.141   0.371  0.00  0.00    -0.286 N 
ATOM      4  N   UNL d   1      -0.259   1.018   0.411  0.00  0.00    -0.300 N 
ATOM      5  HN  UNL d   1      -0.620   1.954   0.597  1.00  0.00     0.187 HD
ATOM      6  C   UNL d   1       1.003   0.670   0.154  0.00  0.00     0.057 C 
ATOM      7  C   UNL d   1       2.063   1.708   0.128  0.00  0.00     0.072 C 
ENDROOT
BRANCH   1   8
ATOM      8  C   UNL d   1      -0.742  -2.512  -0.464  0.00  0.00     0.244 C 
ATOM      9  O   UNL d   1      -1.826  -2.943  -0.095  0.00  0.00    -0.278 OA
BRANCH   8  10
ATOM     10  S   UNL d   1       0.293  -3.423  -1.550  0.00  0.00    -0.046 SA
BRANCH  10  11
ATOM     11  C   UNL d   1      -0.709  -4.290  -2.733  0.00  0.00     0.010 A 
ATOM     12  C   UNL d   1      -0.128  -4.501  -3.996  0.00  0.00     0.038 A 
ATOM     13  C   UNL d   1      -0.748  -5.322  -4.938  0.00  0.00     0.012 A 
ATOM     14 BR   UNL d   1       0.096  -5.643  -6.600  0.00  0.00    -0.051 Br
ATOM     15  C   UNL d   1      -1.961  -5.934  -4.649  0.00  0.00     0.019 A 
ATOM     16  C   UNL d   1      -2.562  -5.708  -3.410  0.00  0.00     0.003 A 
ATOM     17  C   UNL d   1      -1.937  -4.895  -2.456  0.00  0.00     0.019 A 
ENDBRANCH  10  11
ENDBRANCH   8  10
ENDBRANCH   1   8
BRANCH   2  18
ATOM     18  N   UNL d   1       2.310  -1.460  -0.170  0.00  0.00    -0.111 N 
ATOM     19  O   UNL d   1       2.470  -2.397   0.625  0.00  0.00    -0.532 OA
ATOM     20  O   UNL d   1       3.107  -1.091  -1.038  0.00  0.00    -0.532 OA
ENDBRANCH   2  18
BRANCH   3  21
ATOM     21  C   UNL d   1      -2.320  -0.109   0.875  0.00  0.00     0.145 C 
ATOM     22  C   UNL d   1      -3.191   0.946   0.212  0.00  0.00     0.028 C 
ENDBRANCH   3  21
TORSDOF 5
