REMARK  4 active torsions:
REMARK  status: ('A' for Active; 'I' for Inactive)
REMARK    1  A    between atoms: N_6  and  C_1 
REMARK    2  A    between atoms: C_2  and  S_10 
REMARK    3  A    between atoms: S_10  and  C_5 
REMARK    4  A    between atoms: O_18  and  C_9 
ROOT
ATOM      1  C   UNL d   1       1.651  -3.623  -0.067  0.00  0.00     0.171 A 
ATOM      2  N   UNL d   1       2.534  -3.506   0.975  0.00  0.00    -0.295 N 
ATOM      3  N   UNL d   1       2.161  -4.409  -0.989  0.00  0.00    -0.276 N 
ATOM      4  HN  UNL d   1       1.715  -4.672  -1.868  1.00  0.00     0.189 HD
ATOM      5  C   UNL d   1       3.617  -4.268   0.616  0.00  0.00     0.240 A 
ATOM      6  N   UNL d   1       3.404  -4.815  -0.557  0.00  0.00    -0.263 N 
ATOM      7  HN  UNL d   1       4.045  -5.430  -1.060  1.00  0.00     0.190 HD
ATOM      8  C   UNL d   1       2.403  -2.761   2.198  0.00  0.00     0.162 C 
ENDROOT
BRANCH   1   9
ATOM      9  S   UNL d   1       0.077  -2.906  -0.075  0.00  0.00    -0.027 SA
BRANCH   9  10
ATOM     10  C   UNL d   1      -0.104  -2.696  -1.804  0.00  0.00     0.121 A 
ATOM     11  S   UNL d   1      -0.744  -3.912  -2.840  0.00  0.00    -0.039 SA
ATOM     12  C   UNL d   1      -0.659  -2.815  -4.134  0.00  0.00     0.161 A 
ATOM     13  C   UNL d   1      -0.177  -1.597  -3.717  0.00  0.00     0.133 A 
ATOM     14  N   UNL d   1       0.131  -1.527  -2.368  0.00  0.00    -0.352 N 
ATOM     15  HN  UNL d   1       0.484  -0.700  -1.885  1.00  0.00     0.166 HD
BRANCH  12  16
ATOM     16  N   UNL d   1      -1.078  -3.165  -5.454  0.00  0.00    -0.107 N 
ATOM     17  O   UNL d   1      -0.988  -2.275  -6.310  0.00  0.00    -0.531 OA
ATOM     18  O   UNL d   1      -1.509  -4.308  -5.649  0.00  0.00    -0.531 OA
ENDBRANCH  12  16
ENDBRANCH   9  10
ENDBRANCH   1   9
BRANCH   5  19
ATOM     19  O   UNL d   1       4.722  -4.451   1.320  0.00  0.00    -0.331 OA
ATOM     20  H   UNL d   1       4.695  -3.919   2.127  0.00  0.00     0.221 HD
ENDBRANCH   5  19
TORSDOF 4
