REMARK  4 active torsions:
REMARK  status: ('A' for Active; 'I' for Inactive)
REMARK    1  A    between atoms: C_8  and  C_1 
REMARK    2  A    between atoms: C_13  and  C_7 
REMARK       I    between atoms: C_9  and  N_11 
REMARK       I    between atoms: N_12  and  C_9 
REMARK    3  A    between atoms: N_11  and  C_10 
REMARK    4  A    between atoms: C_17  and  N_12 
ROOT
ATOM      1  C   UNL d   1      -0.489  -2.588  -1.046  0.00  0.00     0.043 C 
ATOM      2  C   UNL d   1      -1.751  -3.017  -1.497  0.00  0.00     0.051 C 
ATOM      3  C   UNL d   1       0.355  -3.544  -0.449  0.00  0.00     0.018 C 
ATOM      4  C   UNL d   1      -2.002  -4.394  -1.624  0.00  0.00     0.030 C 
ATOM      5  C   UNL d   1       0.017  -4.899  -0.428  0.00  0.00     0.001 C 
ATOM      6  C   UNL d   1      -1.134  -5.331  -1.072  0.00  0.00     0.002 C 
ENDROOT
BRANCH   1   7
ATOM      7  C   UNL d   1      -0.014  -1.223  -1.237  0.00  0.00     0.177 A 
ATOM      8  O   UNL d   1       1.080  -0.831  -0.508  0.00  0.00    -0.273 OA
ATOM      9  C   UNL d   1       1.395   0.366  -1.095  0.00  0.00     0.174 A 
ATOM     10  N   UNL d   1       0.567   0.688  -2.067  0.00  0.00    -0.277 N 
ATOM     11  N   UNL d   1      -0.370  -0.326  -2.135  0.00  0.00    -0.277 N 
ATOM     12  HN  UNL d   1       0.609   1.521  -2.655  1.00  0.00     0.189 HD
ATOM     13  HN  UNL d   1      -1.177  -0.372  -2.756  1.00  0.00     0.189 HD
BRANCH   9  14
ATOM     14  C   UNL d   1       2.594   1.029  -0.610  0.00  0.00     0.017 A 
ATOM     15  C   UNL d   1       2.901   1.050   0.759  0.00  0.00     0.017 A 
ATOM     16  C   UNL d   1       4.045   1.707   1.223  0.00  0.00     0.025 A 
ATOM     17  C   UNL d   1       4.899   2.333   0.318  0.00  0.00     0.034 A 
ATOM     18  C   UNL d   1       4.618   2.309  -1.047  0.00  0.00     0.025 A 
ATOM     19 CL   UNL d   1       6.304   3.143   0.890  0.00  0.00    -0.084 Cl
ATOM     20  C   UNL d   1       3.464   1.665  -1.508  0.00  0.00     0.017 A 
ENDBRANCH   9  14
ENDBRANCH   1   7
BRANCH   2  21
ATOM     21  N   UNL d   1      -2.804  -2.090  -1.713  0.00  0.00    -0.308 N 
ATOM     22  C   UNL d   1      -4.073  -2.133  -1.135  0.00  0.00     0.325 C 
ATOM     23  N   UNL d   1      -4.314  -3.211  -0.321  0.00  0.00    -0.309 N 
ATOM     24  O   UNL d   1      -4.849  -1.197  -1.324  0.00  0.00    -0.247 OA
ATOM     25  H   UNL d   1      -3.553  -3.854  -0.217  0.00  0.00     0.170 HD
ATOM     26  H   UNL d   1      -2.554  -1.138  -1.971  0.00  0.00     0.170 HD
BRANCH  23  27
ATOM     27  C   UNL d   1      -5.405  -3.531   0.497  0.00  0.00     0.036 A 
ATOM     28  C   UNL d   1      -6.476  -2.682   0.760  0.00  0.00     0.031 A 
ATOM     29  C   UNL d   1      -7.468  -3.083   1.667  0.00  0.00     0.026 A 
ATOM     30  C   UNL d   1      -7.399  -4.330   2.282  0.00  0.00     0.034 A 
ATOM     31  C   UNL d   1      -6.351  -5.198   2.003  0.00  0.00     0.026 A 
ATOM     32 CL   UNL d   1      -8.613  -4.808   3.409  0.00  0.00    -0.084 Cl
ATOM     33  C   UNL d   1      -5.354  -4.790   1.116  0.00  0.00     0.031 A 
ENDBRANCH  23  27
ENDBRANCH   2  21
TORSDOF 4
