REMARK  11 active torsions:
REMARK  status: ('A' for Active; 'I' for Inactive)
REMARK    1  A    between atoms: O_7  and  C_1 
REMARK    2  A    between atoms: C_8  and  C_2 
REMARK    3  A    between atoms: C_9  and  C_3 
REMARK    4  A    between atoms: O_10  and  C_4 
REMARK    5  A    between atoms: O_15  and  C_5 
REMARK    6  A    between atoms: C_16  and  O_7 
REMARK    7  A    between atoms: C_17  and  O_10 
REMARK    8  A    between atoms: C_13  and  C_20 
REMARK    9  A    between atoms: C_20  and  O_15 
REMARK   10  A    between atoms: C_18  and  C_16 
REMARK   11  A    between atoms: C_19  and  C_17 
ROOT
ATOM      1  C   UNL d   1       1.489  -0.238   0.364  0.00  0.00     0.102 C 
ATOM      2  C   UNL d   1       0.603  -1.350   0.289  0.00  0.00     0.077 C 
ATOM      3  C   UNL d   1       0.985   1.070   0.118  0.00  0.00     0.077 C 
ATOM      4  C   UNL d   1      -0.780  -1.102   0.133  0.00  0.00     0.088 C 
ATOM      5  C   UNL d   1      -0.382   1.299  -0.106  0.00  0.00     0.088 C 
ATOM      6  C   UNL d   1      -1.236   0.204  -0.107  0.00  0.00     0.075 C 
ENDROOT
BRANCH   1   7
ATOM      7  O   UNL d   1       2.839  -0.281   0.673  0.00  0.00    -0.344 OA
BRANCH   7   8
ATOM      8  C   UNL d   1       3.137  -1.077   1.817  0.00  0.00     0.214 C 
BRANCH   8   9
ATOM      9  C   UNL d   1       4.068  -0.562   2.886  0.00  0.00    -0.034 A 
ATOM     10  C   UNL d   1       4.021  -1.235   4.126  0.00  0.00     0.009 A 
ATOM     11  C   UNL d   1       4.902  -0.925   5.154  0.00  0.00     0.001 A 
ATOM     12  C   UNL d   1       5.855   0.066   4.958  0.00  0.00     0.000 A 
ATOM     13  C   UNL d   1       5.918   0.738   3.730  0.00  0.00     0.001 A 
ATOM     14  C   UNL d   1       5.030   0.426   2.693  0.00  0.00     0.009 A 
ENDBRANCH   8   9
ENDBRANCH   7   8
ENDBRANCH   1   7
BRANCH   2  15
ATOM     15  C   UNL d   1       1.015  -2.773   0.031  0.00  0.00     0.161 C 
ATOM     16  O   UNL d   1       0.693  -3.269  -1.051  0.00  0.00    -0.293 OA
ATOM     17  C   UNL d   1       1.776  -3.618   1.020  0.00  0.00     0.097 C 
ENDBRANCH   2  15
BRANCH   3  18
ATOM     18  C   UNL d   1       1.912   2.233   0.036  0.00  0.00     0.161 C 
ATOM     19  O   UNL d   1       1.716   3.239   0.714  0.00  0.00    -0.293 OA
ATOM     20  C   UNL d   1       3.068   2.147  -0.930  0.00  0.00     0.097 C 
ENDBRANCH   3  18
BRANCH   4  21
ATOM     21  O   UNL d   1      -1.660  -2.167   0.252  0.00  0.00    -0.345 OA
BRANCH  21  22
ATOM     22  C   UNL d   1      -3.041  -1.798   0.382  0.00  0.00     0.214 C 
BRANCH  22  23
ATOM     23  C   UNL d   1      -3.959  -2.869   0.902  0.00  0.00    -0.034 A 
ATOM     24  C   UNL d   1      -3.509  -4.107   1.352  0.00  0.00     0.009 A 
ATOM     25  C   UNL d   1      -4.405  -5.017   1.921  0.00  0.00     0.001 A 
ATOM     26  C   UNL d   1      -5.745  -4.682   2.041  0.00  0.00     0.000 A 
ATOM     27  C   UNL d   1      -6.221  -3.460   1.581  0.00  0.00     0.001 A 
ATOM     28  C   UNL d   1      -5.329  -2.557   1.012  0.00  0.00     0.009 A 
ENDBRANCH  22  23
ENDBRANCH  21  22
ENDBRANCH   4  21
BRANCH   5  29
ATOM     29  O   UNL d   1      -0.816   2.586  -0.298  0.00  0.00    -0.346 OA
BRANCH  29  30
ATOM     30  C   UNL d   1      -2.192   2.820  -0.606  0.00  0.00     0.202 C 
BRANCH  30  31
ATOM     31  C   UNL d   1      -2.573   4.260  -0.413  0.00  0.00    -0.011 C 
ATOM     32  C   UNL d   1      -1.862   5.184   0.252  0.00  0.00     0.009 C 
ENDBRANCH  30  31
ENDBRANCH  29  30
ENDBRANCH   5  29
TORSDOF 11
