REMARK  9 active torsions:
REMARK  status: ('A' for Active; 'I' for Inactive)
REMARK    1  A    between atoms: S_14  and  C_2 
REMARK    2  A    between atoms: C_22  and  C_7 
REMARK    3  A    between atoms: C_17  and  C_10 
REMARK    4  A    between atoms: C_11  and  C_23 
REMARK    5  A    between atoms: C_16  and  S_14 
REMARK    6  A    between atoms: C_15  and  C_16 
REMARK    7  A    between atoms: C_19  and  C_15 
REMARK    8  A    between atoms: S_20  and  C_22 
REMARK    9  A    between atoms: C_23  and  S_20 
ROOT
ATOM      1  N   UNL d   1       0.846   0.075   0.104  0.00  0.00    -0.319 N 
ATOM      2  C   UNL d   1       0.020   1.165   0.099  0.00  0.00     0.162 A 
ATOM      3  N   UNL d   1      -1.232   0.774   0.085  0.00  0.00    -0.278 N 
ATOM      4  HN  UNL d   1      -2.052   1.381   0.096  1.00  0.00     0.189 HD
ATOM      5  N   UNL d   1      -1.239  -0.599   0.053  0.00  0.00    -0.286 N 
ATOM      6  HN  UNL d   1      -2.069  -1.191   0.025  1.00  0.00     0.188 HD
ATOM      7  C   UNL d   1       0.011  -1.023   0.063  0.00  0.00     0.109 A 
ATOM      8  C   UNL d   1       2.285   0.044   0.143  0.00  0.00     0.159 C 
ENDROOT
BRANCH   7   9
ATOM      9  C   UNL d   1       0.450  -2.445   0.002  0.00  0.00     0.152 C 
BRANCH   9  10
ATOM     10  S   UNL d   1       0.737  -3.174   1.643  0.00  0.00    -0.155 SA
BRANCH  10  11
ATOM     11  C   UNL d   1      -0.941  -3.068   2.359  0.00  0.00     0.139 C 
BRANCH  11  12
ATOM     12  C   UNL d   1      -1.981  -3.879   1.641  0.00  0.00     0.060 A 
ATOM     13  N   UNL d   1      -1.921  -5.178   1.411  0.00  0.00    -0.352 N 
ATOM     14  C   UNL d   1      -3.072  -5.607   0.760  0.00  0.00     0.049 A 
ATOM     15  HN  UNL d   1      -1.141  -5.780   1.673  1.00  0.00     0.166 HD
ATOM     16  C   UNL d   1      -4.010  -4.617   0.538  0.00  0.00     0.081 A 
ATOM     17  S   UNL d   1      -3.443  -3.119   1.134  0.00  0.00    -0.086 SA
BRANCH  14  18
ATOM     18  C   UNL d   1      -3.277  -7.005   0.393  0.00  0.00    -0.009 A 
ATOM     19  C   UNL d   1      -2.724  -8.022   1.183  0.00  0.00     0.014 A 
ATOM     20  C   UNL d   1      -2.942  -9.366   0.867  0.00  0.00     0.001 A 
ATOM     21  C   UNL d   1      -3.705  -9.710  -0.247  0.00  0.00     0.000 A 
ATOM     22  C   UNL d   1      -4.244  -8.708  -1.052  0.00  0.00     0.001 A 
ATOM     23  C   UNL d   1      -4.031  -7.363  -0.735  0.00  0.00     0.014 A 
ENDBRANCH  14  18
ENDBRANCH  11  12
ENDBRANCH  10  11
ENDBRANCH   9  10
ENDBRANCH   7   9
BRANCH   2  24
ATOM     24  S   UNL d   1       0.566   2.803   0.041  0.00  0.00    -0.085 SA
BRANCH  24  25
ATOM     25  C   UNL d   1      -0.417   3.544   1.379  0.00  0.00     0.166 C 
BRANCH  25  26
ATOM     26  C   UNL d   1       0.031   3.085   2.758  0.00  0.00     0.169 C 
ATOM     27  O   UNL d   1       0.881   2.214   2.943  0.00  0.00    -0.291 OA
BRANCH  26  28
ATOM     28  C   UNL d   1      -0.590   3.738   3.959  0.00  0.00     0.010 A 
ATOM     29  C   UNL d   1      -1.493   4.805   3.862  0.00  0.00     0.015 A 
ATOM     30  C   UNL d   1      -2.030   5.382   5.019  0.00  0.00     0.001 A 
ATOM     31  C   UNL d   1      -1.675   4.896   6.276  0.00  0.00     0.000 A 
ATOM     32  C   UNL d   1      -0.779   3.836   6.383  0.00  0.00     0.001 A 
ATOM     33  C   UNL d   1      -0.238   3.261   5.231  0.00  0.00     0.015 A 
ENDBRANCH  26  28
ENDBRANCH  25  26
ENDBRANCH  24  25
ENDBRANCH   2  24
TORSDOF 9
