REMARK  4 active torsions:
REMARK  status: ('A' for Active; 'I' for Inactive)
REMARK    1  A    between atoms: O_8  and  C_1 
REMARK    2  A    between atoms: C_13  and  C_4 
REMARK    3  A    between atoms: O_16  and  C_5 
REMARK    4  A    between atoms: C_10  and  O_8 
ROOT
ATOM      1  C   UNL d   1      -0.792   1.149  -0.110  0.00  0.00     0.149 A 
ATOM      2  N   UNL d   1      -0.681  -1.252  -0.352  0.00  0.00    -0.320 N 
ATOM      3  HN  UNL d   1      -1.150  -2.147  -0.496  1.00  0.00     0.169 HD
ATOM      4  C   UNL d   1       0.649  -1.163  -0.165  0.00  0.00     0.117 A 
ATOM      5  C   UNL d   1      -1.347  -0.092  -0.339  0.00  0.00     0.178 A 
ATOM      6  N   UNL d   1       1.313  -0.000  -0.004  0.00  0.00    -0.343 N 
ATOM      7  HN  UNL d   1       2.327   0.018   0.107  1.00  0.00     0.167 HD
ATOM      8  C   UNL d   1       0.586   1.144   0.003  0.00  0.00     0.045 A 
ATOM      9  C   UNL d   1       1.355   2.427   0.124  0.00  0.00     0.071 C 
ENDROOT
BRANCH   1  10
ATOM     10  O   UNL d   1      -1.460   2.341  -0.066  0.00  0.00    -0.303 OA
BRANCH  10  11
ATOM     11  C   UNL d   1      -2.647   2.439   0.631  0.00  0.00     0.098 A 
ATOM     12  C   UNL d   1      -3.571   3.403   0.200  0.00  0.00     0.069 A 
ATOM     13  C   UNL d   1      -4.798   3.553   0.849  0.00  0.00     0.050 A 
ATOM     14 CL   UNL d   1      -3.226   4.439  -1.140  0.00  0.00    -0.081 Cl
ATOM     15  C   UNL d   1      -5.102   2.741   1.938  0.00  0.00     0.035 A 
ATOM     16  C   UNL d   1      -4.179   1.807   2.403  0.00  0.00     0.026 A 
ATOM     17 CL   UNL d   1      -6.625   2.896   2.722  0.00  0.00    -0.084 Cl
ATOM     18  C   UNL d   1      -2.943   1.672   1.767  0.00  0.00     0.041 A 
ENDBRANCH  10  11
ENDBRANCH   1  10
BRANCH   5  19
ATOM     19  O   UNL d   1      -2.674  -0.259  -0.582  0.00  0.00    -0.344 OA
ATOM     20  H   UNL d   1      -2.716  -1.225  -0.695  0.00  0.00     0.219 HD
ENDBRANCH   5  19
BRANCH   4  21
ATOM     21  C   UNL d   1       1.423  -2.421  -0.123  0.00  0.00     0.008 A 
ATOM     22  C   UNL d   1       2.818  -2.426   0.061  0.00  0.00     0.015 A 
ATOM     23  C   UNL d   1       3.547  -3.620   0.097  0.00  0.00     0.001 A 
ATOM     24  C   UNL d   1       2.895  -4.839  -0.051  0.00  0.00     0.000 A 
ATOM     25  C   UNL d   1       1.518  -4.869  -0.229  0.00  0.00     0.001 A 
ATOM     26  C   UNL d   1       0.792  -3.675  -0.264  0.00  0.00     0.015 A 
ENDBRANCH   4  21
TORSDOF 4
