REMARK  10 active torsions:
REMARK  status: ('A' for Active; 'I' for Inactive)
REMARK    1  A    between atoms: C_11  and  N_1 
REMARK    2  A    between atoms: C_19  and  C_7 
REMARK    3  A    between atoms: C_8  and  C_9 
REMARK    4  A    between atoms: C_10  and  N_15 
REMARK    5  A    between atoms: N_14  and  C_10 
REMARK    6  A    between atoms: C_13  and  C_11 
REMARK    7  A    between atoms: C_12  and  N_14 
REMARK       I    between atoms: N_16  and  C_13 
REMARK    8  A    between atoms: N_15  and  N_16 
REMARK    9  A    between atoms: S_20  and  C_19 
REMARK   10  A    between atoms: C_24  and  S_20 
ROOT
ATOM      1  C   UNL d   1       0.800  -3.048   0.479  0.00  0.00     0.257 C 
ATOM      2  N   UNL d   1       2.014  -2.505   0.773  0.00  0.00    -0.266 N 
ATOM      3  O   UNL d   1       0.730  -4.288   0.512  0.00  0.00    -0.270 OA
ATOM      4  H   UNL d   1       2.775  -3.169   0.903  0.00  0.00     0.190 HD
ENDROOT
BRANCH   1   5
ATOM      5  C   UNL d   1      -0.459  -2.286   0.138  0.00  0.00     0.271 C 
BRANCH   5   6
ATOM      6  N   UNL d   1      -0.394  -0.850   0.090  0.00  0.00    -0.207 N 
ATOM      7  N   UNL d   1      -1.054  -0.082   0.976  0.00  0.00    -0.003 NA
ATOM      8  N   UNL d   1      -0.880   1.162   0.549  0.00  0.00    -0.270 N 
ATOM      9  C   UNL d   1      -0.121   1.084  -0.591  0.00  0.00     0.119 A 
ATOM     10  HN  UNL d   1      -1.242   2.011   0.983  1.00  0.00     0.185 HD
ATOM     11  N   UNL d   1       0.208  -0.179  -0.908  0.00  0.00    -0.272 N 
ATOM     12  HN  UNL d   1       0.761  -0.532  -1.689  1.00  0.00     0.189 HD
BRANCH   9  13
ATOM     13  C   UNL d   1       0.354   2.304  -1.304  0.00  0.00     0.158 C 
BRANCH  13  14
ATOM     14  S   UNL d   1       0.786   1.988  -3.051  0.00  0.00    -0.122 SA
BRANCH  14  15
ATOM     15  C   UNL d   1       1.497   3.526  -3.621  0.00  0.00     0.001 A 
ATOM     16  C   UNL d   1       1.504   4.728  -2.914  0.00  0.00     0.020 A 
ATOM     17  C   UNL d   1       2.063   5.885  -3.485  0.00  0.00     0.025 A 
ATOM     18  C   UNL d   1       2.608   5.835  -4.764  0.00  0.00     0.034 A 
ATOM     19  C   UNL d   1       2.612   4.645  -5.481  0.00  0.00     0.025 A 
ATOM     20 CL   UNL d   1       3.280   7.254  -5.469  0.00  0.00    -0.084 Cl
ATOM     21  C   UNL d   1       2.055   3.495  -4.909  0.00  0.00     0.020 A 
ENDBRANCH  14  15
ENDBRANCH  13  14
ENDBRANCH   9  13
ENDBRANCH   5   6
ENDBRANCH   1   5
BRANCH   2  22
ATOM     22  N   UNL d   1       2.332  -1.169   0.919  0.00  0.00    -0.273 N 
ATOM     23  H   UNL d   1       1.697  -0.556   1.425  0.00  0.00     0.189 HD
BRANCH  22  24
ATOM     24  C   UNL d   1       3.460  -0.611   0.361  0.00  0.00     0.191 C 
ATOM     25  S   UNL d   1       4.462  -1.346  -0.762  0.00  0.00    -0.039 SA
BRANCH  24  26
ATOM     26  N   UNL d   1       3.727   0.682   0.754  0.00  0.00    -0.331 N 
ATOM     27  H   UNL d   1       4.287   1.212   0.085  0.00  0.00     0.168 HD
BRANCH  26  28
ATOM     28  C   UNL d   1       3.561   1.241   2.050  0.00  0.00     0.049 A 
ATOM     29  C   UNL d   1       3.578   2.631   2.234  0.00  0.00     0.074 A 
ATOM     30  C   UNL d   1       3.505   3.143   3.549  0.00  0.00     0.018 A 
ATOM     31  C   UNL d   1       3.432   2.298   4.652  0.00  0.00     0.001 A 
ATOM     32  C   UNL d   1       3.426   0.922   4.463  0.00  0.00     0.002 A 
ATOM     33  C   UNL d   1       3.496   0.399   3.172  0.00  0.00     0.030 A 
BRANCH  29  34
ATOM     34  C   UNL d   1       3.590   3.630   1.104  0.00  0.00     0.419 C 
ATOM     35  F   UNL d   1       3.756   3.085  -0.134  0.00  0.00    -0.166 F 
ATOM     36  F   UNL d   1       2.428   4.340   1.035  0.00  0.00    -0.166 F 
ATOM     37  F   UNL d   1       4.582   4.554   1.233  0.00  0.00    -0.166 F 
ENDBRANCH  29  34
ENDBRANCH  26  28
ENDBRANCH  24  26
ENDBRANCH  22  24
ENDBRANCH   2  22
TORSDOF 10
