REMARK  6 active torsions:
REMARK  status: ('A' for Active; 'I' for Inactive)
REMARK    1  A    between atoms: C_5  and  C_1 
REMARK    2  A    between atoms: C_6  and  C_1 
REMARK    3  A    between atoms: N_10  and  N_2 
REMARK    4  A    between atoms: C_3  and  C_4 
REMARK    5  A    between atoms: C_13  and  C_5 
REMARK    6  A    between atoms: N_7  and  C_6 
ROOT
ATOM      1  C   UNL d   1       1.057   0.038   0.073  0.00  0.00     0.079 C 
ATOM      2  C   UNL d   1       0.369  -0.960   0.664  0.00  0.00     0.057 C 
ENDROOT
BRANCH   1   3
ATOM      3  C   UNL d   1       0.318   1.250  -0.392  0.00  0.00     0.201 C 
ATOM      4  O   UNL d   1      -0.815   1.497   0.008  0.00  0.00    -0.286 OA
BRANCH   3   5
ATOM      5  C   UNL d   1       0.973   2.193  -1.345  0.00  0.00     0.016 A 
ATOM      6  C   UNL d   1       1.891   1.768  -2.315  0.00  0.00     0.017 A 
ATOM      7  C   UNL d   1       2.501   2.696  -3.164  0.00  0.00     0.025 A 
ATOM      8  C   UNL d   1       2.161   4.044  -3.080  0.00  0.00     0.034 A 
ATOM      9  C   UNL d   1       1.215   4.474  -2.152  0.00  0.00     0.025 A 
ATOM     10 CL   UNL d   1       2.901   5.176  -4.141  0.00  0.00    -0.084 Cl
ATOM     11  C   UNL d   1       0.622   3.550  -1.284  0.00  0.00     0.017 A 
ENDBRANCH   3   5
ENDBRANCH   1   3
BRANCH   1  12
ATOM     12  C   UNL d   1       2.577   0.038   0.073  0.00  0.00    -0.033 C 
BRANCH  12  13
ATOM     13  N   UNL d   1       3.838   0.038   0.073  0.00  0.00    -0.365 N 
ATOM     14  HN2 UNL d   1       2.818   0.038   0.073  1.00  0.00     0.165 HD
ATOM     15  HN1 UNL d   1       4.858   0.038   0.073  1.00  0.00     0.165 HD
ENDBRANCH  12  13
ENDBRANCH   1  12
BRANCH   2  16
ATOM     16  C   UNL d   1       0.998  -2.182   1.024  0.00  0.00     0.057 A 
ATOM     17  N   UNL d   1       1.436  -2.498   2.304  0.00  0.00    -0.271 N 
ATOM     18  C   UNL d   1       2.071  -3.718   2.254  0.00  0.00     0.116 A 
ATOM     19  C   UNL d   1       1.965  -4.232   0.985  0.00  0.00     0.022 A 
ATOM     20  C   UNL d   1       1.269  -3.277   0.216  0.00  0.00     0.033 A 
BRANCH  17  21
ATOM     21  N   UNL d   1       1.275  -1.833   3.557  0.00  0.00    -0.330 N 
ATOM     22  C   UNL d   1      -0.046  -1.312   3.844  0.00  0.00     0.171 C 
ATOM     23  C   UNL d   1       2.358  -0.934   3.914  0.00  0.00     0.171 C 
ENDBRANCH  17  21
ENDBRANCH   2  16
TORSDOF 6
