REMARK  7 active torsions:
REMARK  status: ('A' for Active; 'I' for Inactive)
REMARK    1  A    between atoms: C_7  and  C_1 
REMARK    2  A    between atoms: C_8  and  C_6 
REMARK    3  A    between atoms: C_16  and  C_10 
REMARK    4  A    between atoms: S_21  and  C_13 
REMARK    5  A    between atoms: C_17  and  C_26 
REMARK       I    between atoms: N_20  and  C_17 
REMARK    6  A    between atoms: C_30  and  N_20 
REMARK    7  A    between atoms: C_26  and  S_21 
ROOT
ATOM      1  N   UNL d   1       5.418   4.693   1.956  0.00  0.00    -0.336 N 
ATOM      2  HN  UNL d   1       5.127   3.999   2.644  1.00  0.00     0.168 HD
ATOM      3  C   UNL d   1       6.138   5.771   2.297  0.00  0.00     0.145 A 
ATOM      4  C   UNL d   1       5.100   4.579   0.647  0.00  0.00     0.052 A 
ATOM      5  N   UNL d   1       6.545   6.737   1.465  0.00  0.00    -0.347 N 
ATOM      6  HN  UNL d   1       7.100   7.529   1.788  1.00  0.00     0.167 HD
ATOM      7  C   UNL d   1       5.443   5.540  -0.281  0.00  0.00     0.048 A 
ATOM      8  C   UNL d   1       6.181   6.600   0.181  0.00  0.00     0.092 A 
ENDROOT
BRANCH   4   9
ATOM      9  C   UNL d   1       4.345   3.360   0.314  0.00  0.00     0.032 A 
ATOM     10  S   UNL d   1       4.356   2.737  -1.289  0.00  0.00    -0.086 SA
ATOM     11  C   UNL d   1       3.323   1.443  -0.891  0.00  0.00     0.034 A 
ATOM     12  C   UNL d   1       2.988   1.452   0.445  0.00  0.00     0.023 A 
ATOM     13  C   UNL d   1       3.595   2.543   1.141  0.00  0.00     0.023 A 
BRANCH  11  14
ATOM     14  C   UNL d   1       2.844   0.426  -1.883  0.00  0.00     0.067 A 
ATOM     15  C   UNL d   1       3.230   0.324  -3.234  0.00  0.00     0.068 A 
ATOM     16  C   UNL d   1       2.539  -0.758  -3.746  0.00  0.00     0.136 A 
ATOM     17  N   UNL d   1       1.752  -1.201  -2.717  0.00  0.00    -0.292 N 
ATOM     18  N   UNL d   1       1.958  -0.522  -1.566  0.00  0.00    -0.297 N 
ATOM     19  C   UNL d   1       0.725  -2.216  -2.686  0.00  0.00     0.178 C 
ATOM     20  HN  UNL d   1       1.532  -0.697  -0.656  1.00  0.00     0.187 HD
BRANCH  16  21
ATOM     21  C   UNL d   1       2.598  -1.326  -5.108  0.00  0.00     0.434 C 
ATOM     22  F   UNL d   1       1.889  -2.465  -5.275  0.00  0.00    -0.165 F 
ATOM     23  F   UNL d   1       2.138  -0.441  -6.028  0.00  0.00    -0.165 F 
ATOM     24  F   UNL d   1       3.878  -1.617  -5.457  0.00  0.00    -0.165 F 
ENDBRANCH  16  21
ENDBRANCH  11  14
ENDBRANCH   4   9
BRANCH   3  25
ATOM     25  S   UNL d   1       6.337   6.046   4.038  0.00  0.00    -0.085 SA
BRANCH  25  26
ATOM     26  C   UNL d   1       5.723   7.753   4.098  0.00  0.00     0.185 C 
BRANCH  26  27
ATOM     27  C   UNL d   1       4.269   7.960   3.688  0.00  0.00     0.231 C 
ATOM     28  N   UNL d   1       3.511   6.825   3.463  0.00  0.00    -0.327 N 
ATOM     29  H   UNL d   1       3.951   5.937   3.683  0.00  0.00     0.169 HD
ATOM     30  O   UNL d   1       3.839   9.112   3.626  0.00  0.00    -0.272 OA
BRANCH  28  31
ATOM     31  C   UNL d   1       2.156   6.768   3.078  0.00  0.00     0.034 A 
ATOM     32  C   UNL d   1       1.430   7.874   2.635  0.00  0.00     0.029 A 
ATOM     33  C   UNL d   1       0.063   7.766   2.366  0.00  0.00     0.002 A 
ATOM     34  C   UNL d   1      -0.586   6.545   2.525  0.00  0.00     0.000 A 
ATOM     35  C   UNL d   1       0.141   5.421   2.910  0.00  0.00     0.002 A 
ATOM     36  C   UNL d   1       1.510   5.529   3.171  0.00  0.00     0.029 A 
ENDBRANCH  28  31
ENDBRANCH  26  27
ENDBRANCH  25  26
ENDBRANCH   3  25
TORSDOF 7
