REMARK  7 active torsions:
REMARK  status: ('A' for Active; 'I' for Inactive)
REMARK    1  A    between atoms: N_2  and  C_1 
REMARK    2  A    between atoms: C_3  and  C_6 
REMARK    3  A    between atoms: S_7  and  C_4 
REMARK    4  A    between atoms: C_18  and  S_7 
REMARK    5  A    between atoms: S_10  and  C_19 
REMARK    6  A    between atoms: C_11  and  S_10 
REMARK    7  A    between atoms: C_19  and  C_20 
ROOT
ATOM      1  C   UNL d   1       2.851  -3.038  -0.042  0.00  0.00     0.005 A 
ATOM      2  C   UNL d   1       5.689  -3.078   0.052  0.00  0.00    -0.049 A 
ATOM      3  C   UNL d   1       3.529  -2.539   1.072  0.00  0.00     0.019 A 
ATOM      4  C   UNL d   1       3.587  -3.591  -1.087  0.00  0.00     0.019 A 
ATOM      5  C   UNL d   1       4.981  -3.617  -1.038  0.00  0.00     0.009 A 
ATOM      6  C   UNL d   1       4.934  -2.559   1.117  0.00  0.00     0.009 A 
ENDROOT
BRANCH   1   7
ATOM      7  S   UNL d   1       1.077  -3.053  -0.171  0.00  0.00    -0.088 SA
BRANCH   7   8
ATOM      8  C   UNL d   1       0.638  -1.332  -0.004  0.00  0.00     0.038 A 
ATOM      9  C   UNL d   1       1.085  -0.262  -0.791  0.00  0.00     0.120 A 
ATOM     10  C   UNL d   1       0.659   1.061  -0.564  0.00  0.00     0.053 A 
ATOM     11  C   UNL d   1      -0.255   1.335   0.463  0.00  0.00     0.050 A 
ATOM     12  C   UNL d   1      -0.724   0.269   1.244  0.00  0.00     0.017 A 
ATOM     13  C   UNL d   1      -0.285  -1.040   1.012  0.00  0.00     0.022 A 
BRANCH   9  14
ATOM     14  N   UNL d   1       1.986  -0.472  -1.910  0.00  0.00    -0.114 N 
ATOM     15  O   UNL d   1       1.573  -1.162  -2.849  0.00  0.00    -0.532 OA
ATOM     16  O   UNL d   1       3.069   0.129  -1.870  0.00  0.00    -0.532 OA
ENDBRANCH   9  14
BRANCH  11  17
ATOM     17  C   UNL d   1      -0.749   2.737   0.734  0.00  0.00     0.417 C 
ATOM     18  F   UNL d   1      -0.201   3.673  -0.089  0.00  0.00    -0.166 F 
ATOM     19  F   UNL d   1      -2.097   2.847   0.584  0.00  0.00    -0.166 F 
ATOM     20  F   UNL d   1      -0.476   3.144   2.003  0.00  0.00    -0.166 F 
ENDBRANCH  11  17
ENDBRANCH   7   8
ENDBRANCH   1   7
BRANCH   2  21
ATOM     21  C   UNL d   1       7.213  -3.061   0.132  0.00  0.00     0.118 C 
BRANCH  21  22
ATOM     22  S   UNL d   1       8.048  -3.527  -1.431  0.00  0.00    -0.124 SA
BRANCH  22  23
ATOM     23  C   UNL d   1       9.778  -3.325  -1.050  0.00  0.00     0.022 A 
ATOM     24  C   UNL d   1      10.562  -4.283  -0.387  0.00  0.00     0.050 A 
ATOM     25 CL   UNL d   1       9.878  -5.686   0.361  0.00  0.00    -0.083 Cl
ATOM     26  C   UNL d   1      11.954  -4.149  -0.344  0.00  0.00     0.025 A 
ATOM     27  C   UNL d   1      12.578  -3.061  -0.958  0.00  0.00     0.002 A 
ATOM     28  C   UNL d   1      11.809  -2.094  -1.597  0.00  0.00     0.001 A 
ATOM     29  C   UNL d   1      10.419  -2.225  -1.643  0.00  0.00     0.020 A 
ENDBRANCH  22  23
ENDBRANCH  21  22
ENDBRANCH   2  21
TORSDOF 7
