REMARK  2 active torsions:
REMARK  status: ('A' for Active; 'I' for Inactive)
REMARK    1  A    between atoms: C_5  and  C_15 
REMARK    2  A    between atoms: C_15  and  C_6 
ROOT
ATOM      1  C   UNL d   1      -3.165   2.193   1.389  0.00  0.00     0.167 C 
ENDROOT
BRANCH   1   2
ATOM      2  C   UNL d   1      -2.952   3.565   0.848  0.00  0.00     0.122 C 
ATOM      3  N   UNL d   1      -3.711   4.140  -0.034  0.00  0.00    -0.363 N 
ATOM      4  C   UNL d   1      -2.822   5.171  -0.578  0.00  0.00     0.147 C 
ATOM      5  HN  UNL d   1      -4.678   3.930  -0.283  1.00  0.00     0.162 HD
ATOM      6  C   UNL d   1      -3.340   6.565  -0.680  0.00  0.00    -0.027 A 
ATOM      7  C   UNL d   1      -1.668   5.298   0.418  0.00  0.00     0.161 C 
ATOM      8  C   UNL d   1      -4.224   7.066  -1.622  0.00  0.00     0.010 A 
ATOM      9  C   UNL d   1      -2.693   7.410   0.226  0.00  0.00    -0.047 A 
ATOM     10  C   UNL d   1      -4.403   8.448  -1.694  0.00  0.00     0.001 A 
ATOM     11  C   UNL d   1      -3.714   9.302  -0.818  0.00  0.00     0.001 A 
ATOM     12  C   UNL d   1      -2.868   8.783   0.166  0.00  0.00     0.008 A 
ATOM     13  C   UNL d   1      -1.837   6.626   1.171  0.00  0.00     0.074 C 
ATOM     14  O   UNL d   1      -1.797   4.154   1.248  0.00  0.00    -0.331 OA
ENDBRANCH   1   2
BRANCH   1  15
ATOM     15  C   UNL d   1      -2.422   1.240   0.511  0.00  0.00     0.122 C 
ATOM     16  N   UNL d   1      -2.879   0.762  -0.603  0.00  0.00    -0.363 N 
ATOM     17  C   UNL d   1      -1.703   0.131  -1.210  0.00  0.00     0.147 C 
ATOM     18  HN  UNL d   1      -3.829   0.813  -0.970  1.00  0.00     0.162 HD
ATOM     19  C   UNL d   1      -0.701  -0.013  -0.063  0.00  0.00     0.161 C 
ATOM     20  C   UNL d   1      -0.970   1.035  -2.163  0.00  0.00    -0.027 A 
ATOM     21  C   UNL d   1       0.697   0.320  -0.609  0.00  0.00     0.074 C 
ATOM     22  O   UNL d   1      -1.153   0.951   0.895  0.00  0.00    -0.331 OA
ATOM     23  C   UNL d   1       0.386   1.126  -1.835  0.00  0.00    -0.047 A 
ATOM     24  C   UNL d   1       1.262   1.863  -2.611  0.00  0.00     0.008 A 
ATOM     25  C   UNL d   1       0.754   2.556  -3.716  0.00  0.00     0.001 A 
ATOM     26  C   UNL d   1      -0.615   2.495  -4.026  0.00  0.00     0.001 A 
ATOM     27  C   UNL d   1      -1.484   1.728  -3.250  0.00  0.00     0.010 A 
ENDBRANCH   1  15
TORSDOF 2
