REMARK  5 active torsions:
REMARK  status: ('A' for Active; 'I' for Inactive)
REMARK    1  A    between atoms: C_19  and  C_7 
REMARK    2  A    between atoms: C_20  and  C_8 
REMARK    3  A    between atoms: C_21  and  C_18 
REMARK    4  A    between atoms: O_24  and  C_19 
REMARK    5  A    between atoms: C_29  and  O_24 
ROOT
ATOM      1  C   UNL d   1      -0.834  -0.508  -0.175  0.00  0.00     0.157 A 
ATOM      2  C   UNL d   1       0.537  -0.547  -0.035  0.00  0.00     0.071 A 
ATOM      3  N   UNL d   1      -1.212   0.830  -0.097  0.00  0.00    -0.238 N 
ATOM      4  C   UNL d   1       0.918   0.822   0.023  0.00  0.00     0.150 A 
ATOM      5  N   UNL d   1      -0.130   1.649  -0.014  0.00  0.00    -0.275 N 
ATOM      6  HN  UNL d   1      -0.120   2.668   0.013  1.00  0.00     0.189 HD
ATOM      7  C   UNL d   1      -3.444   0.123  -0.106  0.00  0.00     0.148 C 
ATOM      8  C   UNL d   1       1.381  -1.678  -0.001  0.00  0.00     0.021 A 
ATOM      9  C   UNL d   1      -2.576   1.165  -0.075  0.00  0.00     0.066 C 
ATOM     10  N   UNL d   1      -1.787  -1.464  -0.335  0.00  0.00    -0.283 N 
ATOM     11  HN  UNL d   1      -1.508  -2.425  -0.530  1.00  0.00     0.188 HD
ATOM     12  N   UNL d   1      -3.004  -1.179  -0.245  0.00  0.00    -0.292 N 
ATOM     13  HN  UNL d   1      -3.691  -1.933  -0.275  1.00  0.00     0.187 HD
ATOM     14  N   UNL d   1       3.100   0.094   0.116  0.00  0.00    -0.297 N 
ATOM     15  HN  UNL d   1       4.098   0.304   0.157  1.00  0.00     0.187 HD
ATOM     16  N   UNL d   1       2.228   1.161   0.108  0.00  0.00    -0.283 N 
ATOM     17  HN  UNL d   1       2.543   2.130   0.162  1.00  0.00     0.188 HD
ATOM     18  C   UNL d   1       2.732  -1.239   0.071  0.00  0.00     0.070 A 
ATOM     19  C   UNL d   1      -2.970   2.609   0.003  0.00  0.00     0.073 C 
ENDROOT
BRANCH   8  20
ATOM     20  C   UNL d   1       0.889  -3.067  -0.062  0.00  0.00    -0.022 A 
ATOM     21  C   UNL d   1       1.455  -4.018  -0.929  0.00  0.00     0.012 A 
ATOM     22  C   UNL d   1       1.028  -5.350  -0.932  0.00  0.00     0.001 A 
ATOM     23  C   UNL d   1      -0.054  -5.737  -0.150  0.00  0.00     0.000 A 
ATOM     24  C   UNL d   1      -0.663  -4.809   0.685  0.00  0.00     0.001 A 
ATOM     25  C   UNL d   1      -0.153  -3.512   0.773  0.00  0.00     0.012 A 
ENDBRANCH   8  20
BRANCH  18  26
ATOM     26  C   UNL d   1       3.901  -2.166   0.028  0.00  0.00    -0.007 C 
ATOM     27  C   UNL d   1       3.925  -3.382   0.737  0.00  0.00     0.014 C 
ATOM     28  C   UNL d   1       4.891  -4.360   0.479  0.00  0.00     0.001 C 
ATOM     29  C   UNL d   1       5.917  -4.104  -0.424  0.00  0.00     0.000 C 
ATOM     30  C   UNL d   1       5.994  -2.860  -1.042  0.00  0.00     0.001 C 
ATOM     31  C   UNL d   1       4.995  -1.903  -0.821  0.00  0.00     0.014 C 
ENDBRANCH  18  26
BRANCH   7  32
ATOM     32  C   UNL d   1      -4.928   0.311   0.062  0.00  0.00     0.313 C 
ATOM     33  O   UNL d   1      -5.497   1.380   0.144  0.00  0.00    -0.257 OA
BRANCH  32  34
ATOM     34  O   UNL d   1      -5.518  -0.908   0.207  0.00  0.00    -0.317 OA
BRANCH  34  35
ATOM     35  C   UNL d   1      -6.865  -0.896   0.695  0.00  0.00     0.175 C 
ATOM     36  C   UNL d   1      -6.828  -0.956   2.212  0.00  0.00     0.034 C 
ENDBRANCH  34  35
ENDBRANCH  32  34
ENDBRANCH   7  32
TORSDOF 5
