REMARK  2 active torsions:
REMARK  status: ('A' for Active; 'I' for Inactive)
REMARK    1  A    between atoms: C_12  and  C_9 
REMARK    2  A    between atoms: O_13  and  C_12 
ROOT
ATOM      1  C   UNL d   1       0.158  -0.789   0.008  0.00  0.00     0.103 A 
ATOM      2  C   UNL d   1      -0.069   0.527   0.005  0.00  0.00     0.024 A 
ATOM      3  N   UNL d   1      -1.050  -1.391   0.001  0.00  0.00    -0.289 N 
ATOM      4  N   UNL d   1      -2.069  -0.479  -0.005  0.00  0.00    -0.302 N 
ATOM      5  HN  UNL d   1      -3.072  -0.662  -0.011  1.00  0.00     0.187 HD
ATOM      6  C   UNL d   1      -1.445   0.723  -0.004  0.00  0.00     0.035 A 
ATOM      7  S   UNL d   1       1.763  -1.207   0.018  0.00  0.00    -0.072 SA
ATOM      8  C   UNL d   1       1.073   1.322   0.010  0.00  0.00     0.033 A 
ATOM      9  C   UNL d   1       2.197   0.491   0.026  0.00  0.00     0.009 A 
ATOM     10  C   UNL d   1      -1.353  -2.797   0.001  0.00  0.00     0.178 C 
ATOM     11  C   UNL d   1      -2.238   1.972  -0.006  0.00  0.00     0.070 C 
ENDROOT
BRANCH   9  12
ATOM     12  C   UNL d   1       3.639   0.871   0.034  0.00  0.00     0.210 C 
BRANCH  12  13
ATOM     13  O   UNL d   1       4.045   1.020  -1.319  0.00  0.00    -0.396 OA
ATOM     14  H   UNL d   1       3.763   0.214  -1.786  0.00  0.00     0.209 HD
ENDBRANCH  12  13
ENDBRANCH   9  12
TORSDOF 2
