REMARK  7 active torsions:
REMARK  status: ('A' for Active; 'I' for Inactive)
REMARK    1  A    between atoms: C_12  and  C_3 
REMARK    2  A    between atoms: O_11  and  C_6 
REMARK    3  A    between atoms: C_18  and  C_12 
REMARK    4  A    between atoms: C_23  and  C_18 
REMARK    5  A    between atoms: C_21  and  C_22 
REMARK    6  A    between atoms: C_22  and  C_24 
REMARK    7  A    between atoms: C_24  and  C_23 
ROOT
ATOM      1  N   UNL d   1       0.568   0.198   0.165  0.00  0.00    -0.280 N 
ATOM      2  C   UNL d   1       1.516   1.217   0.215  0.00  0.00     0.261 A 
ATOM      3  C   UNL d   1       2.951   0.756   0.224  0.00  0.00     0.044 A 
ATOM      4  C   UNL d   1       0.933  -1.129   0.108  0.00  0.00     0.066 A 
ATOM      5  C   UNL d   1      -0.800   0.275   0.102  0.00  0.00     0.027 A 
ATOM      6  C   UNL d   1       3.272  -0.564   0.185  0.00  0.00     0.089 A 
ATOM      7  C   UNL d   1       2.239  -1.615   0.102  0.00  0.00     0.026 A 
ATOM      8  C   UNL d   1      -1.310  -1.011   0.063  0.00  0.00    -0.022 A 
ATOM      9  C   UNL d   1      -0.211  -1.903  -0.005  0.00  0.00     0.000 A 
ATOM     10  O   UNL d   1       1.153   2.383   0.223  0.00  0.00    -0.267 OA
ATOM     11  C   UNL d   1       2.365  -3.002  -0.062  0.00  0.00     0.017 A 
ATOM     12  C   UNL d   1      -1.597   1.536   0.062  0.00  0.00     0.058 C 
ATOM     13  C   UNL d   1      -0.059  -3.285  -0.192  0.00  0.00     0.014 A 
ATOM     14  C   UNL d   1      -2.772  -1.287   0.004  0.00  0.00     0.041 C 
ATOM     15  C   UNL d   1       1.236  -3.815  -0.244  0.00  0.00     0.002 A 
ATOM     16  C   UNL d   1      -3.052   1.218  -0.326  0.00  0.00     0.006 C 
ATOM     17  C   UNL d   1      -3.577  -0.034   0.398  0.00  0.00     0.005 C 
ENDROOT
BRANCH   3  18
ATOM     18  C   UNL d   1       3.945   1.901   0.170  0.00  0.00     0.047 C 
BRANCH  18  19
ATOM     19  C   UNL d   1       3.867   2.922   1.312  0.00  0.00     0.005 C 
BRANCH  19  20
ATOM     20  C   UNL d   1       4.163   2.339   2.690  0.00  0.00     0.000 C 
BRANCH  20  21
ATOM     21  C   UNL d   1       4.049   3.454   3.729  0.00  0.00     0.000 C 
BRANCH  21  22
ATOM     22  C   UNL d   1       4.336   2.974   5.146  0.00  0.00    -0.000 C 
BRANCH  22  23
ATOM     23  C   UNL d   1       4.204   4.139   6.127  0.00  0.00    -0.005 C 
ATOM     24  C   UNL d   1       4.483   3.704   7.554  0.00  0.00     0.005 C 
ENDBRANCH  22  23
ENDBRANCH  21  22
ENDBRANCH  20  21
ENDBRANCH  19  20
ENDBRANCH  18  19
ENDBRANCH   3  18
BRANCH   6  25
ATOM     25  O   UNL d   1       4.596  -0.966   0.159  0.00  0.00    -0.359 OA
ATOM     26  H   UNL d   1       4.642  -1.921   0.065  0.00  0.00     0.217 HD
ENDBRANCH   6  25
TORSDOF 7
