REMARK  5 active torsions:
REMARK  status: ('A' for Active; 'I' for Inactive)
REMARK    1  A    between atoms: O_4  and  S_1 
REMARK    2  A    between atoms: C_8  and  S_1 
REMARK    3  A    between atoms: C_5  and  C_2 
REMARK    4  A    between atoms: C_3  and  O_4 
REMARK    5  A    between atoms: O_15  and  C_5 
ROOT
ATOM      1  S   UNL d   1       0.677   0.350   0.025  0.00  0.00     0.303 S 
ATOM      2  O   UNL d   1      -0.423   1.169  -0.449  0.00  0.00    -0.193 OA
ATOM      3  O   UNL d   1       2.032   0.867   0.068  0.00  0.00    -0.193 OA
ENDROOT
BRANCH   1   4
ATOM      4  O   UNL d   1       0.682  -1.050  -0.819  0.00  0.00    -0.228 OA
BRANCH   4   5
ATOM      5  C   UNL d   1       0.953  -1.092  -2.150  0.00  0.00     0.113 A 
ATOM      6  C   UNL d   1       0.961  -2.285  -2.858  0.00  0.00     0.114 A 
ATOM      7  S   UNL d   1       1.333  -2.008  -4.521  0.00  0.00    -0.093 SA
ATOM      8  C   UNL d   1       1.470  -0.327  -4.295  0.00  0.00     0.053 A 
ATOM      9  C   UNL d   1       1.243   0.032  -2.987  0.00  0.00     0.047 A 
BRANCH   6  10
ATOM     10  C   UNL d   1       0.716  -3.661  -2.458  0.00  0.00     0.302 C 
ATOM     11  O   UNL d   1       0.677  -4.632  -3.204  0.00  0.00    -0.259 OA
BRANCH  10  12
ATOM     12  O   UNL d   1       0.521  -3.746  -1.106  0.00  0.00    -0.322 OA
ATOM     13  C   UNL d   1       0.263  -5.072  -0.638  0.00  0.00     0.213 C 
ENDBRANCH  10  12
ENDBRANCH   6  10
ENDBRANCH   4   5
ENDBRANCH   1   4
BRANCH   1  14
ATOM     14  C   UNL d   1       0.270  -0.077   1.702  0.00  0.00     0.086 A 
ATOM     15  C   UNL d   1       0.033  -1.398   2.087  0.00  0.00     0.027 A 
ATOM     16  C   UNL d   1      -0.290  -1.668   3.421  0.00  0.00     0.025 A 
ATOM     17  C   UNL d   1      -0.371  -0.626   4.350  0.00  0.00     0.034 A 
ATOM     18  C   UNL d   1      -0.132   0.690   3.961  0.00  0.00     0.025 A 
ATOM     19 CL   UNL d   1      -0.772  -0.970   5.987  0.00  0.00    -0.084 Cl
ATOM     20  C   UNL d   1       0.191   0.969   2.633  0.00  0.00     0.027 A 
ENDBRANCH   1  14
TORSDOF 5
