REMARK  7 active torsions:
REMARK  status: ('A' for Active; 'I' for Inactive)
REMARK    1  A    between atoms: N_7  and  C_1 
REMARK       I    between atoms: C_8  and  N_7 
REMARK    2  A    between atoms: C_18  and  C_8 
REMARK    3  A    between atoms: O_17  and  C_9 
REMARK    4  A    between atoms: C_10  and  C_19 
REMARK    5  A    between atoms: O_15  and  C_10 
REMARK    6  A    between atoms: S_13  and  C_18 
REMARK    7  A    between atoms: C_19  and  S_13 
ROOT
ATOM      1  C   UNL d   1      -1.017   1.738   0.127  0.00  0.00     0.138 A 
ATOM      2  N   UNL d   1      -2.058   0.907   0.207  0.00  0.00    -0.282 N 
ATOM      3  HN  UNL d   1      -3.041   1.147   0.338  1.00  0.00     0.189 HD
ATOM      4  C   UNL d   1       0.239   1.037   0.003  0.00  0.00     0.071 A 
ATOM      5  N   UNL d   1      -1.522  -0.309   0.078  0.00  0.00    -0.294 N 
ATOM      6  C   UNL d   1      -0.153  -0.314   0.021  0.00  0.00     0.067 A 
ATOM      7  C   UNL d   1       1.643   1.293  -0.055  0.00  0.00     0.084 A 
ATOM      8  C   UNL d   1      -2.384  -1.466   0.001  0.00  0.00     0.178 C 
ATOM      9  C   UNL d   1       0.744  -1.394  -0.011  0.00  0.00     0.032 A 
ATOM     10  C   UNL d   1       2.102  -1.115  -0.041  0.00  0.00     0.005 A 
ATOM     11  C   UNL d   1       2.539   0.201  -0.067  0.00  0.00     0.038 A 
ENDROOT
BRANCH   1  12
ATOM     12  N   UNL d   1      -1.233   3.098   0.090  0.00  0.00    -0.311 N 
ATOM     13  C   UNL d   1      -2.100   3.768   0.927  0.00  0.00     0.232 C 
ATOM     14  O   UNL d   1      -2.739   3.304   1.875  0.00  0.00    -0.272 OA
ATOM     15  H   UNL d   1      -0.709   3.609  -0.597  0.00  0.00     0.170 HD
BRANCH  13  16
ATOM     16  C   UNL d   1      -2.190   5.254   0.624  0.00  0.00     0.177 C 
BRANCH  16  17
ATOM     17  S   UNL d   1      -3.674   5.615  -0.364  0.00  0.00    -0.149 SA
BRANCH  17  18
ATOM     18  C   UNL d   1      -4.989   5.005   0.746  0.00  0.00     0.184 C 
BRANCH  18  19
ATOM     19  C   UNL d   1      -5.000   5.732   2.073  0.00  0.00     0.149 C 
ATOM     20  O   UNL d   1      -5.538   6.821   2.254  0.00  0.00    -0.649 OA
BRANCH  19  21
ATOM     21  O   UNL d   1      -4.325   5.097   3.059  0.00  0.00    -0.776 OA
ATOM     22  H   UNL d   1      -3.890   4.249   2.789  0.00  0.00     0.167 HD
ENDBRANCH  19  21
ENDBRANCH  18  19
ENDBRANCH  17  18
ENDBRANCH  16  17
ENDBRANCH  13  16
ENDBRANCH   1  12
BRANCH   7  23
ATOM     23  O   UNL d   1       2.368   2.482  -0.031  0.00  0.00    -0.355 OA
ATOM     24  C   UNL d   1       1.699   3.718  -0.083  0.00  0.00     0.210 C 
ENDBRANCH   7  23
TORSDOF 7
