REMARK  6 active torsions:
REMARK  status: ('A' for Active; 'I' for Inactive)
REMARK    1  A    between atoms: C_7  and  C_1 
REMARK       I    between atoms: C_8  and  N_9 
REMARK    2  A    between atoms: C_16  and  C_8 
REMARK    3  A    between atoms: N_9  and  C_12 
REMARK    4  A    between atoms: C_10  and  C_17 
REMARK    5  A    between atoms: O_18  and  C_10 
REMARK    6  A    between atoms: C_17  and  C_16 
ROOT
ATOM      1  C   UNL d   1       2.135  -1.403   0.078  0.00  0.00    -0.004 A 
ATOM      2  C   UNL d   1       2.235  -2.241  -1.047  0.00  0.00     0.043 A 
ATOM      3  C   UNL d   1       3.365  -3.030  -1.275  0.00  0.00     0.035 A 
ATOM      4  C   UNL d   1       3.198  -1.374   0.984  0.00  0.00     0.014 A 
ATOM      5  C   UNL d   1       4.350  -2.127   0.748  0.00  0.00     0.003 A 
ATOM      6  C   UNL d   1       4.437  -2.943  -0.382  0.00  0.00     0.029 A 
ENDROOT
BRANCH   3   7
ATOM      7  N   UNL d   1       3.487  -3.922  -2.362  0.00  0.00    -0.327 N 
ATOM      8  C   UNL d   1       2.488  -4.274  -3.245  0.00  0.00     0.222 C 
ATOM      9  O   UNL d   1       1.318  -3.905  -3.225  0.00  0.00    -0.273 OA
ATOM     10  H   UNL d   1       4.396  -4.353  -2.482  0.00  0.00     0.169 HD
BRANCH   8  11
ATOM     11  C   UNL d   1       2.956  -5.147  -4.390  0.00  0.00     0.113 C 
BRANCH  11  12
ATOM     12  C   UNL d   1       2.428  -4.551  -5.688  0.00  0.00     0.119 C 
BRANCH  12  13
ATOM     13  C   UNL d   1       3.007  -3.178  -5.896  0.00  0.00     0.139 C 
ATOM     14  O   UNL d   1       4.071  -2.974  -6.453  0.00  0.00    -0.650 OA
BRANCH  13  15
ATOM     15  O   UNL d   1       2.273  -2.181  -5.341  0.00  0.00    -0.776 OA
ATOM     16  H   UNL d   1       1.508  -2.493  -4.807  0.00  0.00     0.167 HD
ENDBRANCH  13  15
ENDBRANCH  12  13
ENDBRANCH  11  12
ENDBRANCH   8  11
ENDBRANCH   3   7
BRANCH   1  17
ATOM     17  C   UNL d   1       0.903  -0.635   0.291  0.00  0.00     0.077 A 
ATOM     18  C   UNL d   1       0.693   0.659   0.841  0.00  0.00     0.057 A 
ATOM     19  C   UNL d   1      -0.661   0.877   0.818  0.00  0.00     0.131 A 
ATOM     20 BR   UNL d   1       1.969   1.888   1.447  0.00  0.00    -0.047 Br
ATOM     21  N   UNL d   1      -1.194  -0.240   0.255  0.00  0.00    -0.306 N 
ATOM     22  N   UNL d   1      -0.281  -1.164  -0.077  0.00  0.00    -0.297 N 
ATOM     23  C   UNL d   1      -2.592  -0.492   0.006  0.00  0.00     0.177 C 
ATOM     24  HN  UNL d   1      -0.446  -2.070  -0.514  1.00  0.00     0.187 HD
ENDBRANCH   1  17
TORSDOF 6
