REMARK  3 active torsions:
REMARK  status: ('A' for Active; 'I' for Inactive)
REMARK    1  A    between atoms: C_2  and  S_1 
REMARK    2  A    between atoms: N_6  and  S_1 
REMARK    3  A    between atoms: C_7  and  C_5 
ROOT
ATOM      1  C   UNL d   1       0.145  -0.467   1.524  0.00  0.00     0.126 C 
ATOM      2  C   UNL d   1       0.608  -1.478   2.273  0.00  0.00     0.024 C 
ENDROOT
BRANCH   1   3
ATOM      3  S   UNL d   1       0.812  -0.179  -0.041  0.00  0.00     0.229 S 
ATOM      4  O   UNL d   1       0.168   0.981  -0.614  0.00  0.00    -0.207 OA
ATOM      5  O   UNL d   1       0.929  -1.412  -0.786  0.00  0.00    -0.207 OA
BRANCH   3   6
ATOM      6  N   UNL d   1       2.396   0.325   0.227  0.00  0.00    -0.226 NA
ATOM      7  H   UNL d   1       2.415   1.345   0.293  0.00  0.00     0.136 HD
ATOM      8  H   UNL d   1       2.971  -0.005  -0.551  0.00  0.00     0.136 HD
ENDBRANCH   3   6
ENDBRANCH   1   3
BRANCH   2   9
ATOM      9  C   UNL d   1       0.093  -1.808   3.612  0.00  0.00    -0.036 A 
ATOM     10  C   UNL d   1      -1.242  -1.588   3.979  0.00  0.00     0.011 A 
ATOM     11  C   UNL d   1      -1.701  -1.944   5.250  0.00  0.00     0.001 A 
ATOM     12  C   UNL d   1      -0.834  -2.537   6.164  0.00  0.00     0.000 A 
ATOM     13  C   UNL d   1       0.491  -2.777   5.808  0.00  0.00     0.001 A 
ATOM     14  C   UNL d   1       0.951  -2.418   4.537  0.00  0.00     0.011 A 
ENDBRANCH   2   9
TORSDOF 3
