REMARK  3 active torsions:
REMARK  status: ('A' for Active; 'I' for Inactive)
REMARK    1  A    between atoms: C_2  and  C_1 
REMARK       I    between atoms: N_3  and  C_2 
REMARK    2  A    between atoms: C_4  and  N_3 
REMARK    3  A    between atoms: O_18  and  C_5 
ROOT
ATOM      1  C   UNL d   1      -2.642  -2.470  -0.295  0.00  0.00     0.259 C 
ATOM      2  N   UNL d   1      -1.917  -3.608   0.027  0.00  0.00    -0.323 N 
ATOM      3  O   UNL d   1      -3.840  -2.460  -0.583  0.00  0.00    -0.267 OA
ATOM      4  H   UNL d   1      -0.982  -3.494   0.392  0.00  0.00     0.169 HD
ENDROOT
BRANCH   1   5
ATOM      5  C   UNL d   1      -1.960  -1.139  -0.230  0.00  0.00     0.066 A 
ATOM      6  C   UNL d   1      -2.744   0.032  -0.281  0.00  0.00     0.081 A 
ATOM      7  C   UNL d   1      -2.164   1.298  -0.212  0.00  0.00     0.039 A 
ATOM      8  C   UNL d   1      -0.783   1.420  -0.089  0.00  0.00     0.022 A 
ATOM      9  C   UNL d   1       0.005   0.271  -0.049  0.00  0.00     0.012 A 
ATOM     10  C   UNL d   1      -0.569  -1.004  -0.125  0.00  0.00     0.039 A 
ATOM     11 BR   UNL d   1       1.882   0.442   0.113  0.00  0.00    -0.051 Br
BRANCH   6  12
ATOM     12  O   UNL d   1      -4.109   0.027  -0.395  0.00  0.00    -0.360 OA
ATOM     13  H   UNL d   1      -4.404  -0.907  -0.500  0.00  0.00     0.217 HD
ENDBRANCH   6  12
ENDBRANCH   1   5
BRANCH   2  14
ATOM     14  C   UNL d   1      -2.439  -4.925   0.096  0.00  0.00     0.038 A 
ATOM     15  C   UNL d   1      -3.689  -5.292  -0.414  0.00  0.00     0.053 A 
ATOM     16  C   UNL d   1      -4.181  -6.585  -0.222  0.00  0.00     0.037 A 
ATOM     17 CL   UNL d   1      -5.739  -7.001  -0.826  0.00  0.00    -0.084 Cl
ATOM     18  C   UNL d   1      -3.434  -7.535   0.462  0.00  0.00     0.048 A 
ATOM     19  C   UNL d   1      -2.171  -7.187   0.928  0.00  0.00     0.037 A 
ATOM     20  C   UNL d   1      -1.665  -5.898   0.739  0.00  0.00     0.053 A 
ATOM     21 CL   UNL d   1      -1.229  -8.354   1.774  0.00  0.00    -0.084 Cl
ENDBRANCH   2  14
TORSDOF 3
