REMARK  3 active torsions:
REMARK  status: ('A' for Active; 'I' for Inactive)
REMARK    1  A    between atoms: N_3  and  C_1 
REMARK    2  A    between atoms: S_2  and  N_3 
REMARK    3  A    between atoms: C_9  and  S_2 
ROOT
ATOM      1  N   UNL d   1       2.502   2.149   0.160  0.00  0.00    -0.260 N 
ATOM      2  C   UNL d   1       3.278   2.437   1.381  0.00  0.00     0.171 C 
ENDROOT
BRANCH   1   3
ATOM      3  S   UNL d   1       3.130   2.777  -1.304  0.00  0.00     0.266 S 
ATOM      4  O   UNL d   1       4.547   3.037  -1.130  0.00  0.00    -0.200 OA
ATOM      5  O   UNL d   1       2.655   1.995  -2.429  0.00  0.00    -0.200 OA
BRANCH   3   6
ATOM      6  C   UNL d   1       2.287   4.352  -1.377  0.00  0.00     0.080 A 
ATOM      7  C   UNL d   1       2.821   5.471  -0.728  0.00  0.00     0.027 A 
ATOM      8  C   UNL d   1       2.146   6.692  -0.798  0.00  0.00     0.025 A 
ATOM      9  C   UNL d   1       0.960   6.797  -1.528  0.00  0.00     0.034 A 
ATOM     10  C   UNL d   1       0.442   5.687  -2.196  0.00  0.00     0.025 A 
ATOM     11 CL   UNL d   1       0.136   8.303  -1.610  0.00  0.00    -0.084 Cl
ATOM     12  C   UNL d   1       1.109   4.461  -2.126  0.00  0.00     0.027 A 
ENDBRANCH   3   6
ENDBRANCH   1   3
BRANCH   1  13
ATOM     13  C   UNL d   1       1.846   0.878   0.059  0.00  0.00     0.141 A 
ATOM     14  N   UNL d   1       2.367  -0.393   0.014  0.00  0.00    -0.280 N 
ATOM     15  N   UNL d   1       1.416  -1.357   0.015  0.00  0.00    -0.301 N 
ATOM     16  C   UNL d   1       3.748  -0.804  -0.013  0.00  0.00     0.179 C 
ATOM     17  C   UNL d   1       0.274  -0.669  -0.004  0.00  0.00     0.036 A 
ATOM     18  HN  UNL d   1       1.543  -2.369   0.026  1.00  0.00     0.187 HD
ATOM     19  C   UNL d   1       0.480   0.729   0.026  0.00  0.00     0.012 A 
ATOM     20  C   UNL d   1      -1.069  -1.309   0.003  0.00  0.00     0.059 C 
ATOM     21  C   UNL d   1      -0.627   1.720   0.016  0.00  0.00     0.044 C 
ATOM     22  C   UNL d   1      -1.977   1.052   0.341  0.00  0.00     0.005 C 
ATOM     23  C   UNL d   1      -2.156  -0.291  -0.390  0.00  0.00     0.006 C 
ENDBRANCH   1  13
TORSDOF 3
