REMARK  6 active torsions:
REMARK  status: ('A' for Active; 'I' for Inactive)
REMARK    1  A    between atoms: C_2  and  C_1 
REMARK    2  A    between atoms: C_14  and  N_3 
REMARK    3  A    between atoms: C_19  and  N_6 
REMARK    4  A    between atoms: S_15  and  C_7 
REMARK    5  A    between atoms: C_18  and  S_15 
REMARK    6  A    between atoms: C_24  and  C_18 
ROOT
ATOM      1  C   UNL d   1      -0.122  -1.274   0.252  0.00  0.00     0.158 C 
ATOM      2  N   UNL d   1       1.191  -0.795   0.160  0.00  0.00    -0.274 N 
ATOM      3  N   UNL d   1      -0.950  -0.266   0.433  0.00  0.00    -0.281 N 
ATOM      4  HN  UNL d   1      -1.953  -0.338   0.606  1.00  0.00     0.188 HD
ATOM      5  C   UNL d   1       1.029   0.586   0.129  0.00  0.00     0.168 C 
ATOM      6  N   UNL d   1      -0.230   0.898   0.348  0.00  0.00    -0.278 N 
ATOM      7  HN  UNL d   1      -0.605   1.842   0.440  1.00  0.00     0.189 HD
ENDROOT
BRANCH   1   8
ATOM      8  C   UNL d   1      -0.564  -2.626   0.056  0.00  0.00     0.098 C 
ATOM      9  N   UNL d   1      -1.625  -3.229   0.694  0.00  0.00    -0.289 N 
ATOM     10  N   UNL d   1      -1.722  -4.552   0.426  0.00  0.00    -0.303 N 
ATOM     11  C   UNL d   1      -0.772  -4.779  -0.486  0.00  0.00     0.024 C 
ATOM     12  HN  UNL d   1      -2.374  -5.225   0.830  1.00  0.00     0.186 HD
ATOM     13  C   UNL d   1      -0.062  -3.600  -0.788  0.00  0.00     0.061 C 
ATOM     14  C   UNL d   1      -0.550  -6.142  -1.023  0.00  0.00     0.070 C 
BRANCH   9  15
ATOM     15  C   UNL d   1      -2.574  -2.657   1.633  0.00  0.00     0.145 C 
ATOM     16  C   UNL d   1      -3.846  -2.195   0.945  0.00  0.00     0.028 C 
ENDBRANCH   9  15
ENDBRANCH   1   8
BRANCH   2  17
ATOM     17  C   UNL d   1       2.385  -1.584   0.133  0.00  0.00     0.043 A 
ATOM     18  C   UNL d   1       3.479  -1.234  -0.666  0.00  0.00     0.032 A 
ATOM     19  C   UNL d   1       4.588  -2.085  -0.754  0.00  0.00     0.026 A 
ATOM     20  C   UNL d   1       4.605  -3.289  -0.053  0.00  0.00     0.034 A 
ATOM     21  C   UNL d   1       3.541  -3.632   0.772  0.00  0.00     0.026 A 
ATOM     22 CL   UNL d   1       5.933  -4.366  -0.229  0.00  0.00    -0.084 Cl
ATOM     23  C   UNL d   1       2.444  -2.773   0.882  0.00  0.00     0.032 A 
ENDBRANCH   2  17
BRANCH   5  24
ATOM     24  S   UNL d   1       2.299   1.757  -0.054  0.00  0.00    -0.087 SA
BRANCH  24  25
ATOM     25  C   UNL d   1       1.579   3.224   0.741  0.00  0.00     0.121 C 
BRANCH  25  26
ATOM     26  C   UNL d   1       2.488   4.435   0.690  0.00  0.00    -0.049 A 
ATOM     27  C   UNL d   1       2.009   5.656   0.185  0.00  0.00     0.008 A 
ATOM     28  C   UNL d   1       2.810   6.799   0.194  0.00  0.00     0.001 A 
ATOM     29  C   UNL d   1       4.105   6.743   0.705  0.00  0.00     0.000 A 
ATOM     30  C   UNL d   1       4.598   5.541   1.206  0.00  0.00     0.001 A 
ATOM     31  C   UNL d   1       3.795   4.398   1.205  0.00  0.00     0.008 A 
ENDBRANCH  25  26
ENDBRANCH  24  25
ENDBRANCH   5  24
TORSDOF 6
