REMARK  5 active torsions:
REMARK  status: ('A' for Active; 'I' for Inactive)
REMARK       I    between atoms: C_8  and  N_7 
REMARK    1  A    between atoms: C_11  and  C_8 
REMARK    2  A    between atoms: C_12  and  C_11 
REMARK    3  A    between atoms: C_21  and  C_12 
REMARK    4  A    between atoms: C_13  and  C_21 
REMARK    5  A    between atoms: O_23  and  C_13 
ROOT
ATOM      1  C   UNL d   1       2.716  -1.176  -0.393  0.00  0.00     0.148 A 
ATOM      2  N   UNL d   1       2.163  -0.537   0.615  0.00  0.00    -0.335 N 
ATOM      3  HN  UNL d   1       2.539  -0.527   1.563  1.00  0.00     0.168 HD
ATOM      4  S   UNL d   1       1.874  -0.957  -1.892  0.00  0.00    -0.052 SA
ATOM      5  N   UNL d   1       3.843  -1.931  -0.261  0.00  0.00    -0.358 N 
ATOM      6  C   UNL d   1       1.007   0.121   0.230  0.00  0.00     0.053 A 
ATOM      7  N   UNL d   1       5.535  -4.067   0.605  0.00  0.00    -0.349 N 
ATOM      8  C   UNL d   1       6.742  -4.736   0.658  0.00  0.00     0.220 C 
ATOM      9  C   UNL d   1       0.690   0.018  -1.122  0.00  0.00     0.035 A 
ATOM     10  C   UNL d   1       0.157   0.860   1.077  0.00  0.00     0.054 A 
ATOM     11  C   UNL d   1       4.302  -2.911  -1.250  0.00  0.00     0.145 C 
ATOM     12  C   UNL d   1       4.727  -1.735   0.899  0.00  0.00     0.145 C 
ATOM     13  C   UNL d   1       5.021  -3.088   1.581  0.00  0.00     0.145 C 
ATOM     14  C   UNL d   1       4.653  -4.247  -0.558  0.00  0.00     0.145 C 
ATOM     15  O   UNL d   1       7.120  -5.432  -0.289  0.00  0.00    -0.273 OA
ATOM     16  C   UNL d   1      -0.444   0.643  -1.671  0.00  0.00     0.023 A 
ATOM     17  C   UNL d   1      -0.978   1.472   0.542  0.00  0.00     0.036 A 
ATOM     18  C   UNL d   1      -1.275   1.371  -0.813  0.00  0.00     0.025 A 
ATOM     19 CL   UNL d   1      -2.025   2.365   1.577  0.00  0.00    -0.084 Cl
ENDROOT
BRANCH   8  20
ATOM     20  C   UNL d   1       7.601  -4.590   1.913  0.00  0.00     0.112 C 
BRANCH  20  21
ATOM     21  C   UNL d   1       8.967  -5.353   1.932  0.00  0.00    -0.030 C 
ATOM     22  C   UNL d   1       9.669  -5.055   3.280  0.00  0.00     0.016 C 
ATOM     23  C   UNL d   1       8.766  -6.885   1.878  0.00  0.00     0.016 C 
BRANCH  21  24
ATOM     24  C   UNL d   1       9.899  -4.973   0.748  0.00  0.00     0.119 C 
BRANCH  24  25
ATOM     25  C   UNL d   1      10.143  -3.493   0.552  0.00  0.00     0.140 C 
ATOM     26  O   UNL d   1      10.247  -2.675   1.450  0.00  0.00    -0.650 OA
BRANCH  25  27
ATOM     27  O   UNL d   1      10.291  -3.150  -0.749  0.00  0.00    -0.776 OA
ATOM     28  H   UNL d   1      10.178  -3.895  -1.370  0.00  0.00     0.167 HD
ENDBRANCH  25  27
ENDBRANCH  24  25
ENDBRANCH  21  24
ENDBRANCH  20  21
ENDBRANCH   8  20
TORSDOF 5
