REMARK  3 active torsions:
REMARK  status: ('A' for Active; 'I' for Inactive)
REMARK    1  A    between atoms: C_3  and  N_1 
REMARK    2  A    between atoms: C_2  and  C_4 
REMARK    3  A    between atoms: O_11  and  C_2 
ROOT
ATOM      1  C   UNL d   1      -0.688  -2.466  -0.017  0.00  0.00     0.039 A 
ATOM      2  C   UNL d   1      -1.866  -4.303  -1.102  0.00  0.00     0.039 A 
ATOM      3  C   UNL d   1      -1.549  -2.937  -1.023  0.00  0.00     0.048 A 
ATOM      4  C   UNL d   1      -0.191  -3.379   0.928  0.00  0.00     0.030 A 
ATOM      5  C   UNL d   1      -1.369  -5.196  -0.149  0.00  0.00     0.018 A 
ATOM      6  C   UNL d   1      -0.535  -4.733   0.866  0.00  0.00     0.003 A 
ENDROOT
BRANCH   1   7
ATOM      7  N   UNL d   1      -0.310  -1.086   0.035  0.00  0.00    -0.333 N 
ATOM      8  C   UNL d   1      -0.743  -0.077  -0.807  0.00  0.00     0.096 A 
ATOM      9  C   UNL d   1      -0.111   1.102  -0.475  0.00  0.00     0.019 A 
ATOM     10  C   UNL d   1       0.733   0.828   0.616  0.00  0.00     0.019 A 
ATOM     11  C   UNL d   1       0.586  -0.509   0.918  0.00  0.00     0.096 A 
ENDBRANCH   1   7
BRANCH   2  12
ATOM     12  C   UNL d   1      -2.755  -4.845  -2.162  0.00  0.00     0.176 C 
ATOM     13  O   UNL d   1      -3.496  -5.795  -1.982  0.00  0.00    -0.646 OA
BRANCH  12  14
ATOM     14  O   UNL d   1      -2.626  -4.220  -3.350  0.00  0.00    -0.773 OA
ATOM     15  H   UNL d   1      -1.864  -3.617  -3.425  0.00  0.00     0.167 HD
ENDBRANCH  12  14
ENDBRANCH   2  12
TORSDOF 3
