REMARK  10 active torsions:
REMARK  status: ('A' for Active; 'I' for Inactive)
REMARK    1  A    between atoms: C_9  and  C_1 
REMARK    2  A    between atoms: C_19  and  N_2 
REMARK    3  A    between atoms: C_31  and  C_3 
REMARK    4  A    between atoms: C_7  and  C_10 
REMARK    5  A    between atoms: C_8  and  C_11 
REMARK    6  A    between atoms: O_20  and  C_9 
REMARK    7  A    between atoms: C_12  and  C_13 
REMARK    8  A    between atoms: N_30  and  C_13 
REMARK    9  A    between atoms: N_14  and  O_20 
REMARK   10  A    between atoms: C_36  and  C_31 
ROOT
ATOM      1  C   UNL d   1       2.734  -2.018  -0.241  0.00  0.00     0.109 C 
ATOM      2  N   UNL d   1       2.317  -0.864  -0.677  0.00  0.00    -0.246 N 
ATOM      3  HN  UNL d   1       2.670  -0.398  -1.513  1.00  0.00     0.196 HD
ENDROOT
BRANCH   2   4
ATOM      4  O   UNL d   1       1.307  -0.343   0.164  0.00  0.00    -0.193 OA
BRANCH   4   5
ATOM      5  C   UNL d   1       1.028   0.971  -0.141  0.00  0.00     0.318 C 
ATOM      6  O   UNL d   1       1.862   1.816  -0.432  0.00  0.00    -0.257 OA
BRANCH   5   7
ATOM      7  C   UNL d   1      -0.404   1.234  -0.068  0.00  0.00     0.082 A 
ATOM      8  C   UNL d   1      -1.098   2.448  -0.042  0.00  0.00     0.052 A 
ATOM      9  N   UNL d   1      -2.457   2.116  -0.059  0.00  0.00    -0.260 N 
ATOM     10  N   UNL d   1      -2.633   0.773  -0.183  0.00  0.00    -0.304 N 
ATOM     11  C   UNL d   1      -1.413   0.258  -0.122  0.00  0.00     0.127 A 
ATOM     12  HN  UNL d   1      -3.513   0.270  -0.298  1.00  0.00     0.186 HD
BRANCH   8  13
ATOM     13  C   UNL d   1      -0.556   3.843  -0.154  0.00  0.00     0.060 C 
BRANCH  13  14
ATOM     14  C   UNL d   1      -0.051   4.408   1.176  0.00  0.00     0.002 C 
ATOM     15  C   UNL d   1       0.402   5.856   1.023  0.00  0.00     0.005 C 
ENDBRANCH  13  14
ENDBRANCH   8  13
BRANCH   9  16
ATOM     16  C   UNL d   1      -3.639   2.908   0.065  0.00  0.00     0.056 A 
ATOM     17  C   UNL d   1      -4.833   2.411  -0.492  0.00  0.00     0.033 A 
ATOM     18  C   UNL d   1      -6.047   3.073  -0.294  0.00  0.00     0.026 A 
ATOM     19  C   UNL d   1      -6.080   4.223   0.487  0.00  0.00     0.034 A 
ATOM     20  C   UNL d   1      -4.904   4.736   1.032  0.00  0.00     0.026 A 
ATOM     21 CL   UNL d   1      -7.583   4.995   0.807  0.00  0.00    -0.084 Cl
ATOM     22  C   UNL d   1      -3.680   4.090   0.810  0.00  0.00     0.033 A 
ENDBRANCH   9  16
ENDBRANCH   5   7
ENDBRANCH   4   5
ENDBRANCH   2   4
BRANCH   1  23
ATOM     23  C   UNL d   1       3.675  -2.818  -1.099  0.00  0.00     0.005 A 
ATOM     24  C   UNL d   1       4.398  -2.201  -2.127  0.00  0.00     0.031 A 
ATOM     25  C   UNL d   1       5.281  -2.946  -2.930  0.00  0.00     0.049 A 
ATOM     26  C   UNL d   1       5.421  -4.325  -2.697  0.00  0.00     0.032 A 
ATOM     27  C   UNL d   1       4.697  -4.963  -1.678  0.00  0.00     0.049 A 
ATOM     28  C   UNL d   1       3.817  -4.199  -0.892  0.00  0.00     0.031 A 
BRANCH  25  29
ATOM     29  C   UNL d   1       6.075  -2.259  -4.019  0.00  0.00     0.417 C 
ATOM     30  F   UNL d   1       6.909  -3.102  -4.690  0.00  0.00    -0.166 F 
ATOM     31  F   UNL d   1       5.281  -1.687  -4.964  0.00  0.00    -0.166 F 
ATOM     32  F   UNL d   1       6.865  -1.264  -3.532  0.00  0.00    -0.166 F 
ENDBRANCH  25  29
BRANCH  27  33
ATOM     33  C   UNL d   1       4.848  -6.445  -1.418  0.00  0.00     0.417 C 
ATOM     34  F   UNL d   1       5.830  -7.030  -2.158  0.00  0.00    -0.166 F 
ATOM     35  F   UNL d   1       5.154  -6.708  -0.117  0.00  0.00    -0.166 F 
ATOM     36  F   UNL d   1       3.710  -7.140  -1.683  0.00  0.00    -0.166 F 
ENDBRANCH  27  33
ENDBRANCH   1  23
BRANCH   1  37
ATOM     37  N   UNL d   1       2.356  -2.540   0.978  0.00  0.00    -0.286 NA
ATOM     38  H   UNL d   1       3.078  -3.058   1.470  0.00  0.00     0.125 HD
ATOM     39  H   UNL d   1       1.944  -1.835   1.581  0.00  0.00     0.125 HD
ENDBRANCH   1  37
TORSDOF 10
