REMARK  7 active torsions:
REMARK  status: ('A' for Active; 'I' for Inactive)
REMARK    1  A    between atoms: S_2  and  C_1 
REMARK    2  A    between atoms: C_18  and  S_2 
REMARK    3  A    between atoms: C_3  and  S_9 
REMARK    4  A    between atoms: N_8  and  C_4 
REMARK    5  A    between atoms: N_7  and  C_5 
REMARK    6  A    between atoms: S_9  and  C_6 
REMARK    7  A    between atoms: C_12  and  C_13 
ROOT
ATOM      1  S   UNL d   1       0.003   2.353   1.270  0.00  0.00    -0.075 SA
ENDROOT
BRANCH   1   2
ATOM      2  C   UNL d   1      -0.306   1.923   3.001  0.00  0.00     0.072 C 
ATOM      3  C   UNL d   1       0.664   2.177   3.981  0.00  0.00     0.123 C 
ATOM      4  C   UNL d   1       0.676   1.521   5.229  0.00  0.00     0.053 C 
ATOM      5  C   UNL d   1      -0.346   0.624   5.565  0.00  0.00     0.052 C 
ATOM      6  C   UNL d   1      -1.440   0.525   4.698  0.00  0.00     0.053 C 
ATOM      7  C   UNL d   1      -1.422   1.191   3.452  0.00  0.00     0.123 C 
BRANCH   3   8
ATOM      8  N   UNL d   1       1.616   3.263   3.807  0.00  0.00    -0.114 N 
ATOM      9  O   UNL d   1       1.147   4.390   3.606  0.00  0.00    -0.532 OA
ATOM     10  O   UNL d   1       2.808   2.984   3.996  0.00  0.00    -0.532 OA
ENDBRANCH   3   8
BRANCH   5  11
ATOM     11  C   UNL d   1      -0.255  -0.199   6.832  0.00  0.00     0.417 C 
ATOM     12  F   UNL d   1      -1.365  -0.948   7.068  0.00  0.00    -0.166 F 
ATOM     13  F   UNL d   1       0.786  -1.074   6.787  0.00  0.00    -0.166 F 
ATOM     14  F   UNL d   1      -0.064   0.564   7.938  0.00  0.00    -0.166 F 
ENDBRANCH   5  11
BRANCH   7  15
ATOM     15  N   UNL d   1      -2.664   1.170   2.693  0.00  0.00    -0.114 N 
ATOM     16  O   UNL d   1      -3.158   2.263   2.394  0.00  0.00    -0.532 OA
ATOM     17  O   UNL d   1      -3.176   0.062   2.484  0.00  0.00    -0.532 OA
ENDBRANCH   7  15
ENDBRANCH   1   2
BRANCH   1  18
ATOM     18  C   UNL d   1       0.624   0.800   0.650  0.00  0.00     0.086 A 
ATOM     19  C   UNL d   1       1.808   0.463  -0.018  0.00  0.00     0.158 A 
ATOM     20  N   UNL d   1       1.904  -0.881  -0.406  0.00  0.00    -0.349 N 
ATOM     21  C   UNL d   1       0.810  -1.523  -0.083  0.00  0.00     0.140 A 
ATOM     22  HN  UNL d   1       2.709  -1.298  -0.873  1.00  0.00     0.166 HD
ATOM     23  S   UNL d   1      -0.384  -0.608   0.703  0.00  0.00    -0.074 SA
BRANCH  19  24
ATOM     24  S   UNL d   1       3.097   1.566  -0.447  0.00  0.00     0.224 S 
ATOM     25  O   UNL d   1       2.588   2.219  -1.637  0.00  0.00    -0.216 OA
ATOM     26  O   UNL d   1       3.364   2.291   0.780  0.00  0.00    -0.216 OA
BRANCH  24  27
ATOM     27  C   UNL d   1       4.605   0.712  -0.901  0.00  0.00     0.065 A 
ATOM     28  C   UNL d   1       4.900  -0.592  -0.495  0.00  0.00     0.024 A 
ATOM     29  C   UNL d   1       6.106  -1.199  -0.887  0.00  0.00     0.008 A 
ATOM     30  C   UNL d   1       7.043  -0.508  -1.668  0.00  0.00    -0.062 A 
ATOM     31  C   UNL d   1       6.747   0.800  -2.066  0.00  0.00     0.008 A 
ATOM     32  C   UNL d   1       8.326  -1.176  -2.083  0.00  0.00     0.048 C 
ATOM     33  C   UNL d   1       5.537   1.405  -1.690  0.00  0.00     0.024 A 
ENDBRANCH  24  27
ENDBRANCH  19  24
ENDBRANCH   1  18
TORSDOF 7
