REMARK  7 active torsions:
REMARK  status: ('A' for Active; 'I' for Inactive)
REMARK    1  A    between atoms: C_4  and  C_1 
REMARK    2  A    between atoms: C_5  and  C_1 
REMARK    3  A    between atoms: N_6  and  N_2 
REMARK    4  A    between atoms: O_12  and  C_4 
REMARK    5  A    between atoms: C_14  and  C_5 
REMARK    6  A    between atoms: C_10  and  N_6 
REMARK    7  A    between atoms: O_15  and  C_14 
ROOT
ATOM      1  C   UNL d   1       1.059  -0.001   0.101  0.00  0.00     0.172 C 
ATOM      2  N   UNL d   1       0.351  -0.979   0.606  0.00  0.00    -0.292 N 
ATOM      3  HN  UNL d   1      -0.668  -0.952   0.587  1.00  0.00     0.187 HD
ENDROOT
BRANCH   2   4
ATOM      4  N   UNL d   1       1.011  -2.029   1.156  0.00  0.00    -0.300 N 
ATOM      5  H   UNL d   1       2.030  -2.120   1.081  0.00  0.00     0.187 HD
BRANCH   4   6
ATOM      6  C   UNL d   1       0.390  -2.782   2.167  0.00  0.00     0.049 A 
ATOM      7  C   UNL d   1      -0.943  -2.573   2.541  0.00  0.00     0.054 A 
ATOM      8  C   UNL d   1      -1.534  -3.357   3.530  0.00  0.00     0.036 A 
ATOM      9 CL   UNL d   1      -3.169  -3.073   3.985  0.00  0.00    -0.084 Cl
ATOM     10  C   UNL d   1      -0.811  -4.373   4.153  0.00  0.00     0.024 A 
ATOM     11  C   UNL d   1       0.508  -4.609   3.775  0.00  0.00     0.004 A 
ATOM     12  C   UNL d   1       1.101  -3.823   2.783  0.00  0.00     0.031 A 
ENDBRANCH   4   6
ENDBRANCH   2   4
BRANCH   1  13
ATOM     13  C   UNL d   1       0.308   1.131  -0.576  0.00  0.00     0.315 C 
ATOM     14  O   UNL d   1       0.804   1.743  -1.509  0.00  0.00    -0.257 OA
BRANCH  13  15
ATOM     15  O   UNL d   1      -0.900   1.340  -0.022  0.00  0.00    -0.321 OA
ATOM     16  C   UNL d   1      -1.651   2.389  -0.634  0.00  0.00     0.213 C 
ENDBRANCH  13  15
ENDBRANCH   1  13
BRANCH   1  17
ATOM     17  C   UNL d   1       2.578   0.034   0.154  0.00  0.00     0.206 C 
ATOM     18  O   UNL d   1       3.218  -1.011   0.069  0.00  0.00    -0.288 OA
BRANCH  17  19
ATOM     19  C   UNL d   1       3.226   1.390   0.313  0.00  0.00     0.252 C 
BRANCH  19  20
ATOM     20  O   UNL d   1       2.715   2.046   1.464  0.00  0.00    -0.388 OA
ATOM     21  C   UNL d   1       3.366   3.294   1.679  0.00  0.00     0.202 C 
ENDBRANCH  19  20
ENDBRANCH  17  19
ENDBRANCH   1  17
TORSDOF 7
