REMARK  3 active torsions:
REMARK  status: ('A' for Active; 'I' for Inactive)
REMARK    1  A    between atoms: C_2  and  S_1 
REMARK    2  A    between atoms: N_8  and  S_1 
REMARK    3  A    between atoms: C_9  and  N_8 
ROOT
ATOM      1  S   UNL d   1       0.876   0.080   0.023  0.00  0.00     0.246 S 
ATOM      2  O   UNL d   1       0.611  -1.247  -0.498  0.00  0.00    -0.205 OA
ATOM      3  O   UNL d   1       2.204   0.632  -0.110  0.00  0.00    -0.205 OA
ENDROOT
BRANCH   1   4
ATOM      4  C   UNL d   1       0.371   0.243   1.760  0.00  0.00     0.087 A 
ATOM      5  C   UNL d   1       0.027  -0.900   2.544  0.00  0.00    -0.032 A 
ATOM      6  C   UNL d   1      -0.407  -0.716   3.893  0.00  0.00    -0.048 A 
ATOM      7  C   UNL d   1       0.102  -2.326   2.050  0.00  0.00     0.050 C 
ATOM      8  C   UNL d   1      -0.784  -1.893   4.777  0.00  0.00     0.049 C 
ATOM      9  C   UNL d   1      -0.468   0.583   4.463  0.00  0.00    -0.049 A 
ATOM     10  C   UNL d   1      -0.152   1.714   3.678  0.00  0.00    -0.048 A 
ATOM     11  C   UNL d   1      -0.822   0.717   5.934  0.00  0.00     0.049 C 
ATOM     12  C   UNL d   1       0.345   1.546   2.351  0.00  0.00    -0.032 A 
ATOM     13  C   UNL d   1      -0.316   3.094   4.287  0.00  0.00     0.049 C 
ATOM     14  C   UNL d   1       0.837   2.784   1.628  0.00  0.00     0.050 C 
ENDBRANCH   1   4
BRANCH   1  15
ATOM     15  N   UNL d   1      -0.181   1.124  -0.830  0.00  0.00    -0.181 NA
ATOM     16  H   UNL d   1       0.319   1.536  -1.621  0.00  0.00     0.146 HD
BRANCH  15  17
ATOM     17  C   UNL d   1      -1.499   0.640  -1.077  0.00  0.00     0.026 A 
ATOM     18  C   UNL d   1      -2.557   1.232  -0.391  0.00  0.00     0.048 A 
ATOM     19  C   UNL d   1      -3.848   0.727  -0.545  0.00  0.00     0.037 A 
ATOM     20 CL   UNL d   1      -5.149   1.444   0.322  0.00  0.00    -0.084 Cl
ATOM     21  C   UNL d   1      -4.093  -0.361  -1.381  0.00  0.00     0.047 A 
ATOM     22  C   UNL d   1      -3.037  -0.918  -2.095  0.00  0.00     0.037 A 
ATOM     23  C   UNL d   1      -1.745  -0.409  -1.968  0.00  0.00     0.048 A 
ATOM     24 CL   UNL d   1      -3.327  -2.269  -3.125  0.00  0.00    -0.084 Cl
ENDBRANCH  15  17
ENDBRANCH   1  15
TORSDOF 3
