REMARK  2 active torsions:
REMARK  status: ('A' for Active; 'I' for Inactive)
REMARK    1  A    between atoms: C_10  and  C_4 
REMARK    2  A    between atoms: C_12  and  C_7 
ROOT
ATOM      1  N   UNL d   1       7.487  -3.356  -0.144  0.00  0.00    -0.191 NA
ATOM      2  C   UNL d   1       6.354  -3.108  -0.139  0.00  0.00     0.099 C 
ATOM      3  C   UNL d   1       2.197  -2.312  -0.128  0.00  0.00    -0.035 A 
ATOM      4  C   UNL d   1       4.950  -2.821  -0.133  0.00  0.00     0.044 A 
ATOM      5  C   UNL d   1       2.878  -2.505   1.080  0.00  0.00     0.013 A 
ATOM      6  C   UNL d   1       2.897  -2.361  -1.337  0.00  0.00     0.013 A 
ATOM      7  C   UNL d   1       4.251  -2.761   1.076  0.00  0.00     0.023 A 
ATOM      8  C   UNL d   1       4.271  -2.615  -1.340  0.00  0.00     0.023 A 
ENDROOT
BRANCH   3   9
ATOM      9  C   UNL d   1       0.746  -2.134  -0.124  0.00  0.00     0.031 C 
ATOM     10  C   UNL d   1       0.092  -0.976   0.045  0.00  0.00     0.071 A 
ATOM     11  C   UNL d   1      -1.352  -0.763   0.099  0.00  0.00     0.081 A 
ATOM     12  C   UNL d   1       0.671   0.373   0.121  0.00  0.00     0.317 A 
ATOM     13  N   UNL d   1      -1.643   0.506   0.115  0.00  0.00    -0.256 N 
ATOM     14  O   UNL d   1      -0.404   1.235   0.124  0.00  0.00    -0.194 OA
ATOM     15  HN  UNL d   1      -2.579   0.910   0.120  1.00  0.00     0.195 HD
ATOM     16  O   UNL d   1       1.845   0.691   0.144  0.00  0.00    -0.257 OA
BRANCH  11  17
ATOM     17  C   UNL d   1      -2.372  -1.825   0.126  0.00  0.00    -0.006 A 
ATOM     18  C   UNL d   1      -3.580  -1.607  -0.547  0.00  0.00     0.014 A 
ATOM     19  C   UNL d   1      -4.553  -2.608  -0.578  0.00  0.00     0.001 A 
ATOM     20  C   UNL d   1      -4.327  -3.824   0.066  0.00  0.00     0.000 A 
ATOM     21  C   UNL d   1      -3.145  -4.029   0.775  0.00  0.00     0.001 A 
ATOM     22  C   UNL d   1      -2.179  -3.023   0.825  0.00  0.00     0.014 A 
ENDBRANCH  11  17
ENDBRANCH   3   9
TORSDOF 2
