REMARK  4 active torsions:
REMARK  status: ('A' for Active; 'I' for Inactive)
REMARK    1  A    between atoms: C_5  and  C_3 
REMARK    2  A    between atoms: C_8  and  C_4 
REMARK    3  A    between atoms: O_16  and  N_9 
REMARK    4  A    between atoms: C_15  and  O_16 
ROOT
ATOM      1  N   UNL d   1       4.031  -0.282  -0.007  0.00  0.00    -0.346 N 
ATOM      2  HN  UNL d   1       3.281  -0.974  -0.012  1.00  0.00     0.167 HD
ATOM      3  C   UNL d   1       5.319  -0.567   0.033  0.00  0.00     0.111 A 
ATOM      4  C   UNL d   1       3.843   1.100  -0.042  0.00  0.00     0.064 A 
ATOM      5  S   UNL d   1       6.374   0.786   0.022  0.00  0.00    -0.079 SA
ATOM      6  C   UNL d   1       5.021   1.829  -0.057  0.00  0.00     0.083 A 
ENDROOT
BRANCH   4   7
ATOM      7  C   UNL d   1       2.503   1.695  -0.050  0.00  0.00     0.056 C 
ATOM      8  N   UNL d   1       2.442   2.994  -0.071  0.00  0.00    -0.260 N 
ATOM      9  HN  UNL d   1       3.262   3.600  -0.094  1.00  0.00     0.194 HD
ATOM     10  C   UNL d   1       1.284   0.805  -0.018  0.00  0.00     0.072 C 
BRANCH   8  11
ATOM     11  O   UNL d   1       1.116   3.468  -0.058  0.00  0.00    -0.200 OA
BRANCH  11  12
ATOM     12  C   UNL d   1       1.117   4.842  -0.067  0.00  0.00     0.277 C 
ATOM     13  O   UNL d   1       2.098   5.580  -0.091  0.00  0.00    -0.264 OA
ATOM     14  C   UNL d   1      -0.290   5.362  -0.048  0.00  0.00     0.128 C 
ENDBRANCH  11  12
ENDBRANCH   8  11
ENDBRANCH   4   7
BRANCH   3  15
ATOM     15  C   UNL d   1       5.816  -1.912   0.083  0.00  0.00     0.134 A 
ATOM     16  O   UNL d   1       7.148  -2.224   0.174  0.00  0.00    -0.236 OA
ATOM     17  N   UNL d   1       7.317  -3.597   0.198  0.00  0.00    -0.272 N 
ATOM     18  C   UNL d   1       6.088  -4.104   0.121  0.00  0.00     0.117 A 
ATOM     19  HN  UNL d   1       8.196  -4.112   0.261  1.00  0.00     0.194 HD
ATOM     20  C   UNL d   1       5.109  -3.099   0.051  0.00  0.00     0.061 A 
ENDBRANCH   3  15
TORSDOF 4
