REMARK  2 active torsions:
REMARK  status: ('A' for Active; 'I' for Inactive)
REMARK    1  A    between atoms: N_7  and  C_2 
REMARK    2  A    between atoms: C_13  and  C_3 
ROOT
ATOM      1  C   UNL d   1       0.187   1.044  -0.021  0.00  0.00     0.048 A 
ATOM      2  C   UNL d   1       1.525   1.511   0.061  0.00  0.00     0.097 A 
ATOM      3  C   UNL d   1      -1.116   1.700  -0.081  0.00  0.00    -0.003 A 
ATOM      4  C   UNL d   1       0.036  -0.333  -0.070  0.00  0.00     0.089 A 
ATOM      5  C   UNL d   1      -2.147   0.778  -0.131  0.00  0.00     0.065 A 
ATOM      6  S   UNL d   1      -1.590  -0.834  -0.124  0.00  0.00    -0.082 SA
ATOM      7  N   UNL d   1       2.531   0.603   0.022  0.00  0.00    -0.342 N 
ATOM      8  HN  UNL d   1       3.504   0.908   0.041  1.00  0.00     0.167 HD
ATOM      9  N   UNL d   1       1.014  -1.252  -0.074  0.00  0.00    -0.346 N 
ATOM     10  HN  UNL d   1       0.848  -2.258  -0.098  1.00  0.00     0.167 HD
ATOM     11  C   UNL d   1       2.227  -0.699  -0.043  0.00  0.00     0.182 A 
ENDROOT
BRANCH   2  12
ATOM     12  N   UNL d   1       1.828   2.872   0.155  0.00  0.00    -0.269 NA
ATOM     13  C   UNL d   1       3.046   3.278  -0.545  0.00  0.00     0.097 C 
ATOM     14  C   UNL d   1       3.007   4.801  -0.685  0.00  0.00     0.015 C 
ATOM     15  C   UNL d   1       2.848   5.495   0.670  0.00  0.00     0.002 C 
ATOM     16  C   UNL d   1       1.753   4.874   1.541  0.00  0.00     0.015 C 
ATOM     17  C   UNL d   1       1.790   3.345   1.544  0.00  0.00     0.097 C 
ENDBRANCH   2  12
BRANCH   3  18
ATOM     18  C   UNL d   1      -1.421   3.132  -0.124  0.00  0.00    -0.024 A 
ATOM     19  C   UNL d   1      -0.779   3.967  -1.046  0.00  0.00     0.012 A 
ATOM     20  C   UNL d   1      -1.026   5.343  -1.056  0.00  0.00     0.001 A 
ATOM     21  C   UNL d   1      -1.942   5.893  -0.163  0.00  0.00     0.000 A 
ATOM     22  C   UNL d   1      -2.618   5.067   0.733  0.00  0.00     0.001 A 
ATOM     23  C   UNL d   1      -2.358   3.693   0.755  0.00  0.00     0.012 A 
ENDBRANCH   3  18
TORSDOF 2
