REMARK  3 active torsions:
REMARK  status: ('A' for Active; 'I' for Inactive)
REMARK    1  A    between atoms: C_4  and  C_1 
REMARK    2  A    between atoms: N_3  and  C_2 
REMARK    3  A    between atoms: O_13  and  C_4 
ROOT
ATOM      1  C   UNL d   1       0.118   1.307   0.069  0.00  0.00     0.105 A 
ATOM      2  C   UNL d   1       1.397   0.758   0.019  0.00  0.00     0.062 A 
ATOM      3  S   UNL d   1      -1.080   0.058   0.035  0.00  0.00    -0.093 SA
ATOM      4  C   UNL d   1       1.357  -0.668  -0.162  0.00  0.00     0.039 A 
ATOM      5  C   UNL d   1       0.079  -1.171  -0.147  0.00  0.00     0.053 A 
ENDROOT
BRANCH   2   6
ATOM      6  N   UNL d   1       2.648   1.456   0.130  0.00  0.00    -0.331 N 
ATOM      7  C   UNL d   1       3.861   1.003  -0.361  0.00  0.00     0.096 A 
ATOM      8  C   UNL d   1       4.852   1.902  -0.035  0.00  0.00     0.019 A 
ATOM      9  C   UNL d   1       4.246   2.928   0.716  0.00  0.00     0.019 A 
ATOM     10  C   UNL d   1       2.904   2.628   0.808  0.00  0.00     0.096 A 
ENDBRANCH   2   6
BRANCH   1  11
ATOM     11  C   UNL d   1      -0.321   2.700   0.055  0.00  0.00     0.185 C 
ATOM     12  O   UNL d   1       0.365   3.676  -0.205  0.00  0.00    -0.646 OA
BRANCH  11  13
ATOM     13  O   UNL d   1      -1.643   2.847   0.344  0.00  0.00    -0.772 OA
ATOM     14  H   UNL d   1      -2.082   1.986   0.480  0.00  0.00     0.167 HD
ENDBRANCH  11  13
ENDBRANCH   1  11
TORSDOF 3
