REMARK  5 active torsions:
REMARK  status: ('A' for Active; 'I' for Inactive)
REMARK    1  A    between atoms: C_2  and  S_1 
REMARK    2  A    between atoms: C_3  and  S_1 
REMARK    3  A    between atoms: C_12  and  C_5 
REMARK    4  A    between atoms: S_15  and  C_16 
REMARK    5  A    between atoms: C_17  and  S_15 
ROOT
ATOM      1  C   UNL d   1      -1.461   0.171   2.993  0.00  0.00     0.146 C 
ATOM      2  C   UNL d   1      -0.736   0.800   2.048  0.00  0.00     0.048 C 
ATOM      3  C   UNL d   1      -2.792   0.498   3.331  0.00  0.00     0.112 C 
ATOM      4  N   UNL d   1      -3.890   0.756   3.593  0.00  0.00    -0.191 NA
ENDROOT
BRANCH   1   5
ATOM      5  S   UNL d   1      -0.647  -1.104   3.832  0.00  0.00     0.233 S 
ATOM      6  O   UNL d   1      -0.385  -2.200   2.918  0.00  0.00    -0.215 OA
ATOM      7  O   UNL d   1       0.431  -0.532   4.618  0.00  0.00    -0.215 OA
BRANCH   5   8
ATOM      8  C   UNL d   1      -1.711  -1.815   5.048  0.00  0.00     0.152 A 
ATOM      9  N   UNL d   1      -2.693  -2.757   4.827  0.00  0.00    -0.337 N 
ATOM     10  C   UNL d   1      -3.164  -3.170   6.045  0.00  0.00     0.183 A 
ATOM     11  C   UNL d   1      -3.168  -3.303   3.579  0.00  0.00     0.158 C 
ATOM     12  N   UNL d   1      -2.601  -2.514   7.030  0.00  0.00    -0.359 N 
ATOM     13  C   UNL d   1      -1.699  -1.681   6.427  0.00  0.00     0.131 A 
ATOM     14  HN  UNL d   1      -2.793  -2.605   8.027  1.00  0.00     0.166 HD
ENDBRANCH   5   8
ENDBRANCH   1   5
BRANCH   2  15
ATOM     15  C   UNL d   1      -1.159   1.940   1.222  0.00  0.00    -0.017 A 
ATOM     16  C   UNL d   1      -1.759   1.796  -0.045  0.00  0.00     0.015 A 
ATOM     17  C   UNL d   1      -1.986   2.941  -0.827  0.00  0.00     0.019 A 
ATOM     18  C   UNL d   1      -1.659   4.211  -0.348  0.00  0.00     0.001 A 
ATOM     19  C   UNL d   1      -1.095   4.353   0.915  0.00  0.00     0.001 A 
ATOM     20  C   UNL d   1      -0.842   3.224   1.695  0.00  0.00     0.013 A 
BRANCH  16  21
ATOM     21  S   UNL d   1      -2.119   0.203  -0.774  0.00  0.00    -0.090 SA
BRANCH  21  22
ATOM     22  C   UNL d   1      -3.832  -0.121  -0.383  0.00  0.00     0.005 A 
ATOM     23  C   UNL d   1      -4.782   0.865  -0.094  0.00  0.00     0.020 A 
ATOM     24  C   UNL d   1      -6.111   0.516   0.183  0.00  0.00     0.025 A 
ATOM     25  C   UNL d   1      -6.498  -0.821   0.167  0.00  0.00     0.034 A 
ATOM     26  C   UNL d   1      -5.572  -1.813  -0.138  0.00  0.00     0.025 A 
ATOM     27 CL   UNL d   1      -8.126  -1.250   0.518  0.00  0.00    -0.084 Cl
ATOM     28  C   UNL d   1      -4.247  -1.462  -0.414  0.00  0.00     0.020 A 
ENDBRANCH  21  22
ENDBRANCH  16  21
ENDBRANCH   2  15
TORSDOF 5
