REMARK  5 active torsions:
REMARK  status: ('A' for Active; 'I' for Inactive)
REMARK    1  A    between atoms: C_4  and  C_1 
REMARK       I    between atoms: C_2  and  N_6 
REMARK    2  A    between atoms: C_15  and  C_2 
REMARK       I    between atoms: C_3  and  N_5 
REMARK    3  A    between atoms: C_14  and  C_3 
REMARK    4  A    between atoms: N_5  and  C_8 
REMARK    5  A    between atoms: N_6  and  C_7 
ROOT
ATOM      1  C   UNL d   1       0.611  -0.743  -1.195  0.00  0.00     0.052 A 
ATOM      2  C   UNL d   1      -0.638  -1.267  -3.226  0.00  0.00     0.037 A 
ATOM      3  C   UNL d   1       0.658  -3.005  -2.095  0.00  0.00     0.037 A 
ATOM      4  C   UNL d   1       1.069  -2.062  -1.150  0.00  0.00     0.046 A 
ATOM      5  C   UNL d   1      -0.249  -0.363  -2.232  0.00  0.00     0.046 A 
ATOM      6  C   UNL d   1      -0.178  -2.595  -3.147  0.00  0.00     0.059 A 
ENDROOT
BRANCH   2   7
ATOM      7  N   UNL d   1      -1.514  -0.899  -4.282  0.00  0.00    -0.323 N 
ATOM      8  C   UNL d   1      -1.861   0.403  -4.615  0.00  0.00     0.256 C 
ATOM      9  O   UNL d   1      -1.353   1.419  -4.146  0.00  0.00    -0.267 OA
ATOM     10  H   UNL d   1      -1.833  -1.640  -4.891  0.00  0.00     0.169 HD
BRANCH   8  11
ATOM     11  C   UNL d   1      -2.904   0.597  -5.662  0.00  0.00     0.032 A 
ATOM     12  C   UNL d   1      -3.937  -0.319  -5.893  0.00  0.00     0.017 A 
ATOM     13  C   UNL d   1      -4.932  -0.021  -6.830  0.00  0.00     0.001 A 
ATOM     14  C   UNL d   1      -4.905   1.185  -7.532  0.00  0.00     0.000 A 
ATOM     15  C   UNL d   1      -3.883   2.102  -7.304  0.00  0.00     0.001 A 
ATOM     16  C   UNL d   1      -2.889   1.808  -6.372  0.00  0.00     0.017 A 
ENDBRANCH   8  11
ENDBRANCH   2   7
BRANCH   1  17
ATOM     17  C   UNL d   1       1.013   0.259  -0.142  0.00  0.00     0.417 C 
ATOM     18  F   UNL d   1       1.827  -0.253   0.823  0.00  0.00    -0.166 F 
ATOM     19  F   UNL d   1      -0.060   0.778   0.517  0.00  0.00    -0.166 F 
ATOM     20  F   UNL d   1       1.684   1.323  -0.663  0.00  0.00    -0.166 F 
ENDBRANCH   1  17
BRANCH   3  21
ATOM     21  N   UNL d   1       1.061  -4.363  -2.020  0.00  0.00    -0.323 N 
ATOM     22  C   UNL d   1       1.565  -4.973  -0.876  0.00  0.00     0.256 C 
ATOM     23  O   UNL d   1       1.651  -4.452   0.232  0.00  0.00    -0.267 OA
ATOM     24  H   UNL d   1       0.816  -4.960  -2.799  0.00  0.00     0.169 HD
BRANCH  22  25
ATOM     25  C   UNL d   1       1.976  -6.399  -0.986  0.00  0.00     0.032 A 
ATOM     26  C   UNL d   1       2.475  -6.959  -2.166  0.00  0.00     0.017 A 
ATOM     27  C   UNL d   1       2.914  -8.288  -2.171  0.00  0.00     0.001 A 
ATOM     28  C   UNL d   1       2.859  -9.054  -1.005  0.00  0.00     0.000 A 
ATOM     29  C   UNL d   1       2.366  -8.500   0.173  0.00  0.00     0.001 A 
ATOM     30  C   UNL d   1       1.928  -7.177   0.183  0.00  0.00     0.017 A 
ENDBRANCH  22  25
ENDBRANCH   3  21
TORSDOF 5
