REMARK  4 active torsions:
REMARK  status: ('A' for Active; 'I' for Inactive)
REMARK    1  A    between atoms: O_10  and  C_1 
REMARK    2  A    between atoms: C_5  and  C_2 
REMARK    3  A    between atoms: O_12  and  C_4 
REMARK    4  A    between atoms: O_11  and  C_5 
ROOT
ATOM      1  C   UNL d   1       0.833  -1.130  -0.011  0.00  0.00     0.118 A 
ATOM      2  C   UNL d   1       2.435   1.225  -0.003  0.00  0.00     0.041 A 
ATOM      3  C   UNL d   1       0.243   0.151  -0.005  0.00  0.00     0.048 A 
ATOM      4  C   UNL d   1       2.252  -1.199  -0.005  0.00  0.00     0.103 A 
ATOM      5  C   UNL d   1       1.046   1.309  -0.001  0.00  0.00     0.040 A 
ATOM      6  C   UNL d   1       3.033  -0.030   0.009  0.00  0.00     0.058 A 
ATOM      7 BR   UNL d   1      -1.620   0.555   0.002  0.00  0.00    -0.048 Br
ENDROOT
BRANCH   2   8
ATOM      8  C   UNL d   1       3.212   2.489   0.037  0.00  0.00     0.176 C 
ATOM      9  O   UNL d   1       2.769   3.511   0.536  0.00  0.00    -0.646 OA
BRANCH   8  10
ATOM     10  O   UNL d   1       4.420   2.423  -0.558  0.00  0.00    -0.773 OA
ATOM     11  H   UNL d   1       4.601   1.612  -1.066  0.00  0.00     0.167 HD
ENDBRANCH   8  10
ENDBRANCH   2   8
BRANCH   4  12
ATOM     12  O   UNL d   1       3.062  -2.311  -0.008  0.00  0.00    -0.353 OA
ATOM     13  C   UNL d   1       2.496  -3.613   0.008  0.00  0.00     0.210 C 
ENDBRANCH   4  12
BRANCH   1  14
ATOM     14  O   UNL d   1       0.213  -2.343  -0.021  0.00  0.00    -0.352 OA
ATOM     15  C   UNL d   1      -1.188  -2.518  -0.004  0.00  0.00     0.210 C 
ENDBRANCH   1  14
TORSDOF 4
