REMARK  6 active torsions:
REMARK  status: ('A' for Active; 'I' for Inactive)
REMARK    1  A    between atoms: C_3  and  C_1 
REMARK    2  A    between atoms: C_4  and  C_2 
REMARK    3  A    between atoms: O_6  and  C_3 
REMARK    4  A    between atoms: O_7  and  C_4 
REMARK    5  A    between atoms: C_8  and  O_6 
REMARK    6  A    between atoms: C_9  and  O_7 
ROOT
ATOM      1  C   UNL d   1       0.311   1.193  -0.144  0.00  0.00     0.079 A 
ATOM      2  C   UNL d   1       0.297  -1.227   0.120  0.00  0.00     0.079 A 
ATOM      3  C   UNL d   1       0.993  -0.023  -0.023  0.00  0.00     0.148 A 
ATOM      4  F   UNL d   1       2.335  -0.033  -0.045  0.00  0.00    -0.204 F 
ATOM      5  C   UNL d   1      -1.089   1.196  -0.141  0.00  0.00     0.021 A 
ATOM      6  C   UNL d   1      -1.103  -1.208   0.158  0.00  0.00     0.021 A 
ATOM      7  C   UNL d   1      -1.793  -0.001   0.019  0.00  0.00     0.002 A 
ENDROOT
BRANCH   1   8
ATOM      8  C   UNL d   1       1.025   2.496  -0.194  0.00  0.00     0.301 C 
ATOM      9  O   UNL d   1       0.482   3.570  -0.397  0.00  0.00    -0.259 OA
BRANCH   8  10
ATOM     10  O   UNL d   1       2.351   2.297   0.135  0.00  0.00    -0.273 OA
BRANCH  10  11
ATOM     11  C   UNL d   1       2.999   3.319   0.835  0.00  0.00     0.101 A 
ATOM     12  C   UNL d   1       2.606   3.693   2.130  0.00  0.00     0.069 A 
ATOM     13  C   UNL d   1       3.386   4.596   2.846  0.00  0.00     0.050 A 
ATOM     14 CL   UNL d   1       1.240   2.993   2.919  0.00  0.00    -0.081 Cl
ATOM     15  C   UNL d   1       4.562   5.090   2.284  0.00  0.00     0.035 A 
ATOM     16  C   UNL d   1       4.967   4.697   1.008  0.00  0.00     0.026 A 
ATOM     17 CL   UNL d   1       5.551   6.164   3.196  0.00  0.00    -0.084 Cl
ATOM     18  C   UNL d   1       4.184   3.803   0.277  0.00  0.00     0.041 A 
ENDBRANCH  10  11
ENDBRANCH   8  10
ENDBRANCH   1   8
BRANCH   2  19
ATOM     19  C   UNL d   1       0.991  -2.542   0.145  0.00  0.00     0.301 C 
ATOM     20  O   UNL d   1       0.436  -3.609   0.355  0.00  0.00    -0.259 OA
BRANCH  19  21
ATOM     21  O   UNL d   1       2.312  -2.362  -0.211  0.00  0.00    -0.273 OA
BRANCH  21  22
ATOM     22  C   UNL d   1       2.927  -3.381  -0.949  0.00  0.00     0.101 A 
ATOM     23  C   UNL d   1       2.489  -3.733  -2.233  0.00  0.00     0.069 A 
ATOM     24  C   UNL d   1       3.236  -4.633  -2.989  0.00  0.00     0.050 A 
ATOM     25 CL   UNL d   1       1.105  -3.009  -2.972  0.00  0.00    -0.081 Cl
ATOM     26  C   UNL d   1       4.426  -5.146  -2.473  0.00  0.00     0.035 A 
ATOM     27  C   UNL d   1       4.875  -4.773  -1.205  0.00  0.00     0.026 A 
ATOM     28 CL   UNL d   1       5.373  -6.216  -3.432  0.00  0.00    -0.084 Cl
ATOM     29  C   UNL d   1       4.123  -3.884  -0.437  0.00  0.00     0.041 A 
ENDBRANCH  21  22
ENDBRANCH  19  21
ENDBRANCH   2  19
TORSDOF 6
