REMARK  3 active torsions:
REMARK  status: ('A' for Active; 'I' for Inactive)
REMARK    1  A    between atoms: C_3  and  S_1 
REMARK    2  A    between atoms: C_4  and  S_1 
REMARK    3  A    between atoms: C_2  and  C_3 
ROOT
ATOM      1  S   UNL d   1       1.125   0.026   0.045  0.00  0.00     0.179 S 
ATOM      2  O   UNL d   1       0.683   1.381  -0.230  0.00  0.00    -0.222 OA
ATOM      3  O   UNL d   1       2.542  -0.284   0.098  0.00  0.00    -0.222 OA
ENDROOT
BRANCH   1   4
ATOM      4  C   UNL d   1       0.301  -1.120  -1.059  0.00  0.00     0.187 C 
BRANCH   4   5
ATOM      5  C   UNL d   1       0.770  -0.910  -2.482  0.00  0.00    -0.001 A 
ATOM      6  C   UNL d   1       1.846  -1.647  -3.017  0.00  0.00     0.043 A 
ATOM      7 CL   UNL d   1       2.700  -2.835  -2.095  0.00  0.00    -0.084 Cl
ATOM      8  C   UNL d   1       2.255  -1.477  -4.348  0.00  0.00     0.024 A 
ATOM      9  C   UNL d   1       1.610  -0.559  -5.170  0.00  0.00     0.003 A 
ATOM     10  C   UNL d   1       0.557   0.192  -4.660  0.00  0.00     0.024 A 
ATOM     11  C   UNL d   1       0.138   0.018  -3.334  0.00  0.00     0.043 A 
ATOM     12 CL   UNL d   1      -1.222   0.959  -2.826  0.00  0.00    -0.084 Cl
ENDBRANCH   4   5
ENDBRANCH   1   4
BRANCH   1  13
ATOM     13  C   UNL d   1       0.441  -0.420   1.634  0.00  0.00     0.059 A 
ATOM     14  C   UNL d   1       1.095  -1.366   2.425  0.00  0.00     0.024 A 
ATOM     15  C   UNL d   1       0.576  -1.690   3.680  0.00  0.00     0.008 A 
ATOM     16  C   UNL d   1      -0.589  -1.067   4.153  0.00  0.00    -0.062 A 
ATOM     17  C   UNL d   1      -1.228  -0.111   3.351  0.00  0.00     0.008 A 
ATOM     18  C   UNL d   1      -1.120  -1.413   5.514  0.00  0.00     0.048 C 
ATOM     19  C   UNL d   1      -0.714   0.217   2.094  0.00  0.00     0.024 A 
ENDBRANCH   1  13
TORSDOF 3
