REMARK  4 active torsions:
REMARK  status: ('A' for Active; 'I' for Inactive)
REMARK    1  A    between atoms: C_3  and  C_1 
REMARK    2  A    between atoms: C_2  and  C_8 
REMARK       I    between atoms: N_6  and  C_3 
REMARK    3  A    between atoms: C_17  and  N_6 
REMARK    4  A    between atoms: C_19  and  C_17 
ROOT
ATOM      1  C   UNL d   1      -2.788  -2.612  -0.825  0.00  0.00     0.253 C 
ATOM      2  N   UNL d   1      -2.513  -3.582   0.106  0.00  0.00    -0.353 N 
ATOM      3  O   UNL d   1      -2.078  -2.437  -1.811  0.00  0.00    -0.268 OA
ATOM      4  H   UNL d   1      -3.128  -3.712   0.898  0.00  0.00     0.163 HD
ENDROOT
BRANCH   2   5
ATOM      5  C   UNL d   1      -1.364  -4.457   0.024  0.00  0.00     0.161 C 
BRANCH   5   6
ATOM      6  C   UNL d   1      -1.789  -5.904   0.031  0.00  0.00    -0.041 A 
ATOM      7  C   UNL d   1      -2.487  -6.434  -1.063  0.00  0.00     0.009 A 
ATOM      8  C   UNL d   1      -2.876  -7.776  -1.077  0.00  0.00     0.017 A 
ATOM      9  C   UNL d   1      -2.572  -8.618   0.003  0.00  0.00     0.047 A 
ATOM     10  C   UNL d   1      -1.878  -8.086   1.100  0.00  0.00     0.017 A 
ATOM     11  C   UNL d   1      -1.492  -6.741   1.114  0.00  0.00     0.009 A 
BRANCH   9  12
ATOM     12  C   UNL d   1      -2.991 -10.067  -0.033  0.00  0.00     0.417 C 
ATOM     13  F   UNL d   1      -2.612 -10.774   1.068  0.00  0.00    -0.166 F 
ATOM     14  F   UNL d   1      -4.342 -10.217  -0.124  0.00  0.00    -0.166 F 
ATOM     15  F   UNL d   1      -2.470 -10.735  -1.101  0.00  0.00    -0.166 F 
ENDBRANCH   9  12
ENDBRANCH   5   6
ENDBRANCH   2   5
BRANCH   1  16
ATOM     16  C   UNL d   1      -3.996  -1.740  -0.621  0.00  0.00     0.053 A 
ATOM     17  C   UNL d   1      -4.910  -1.806   0.446  0.00  0.00     0.051 A 
ATOM     18  C   UNL d   1      -5.992  -0.913   0.513  0.00  0.00     0.048 A 
ATOM     19 CL   UNL d   1      -4.819  -2.941   1.750  0.00  0.00    -0.083 Cl
ATOM     20  C   UNL d   1      -6.175   0.049  -0.476  0.00  0.00     0.035 A 
ATOM     21  C   UNL d   1      -5.288   0.132  -1.541  0.00  0.00     0.025 A 
ATOM     22 CL   UNL d   1      -7.502   1.137  -0.375  0.00  0.00    -0.084 Cl
ATOM     23  C   UNL d   1      -4.210  -0.756  -1.611  0.00  0.00     0.020 A 
ENDBRANCH   1  16
TORSDOF 4
