REMARK  6 active torsions:
REMARK  status: ('A' for Active; 'I' for Inactive)
REMARK    1  A    between atoms: C_7  and  C_4 
REMARK    2  A    between atoms: C_8  and  C_5 
REMARK    3  A    between atoms: C_13  and  C_6 
REMARK    4  A    between atoms: O_22  and  C_7 
REMARK    5  A    between atoms: O_23  and  C_8 
REMARK    6  A    between atoms: N_15  and  C_14 
ROOT
ATOM      1  S   UNL d   1       0.949   1.496  -0.481  0.00  0.00     0.171 S 
ATOM      2  S   UNL d   1       0.925  -1.431  -0.318  0.00  0.00     0.171 S 
ATOM      3  C   UNL d   1       1.798   0.054   0.032  0.00  0.00     0.281 C 
ATOM      4  C   UNL d   1      -0.674  -1.227   0.420  0.00  0.00     0.218 C 
ATOM      5  C   UNL d   1      -0.712   1.365   0.142  0.00  0.00     0.218 C 
ATOM      6  C   UNL d   1      -1.403   0.010  -0.137  0.00  0.00     0.075 C 
ATOM      7  O   UNL d   1       1.585   2.602   0.220  0.00  0.00    -0.226 OA
ATOM      8  O   UNL d   1       0.918   1.496  -1.927  0.00  0.00    -0.226 OA
ATOM      9  O   UNL d   1       0.730  -1.540  -1.748  0.00  0.00    -0.226 OA
ATOM     10  O   UNL d   1       1.605  -2.505   0.385  0.00  0.00    -0.226 OA
ENDROOT
BRANCH   6  11
ATOM     11  C   UNL d   1      -2.858  -0.001   0.340  0.00  0.00    -0.050 A 
ATOM     12  C   UNL d   1      -3.248   0.534   1.570  0.00  0.00     0.010 A 
ATOM     13  C   UNL d   1      -4.603   0.602   1.931  0.00  0.00     0.030 A 
ATOM     14  C   UNL d   1      -5.634   0.141   1.099  0.00  0.00     0.029 A 
ATOM     15  C   UNL d   1      -5.214  -0.437  -0.111  0.00  0.00     0.030 A 
ATOM     16  C   UNL d   1      -3.861  -0.517  -0.485  0.00  0.00     0.010 A 
BRANCH  14  17
ATOM     17  N   UNL d   1      -6.977   0.314   1.408  0.00  0.00    -0.390 N 
ATOM     18  C   UNL d   1      -7.992  -0.634   0.948  0.00  0.00     0.149 C 
ATOM     19  C   UNL d   1      -7.409   1.139   2.536  0.00  0.00     0.149 C 
ENDBRANCH  14  17
ENDBRANCH   6  11
BRANCH   4  20
ATOM     20  C   UNL d   1      -0.464  -1.197   1.903  0.00  0.00     0.278 C 
ATOM     21  O   UNL d   1       0.084  -0.258   2.473  0.00  0.00    -0.264 OA
BRANCH  20  22
ATOM     22  O   UNL d   1      -0.946  -2.305   2.512  0.00  0.00    -0.325 OA
ATOM     23  C   UNL d   1      -0.710  -2.380   3.922  0.00  0.00     0.213 C 
ENDBRANCH  20  22
ENDBRANCH   4  20
BRANCH   5  24
ATOM     24  C   UNL d   1      -1.471   2.505  -0.498  0.00  0.00     0.278 C 
ATOM     25  O   UNL d   1      -2.036   2.450  -1.581  0.00  0.00    -0.264 OA
BRANCH  24  26
ATOM     26  O   UNL d   1      -1.471   3.588   0.329  0.00  0.00    -0.325 OA
ATOM     27  C   UNL d   1      -2.158   4.730  -0.187  0.00  0.00     0.213 C 
ENDBRANCH  24  26
ENDBRANCH   5  24
TORSDOF 6
