REMARK  4 active torsions:
REMARK  status: ('A' for Active; 'I' for Inactive)
REMARK       I    between atoms: N_3  and  C_1 
REMARK       I    between atoms: N_8  and  C_1 
REMARK    1  A    between atoms: C_2  and  C_7 
REMARK    2  A    between atoms: C_4  and  N_11 
REMARK    3  A    between atoms: C_15  and  N_8 
REMARK    4  A    between atoms: N_11  and  C_21 
ROOT
ATOM      1  C   UNL d   1       0.783  -0.046   0.078  0.00  0.00     0.318 C 
ATOM      2  N   UNL d   1       0.248  -0.857  -0.916  0.00  0.00    -0.334 N 
ATOM      3  N   UNL d   1       0.406   1.273   0.001  0.00  0.00    -0.335 N 
ATOM      4  O   UNL d   1       1.528  -0.477   0.952  0.00  0.00    -0.247 OA
ATOM      5  C   UNL d   1      -0.841  -0.506  -1.826  0.00  0.00     0.129 C 
ATOM      6  C   UNL d   1       0.607  -2.272  -0.949  0.00  0.00     0.129 C 
ATOM      7  C   UNL d   1      -2.095  -1.295  -1.469  0.00  0.00     0.040 C 
ATOM      8  C   UNL d   1      -0.600  -3.158  -0.640  0.00  0.00     0.040 C 
ATOM      9  C   UNL d   1      -1.842  -2.812  -1.483  0.00  0.00     0.066 C 
ATOM     10  H   UNL d   1       0.310   1.578  -0.954  0.00  0.00     0.165 HD
ENDROOT
BRANCH   9  11
ATOM     11  N   UNL d   1      -1.684  -3.305  -2.854  0.00  0.00    -0.259 NA
ATOM     12  H   UNL d   1      -1.071  -4.105  -2.978  0.00  0.00     0.131 HD
BRANCH  11  13
ATOM     13  C   UNL d   1      -2.856  -3.635  -3.525  0.00  0.00     0.157 A 
ATOM     14  N   UNL d   1      -2.744  -4.588  -4.454  0.00  0.00    -0.329 N 
ATOM     15  C   UNL d   1      -3.864  -4.938  -5.148  0.00  0.00     0.120 A 
ATOM     16  HN  UNL d   1      -1.848  -5.041  -4.639  1.00  0.00     0.168 HD
ATOM     17  C   UNL d   1      -5.090  -4.348  -4.897  0.00  0.00     0.051 A 
ATOM     18  C   UNL d   1      -5.103  -3.391  -3.919  0.00  0.00     0.093 A 
ATOM     19  N   UNL d   1      -4.009  -3.025  -3.231  0.00  0.00    -0.343 N 
ATOM     20  HN  UNL d   1      -4.056  -2.307  -2.508  1.00  0.00     0.167 HD
BRANCH  15  21
ATOM     21  C   UNL d   1      -3.782  -6.004  -6.227  0.00  0.00     0.432 C 
ATOM     22  F   UNL d   1      -2.534  -6.509  -6.431  0.00  0.00    -0.165 F 
ATOM     23  F   UNL d   1      -4.579  -7.078  -5.953  0.00  0.00    -0.165 F 
ATOM     24  F   UNL d   1      -4.202  -5.544  -7.443  0.00  0.00    -0.165 F 
ENDBRANCH  15  21
ENDBRANCH  11  13
ENDBRANCH   9  11
BRANCH   3  25
ATOM     25  C   UNL d   1       0.878   2.336   0.908  0.00  0.00     0.023 C 
ATOM     26  C   UNL d   1       2.365   2.631   0.656  0.00  0.00     0.037 C 
ATOM     27  C   UNL d   1       0.064   3.608   0.596  0.00  0.00     0.037 C 
ATOM     28  C   UNL d   1       0.652   1.990   2.389  0.00  0.00     0.037 C 
ENDBRANCH   3  25
TORSDOF 4
