REMARK  2 active torsions:
REMARK  status: ('A' for Active; 'I' for Inactive)
REMARK    1  A    between atoms: N_7  and  C_1 
REMARK    2  A    between atoms: C_8  and  C_2 
REMARK       I    between atoms: N_12  and  C_8 
ROOT
ATOM      1  C   UNL d   1      -0.692  -1.334   0.005  0.00  0.00     0.160 A 
ATOM      2  C   UNL d   1       0.699  -1.356  -0.002  0.00  0.00     0.153 A 
ATOM      3  N   UNL d   1       1.049  -0.021  -0.033  0.00  0.00    -0.289 N 
ATOM      4  N   UNL d   1      -0.006   0.823  -0.026  0.00  0.00    -0.300 N 
ATOM      5  HN  UNL d   1       0.012   1.843  -0.023  1.00  0.00     0.187 HD
ATOM      6  C   UNL d   1      -1.075   0.025  -0.024  0.00  0.00     0.057 A 
ATOM      7  C   UNL d   1       2.366   0.579  -0.024  0.00  0.00     0.178 C 
ATOM      8  C   UNL d   1      -2.441   0.609  -0.032  0.00  0.00     0.072 C 
ENDROOT
BRANCH   2   9
ATOM      9  C   UNL d   1       1.641  -2.444  -0.042  0.00  0.00     0.270 C 
ATOM     10  O   UNL d   1       2.761  -2.366  -0.537  0.00  0.00    -0.266 OA
ATOM     11  N   UNL d   1       1.262  -3.620   0.527  0.00  0.00    -0.365 N 
ATOM     12  H   UNL d   1       0.387  -3.763   1.022  0.00  0.00     0.159 HD
ATOM     13  H   UNL d   1       1.932  -4.377   0.532  0.00  0.00     0.159 HD
ENDBRANCH   2   9
BRANCH   1  14
ATOM     14  N   UNL d   1      -1.581  -2.448  -0.000  0.00  0.00    -0.111 N 
ATOM     15  O   UNL d   1      -1.400  -3.313   0.869  0.00  0.00    -0.532 OA
ATOM     16  O   UNL d   1      -2.476  -2.449  -0.853  0.00  0.00    -0.532 OA
ENDBRANCH   1  14
TORSDOF 2
