REMARK  7 active torsions:
REMARK  status: ('A' for Active; 'I' for Inactive)
REMARK    1  A    between atoms: C_8  and  C_1 
REMARK    2  A    between atoms: S_2  and  C_6 
REMARK    3  A    between atoms: C_10  and  S_2 
REMARK    4  A    between atoms: C_6  and  C_5 
REMARK    5  A    between atoms: O_19  and  C_8 
REMARK    6  A    between atoms: C_11  and  C_10 
REMARK    7  A    between atoms: C_20  and  O_19 
ROOT
ATOM      1  C   UNL d   1       0.617   0.932   0.646  0.00  0.00     0.115 A 
ATOM      2  N   UNL d   1       0.403  -0.405   0.981  0.00  0.00    -0.348 N 
ATOM      3  HN  UNL d   1       0.347  -0.760   1.935  1.00  0.00     0.166 HD
ATOM      4  C   UNL d   1       0.282  -1.146  -0.098  0.00  0.00     0.065 A 
ATOM      5  C   UNL d   1       0.622   1.174  -0.716  0.00  0.00     0.087 A 
ATOM      6  S   UNL d   1       0.350  -0.278  -1.582  0.00  0.00    -0.085 SA
ENDROOT
BRANCH   4   7
ATOM      7  C   UNL d   1       0.055  -2.614  -0.075  0.00  0.00     0.205 C 
BRANCH   7   8
ATOM      8  S   UNL d   1       1.628  -3.450   0.015  0.00  0.00     0.156 S 
ATOM      9  O   UNL d   1       1.359  -4.879   0.083  0.00  0.00    -0.227 OA
ATOM     10  O   UNL d   1       2.472  -2.963  -1.070  0.00  0.00    -0.227 OA
BRANCH   8  11
ATOM     11  C   UNL d   1       2.401  -2.951   1.552  0.00  0.00     0.205 C 
BRANCH  11  12
ATOM     12  C   UNL d   1       1.560  -3.374   2.692  0.00  0.00     0.066 A 
ATOM     13  O   UNL d   1       0.681  -2.450   3.172  0.00  0.00    -0.326 OA
ATOM     14  C   UNL d   1       0.015  -3.026   4.202  0.00  0.00     0.142 A 
ATOM     15  C   UNL d   1       0.462  -4.310   4.403  0.00  0.00     0.027 A 
ATOM     16  C   UNL d   1       1.467  -4.536   3.431  0.00  0.00     0.035 A 
ENDBRANCH  11  12
ENDBRANCH   8  11
ENDBRANCH   7   8
ENDBRANCH   4   7
BRANCH   1  17
ATOM     17  C   UNL d   1       0.876   1.959   1.657  0.00  0.00     0.310 C 
ATOM     18  O   UNL d   1       1.156   3.120   1.379  0.00  0.00    -0.258 OA
BRANCH  17  19
ATOM     19  O   UNL d   1       0.845   1.449   2.922  0.00  0.00    -0.317 OA
BRANCH  19  20
ATOM     20  C   UNL d   1       1.442   2.259   3.940  0.00  0.00     0.175 C 
ATOM     21  C   UNL d   1       2.920   1.919   4.013  0.00  0.00     0.034 C 
ENDBRANCH  19  20
ENDBRANCH  17  19
ENDBRANCH   1  17
TORSDOF 7
