REMARK  2 active torsions:
REMARK  status: ('A' for Active; 'I' for Inactive)
REMARK       I    between atoms: C_3  and  N_5 
REMARK       I    between atoms: N_6  and  C_3 
REMARK    1  A    between atoms: N_5  and  C_4 
REMARK    2  A    between atoms: C_15  and  N_6 
ROOT
ATOM      1  C   UNL d   1       3.602  -1.771  -0.212  0.00  0.00     0.321 C 
ATOM      2  N   UNL d   1       2.423  -2.350  -0.601  0.00  0.00    -0.307 N 
ATOM      3  N   UNL d   1       3.563  -0.520   0.310  0.00  0.00    -0.337 N 
ATOM      4  O   UNL d   1       4.628  -2.447  -0.247  0.00  0.00    -0.247 OA
ATOM      5  H   UNL d   1       2.571  -3.351  -0.684  0.00  0.00     0.170 HD
ATOM      6  H   UNL d   1       2.901   0.099  -0.129  0.00  0.00     0.164 HD
ENDROOT
BRANCH   2   7
ATOM      7  C   UNL d   1       1.080  -1.910  -0.529  0.00  0.00     0.059 C 
ATOM      8  C   UNL d   1       0.607  -0.599  -0.743  0.00  0.00     0.084 C 
ATOM      9  C   UNL d   1      -0.736  -0.271  -0.456  0.00  0.00     0.079 C 
ATOM     10 CL   UNL d   1       1.599   0.577  -1.565  0.00  0.00    -0.080 Cl
ATOM     11  C   UNL d   1      -1.629  -1.280  -0.072  0.00  0.00     0.057 C 
ATOM     12 CL   UNL d   1      -1.282   1.378  -0.559  0.00  0.00    -0.081 Cl
ATOM     13 CL   UNL d   1      -3.288  -0.969   0.302  0.00  0.00    -0.082 Cl
ATOM     14  C   UNL d   1      -1.196  -2.603   0.003  0.00  0.00     0.028 C 
ATOM     15  C   UNL d   1       0.147  -2.913  -0.220  0.00  0.00     0.033 C 
ENDBRANCH   2   7
BRANCH   3  16
ATOM     16  C   UNL d   1       4.770   0.123   0.829  0.00  0.00     0.096 C 
ATOM     17  C   UNL d   1       4.414   1.318   1.723  0.00  0.00     0.036 C 
ATOM     18  C   UNL d   1       4.712   2.628   1.021  0.00  0.00     0.076 C 
ATOM     19  S   UNL d   1       6.127   2.297  -0.039  0.00  0.00    -0.167 SA
ATOM     20  C   UNL d   1       5.741   0.546  -0.281  0.00  0.00     0.099 C 
ENDBRANCH   3  16
TORSDOF 2
