REMARK  4 active torsions:
REMARK  status: ('A' for Active; 'I' for Inactive)
REMARK    1  A    between atoms: C_3  and  C_1 
REMARK    2  A    between atoms: C_5  and  C_2 
REMARK    3  A    between atoms: O_10  and  C_3 
REMARK    4  A    between atoms: C_16  and  O_10 
ROOT
ATOM      1  C   UNL d   1       0.928  -0.679   0.020  0.00  0.00     0.120 C 
ATOM      2  C   UNL d   1       0.457  -0.025   1.103  0.00  0.00     0.041 C 
ATOM      3  C   UNL d   1       2.085  -1.513   0.071  0.00  0.00     0.105 C 
ATOM      4  N   UNL d   1       3.027  -2.185   0.114  0.00  0.00    -0.191 NA
ENDROOT
BRANCH   1   5
ATOM      5  C   UNL d   1       0.160  -0.582  -1.254  0.00  0.00     0.303 C 
ATOM      6  O   UNL d   1      -0.864   0.070  -1.394  0.00  0.00    -0.258 OA
BRANCH   5   7
ATOM      7  O   UNL d   1       0.696  -1.410  -2.191  0.00  0.00    -0.317 OA
BRANCH   7   8
ATOM      8  C   UNL d   1      -0.195  -1.858  -3.226  0.00  0.00     0.174 C 
ATOM      9  C   UNL d   1      -0.934  -3.076  -2.700  0.00  0.00     0.034 C 
ENDBRANCH   7   8
ENDBRANCH   5   7
ENDBRANCH   1   5
BRANCH   2  10
ATOM     10  C   UNL d   1       1.084  -0.104   2.441  0.00  0.00    -0.024 A 
ATOM     11  C   UNL d   1       0.693  -1.071   3.410  0.00  0.00    -0.016 A 
ATOM     12  C   UNL d   1       1.435  -1.161   4.617  0.00  0.00    -0.025 A 
ATOM     13  C   UNL d   1      -0.399  -1.957   3.250  0.00  0.00     0.013 A 
ATOM     14  C   UNL d   1       1.076  -2.095   5.602  0.00  0.00     0.012 A 
ATOM     15  C   UNL d   1       2.533  -0.317   4.830  0.00  0.00     0.012 A 
ATOM     16  C   UNL d   1      -0.017  -2.939   5.423  0.00  0.00     0.001 A 
ATOM     17  C   UNL d   1      -0.752  -2.872   4.247  0.00  0.00     0.001 A 
ATOM     18  C   UNL d   1       2.876   0.654   3.893  0.00  0.00     0.002 A 
ATOM     19  C   UNL d   1       2.146   0.774   2.714  0.00  0.00     0.012 A 
ENDBRANCH   2  10
TORSDOF 4
