REMARK  4 active torsions:
REMARK  status: ('A' for Active; 'I' for Inactive)
REMARK       I    between atoms: N_2  and  C_1 
REMARK    1  A    between atoms: O_11  and  C_1 
REMARK    2  A    between atoms: C_10  and  N_2 
REMARK    3  A    between atoms: N_3  and  O_11 
REMARK    4  A    between atoms: C_14  and  C_13 
ROOT
ATOM      1  N   UNL d   1       3.213   0.912  -0.692  0.00  0.00    -0.267 N 
ATOM      2  HN  UNL d   1       2.719   1.715  -1.082  1.00  0.00     0.194 HD
ATOM      3  C   UNL d   1       4.431   0.538  -0.951  0.00  0.00     0.126 C 
ENDROOT
BRANCH   1   4
ATOM      4  O   UNL d   1       2.716  -0.025   0.242  0.00  0.00    -0.181 OA
BRANCH   4   5
ATOM      5  C   UNL d   1       1.397   0.157   0.604  0.00  0.00     0.387 C 
ATOM      6  N   UNL d   1       0.824   1.325   0.156  0.00  0.00    -0.301 N 
ATOM      7  H   UNL d   1       1.422   1.844  -0.476  0.00  0.00     0.171 HD
ATOM      8  O   UNL d   1       0.849  -0.714   1.274  0.00  0.00    -0.236 OA
BRANCH   6   9
ATOM      9  C   UNL d   1      -0.498   1.757   0.400  0.00  0.00     0.037 A 
ATOM     10  C   UNL d   1      -1.329   1.157   1.354  0.00  0.00     0.036 A 
ATOM     11  C   UNL d   1      -2.664   1.550   1.518  0.00  0.00    -0.060 A 
ATOM     12  C   UNL d   1      -3.541   0.858   2.521  0.00  0.00     0.048 C 
ATOM     13  C   UNL d   1      -3.167   2.587   0.731  0.00  0.00     0.007 A 
ATOM     14  C   UNL d   1      -2.338   3.228  -0.192  0.00  0.00     0.003 A 
ATOM     15  C   UNL d   1      -1.007   2.821  -0.351  0.00  0.00     0.029 A 
ENDBRANCH   6   9
ENDBRANCH   4   5
ENDBRANCH   1   4
BRANCH   3  16
ATOM     16  C   UNL d   1       5.306   1.195  -1.937  0.00  0.00    -0.018 A 
ATOM     17  C   UNL d   1       6.589   0.663  -2.140  0.00  0.00     0.022 A 
ATOM     18  C   UNL d   1       7.379   1.229  -3.126  0.00  0.00    -0.022 A 
ATOM     19  C   UNL d   1       8.710   0.819  -3.627  0.00  0.00     0.068 C 
ATOM     20  C   UNL d   1       6.911   2.288  -3.887  0.00  0.00     0.075 A 
ATOM     21  C   UNL d   1       9.022   2.025  -4.515  0.00  0.00     0.180 C 
ATOM     22  O   UNL d   1       7.789   2.702  -4.854  0.00  0.00    -0.350 OA
ATOM     23  C   UNL d   1       5.656   2.832  -3.696  0.00  0.00     0.038 A 
ATOM     24  C   UNL d   1       4.844   2.279  -2.702  0.00  0.00     0.015 A 
ENDBRANCH   3  16
TORSDOF 4
