REMARK  2 active torsions:
REMARK  status: ('A' for Active; 'I' for Inactive)
REMARK    1  A    between atoms: N_8  and  C_1 
REMARK       I    between atoms: C_9  and  N_8 
REMARK    2  A    between atoms: C_15  and  C_9 
ROOT
ATOM      1  C   UNL d   1       2.273   0.515  -0.063  0.00  0.00     0.155 C 
ATOM      2  C   UNL d   1      -0.232  -0.708  -0.205  0.00  0.00     0.089 A 
ATOM      3  S   UNL d   1       0.999   1.695  -0.040  0.00  0.00    -0.010 SA
ATOM      4  C   UNL d   1      -0.435   0.707  -0.253  0.00  0.00     0.235 C 
ATOM      5  N   UNL d   1       2.208  -0.770  -0.084  0.00  0.00    -0.335 N 
ATOM      6  HN  UNL d   1       3.057  -1.335  -0.075  1.00  0.00     0.168 HD
ATOM      7  C   UNL d   1       0.959  -1.367  -0.118  0.00  0.00     0.056 A 
ATOM      8  S   UNL d   1      -1.542  -1.807  -0.264  0.00  0.00    -0.095 SA
ATOM      9  C   UNL d   1       0.830  -2.776  -0.093  0.00  0.00     0.038 A 
ATOM     10  C   UNL d   1      -0.491  -3.160  -0.166  0.00  0.00     0.053 A 
ATOM     11  O   UNL d   1      -1.515   1.265  -0.409  0.00  0.00    -0.279 OA
ENDROOT
BRANCH   1  12
ATOM     12  N   UNL d   1       3.490   1.167  -0.042  0.00  0.00    -0.307 N 
ATOM     13  C   UNL d   1       4.746   0.577  -0.052  0.00  0.00     0.227 C 
ATOM     14  O   UNL d   1       4.933  -0.639  -0.159  0.00  0.00    -0.273 OA
ATOM     15  H   UNL d   1       3.431   2.173  -0.002  0.00  0.00     0.171 HD
BRANCH  13  16
ATOM     16  C   UNL d   1       5.944   1.541   0.055  0.00  0.00     0.078 C 
ATOM     17  C   UNL d   1       6.868   1.328   1.289  0.00  0.00     0.014 C 
ATOM     18  C   UNL d   1       7.177   2.833   1.232  0.00  0.00     0.002 C 
ATOM     19  C   UNL d   1       5.808   3.008   0.540  0.00  0.00     0.014 C 
ENDBRANCH  13  16
ENDBRANCH   1  12
TORSDOF 2
