REMARK  5 active torsions:
REMARK  status: ('A' for Active; 'I' for Inactive)
REMARK    1  A    between atoms: C_2  and  S_1 
REMARK    2  A    between atoms: N_7  and  S_1 
REMARK    3  A    between atoms: C_8  and  C_4 
REMARK    4  A    between atoms: C_11  and  N_7 
REMARK    5  A    between atoms: O_14  and  C_8 
ROOT
ATOM      1  C   UNL d   1       0.406   0.386   1.851  0.00  0.00     0.151 A 
ATOM      2  N   UNL d   1      -0.141  -0.519   2.748  0.00  0.00    -0.336 N 
ATOM      3  C   UNL d   1      -0.472   0.118   3.942  0.00  0.00     0.111 A 
ATOM      4  C   UNL d   1       0.506   1.593   2.530  0.00  0.00     0.046 A 
ATOM      5  C   UNL d   1      -0.044   1.431   3.814  0.00  0.00     0.039 A 
ATOM      6  C   UNL d   1      -0.373  -1.931   2.505  0.00  0.00     0.157 C 
ENDROOT
BRANCH   1   7
ATOM      7  S   UNL d   1       0.810   0.020   0.157  0.00  0.00     0.275 S 
ATOM      8  O   UNL d   1       1.329   1.253  -0.390  0.00  0.00    -0.199 OA
ATOM      9  O   UNL d   1      -0.393  -0.580  -0.372  0.00  0.00    -0.199 OA
BRANCH   7  10
ATOM     10  N   UNL d   1       1.989  -1.170   0.073  0.00  0.00    -0.305 N 
ATOM     11  H   UNL d   1       1.864  -1.657  -0.819  0.00  0.00     0.173 HD
BRANCH  10  12
ATOM     12  C   UNL d   1       3.421  -0.981   0.436  0.00  0.00     0.029 C 
ATOM     13  C   UNL d   1       3.580  -0.787   1.944  0.00  0.00     0.038 C 
ATOM     14  C   UNL d   1       4.135  -2.291   0.041  0.00  0.00     0.038 C 
ATOM     15  C   UNL d   1       4.080   0.163  -0.339  0.00  0.00     0.038 C 
ENDBRANCH  10  12
ENDBRANCH   7  10
ENDBRANCH   1   7
BRANCH   3  16
ATOM     16  C   UNL d   1      -1.141  -0.496   5.075  0.00  0.00     0.309 C 
ATOM     17  O   UNL d   1      -1.462  -1.675   5.168  0.00  0.00    -0.258 OA
BRANCH  16  18
ATOM     18  O   UNL d   1      -1.371   0.444   6.038  0.00  0.00    -0.321 OA
ATOM     19  C   UNL d   1      -2.026  -0.046   7.207  0.00  0.00     0.213 C 
ENDBRANCH  16  18
ENDBRANCH   3  16
TORSDOF 5
