REMARK  7 active torsions:
REMARK  status: ('A' for Active; 'I' for Inactive)
REMARK    1  A    between atoms: C_14  and  C_3 
REMARK    2  A    between atoms: C_15  and  C_4 
REMARK    3  A    between atoms: C_6  and  S_13 
REMARK    4  A    between atoms: S_13  and  C_14 
REMARK    5  A    between atoms: O_16  and  C_15 
REMARK    6  A    between atoms: C_18  and  O_16 
REMARK    7  A    between atoms: O_24  and  C_19 
ROOT
ATOM      1  N   UNL d   1       1.420  -0.616   0.065  0.00  0.00    -0.354 N 
ATOM      2  HN  UNL d   1       2.300  -1.129   0.112  1.00  0.00     0.166 HD
ATOM      3  C   UNL d   1       1.318   0.771   0.028  0.00  0.00     0.026 A 
ATOM      4  C   UNL d   1       0.230  -1.177   0.031  0.00  0.00     0.075 A 
ATOM      5  S   UNL d   1      -1.090  -0.075   0.026  0.00  0.00    -0.084 SA
ATOM      6  C   UNL d   1       0.015   1.236   0.022  0.00  0.00     0.077 A 
ENDROOT
BRANCH   3   7
ATOM      7  C   UNL d   1       2.565   1.613   0.047  0.00  0.00     0.137 C 
BRANCH   7   8
ATOM      8  S   UNL d   1       3.925   0.832  -0.891  0.00  0.00    -0.123 SA
BRANCH   8   9
ATOM      9  C   UNL d   1       5.279   2.006  -0.806  0.00  0.00     0.007 A 
ATOM     10  C   UNL d   1       5.438   2.873   0.291  0.00  0.00     0.027 A 
ATOM     11  C   UNL d   1       6.542   3.740   0.404  0.00  0.00    -0.039 A 
ATOM     12  C   UNL d   1       6.641   4.676   1.576  0.00  0.00     0.050 C 
ATOM     13  C   UNL d   1       7.523   3.707  -0.590  0.00  0.00     0.040 A 
ATOM     14  C   UNL d   1       7.385   2.853  -1.684  0.00  0.00     0.032 A 
ATOM     15 CL   UNL d   1       8.933   4.701  -0.512  0.00  0.00    -0.084 Cl
ATOM     16  C   UNL d   1       6.263   2.012  -1.818  0.00  0.00    -0.044 A 
ATOM     17  C   UNL d   1       6.219   1.151  -3.055  0.00  0.00     0.049 C 
ENDBRANCH   8   9
ENDBRANCH   7   8
ENDBRANCH   3   7
BRANCH   4  18
ATOM     18  C   UNL d   1      -0.005  -2.655  -0.060  0.00  0.00     0.240 C 
BRANCH  18  19
ATOM     19  O   UNL d   1      -0.039  -3.173   1.271  0.00  0.00    -0.345 OA
BRANCH  19  20
ATOM     20  C   UNL d   1      -0.206  -4.526   1.391  0.00  0.00     0.069 A 
ATOM     21  C   UNL d   1      -0.405  -5.425   0.345  0.00  0.00     0.039 A 
ATOM     22  C   UNL d   1      -0.589  -6.785   0.615  0.00  0.00     0.039 A 
ATOM     23  C   UNL d   1      -0.573  -7.266   1.926  0.00  0.00     0.068 A 
ATOM     24  C   UNL d   1      -0.357  -6.372   2.971  0.00  0.00     0.039 A 
ATOM     25  C   UNL d   1      -0.177  -5.009   2.702  0.00  0.00     0.039 A 
BRANCH  23  26
ATOM     26  O   UNL d   1      -0.788  -8.611   2.038  0.00  0.00    -0.356 OA
ATOM     27  C   UNL d   1      -0.797  -9.155   3.351  0.00  0.00     0.210 C 
ENDBRANCH  23  26
ENDBRANCH  19  20
ENDBRANCH  18  19
ENDBRANCH   4  18
TORSDOF 7
