REMARK  4 active torsions:
REMARK  status: ('A' for Active; 'I' for Inactive)
REMARK    1  A    between atoms: C_2  and  C_1 
REMARK       I    between atoms: N_3  and  C_1 
REMARK       I    between atoms: C_4  and  N_3 
REMARK       I    between atoms: N_6  and  C_4 
REMARK    2  A    between atoms: O_16  and  C_5 
REMARK    3  A    between atoms: C_7  and  N_6 
REMARK    4  A    between atoms: O_18  and  C_8 
ROOT
ATOM      1  C   UNL d   1       1.010   0.344   0.210  0.00  0.00     0.265 C 
ATOM      2  N   UNL d   1       0.000   0.623   1.139  0.00  0.00    -0.275 N 
ATOM      3  C   UNL d   1      -1.342   0.981   1.109  0.00  0.00     0.327 C 
ATOM      4  N   UNL d   1      -2.090   0.361   0.150  0.00  0.00    -0.308 N 
ATOM      5  O   UNL d   1       2.172   0.199   0.588  0.00  0.00    -0.267 OA
ATOM      6  O   UNL d   1      -1.763   1.752   1.966  0.00  0.00    -0.247 OA
ATOM      7  H   UNL d   1       0.422   0.943   2.009  0.00  0.00     0.173 HD
ATOM      8  H   UNL d   1      -1.743  -0.568  -0.060  0.00  0.00     0.170 HD
ENDROOT
BRANCH   1   9
ATOM      9  C   UNL d   1       0.719   0.244  -1.231  0.00  0.00     0.100 C 
ATOM     10  C   UNL d   1      -0.037  -0.822  -1.743  0.00  0.00     0.104 C 
ATOM     11  C   UNL d   1      -0.385  -0.831  -3.100  0.00  0.00     0.045 C 
ATOM     12 BR   UNL d   1      -1.535  -2.152  -3.827  0.00  0.00    -0.048 Br
ATOM     13  C   UNL d   1       0.088   0.164  -3.955  0.00  0.00     0.025 C 
ATOM     14  C   UNL d   1       0.922   1.167  -3.463  0.00  0.00     0.039 C 
ATOM     15  C   UNL d   1       1.268   1.197  -2.108  0.00  0.00     0.086 C 
BRANCH  10  16
ATOM     16  O   UNL d   1      -0.564  -1.783  -0.912  0.00  0.00    -0.353 OA
ATOM     17  C   UNL d   1       0.422  -2.737  -0.513  0.00  0.00     0.210 C 
ENDBRANCH  10  16
BRANCH  15  18
ATOM     18  O   UNL d   1       2.026   2.225  -1.610  0.00  0.00    -0.355 OA
ATOM     19  C   UNL d   1       3.286   2.399  -2.265  0.00  0.00     0.210 C 
ENDBRANCH  15  18
ENDBRANCH   1   9
BRANCH   4  20
ATOM     20  C   UNL d   1      -3.457   0.569  -0.176  0.00  0.00     0.048 A 
ATOM     21  C   UNL d   1      -4.050   1.845  -0.290  0.00  0.00    -0.035 A 
ATOM     22  C   UNL d   1      -5.366   1.946  -0.791  0.00  0.00     0.009 A 
ATOM     23  C   UNL d   1      -3.396   3.144   0.094  0.00  0.00     0.050 C 
ATOM     24  C   UNL d   1      -6.078   0.826  -1.201  0.00  0.00     0.001 A 
ATOM     25  C   UNL d   1      -5.511  -0.431  -1.058  0.00  0.00     0.009 A 
ATOM     26  C   UNL d   1      -4.223  -0.578  -0.516  0.00  0.00    -0.035 A 
ATOM     27  C   UNL d   1      -3.748  -1.993  -0.294  0.00  0.00     0.050 C 
ENDBRANCH   4  20
TORSDOF 4
