REMARK  4 active torsions:
REMARK  status: ('A' for Active; 'I' for Inactive)
REMARK    1  A    between atoms: C_4  and  C_1 
REMARK    2  A    between atoms: O_11  and  C_14 
REMARK    3  A    between atoms: C_12  and  O_11 
REMARK    4  A    between atoms: C_14  and  C_13 
ROOT
ATOM      1  N   UNL d   1      -5.599  11.323   1.425  0.00  0.00    -0.191 NA
ATOM      2  C   UNL d   1      -5.034  10.312   1.343  0.00  0.00     0.099 C 
ATOM      3  C   UNL d   1      -4.328   9.069   1.240  0.00  0.00     0.044 A 
ATOM      4  C   UNL d   1      -2.933   6.644   1.037  0.00  0.00     0.069 A 
ATOM      5  C   UNL d   1      -2.932   9.052   1.308  0.00  0.00     0.025 A 
ATOM      6  C   UNL d   1      -5.027   7.869   1.081  0.00  0.00     0.025 A 
ATOM      7  C   UNL d   1      -4.329   6.661   0.989  0.00  0.00     0.038 A 
ATOM      8  C   UNL d   1      -2.238   7.842   1.209  0.00  0.00     0.038 A 
ENDROOT
BRANCH   4   9
ATOM      9  O   UNL d   1      -2.356   5.405   0.946  0.00  0.00    -0.347 OA
BRANCH   9  10
ATOM     10  C   UNL d   1      -1.028   5.383   0.420  0.00  0.00     0.214 C 
BRANCH  10  11
ATOM     11  C   UNL d   1      -0.545   3.955   0.334  0.00  0.00    -0.034 A 
ATOM     12  C   UNL d   1      -1.225   3.015  -0.452  0.00  0.00     0.010 A 
ATOM     13  C   UNL d   1      -0.771   1.696  -0.529  0.00  0.00     0.017 A 
ATOM     14  C   UNL d   1       0.374   1.292   0.176  0.00  0.00     0.047 A 
ATOM     15  C   UNL d   1       1.058   2.236   0.952  0.00  0.00     0.017 A 
ATOM     16  C   UNL d   1       0.604   3.554   1.030  0.00  0.00     0.010 A 
BRANCH  14  17
ATOM     17  C   UNL d   1       0.850  -0.138   0.097  0.00  0.00     0.417 C 
ATOM     18  F   UNL d   1       1.962  -0.383   0.846  0.00  0.00    -0.166 F 
ATOM     19  F   UNL d   1       1.169  -0.513  -1.173  0.00  0.00    -0.166 F 
ATOM     20  F   UNL d   1      -0.088  -1.026   0.526  0.00  0.00    -0.166 F 
ENDBRANCH  14  17
ENDBRANCH  10  11
ENDBRANCH   9  10
ENDBRANCH   4   9
TORSDOF 4
