REMARK  3 active torsions:
REMARK  status: ('A' for Active; 'I' for Inactive)
REMARK    1  A    between atoms: C_6  and  C_1 
REMARK    2  A    between atoms: C_8  and  N_2 
REMARK       I    between atoms: N_10  and  C_6 
REMARK    3  A    between atoms: N_11  and  N_10 
ROOT
ATOM      1  C   UNL d   1      -0.496  -1.248  -0.031  0.00  0.00     0.122 A 
ATOM      2  N   UNL d   1       0.811  -0.795   0.004  0.00  0.00    -0.278 N 
ATOM      3  N   UNL d   1       0.873   0.565   0.025  0.00  0.00    -0.302 N 
ATOM      4  HN  UNL d   1       1.713   1.144   0.027  1.00  0.00     0.186 HD
ATOM      5  C   UNL d   1      -1.279  -0.100   0.035  0.00  0.00     0.063 A 
ATOM      6  C   UNL d   1      -0.389   0.981   0.043  0.00  0.00     0.024 A 
ATOM      7  C   UNL d   1      -0.698   2.430   0.035  0.00  0.00     0.070 C 
ENDROOT
BRANCH   1   8
ATOM      8  C   UNL d   1      -0.979  -2.599  -0.175  0.00  0.00     0.283 C 
ATOM      9  O   UNL d   1      -0.436  -3.466  -0.856  0.00  0.00    -0.265 OA
ATOM     10  N   UNL d   1      -2.171  -2.847   0.506  0.00  0.00    -0.288 N 
ATOM     11  H   UNL d   1      -2.546  -2.151   1.146  0.00  0.00     0.183 HD
BRANCH  10  12
ATOM     12  N   UNL d   1      -2.766  -4.131   0.477  0.00  0.00    -0.247 NA
ATOM     13  H   UNL d   1      -2.019  -4.802   0.260  0.00  0.00     0.143 HD
ATOM     14  H   UNL d   1      -3.372  -4.171  -0.348  0.00  0.00     0.143 HD
ENDBRANCH  10  12
ENDBRANCH   1   8
BRANCH   2  15
ATOM     15  C   UNL d   1       2.106  -1.515  -0.018  0.00  0.00     0.043 C 
ATOM     16  C   UNL d   1       2.537  -1.714  -1.482  0.00  0.00     0.039 C 
ATOM     17  C   UNL d   1       3.200  -0.671   0.698  0.00  0.00     0.039 C 
ATOM     18  C   UNL d   1       2.098  -2.870   0.718  0.00  0.00     0.039 C 
ENDBRANCH   2  15
TORSDOF 3
