REMARK  5 active torsions:
REMARK  status: ('A' for Active; 'I' for Inactive)
REMARK    1  A    between atoms: C_2  and  S_1 
REMARK    2  A    between atoms: N_3  and  S_1 
REMARK       I    between atoms: C_7  and  N_12 
REMARK    3  A    between atoms: C_18  and  C_7 
REMARK    4  A    between atoms: N_12  and  C_19 
REMARK    5  A    between atoms: C_22  and  C_18 
ROOT
ATOM      1  N   UNL d   1       0.595  -0.597  -1.327  0.00  0.00    -0.206 NA
ATOM      2  C   UNL d   1       1.112   0.191  -2.485  0.00  0.00     0.109 C 
ATOM      3  C   UNL d   1       0.984  -2.038  -1.409  0.00  0.00     0.109 C 
ATOM      4  C   UNL d   1       0.615  -0.410  -3.793  0.00  0.00     0.041 C 
ATOM      5  C   UNL d   1       0.578  -2.659  -2.743  0.00  0.00     0.041 C 
ATOM      6  C   UNL d   1       1.100  -1.856  -3.939  0.00  0.00     0.086 C 
ENDROOT
BRANCH   1   7
ATOM      7  S   UNL d   1       1.013   0.071   0.209  0.00  0.00     0.245 S 
ATOM      8  O   UNL d   1       0.467  -0.767   1.257  0.00  0.00    -0.206 OA
ATOM      9  O   UNL d   1       2.439   0.334   0.162  0.00  0.00    -0.206 OA
BRANCH   7  10
ATOM     10  C   UNL d   1       0.170   1.628   0.258  0.00  0.00     0.097 A 
ATOM     11  C   UNL d   1      -1.220   1.711   0.262  0.00  0.00     0.058 A 
ATOM     12  C   UNL d   1      -1.829   2.971   0.291  0.00  0.00     0.050 A 
ATOM     13 CL   UNL d   1      -2.273   0.345   0.215  0.00  0.00    -0.083 Cl
ATOM     14  C   UNL d   1      -1.060   4.141   0.323  0.00  0.00     0.041 A 
ATOM     15  C   UNL d   1       0.339   4.071   0.340  0.00  0.00    -0.039 A 
ATOM     16 CL   UNL d   1      -1.908   5.645   0.332  0.00  0.00    -0.084 Cl
ATOM     17  C   UNL d   1       0.943   2.801   0.313  0.00  0.00     0.035 A 
ATOM     18  C   UNL d   1       1.241   5.274   0.385  0.00  0.00     0.050 C 
ENDBRANCH   7  10
ENDBRANCH   1   7
BRANCH   6  19
ATOM     19  N   UNL d   1       2.556  -1.940  -4.064  0.00  0.00    -0.356 N 
ATOM     20  C   UNL d   1       3.227  -1.370  -5.126  0.00  0.00     0.222 C 
ATOM     21  O   UNL d   1       2.668  -0.734  -6.017  0.00  0.00    -0.273 OA
ATOM     22  H   UNL d   1       3.050  -2.658  -3.544  0.00  0.00     0.162 HD
BRANCH  20  23
ATOM     23  C   UNL d   1       4.731  -1.580  -5.117  0.00  0.00     0.141 C 
BRANCH  23  24
ATOM     24  C   UNL d   1       5.135  -2.801  -5.900  0.00  0.00    -0.050 A 
ATOM     25  C   UNL d   1       4.833  -2.894  -7.267  0.00  0.00     0.007 A 
ATOM     26  C   UNL d   1       5.153  -4.043  -7.987  0.00  0.00     0.001 A 
ATOM     27  C   UNL d   1       5.792  -5.105  -7.350  0.00  0.00     0.000 A 
ATOM     28  C   UNL d   1       6.124  -5.011  -6.000  0.00  0.00     0.001 A 
ATOM     29  C   UNL d   1       5.800  -3.864  -5.277  0.00  0.00     0.007 A 
ENDBRANCH  23  24
ENDBRANCH  20  23
ENDBRANCH   6  19
TORSDOF 5
