REMARK  4 active torsions:
REMARK  status: ('A' for Active; 'I' for Inactive)
REMARK    1  A    between atoms: C_11  and  C_7 
REMARK    2  A    between atoms: O_17  and  C_8 
REMARK    3  A    between atoms: O_18  and  C_13 
REMARK    4  A    between atoms: C_19  and  O_17 
ROOT
ATOM      1  C   UNL d   1       1.329   0.018  -0.649  0.00  0.00     0.101 A 
ATOM      2  N   UNL d   1      -0.618  -1.351  -1.042  0.00  0.00    -0.275 N 
ATOM      3  N   UNL d   1      -0.629   0.838  -1.790  0.00  0.00    -0.275 N 
ATOM      4  C   UNL d   1       0.635  -1.288  -0.503  0.00  0.00     0.265 A 
ATOM      5  C   UNL d   1       0.644   1.119  -1.379  0.00  0.00     0.265 A 
ATOM      6  C   UNL d   1      -1.280  -0.349  -1.679  0.00  0.00     0.329 A 
ATOM      7  C   UNL d   1       2.547   0.123  -0.080  0.00  0.00     0.034 C 
ATOM      8  O   UNL d   1       1.126  -2.256   0.069  0.00  0.00    -0.267 OA
ATOM      9  O   UNL d   1       1.146   2.207  -1.638  0.00  0.00    -0.267 OA
ATOM     10  O   UNL d   1      -2.405  -0.513  -2.139  0.00  0.00    -0.246 OA
ATOM     11  H   UNL d   1      -1.107  -2.231  -0.954  0.00  0.00     0.173 HD
ATOM     12  H   UNL d   1      -1.108   1.572  -2.291  0.00  0.00     0.173 HD
ENDROOT
BRANCH   7  13
ATOM     13  C   UNL d   1       3.369   1.333  -0.026  0.00  0.00    -0.032 A 
ATOM     14  C   UNL d   1       3.201   2.220   1.046  0.00  0.00     0.051 A 
ATOM     15  C   UNL d   1       3.917   3.420   1.101  0.00  0.00     0.102 A 
ATOM     16  C   UNL d   1       4.824   3.706   0.071  0.00  0.00     0.099 A 
ATOM     17  C   UNL d   1       5.018   2.814  -0.987  0.00  0.00     0.040 A 
ATOM     18  C   UNL d   1       4.287   1.626  -1.035  0.00  0.00     0.014 A 
BRANCH  15  19
ATOM     19  O   UNL d   1       3.785   4.359   2.095  0.00  0.00    -0.349 OA
BRANCH  19  20
ATOM     20  C   UNL d   1       2.856   4.063   3.135  0.00  0.00     0.171 C 
ATOM     21  C   UNL d   1       2.812   5.223   4.111  0.00  0.00     0.034 C 
ENDBRANCH  19  20
ENDBRANCH  15  19
BRANCH  16  22
ATOM     22  O   UNL d   1       5.529   4.880   0.104  0.00  0.00    -0.358 OA
ATOM     23  H   UNL d   1       6.054   4.955  -0.710  0.00  0.00     0.217 HD
ENDBRANCH  16  22
ENDBRANCH   7  13
TORSDOF 4
