REMARK  5 active torsions:
REMARK  status: ('A' for Active; 'I' for Inactive)
REMARK    1  A    between atoms: S_6  and  C_1 
REMARK    2  A    between atoms: C_2  and  C_10 
REMARK    3  A    between atoms: N_11  and  C_2 
REMARK    4  A    between atoms: O_12  and  N_4 
REMARK    5  A    between atoms: C_10  and  S_6 
ROOT
ATOM      1  C   UNL d   1       0.972   5.470  -0.004  0.00  0.00     0.084 C 
ATOM      2  N   UNL d   1       0.856   4.665  -1.020  0.00  0.00    -0.262 N 
ATOM      3  HN  UNL d   1       1.464   4.674  -1.839  1.00  0.00     0.195 HD
ENDROOT
BRANCH   1   4
ATOM      4  C   UNL d   1       2.081   6.514  -0.041  0.00  0.00     0.151 C 
BRANCH   4   5
ATOM      5  S   UNL d   1       1.340   8.171  -0.093  0.00  0.00    -0.116 SA
BRANCH   5   6
ATOM      6  C   UNL d   1       2.754   9.214  -0.025  0.00  0.00     0.041 A 
ATOM      7  S   UNL d   1       2.664  10.755   0.721  0.00  0.00    -0.095 SA
ATOM      8  C   UNL d   1       4.297  11.104   0.356  0.00  0.00     0.051 A 
ATOM      9  C   UNL d   1       4.904  10.072  -0.323  0.00  0.00     0.009 A 
ATOM     10  C   UNL d   1       4.010   8.982  -0.548  0.00  0.00     0.026 A 
ENDBRANCH   5   6
ENDBRANCH   4   5
ENDBRANCH   1   4
BRANCH   1  11
ATOM     11  N   UNL d   1       0.146   5.421   1.096  0.00  0.00    -0.290 NA
ATOM     12  H   UNL d   1      -0.071   6.323   1.507  0.00  0.00     0.125 HD
ATOM     13  H   UNL d   1      -0.682   4.868   0.890  0.00  0.00     0.125 HD
ENDBRANCH   1  11
BRANCH   2  14
ATOM     14  O   UNL d   1      -0.222   3.783  -0.836  0.00  0.00    -0.289 OA
ATOM     15  H   UNL d   1      -0.159   3.216  -1.627  0.00  0.00     0.244 HD
ENDBRANCH   2  14
TORSDOF 5
