REMARK  4 active torsions:
REMARK  status: ('A' for Active; 'I' for Inactive)
REMARK    1  A    between atoms: N_3  and  C_1 
REMARK    2  A    between atoms: S_2  and  O_5 
REMARK    3  A    between atoms: C_8  and  S_2 
REMARK    4  A    between atoms: O_5  and  C_4 
ROOT
ATOM      1  C   UNL d   1      -2.112   2.112   0.594  0.00  0.00     0.209 A 
ATOM      2  C   UNL d   1      -3.029   1.071   0.787  0.00  0.00     0.140 A 
ATOM      3  N   UNL d   1      -1.881   3.101   1.515  0.00  0.00    -0.339 N 
ATOM      4  HN  UNL d   1      -1.193   3.834   1.339  1.00  0.00     0.167 HD
ATOM      5  C   UNL d   1      -3.759   1.090   1.978  0.00  0.00     0.044 A 
ATOM      6  C   UNL d   1      -2.590   3.075   2.663  0.00  0.00     0.007 A 
ATOM      7  C   UNL d   1      -3.540   2.096   2.920  0.00  0.00     0.027 A 
ATOM      8  C   UNL d   1      -2.315   4.145   3.676  0.00  0.00     0.068 C 
ENDROOT
BRANCH   2   9
ATOM      9  O   UNL d   1      -3.140   0.088  -0.167  0.00  0.00    -0.225 OA
BRANCH   9  10
ATOM     10  S   UNL d   1      -4.187  -1.157  -0.035  0.00  0.00     0.303 S 
ATOM     11  O   UNL d   1      -3.766  -1.974   1.087  0.00  0.00    -0.193 OA
ATOM     12  O   UNL d   1      -5.537  -0.635  -0.116  0.00  0.00    -0.193 OA
BRANCH  10  13
ATOM     13  C   UNL d   1      -3.938  -2.128  -1.501  0.00  0.00     0.086 A 
ATOM     14  C   UNL d   1      -4.159  -3.508  -1.446  0.00  0.00     0.026 A 
ATOM     15  C   UNL d   1      -4.000  -4.278  -2.599  0.00  0.00     0.008 A 
ATOM     16  C   UNL d   1      -3.615  -3.676  -3.805  0.00  0.00    -0.062 A 
ATOM     17  C   UNL d   1      -3.369  -2.296  -3.837  0.00  0.00     0.008 A 
ATOM     18  C   UNL d   1      -3.493  -4.509  -5.049  0.00  0.00     0.048 C 
ATOM     19  C   UNL d   1      -3.527  -1.517  -2.688  0.00  0.00     0.026 A 
ENDBRANCH  10  13
ENDBRANCH   9  10
ENDBRANCH   2   9
BRANCH   1  20
ATOM     20  N   UNL d   1      -1.370   2.110  -0.678  0.00  0.00    -0.095 N 
ATOM     21  O   UNL d   1      -2.032   2.137  -1.729  0.00  0.00    -0.530 OA
ATOM     22  O   UNL d   1      -0.133   2.078  -0.612  0.00  0.00    -0.530 OA
ENDBRANCH   1  20
TORSDOF 4
