REMARK  8 active torsions:
REMARK  status: ('A' for Active; 'I' for Inactive)
REMARK       I    between atoms: N_2  and  C_1 
REMARK    1  A    between atoms: C_3  and  C_1 
REMARK    2  A    between atoms: C_4  and  N_2 
REMARK    3  A    between atoms: C_5  and  N_2 
REMARK    4  A    between atoms: C_7  and  C_5 
REMARK    5  A    between atoms: O_20  and  C_7 
REMARK    6  A    between atoms: O_21  and  C_7 
REMARK    7  A    between atoms: C_23  and  O_20 
REMARK    8  A    between atoms: C_22  and  O_21 
ROOT
ATOM      1  C   UNL d   1       0.939   0.238  -0.017  0.00  0.00     0.258 C 
ATOM      2  N   UNL d   1       0.091   1.180   0.588  0.00  0.00    -0.309 N 
ATOM      3  O   UNL d   1       2.139   0.179   0.255  0.00  0.00    -0.267 OA
ENDROOT
BRANCH   2   4
ATOM      4  C   UNL d   1      -1.324   1.167   0.495  0.00  0.00     0.037 A 
ATOM      5  C   UNL d   1      -2.067   0.029   0.827  0.00  0.00     0.033 A 
ATOM      6  C   UNL d   1      -3.450   0.027   0.644  0.00  0.00     0.044 A 
ATOM      7  C   UNL d   1      -4.078   1.163   0.142  0.00  0.00     0.116 A 
ATOM      8  C   UNL d   1      -3.353   2.311  -0.158  0.00  0.00     0.044 A 
ATOM      9  F   UNL d   1      -5.401   1.148  -0.061  0.00  0.00    -0.206 F 
ATOM     10  C   UNL d   1      -1.972   2.320   0.035  0.00  0.00     0.033 A 
ENDBRANCH   2   4
BRANCH   2  11
ATOM     11  C   UNL d   1       0.613   1.870   1.785  0.00  0.00     0.193 C 
BRANCH  11  12
ATOM     12  C   UNL d   1       1.570   3.052   1.522  0.00  0.00     0.277 C 
BRANCH  12  13
ATOM     13  O   UNL d   1       0.773   4.138   1.017  0.00  0.00    -0.360 OA
BRANCH  13  14
ATOM     14  C   UNL d   1       1.533   5.324   0.809  0.00  0.00     0.166 C 
ATOM     15  C   UNL d   1       0.590   6.411   0.331  0.00  0.00     0.033 C 
ENDBRANCH  13  14
ENDBRANCH  12  13
BRANCH  12  16
ATOM     16  O   UNL d   1       2.168   3.455   2.761  0.00  0.00    -0.360 OA
BRANCH  16  17
ATOM     17  C   UNL d   1       3.297   2.671   3.136  0.00  0.00     0.166 C 
ATOM     18  C   UNL d   1       3.851   3.247   4.427  0.00  0.00     0.033 C 
ENDBRANCH  16  17
ENDBRANCH  12  16
ENDBRANCH  11  12
ENDBRANCH   2  11
BRANCH   1  19
ATOM     19  C   UNL d   1       0.399  -0.780  -0.976  0.00  0.00     0.032 A 
ATOM     20  C   UNL d   1      -0.585  -0.502  -1.936  0.00  0.00     0.020 A 
ATOM     21  C   UNL d   1      -1.175  -1.546  -2.657  0.00  0.00     0.043 A 
ATOM     22  C   UNL d   1      -0.736  -2.852  -2.462  0.00  0.00     0.116 A 
ATOM     23  C   UNL d   1       0.300  -3.132  -1.580  0.00  0.00     0.043 A 
ATOM     24  F   UNL d   1      -1.325  -3.853  -3.128  0.00  0.00    -0.206 F 
ATOM     25  C   UNL d   1       0.871  -2.096  -0.838  0.00  0.00     0.020 A 
ENDBRANCH   1  19
TORSDOF 8
