REMARK  3 active torsions:
REMARK  status: ('A' for Active; 'I' for Inactive)
REMARK    1  A    between atoms: C_13  and  C_1 
REMARK    2  A    between atoms: N_5  and  O_12 
REMARK    3  A    between atoms: O_12  and  C_13 
ROOT
ATOM      1  O   UNL d   1      -0.071   5.218   0.348  0.00  0.00    -0.276 OA
ENDROOT
BRANCH   1   2
ATOM      2  N   UNL d   1      -1.194   4.391   0.220  0.00  0.00    -0.273 N 
ATOM      3  C   UNL d   1      -2.280   5.106   0.116  0.00  0.00     0.028 C 
ATOM      4  C   UNL d   1      -2.315   6.622   0.074  0.00  0.00     0.130 C 
ATOM      5  C   UNL d   1      -3.599   4.380  -0.049  0.00  0.00     0.130 C 
ATOM      6  S   UNL d   1      -3.185   7.282   1.520  0.00  0.00    -0.148 SA
ATOM      7  C   UNL d   1      -4.818   6.521   1.284  0.00  0.00     0.105 C 
ATOM      8  S   UNL d   1      -4.718   4.704   1.340  0.00  0.00    -0.148 SA
ATOM      9  C   UNL d   1      -5.530   7.042   0.040  0.00  0.00     0.033 C 
ATOM     10  HN  UNL d   1      -1.167   3.372   0.210  1.00  0.00     0.193 HD
ENDBRANCH   1   2
BRANCH   1  11
ATOM     11  C   UNL d   1       1.123   4.441   0.266  0.00  0.00     0.244 C 
BRANCH  11  12
ATOM     12  C   UNL d   1       2.287   5.392   0.290  0.00  0.00     0.028 A 
ATOM     13  C   UNL d   1       3.179   5.360   1.368  0.00  0.00     0.126 A 
ATOM     14  F   UNL d   1       3.006   4.466   2.353  0.00  0.00    -0.205 F 
ATOM     15  C   UNL d   1       4.257   6.237   1.457  0.00  0.00     0.043 A 
ATOM     16  C   UNL d   1       4.469   7.178   0.455  0.00  0.00     0.005 A 
ATOM     17  C   UNL d   1       3.598   7.230  -0.633  0.00  0.00     0.024 A 
ATOM     18  C   UNL d   1       2.518   6.341  -0.717  0.00  0.00     0.045 A 
ATOM     19 CL   UNL d   1       1.495   6.467  -2.106  0.00  0.00    -0.084 Cl
ENDBRANCH  11  12
ENDBRANCH   1  11
TORSDOF 3
