REMARK  6 active torsions:
REMARK  status: ('A' for Active; 'I' for Inactive)
REMARK    1  A    between atoms: C_4  and  C_1 
REMARK    2  A    between atoms: C_2  and  C_9 
REMARK    3  A    between atoms: O_8  and  C_2 
REMARK    4  A    between atoms: C_10  and  C_4 
REMARK    5  A    between atoms: S_7  and  C_10 
REMARK    6  A    between atoms: C_9  and  S_7 
ROOT
ATOM      1  C   UNL d   1      -1.204  -1.091  -0.057  0.00  0.00     0.081 C 
ENDROOT
BRANCH   1   2
ATOM      2  S   UNL d   1      -1.959  -2.756  -0.080  0.00  0.00    -0.159 SA
BRANCH   2   3
ATOM      3  C   UNL d   1      -3.722  -2.298  -0.033  0.00  0.00     0.184 C 
BRANCH   3   4
ATOM      4  C   UNL d   1      -4.098  -1.530   1.219  0.00  0.00     0.267 C 
ATOM      5  O   UNL d   1      -3.527  -1.581   2.298  0.00  0.00    -0.264 OA
BRANCH   4   6
ATOM      6  O   UNL d   1      -5.205  -0.769   0.967  0.00  0.00    -0.326 OA
ATOM      7  C   UNL d   1      -5.623   0.023   2.080  0.00  0.00     0.213 C 
ENDBRANCH   4   6
ENDBRANCH   3   4
ENDBRANCH   2   3
ENDBRANCH   1   2
BRANCH   1   8
ATOM      8  C   UNL d   1       0.316  -1.232  -0.080  0.00  0.00     0.079 C 
BRANCH   8   9
ATOM      9  C   UNL d   1       0.993   0.118  -0.028  0.00  0.00     0.071 C 
ATOM     10  S   UNL d   1       1.417   0.977  -1.390  0.00  0.00    -0.066 SA
ATOM     11  N   UNL d   1       1.224   0.638   1.210  0.00  0.00    -0.394 N 
ATOM     12  H   UNL d   1       1.724   1.518   1.287  0.00  0.00     0.156 HD
ATOM     13  H   UNL d   1       1.055   0.122   2.066  0.00  0.00     0.156 HD
ENDBRANCH   8   9
ENDBRANCH   1   8
TORSDOF 6
