REMARK  4 active torsions:
REMARK  status: ('A' for Active; 'I' for Inactive)
REMARK    1  A    between atoms: C_7  and  C_1 
REMARK    2  A    between atoms: C_8  and  C_11 
REMARK    3  A    between atoms: S_21  and  C_9 
REMARK    4  A    between atoms: C_18  and  C_10 
ROOT
ATOM      1  C   UNL d   1      -0.198   1.240  -0.251  0.00  0.00     0.165 A 
ATOM      2  N   UNL d   1      -0.724   0.058  -0.328  0.00  0.00    -0.331 N 
ATOM      3  HN  UNL d   1      -1.708  -0.195  -0.423  1.00  0.00     0.168 HD
ATOM      4  O   UNL d   1       1.149   1.315  -0.152  0.00  0.00    -0.255 OA
ATOM      5  C   UNL d   1       0.364  -0.767  -0.249  0.00  0.00     0.111 A 
ATOM      6  C   UNL d   1       1.612   0.034  -0.168  0.00  0.00     0.316 A 
ATOM      7  C   UNL d   1       0.357  -2.101  -0.145  0.00  0.00     0.047 C 
ATOM      8  O   UNL d   1       2.766  -0.343  -0.087  0.00  0.00    -0.257 OA
ENDROOT
BRANCH   7   9
ATOM      9  C   UNL d   1      -0.877  -2.889  -0.125  0.00  0.00    -0.034 A 
ATOM     10  C   UNL d   1      -1.358  -3.471  -1.301  0.00  0.00     0.012 A 
ATOM     11  C   UNL d   1      -2.542  -4.215  -1.286  0.00  0.00     0.017 A 
ATOM     12  C   UNL d   1      -3.262  -4.388  -0.095  0.00  0.00     0.048 A 
ATOM     13  C   UNL d   1      -2.775  -3.798   1.082  0.00  0.00     0.017 A 
ATOM     14  C   UNL d   1      -1.592  -3.054   1.066  0.00  0.00     0.012 A 
BRANCH  12  15
ATOM     15  C   UNL d   1      -4.540  -5.191  -0.063  0.00  0.00     0.417 C 
ATOM     16  F   UNL d   1      -4.895  -5.704  -1.274  0.00  0.00    -0.166 F 
ATOM     17  F   UNL d   1      -4.466  -6.254   0.785  0.00  0.00    -0.166 F 
ATOM     18  F   UNL d   1      -5.607  -4.455   0.356  0.00  0.00    -0.166 F 
ENDBRANCH  12  15
ENDBRANCH   7   9
BRANCH   1  19
ATOM     19  C   UNL d   1      -0.963   2.487  -0.112  0.00  0.00     0.049 A 
ATOM     20  C   UNL d   1      -0.535   3.769  -0.466  0.00  0.00     0.083 A 
ATOM     21  N   UNL d   1      -1.300   4.867  -0.211  0.00  0.00    -0.360 N 
ATOM     22  C   UNL d   1      -2.496   4.700   0.394  0.00  0.00     0.089 A 
ATOM     23  HN  UNL d   1      -0.975   5.798  -0.471  1.00  0.00     0.166 HD
ATOM     24  C   UNL d   1      -3.004   3.469   0.750  0.00  0.00     0.018 A 
ATOM     25  C   UNL d   1      -2.228   2.350   0.485  0.00  0.00     0.020 A 
BRANCH  20  26
ATOM     26  S   UNL d   1       1.002   4.100  -1.321  0.00  0.00    -0.116 SA
ATOM     27  C   UNL d   1       0.960   5.912  -1.431  0.00  0.00     0.097 C 
ENDBRANCH  20  26
ENDBRANCH   1  19
TORSDOF 4
