REMARK  10 active torsions:
REMARK  status: ('A' for Active; 'I' for Inactive)
REMARK    1  A    between atoms: C_3  and  S_1 
REMARK    2  A    between atoms: N_21  and  S_1 
REMARK    3  A    between atoms: S_2  and  N_22 
REMARK    4  A    between atoms: C_11  and  S_2 
REMARK    5  A    between atoms: C_8  and  C_12 
REMARK    6  A    between atoms: C_9  and  C_13 
REMARK    7  A    between atoms: C_35  and  N_21 
REMARK    8  A    between atoms: N_22  and  C_36 
REMARK    9  A    between atoms: C_34  and  C_35 
REMARK   10  A    between atoms: C_36  and  C_34 
ROOT
ATOM      1  N   UNL d   1       5.361   2.026   1.671  0.00  0.00    -0.315 N 
ATOM      2  H   UNL d   1       4.518   1.942   2.238  0.00  0.00     0.172 HD
ENDROOT
BRANCH   1   3
ATOM      3  S   UNL d   1       6.026   3.571   1.636  0.00  0.00     0.258 S 
ATOM      4  O   UNL d   1       5.578   4.224   2.842  0.00  0.00    -0.201 OA
ATOM      5  O   UNL d   1       7.426   3.461   1.291  0.00  0.00    -0.201 OA
BRANCH   3   6
ATOM      6  C   UNL d   1       5.196   4.363   0.264  0.00  0.00     0.081 A 
ATOM      7  C   UNL d   1       4.089   5.185   0.508  0.00  0.00     0.041 A 
ATOM      8  C   UNL d   1       3.353   5.725  -0.558  0.00  0.00     0.050 A 
ATOM      9  C   UNL d   1       3.815   5.514  -1.867  0.00  0.00     0.032 A 
ATOM     10  C   UNL d   1       4.989   4.780  -2.117  0.00  0.00     0.050 A 
ATOM     11  C   UNL d   1       5.671   4.191  -1.039  0.00  0.00     0.041 A 
BRANCH   8  12
ATOM     12  C   UNL d   1       2.060   6.479  -0.326  0.00  0.00     0.417 C 
ATOM     13  F   UNL d   1       1.705   6.549   0.987  0.00  0.00    -0.166 F 
ATOM     14  F   UNL d   1       2.111   7.760  -0.775  0.00  0.00    -0.166 F 
ATOM     15  F   UNL d   1       1.010   5.894  -0.963  0.00  0.00    -0.166 F 
ENDBRANCH   8  12
BRANCH  10  16
ATOM     16  C   UNL d   1       5.489   4.639  -3.538  0.00  0.00     0.417 C 
ATOM     17  F   UNL d   1       6.665   3.961  -3.631  0.00  0.00    -0.166 F 
ATOM     18  F   UNL d   1       4.606   3.973  -4.329  0.00  0.00    -0.166 F 
ATOM     19  F   UNL d   1       5.697   5.844  -4.133  0.00  0.00    -0.166 F 
ENDBRANCH  10  16
ENDBRANCH   3   6
ENDBRANCH   1   3
BRANCH   1  20
ATOM     20  C   UNL d   1       5.652   1.064   0.612  0.00  0.00     0.134 C 
BRANCH  20  21
ATOM     21  C   UNL d   1       5.148  -0.345   0.939  0.00  0.00     0.041 C 
BRANCH  21  22
ATOM     22  C   UNL d   1       3.652  -0.500   1.218  0.00  0.00     0.134 C 
BRANCH  22  23
ATOM     23  N   UNL d   1       2.836   0.199   0.237  0.00  0.00    -0.315 N 
ATOM     24  H   UNL d   1       3.205   0.554  -0.642  0.00  0.00     0.172 HD
BRANCH  23  25
ATOM     25  S   UNL d   1       1.160   0.050   0.255  0.00  0.00     0.259 S 
ATOM     26  O   UNL d   1       0.667   0.900  -0.806  0.00  0.00    -0.201 OA
ATOM     27  O   UNL d   1       0.873  -1.365   0.237  0.00  0.00    -0.201 OA
BRANCH  25  28
ATOM     28  C   UNL d   1       0.717   0.815   1.837  0.00  0.00     0.092 C 
ATOM     29  C   UNL d   1       0.996   2.191   2.035  0.00  0.00    -0.032 C 
ATOM     30  C   UNL d   1       0.605   2.828   3.243  0.00  0.00    -0.048 C 
ATOM     31  C   UNL d   1       1.754   3.021   1.036  0.00  0.00     0.050 C 
ATOM     32  C   UNL d   1       0.951   4.279   3.531  0.00  0.00     0.049 C 
ATOM     33  C   UNL d   1      -0.144   2.113   4.207  0.00  0.00    -0.049 C 
ATOM     34  C   UNL d   1      -0.468   0.754   3.979  0.00  0.00    -0.048 C 
ATOM     35  C   UNL d   1      -0.569   2.828   5.475  0.00  0.00     0.049 C 
ATOM     36  C   UNL d   1       0.070   0.069   2.854  0.00  0.00    -0.032 C 
ATOM     37  C   UNL d   1      -1.383   0.039   4.950  0.00  0.00     0.049 C 
ATOM     38  C   UNL d   1      -0.054  -1.435   2.789  0.00  0.00     0.050 C 
ENDBRANCH  25  28
ENDBRANCH  23  25
ENDBRANCH  22  23
ENDBRANCH  21  22
ENDBRANCH  20  21
ENDBRANCH   1  20
TORSDOF 10
