REMARK  4 active torsions:
REMARK  status: ('A' for Active; 'I' for Inactive)
REMARK    1  A    between atoms: N_2  and  S_1 
REMARK    2  A    between atoms: C_5  and  S_1 
REMARK    3  A    between atoms: S_4  and  N_2 
REMARK    4  A    between atoms: C_7  and  S_4 
ROOT
ATOM      1  N   UNL d   1       0.327  -0.222   1.479  0.00  0.00    -0.236 N 
ATOM      2  HN  UNL d   1      -0.443   0.387   1.758  1.00  0.00     0.189 HD
ENDROOT
BRANCH   1   3
ATOM      3  S   UNL d   1       1.136   0.069   0.017  0.00  0.00     0.271 S 
ATOM      4  O   UNL d   1       1.464  -1.193  -0.615  0.00  0.00    -0.200 OA
ATOM      5  O   UNL d   1       2.139   1.102   0.172  0.00  0.00    -0.200 OA
BRANCH   3   6
ATOM      6  C   UNL d   1      -0.191   0.768  -0.948  0.00  0.00     0.102 A 
ATOM      7  C   UNL d   1      -0.775   1.998  -0.627  0.00  0.00     0.059 A 
ATOM      8  C   UNL d   1      -1.876   2.451  -1.365  0.00  0.00     0.049 A 
ATOM      9 CL   UNL d   1      -0.245   3.010   0.664  0.00  0.00    -0.083 Cl
ATOM     10  C   UNL d   1      -2.375   1.687  -2.421  0.00  0.00     0.035 A 
ATOM     11  C   UNL d   1      -1.770   0.485  -2.771  0.00  0.00     0.025 A 
ATOM     12 CL   UNL d   1      -3.763   2.223  -3.284  0.00  0.00    -0.084 Cl
ATOM     13  C   UNL d   1      -0.674   0.026  -2.039  0.00  0.00     0.029 A 
ENDBRANCH   3   6
ENDBRANCH   1   3
BRANCH   1  14
ATOM     14  S   UNL d   1       0.771  -1.485   2.462  0.00  0.00     0.061 S 
ATOM     15  O   UNL d   1       2.193  -1.551   2.699  0.00  0.00    -0.244 OA
ATOM     16  C   UNL d   1      -0.096  -1.242   3.980  0.00  0.00     0.143 C 
BRANCH  14  17
ATOM     17  C   UNL d   1       0.171  -2.939   1.696  0.00  0.00     0.039 A 
ATOM     18  C   UNL d   1       1.078  -3.940   1.344  0.00  0.00     0.023 A 
ATOM     19  C   UNL d   1       0.629  -5.065   0.651  0.00  0.00     0.025 A 
ATOM     20  C   UNL d   1      -0.719  -5.179   0.316  0.00  0.00     0.034 A 
ATOM     21  C   UNL d   1      -1.629  -4.188   0.690  0.00  0.00     0.025 A 
ATOM     22 CL   UNL d   1      -1.262  -6.541  -0.584  0.00  0.00    -0.084 Cl
ATOM     23  C   UNL d   1      -1.187  -3.062   1.388  0.00  0.00     0.023 A 
ENDBRANCH  14  17
ENDBRANCH   1  14
TORSDOF 4
