REMARK  4 active torsions:
REMARK  status: ('A' for Active; 'I' for Inactive)
REMARK    1  A    between atoms: O_7  and  S_1 
REMARK    2  A    between atoms: C_10  and  S_1 
REMARK    3  A    between atoms: C_2  and  O_7 
REMARK    4  A    between atoms: C_9  and  C_3 
ROOT
ATOM      1  C   UNL d   1       0.722  -0.644   2.433  0.00  0.00     0.179 A 
ATOM      2  C   UNL d   1       1.237  -2.371   3.758  0.00  0.00     0.136 A 
ATOM      3  C   UNL d   1       1.346  -1.873   2.433  0.00  0.00     0.094 A 
ATOM      4  N   UNL d   1       0.599  -1.483   4.545  0.00  0.00    -0.293 N 
ATOM      5  HN  UNL d   1       0.390  -1.567   5.540  1.00  0.00     0.187 HD
ATOM      6  N   UNL d   1       0.298  -0.459   3.723  0.00  0.00    -0.274 N 
ATOM      7  C   UNL d   1      -0.412   0.683   4.249  0.00  0.00     0.180 C 
ENDROOT
BRANCH   1   8
ATOM      8  O   UNL d   1       0.492   0.267   1.483  0.00  0.00    -0.209 OA
BRANCH   8   9
ATOM      9  S   UNL d   1       0.967   0.021  -0.067  0.00  0.00     0.304 S 
ATOM     10  O   UNL d   1       0.262  -1.140  -0.580  0.00  0.00    -0.193 OA
ATOM     11  O   UNL d   1       2.412   0.117  -0.138  0.00  0.00    -0.193 OA
BRANCH   9  12
ATOM     12  C   UNL d   1       0.334   1.431  -0.950  0.00  0.00     0.086 A 
ATOM     13  C   UNL d   1       0.325   2.688  -0.337  0.00  0.00     0.027 A 
ATOM     14  C   UNL d   1      -0.214   3.779  -1.024  0.00  0.00     0.025 A 
ATOM     15  C   UNL d   1      -0.734   3.606  -2.309  0.00  0.00     0.034 A 
ATOM     16  C   UNL d   1      -0.713   2.352  -2.922  0.00  0.00     0.025 A 
ATOM     17 CL   UNL d   1      -1.415   4.949  -3.140  0.00  0.00    -0.084 Cl
ATOM     18  C   UNL d   1      -0.179   1.257  -2.241  0.00  0.00     0.027 A 
ENDBRANCH   9  12
ENDBRANCH   8   9
ENDBRANCH   1   8
BRANCH   2  19
ATOM     19  C   UNL d   1       1.736  -3.702   4.256  0.00  0.00     0.434 C 
ATOM     20  F   UNL d   1       2.348  -4.412   3.267  0.00  0.00    -0.165 F 
ATOM     21  F   UNL d   1       2.648  -3.577   5.256  0.00  0.00    -0.165 F 
ATOM     22  F   UNL d   1       0.732  -4.490   4.725  0.00  0.00    -0.165 F 
ENDBRANCH   2  19
TORSDOF 4
