REMARK  3 active torsions:
REMARK  status: ('A' for Active; 'I' for Inactive)
REMARK       I    between atoms: N_2  and  C_1 
REMARK    1  A    between atoms: C_3  and  C_1 
REMARK       I    between atoms: C_4  and  N_2 
REMARK       I    between atoms: N_9  and  C_4 
REMARK    2  A    between atoms: C_5  and  C_13 
REMARK    3  A    between atoms: C_13  and  N_9 
ROOT
ATOM      1  C   UNL d   1       0.992   0.018   0.158  0.00  0.00     0.264 C 
ATOM      2  N   UNL d   1       0.378   0.978  -0.632  0.00  0.00    -0.275 N 
ATOM      3  C   UNL d   1       0.953   2.048  -1.278  0.00  0.00     0.323 C 
ATOM      4  O   UNL d   1       2.209  -0.127   0.229  0.00  0.00    -0.267 OA
ATOM      5  N   UNL d   1       2.312   2.051  -1.343  0.00  0.00    -0.342 N 
ATOM      6  O   UNL d   1       0.239   2.945  -1.716  0.00  0.00    -0.247 OA
ATOM      7  H   UNL d   1      -0.626   1.080  -0.582  0.00  0.00     0.173 HD
ATOM      8  H   UNL d   1       2.798   1.281  -0.893  0.00  0.00     0.164 HD
ENDROOT
BRANCH   1   9
ATOM      9  C   UNL d   1       0.096  -0.867   0.942  0.00  0.00     0.092 A 
ATOM     10  C   UNL d   1       0.336  -2.242   1.079  0.00  0.00     0.052 A 
ATOM     11 CL   UNL d   1       1.567  -3.077   0.202  0.00  0.00    -0.083 Cl
ATOM     12  C   UNL d   1      -0.481  -3.019   1.915  0.00  0.00     0.025 A 
ATOM     13  C   UNL d   1      -1.540  -2.439   2.614  0.00  0.00     0.005 A 
ATOM     14  C   UNL d   1      -1.798  -1.080   2.464  0.00  0.00     0.043 A 
ATOM     15  C   UNL d   1      -0.984  -0.308   1.635  0.00  0.00     0.133 A 
ATOM     16  F   UNL d   1      -1.262   0.998   1.520  0.00  0.00    -0.205 F 
ENDBRANCH   1   9
BRANCH   5  17
ATOM     17  C   UNL d   1       3.080   3.179  -1.810  0.00  0.00     0.129 C 
BRANCH  17  18
ATOM     18  C   UNL d   1       3.369   3.072  -3.274  0.00  0.00     0.003 A 
ATOM     19  C   UNL d   1       4.236   1.978  -3.848  0.00  0.00     0.007 A 
ATOM     20  C   UNL d   1       4.758   3.386  -3.780  0.00  0.00     0.007 A 
ENDBRANCH  17  18
ENDBRANCH   5  17
TORSDOF 3
