REMARK  3 active torsions:
REMARK  status: ('A' for Active; 'I' for Inactive)
REMARK       I    between atoms: C_3  and  N_9 
REMARK    1  A    between atoms: C_8  and  C_3 
REMARK    2  A    between atoms: N_9  and  N_5 
REMARK    3  A    between atoms: C_16  and  C_17 
ROOT
ATOM      1  N   UNL d   1       4.851  -2.006   0.093  0.00  0.00    -0.308 N 
ATOM      2  HN  UNL d   1       4.135  -2.733   0.069  1.00  0.00     0.186 HD
ATOM      3  C   UNL d   1       4.540  -0.750   0.080  0.00  0.00     0.118 C 
ENDROOT
BRANCH   1   4
ATOM      4  N   UNL d   1       6.176  -2.314   0.139  0.00  0.00    -0.266 N 
ATOM      5  C   UNL d   1       6.554  -3.650   0.149  0.00  0.00     0.270 C 
ATOM      6  O   UNL d   1       5.780  -4.604   0.172  0.00  0.00    -0.266 OA
ATOM      7  H   UNL d   1       6.854  -1.570   0.241  0.00  0.00     0.190 HD
BRANCH   5   8
ATOM      8  C   UNL d   1       8.019  -3.923   0.146  0.00  0.00     0.033 A 
ATOM      9  C   UNL d   1       8.472  -5.108   0.746  0.00  0.00     0.019 A 
ATOM     10  C   UNL d   1       9.827  -5.448   0.711  0.00  0.00     0.025 A 
ATOM     11  C   UNL d   1      10.732  -4.607   0.067  0.00  0.00     0.034 A 
ATOM     12  C   UNL d   1      10.294  -3.426  -0.533  0.00  0.00     0.025 A 
ATOM     13 CL   UNL d   1      12.394  -5.040  -0.012  0.00  0.00    -0.084 Cl
ATOM     14  C   UNL d   1       8.938  -3.081  -0.496  0.00  0.00     0.019 A 
ENDBRANCH   5   8
ENDBRANCH   1   4
BRANCH   3  15
ATOM     15  C   UNL d   1       3.128  -0.310   0.025  0.00  0.00    -0.019 A 
ATOM     16  C   UNL d   1       2.837   1.054  -0.001  0.00  0.00     0.015 A 
ATOM     17  C   UNL d   1       1.504   1.473  -0.051  0.00  0.00     0.038 A 
ATOM     18  C   UNL d   1       0.468   0.537  -0.076  0.00  0.00     0.076 A 
ATOM     19  O   UNL d   1      -0.797   1.055  -0.126  0.00  0.00    -0.340 OA
ATOM     20  C   UNL d   1       0.753  -0.831  -0.076  0.00  0.00    -0.024 A 
ATOM     21  C   UNL d   1      -1.893   0.140   0.061  0.00  0.00     0.061 C 
ATOM     22  C   UNL d   1      -1.635  -1.211  -0.623  0.00  0.00     0.042 C 
ATOM     23  C   UNL d   1      -3.110   0.807  -0.598  0.00  0.00     0.046 C 
ATOM     24  C   UNL d   1      -2.175  -0.002   1.565  0.00  0.00     0.046 C 
ATOM     25  C   UNL d   1      -0.348  -1.848  -0.118  0.00  0.00     0.044 C 
ATOM     26  C   UNL d   1       2.091  -1.250  -0.009  0.00  0.00     0.022 A 
ENDBRANCH   3  15
TORSDOF 3
