REMARK  1 active torsions:
REMARK  status: ('A' for Active; 'I' for Inactive)
REMARK    1  A    between atoms: C_3  and  C_1 
REMARK       I    between atoms: N_8  and  C_3 
ROOT
ATOM      1  C   UNL d   1       0.248   1.052  -0.017  0.00  0.00     0.094 A 
ATOM      2  C   UNL d   1      -0.619  -0.028  -0.010  0.00  0.00     0.057 A 
ATOM      3  S   UNL d   1       1.887   0.509  -0.007  0.00  0.00    -0.095 SA
ATOM      4  C   UNL d   1       0.062  -1.282  -0.002  0.00  0.00     0.032 A 
ATOM      5  C   UNL d   1       1.428  -1.133   0.001  0.00  0.00     0.052 A 
ATOM      6 CL   UNL d   1      -2.335   0.014  -0.010  0.00  0.00    -0.083 Cl
ENDROOT
BRANCH   1   7
ATOM      7  C   UNL d   1       0.011   2.487  -0.031  0.00  0.00     0.258 C 
ATOM      8  O   UNL d   1       0.885   3.352  -0.036  0.00  0.00    -0.267 OA
ATOM      9  N   UNL d   1      -1.292   2.900  -0.041  0.00  0.00    -0.365 N 
ATOM     10  H   UNL d   1      -2.074   2.260  -0.038  0.00  0.00     0.159 HD
ATOM     11  H   UNL d   1      -1.467   3.894  -0.053  0.00  0.00     0.159 HD
ENDBRANCH   1   7
TORSDOF 1
