REMARK  4 active torsions:
REMARK  status: ('A' for Active; 'I' for Inactive)
REMARK    1  A    between atoms: C_5  and  C_1 
REMARK    2  A    between atoms: C_9  and  C_4 
REMARK       I    between atoms: N_14  and  C_5 
REMARK    3  A    between atoms: C_8  and  C_12 
REMARK    4  A    between atoms: N_19  and  N_14 
ROOT
ATOM      1  C   UNL d   1       1.316   0.814   0.274  0.00  0.00     0.109 A 
ATOM      2  N   UNL d   1       1.383  -0.578   0.441  0.00  0.00    -0.345 N 
ATOM      3  HN  UNL d   1       2.156  -1.076   0.882  1.00  0.00     0.167 HD
ATOM      4  C   UNL d   1       0.301  -1.152  -0.055  0.00  0.00     0.085 A 
ATOM      5  S   UNL d   1      -0.887  -0.046  -0.653  0.00  0.00    -0.081 SA
ATOM      6  C   UNL d   1       0.143   1.264  -0.298  0.00  0.00     0.087 A 
ENDROOT
BRANCH   4   7
ATOM      7  C   UNL d   1       0.041  -2.604  -0.085  0.00  0.00    -0.002 A 
ATOM      8  C   UNL d   1       0.559  -3.434   0.919  0.00  0.00     0.015 A 
ATOM      9  C   UNL d   1       0.285  -4.810   0.932  0.00  0.00     0.010 A 
ATOM     10  C   UNL d   1      -0.507  -5.403  -0.068  0.00  0.00    -0.035 A 
ATOM     11  C   UNL d   1      -1.001  -4.576  -1.087  0.00  0.00     0.010 A 
ATOM     12  C   UNL d   1      -0.724  -3.204  -1.098  0.00  0.00     0.015 A 
BRANCH  10  13
ATOM     13  C   UNL d   1      -0.822  -6.883  -0.011  0.00  0.00     0.141 C 
ATOM     14  S   UNL d   1      -0.366  -7.787  -1.520  0.00  0.00    -0.148 SA
ATOM     15  C   UNL d   1      -1.474  -9.177  -1.205  0.00  0.00     0.085 C 
ATOM     16  C   UNL d   1      -2.817  -8.607  -0.787  0.00  0.00     0.085 C 
ATOM     17  S   UNL d   1      -2.581  -7.213   0.359  0.00  0.00    -0.148 SA
ENDBRANCH  10  13
ENDBRANCH   4   7
BRANCH   1  18
ATOM     18  C   UNL d   1       2.410   1.705   0.662  0.00  0.00     0.282 C 
ATOM     19  O   UNL d   1       2.390   2.923   0.474  0.00  0.00    -0.265 OA
ATOM     20  N   UNL d   1       3.478   1.046   1.251  0.00  0.00    -0.288 N 
ATOM     21  H   UNL d   1       3.382   0.048   1.437  0.00  0.00     0.183 HD
BRANCH  20  22
ATOM     22  N   UNL d   1       4.605   1.767   1.717  0.00  0.00    -0.247 NA
ATOM     23  H   UNL d   1       4.368   2.767   1.651  0.00  0.00     0.143 HD
ATOM     24  H   UNL d   1       5.358   1.644   1.034  0.00  0.00     0.143 HD
ENDBRANCH  20  22
ENDBRANCH   1  18
TORSDOF 4
