REMARK  2 active torsions:
REMARK  status: ('A' for Active; 'I' for Inactive)
REMARK    1  A    between atoms: N_3  and  N_1 
REMARK    2  A    between atoms: C_8  and  C_2 
ROOT
ATOM      1  N   UNL d   1      -0.288   1.152   0.035  0.00  0.00    -0.268 N 
ATOM      2  C   UNL d   1       1.002   0.664  -0.113  0.00  0.00     0.078 A 
ATOM      3  N   UNL d   1      -0.499  -1.062  -0.071  0.00  0.00    -0.359 N 
ATOM      4  HN  UNL d   1      -0.897  -2.001  -0.089  1.00  0.00     0.166 HD
ATOM      5  C   UNL d   1      -1.139   0.078   0.046  0.00  0.00     0.201 A 
ATOM      6  C   UNL d   1       0.824  -0.710  -0.163  0.00  0.00     0.121 A 
ENDROOT
BRANCH   2   7
ATOM      7  C   UNL d   1       2.230   1.471  -0.115  0.00  0.00    -0.006 A 
ATOM      8  C   UNL d   1       3.380   1.005   0.540  0.00  0.00     0.015 A 
ATOM      9  C   UNL d   1       4.530   1.799   0.618  0.00  0.00     0.024 A 
ATOM     10  C   UNL d   1       4.541   3.066   0.046  0.00  0.00     0.034 A 
ATOM     11  C   UNL d   1       3.421   3.538  -0.630  0.00  0.00     0.024 A 
ATOM     12 CL   UNL d   1       5.938   4.061   0.181  0.00  0.00    -0.084 Cl
ATOM     13  C   UNL d   1       2.282   2.733  -0.724  0.00  0.00     0.015 A 
ENDBRANCH   2   7
BRANCH   1  14
ATOM     14  N   UNL d   1      -0.618   2.534   0.154  0.00  0.00    -0.223 NA
ATOM     15  C   UNL d   1      -1.841   2.970  -0.504  0.00  0.00     0.114 C 
ATOM     16  C   UNL d   1      -1.780   4.493  -0.667  0.00  0.00     0.016 C 
ATOM     17  C   UNL d   1      -1.508   5.207   0.657  0.00  0.00     0.002 C 
ATOM     18  C   UNL d   1      -0.344   4.576   1.419  0.00  0.00     0.016 C 
ATOM     19  C   UNL d   1      -0.488   3.056   1.512  0.00  0.00     0.114 C 
ENDBRANCH   1  14
TORSDOF 2
