REMARK  4 active torsions:
REMARK  status: ('A' for Active; 'I' for Inactive)
REMARK    1  A    between atoms: C_2  and  S_1 
REMARK    2  A    between atoms: N_3  and  S_1 
REMARK       I    between atoms: C_6  and  N_8 
REMARK    3  A    between atoms: C_16  and  C_6 
REMARK    4  A    between atoms: N_8  and  C_17 
ROOT
ATOM      1  N   UNL d   1       0.502  -1.447   0.360  0.00  0.00    -0.206 NA
ATOM      2  C   UNL d   1      -0.937  -1.676   0.050  0.00  0.00     0.109 C 
ATOM      3  C   UNL d   1       1.412  -2.532  -0.092  0.00  0.00     0.109 C 
ATOM      4  C   UNL d   1      -0.519  -4.163  -0.069  0.00  0.00     0.086 C 
ATOM      5  C   UNL d   1      -1.395  -3.049   0.520  0.00  0.00     0.041 C 
ATOM      6  C   UNL d   1       0.920  -3.901   0.373  0.00  0.00     0.041 C 
ENDROOT
BRANCH   1   7
ATOM      7  S   UNL d   1       1.065   0.129  -0.043  0.00  0.00     0.245 S 
ATOM      8  O   UNL d   1       2.506   0.174   0.046  0.00  0.00    -0.206 OA
ATOM      9  O   UNL d   1       0.388   0.524  -1.268  0.00  0.00    -0.206 OA
BRANCH   7  10
ATOM     10  C   UNL d   1       0.413   1.100   1.289  0.00  0.00     0.097 A 
ATOM     11  C   UNL d   1       0.795   0.846   2.607  0.00  0.00     0.058 A 
ATOM     12  C   UNL d   1       0.209   1.582   3.639  0.00  0.00     0.050 A 
ATOM     13 CL   UNL d   1       1.944  -0.354   3.080  0.00  0.00    -0.083 Cl
ATOM     14  C   UNL d   1      -0.757   2.557   3.367  0.00  0.00     0.041 A 
ATOM     15  C   UNL d   1      -1.134   2.835   2.046  0.00  0.00    -0.039 A 
ATOM     16 CL   UNL d   1      -1.457   3.367   4.721  0.00  0.00    -0.084 Cl
ATOM     17  C   UNL d   1      -0.527   2.105   1.007  0.00  0.00     0.035 A 
ATOM     18  C   UNL d   1      -2.204   3.828   1.682  0.00  0.00     0.050 C 
ENDBRANCH   7  10
ENDBRANCH   1   7
BRANCH   4  19
ATOM     19  N   UNL d   1      -0.613  -4.258  -1.528  0.00  0.00    -0.356 N 
ATOM     20  C   UNL d   1      -1.799  -4.535  -2.171  0.00  0.00     0.222 C 
ATOM     21  O   UNL d   1      -2.833  -4.796  -1.565  0.00  0.00    -0.273 OA
ATOM     22  H   UNL d   1       0.234  -4.438  -2.052  0.00  0.00     0.162 HD
BRANCH  20  23
ATOM     23  C   UNL d   1      -1.708  -4.478  -3.704  0.00  0.00     0.078 C 
ATOM     24  C   UNL d   1      -1.230  -3.103  -4.199  0.00  0.00     0.014 C 
ATOM     25  C   UNL d   1      -2.284  -2.014  -3.999  0.00  0.00     0.001 C 
ATOM     26  C   UNL d   1      -3.623  -2.384  -4.629  0.00  0.00     0.000 C 
ATOM     27  C   UNL d   1      -4.112  -3.757  -4.182  0.00  0.00     0.001 C 
ATOM     28  C   UNL d   1      -3.044  -4.836  -4.372  0.00  0.00     0.014 C 
ENDBRANCH  20  23
ENDBRANCH   4  19
TORSDOF 4
