REMARK  6 active torsions:
REMARK  status: ('A' for Active; 'I' for Inactive)
REMARK       I    between atoms: N_2  and  C_1 
REMARK    1  A    between atoms: O_10  and  C_1 
REMARK    2  A    between atoms: C_3  and  C_11 
REMARK       I    between atoms: N_4  and  C_3 
REMARK    3  A    between atoms: C_8  and  N_4 
REMARK    4  A    between atoms: N_5  and  C_6 
REMARK    5  A    between atoms: C_22  and  O_10 
REMARK    6  A    between atoms: C_24  and  C_22 
ROOT
ATOM      1  C   UNL d   1      -1.339  -1.511  -4.319  0.00  0.00     0.226 C 
ATOM      2  N   UNL d   1      -2.140  -0.700  -5.097  0.00  0.00    -0.325 N 
ATOM      3  O   UNL d   1      -0.422  -2.193  -4.768  0.00  0.00    -0.273 OA
ATOM      4  H   UNL d   1      -2.603   0.081  -4.653  0.00  0.00     0.169 HD
ENDROOT
BRANCH   1   5
ATOM      5  C   UNL d   1      -1.727  -1.572  -2.826  0.00  0.00     0.081 C 
ATOM      6  C   UNL d   1      -0.627  -2.287  -2.016  0.00  0.00     0.034 C 
ATOM      7  C   UNL d   1       0.600  -1.389  -1.851  0.00  0.00     0.129 C 
ATOM      8  N   UNL d   1       0.211  -0.142  -1.196  0.00  0.00    -0.328 N 
ATOM      9  C   UNL d   1       0.766   0.173   0.035  0.00  0.00     0.363 C 
ATOM     10  C   UNL d   1      -0.828   0.628  -1.866  0.00  0.00     0.129 C 
ATOM     11  O   UNL d   1       1.621  -0.521   0.582  0.00  0.00    -0.238 OA
ATOM     12  C   UNL d   1      -2.064  -0.236  -2.137  0.00  0.00     0.034 C 
BRANCH   9  13
ATOM     13  O   UNL d   1       0.225   1.278   0.609  0.00  0.00    -0.299 OA
BRANCH  13  14
ATOM     14  C   UNL d   1       0.488   1.417   2.012  0.00  0.00     0.219 C 
BRANCH  14  15
ATOM     15  C   UNL d   1       1.441   2.545   2.326  0.00  0.00    -0.034 A 
ATOM     16  C   UNL d   1       0.959   3.836   2.584  0.00  0.00     0.009 A 
ATOM     17  C   UNL d   1       1.832   4.859   2.961  0.00  0.00     0.001 A 
ATOM     18  C   UNL d   1       3.197   4.606   3.072  0.00  0.00     0.000 A 
ATOM     19  C   UNL d   1       3.692   3.332   2.796  0.00  0.00     0.001 A 
ATOM     20  C   UNL d   1       2.821   2.308   2.420  0.00  0.00     0.009 A 
ENDBRANCH  14  15
ENDBRANCH  13  14
ENDBRANCH   9  13
ENDBRANCH   1   5
BRANCH   2  21
ATOM     21  C   UNL d   1      -2.080  -0.612  -6.509  0.00  0.00     0.056 A 
ATOM     22  C   UNL d   1      -2.321   0.617  -7.134  0.00  0.00     0.062 A 
ATOM     23  C   UNL d   1      -2.356   0.729  -8.531  0.00  0.00     0.055 A 
ATOM     24 CL   UNL d   1      -2.522   2.055  -6.188  0.00  0.00    -0.082 Cl
ATOM     25  C   UNL d   1      -2.202  -0.391  -9.357  0.00  0.00     0.032 A 
ATOM     26  C   UNL d   1      -1.935  -1.612  -8.710  0.00  0.00     0.031 A 
ATOM     27  C   UNL d   1      -1.857  -1.728  -7.315  0.00  0.00     0.033 A 
BRANCH  25  28
ATOM     28  N   UNL d   1      -2.259  -0.319 -10.732  0.00  0.00    -0.377 N 
ATOM     29  C   UNL d   1      -2.044   0.920 -11.498  0.00  0.00     0.149 C 
ATOM     30  C   UNL d   1      -1.264   0.575 -12.784  0.00  0.00     0.187 C 
ATOM     31  O   UNL d   1      -1.922  -0.442 -13.562  0.00  0.00    -0.388 OA
ATOM     32  C   UNL d   1      -2.096  -1.639 -12.782  0.00  0.00     0.187 C 
ATOM     33  C   UNL d   1      -2.937  -1.361 -11.527  0.00  0.00     0.149 C 
ENDBRANCH  25  28
ENDBRANCH   2  21
TORSDOF 6
