REMARK  4 active torsions:
REMARK  status: ('A' for Active; 'I' for Inactive)
REMARK    1  A    between atoms: C_2  and  C_1 
REMARK       I    between atoms: N_5  and  C_1 
REMARK       I    between atoms: C_3  and  N_4 
REMARK    2  A    between atoms: C_10  and  C_3 
REMARK    3  A    between atoms: N_4  and  C_6 
REMARK    4  A    between atoms: C_8  and  N_5 
ROOT
ATOM      1  C   UNL d   1       0.008   0.944   1.058  0.00  0.00     0.058 A 
ATOM      2  C   UNL d   1       0.643   2.202   0.971  0.00  0.00     0.050 A 
ATOM      3  C   UNL d   1      -1.260   0.869   1.672  0.00  0.00     0.019 A 
ATOM      4  C   UNL d   1      -0.005   3.333   1.500  0.00  0.00     0.030 A 
ATOM      5  C   UNL d   1      -1.898   2.006   2.173  0.00  0.00     0.001 A 
ATOM      6  C   UNL d   1      -1.271   3.240   2.079  0.00  0.00     0.002 A 
ENDROOT
BRANCH   1   7
ATOM      7  C   UNL d   1       0.599  -0.384   0.711  0.00  0.00     0.254 C 
ATOM      8  N   UNL d   1       1.279  -0.472  -0.469  0.00  0.00    -0.344 N 
ATOM      9  H   UNL d   1       1.345   0.355  -1.056  0.00  0.00     0.163 HD
ATOM     10  O   UNL d   1       0.391  -1.357   1.430  0.00  0.00    -0.268 OA
BRANCH   8  11
ATOM     11  C   UNL d   1       1.893  -1.697  -0.952  0.00  0.00     0.177 C 
ATOM     12  C   UNL d   1       3.297  -1.910  -0.341  0.00  0.00     0.240 C 
ATOM     13  N   UNL d   1       3.905  -3.110  -0.607  0.00  0.00    -0.359 N 
ATOM     14  O   UNL d   1       3.913  -1.052   0.290  0.00  0.00    -0.271 OA
ATOM     15  C   UNL d   1       3.335  -4.219  -1.342  0.00  0.00     0.122 C 
ATOM     16  H   UNL d   1       4.820  -3.212  -0.184  0.00  0.00     0.162 HD
ATOM     17  C   UNL d   1       3.164  -3.908  -2.826  0.00  0.00     0.020 C 
ATOM     18  C   UNL d   1       1.978  -3.000  -3.146  0.00  0.00     0.004 C 
ATOM     19  C   UNL d   1       2.021  -1.629  -2.478  0.00  0.00     0.035 C 
ENDBRANCH   8  11
ENDBRANCH   1   7
BRANCH   2  20
ATOM     20  N   UNL d   1       1.971   2.434   0.541  0.00  0.00    -0.322 N 
ATOM     21  C   UNL d   1       2.410   2.281  -0.760  0.00  0.00     0.256 C 
ATOM     22  O   UNL d   1       1.734   1.833  -1.680  0.00  0.00    -0.267 OA
ATOM     23  H   UNL d   1       2.496   3.081   1.115  0.00  0.00     0.169 HD
BRANCH  21  24
ATOM     24  C   UNL d   1       3.826   2.669  -1.012  0.00  0.00     0.032 A 
ATOM     25  C   UNL d   1       4.580   1.875  -1.887  0.00  0.00     0.018 A 
ATOM     26  C   UNL d   1       5.936   2.144  -2.088  0.00  0.00     0.025 A 
ATOM     27  C   UNL d   1       6.532   3.215  -1.426  0.00  0.00     0.034 A 
ATOM     28  C   UNL d   1       5.779   4.036  -0.587  0.00  0.00     0.025 A 
ATOM     29 CL   UNL d   1       8.210   3.526  -1.639  0.00  0.00    -0.084 Cl
ATOM     30  C   UNL d   1       4.422   3.768  -0.383  0.00  0.00     0.018 A 
ENDBRANCH  21  24
ENDBRANCH   2  20
TORSDOF 4
