REMARK  8 active torsions:
REMARK  status: ('A' for Active; 'I' for Inactive)
REMARK    1  A    between atoms: S_2  and  C_1 
REMARK    2  A    between atoms: C_15  and  S_2 
REMARK    3  A    between atoms: C_7  and  C_3 
REMARK    4  A    between atoms: N_17  and  C_4 
REMARK    5  A    between atoms: O_14  and  C_7 
REMARK    6  A    between atoms: C_8  and  C_13 
REMARK    7  A    between atoms: C_13  and  C_19 
REMARK    8  A    between atoms: C_19  and  O_14 
ROOT
ATOM      1  C   UNL d   1      -0.655  -1.209  -0.017  0.00  0.00     0.093 A 
ATOM      2  C   UNL d   1      -0.249   1.107   0.007  0.00  0.00     0.107 A 
ATOM      3  C   UNL d   1      -1.215   0.105   0.023  0.00  0.00     0.071 A 
ATOM      4  S   UNL d   1       1.327   0.429  -0.040  0.00  0.00    -0.092 SA
ATOM      5  C   UNL d   1       0.724  -1.170  -0.049  0.00  0.00     0.076 A 
ENDROOT
BRANCH   2   6
ATOM      6  C   UNL d   1      -0.476   2.549   0.009  0.00  0.00     0.303 C 
ATOM      7  O   UNL d   1      -1.551   3.075  -0.251  0.00  0.00    -0.259 OA
BRANCH   6   8
ATOM      8  O   UNL d   1       0.645   3.266   0.340  0.00  0.00    -0.309 OA
BRANCH   8   9
ATOM      9  C   UNL d   1       0.508   4.697   0.341  0.00  0.00     0.263 C 
BRANCH   9  10
ATOM     10  C   UNL d   1       0.571   5.322   1.739  0.00  0.00     0.183 C 
ATOM     11  O   UNL d   1       0.663   4.641   2.757  0.00  0.00    -0.290 OA
BRANCH  10  12
ATOM     12  C   UNL d   1       0.522   6.821   1.869  0.00  0.00     0.014 A 
ATOM     13  C   UNL d   1       0.394   7.676   0.767  0.00  0.00     0.040 A 
ATOM     14  C   UNL d   1       0.354   9.069   0.945  0.00  0.00     0.056 A 
ATOM     15 CL   UNL d   1       0.195  10.051  -0.469  0.00  0.00    -0.083 Cl
ATOM     16  C   UNL d   1       0.441   9.622   2.228  0.00  0.00     0.055 A 
ATOM     17  C   UNL d   1       0.568   8.776   3.332  0.00  0.00     0.026 A 
ATOM     18 CL   UNL d   1       0.398  11.324   2.513  0.00  0.00    -0.083 Cl
ATOM     19  C   UNL d   1       0.608   7.388   3.152  0.00  0.00     0.017 A 
ENDBRANCH  10  12
ENDBRANCH   9  10
ENDBRANCH   8   9
ENDBRANCH   6   8
ENDBRANCH   2   6
BRANCH   3  20
ATOM     20  N   UNL d   1      -2.545   0.366   0.090  0.00  0.00    -0.397 N 
ATOM     21  H   UNL d   1      -2.846   1.338   0.219  0.00  0.00     0.156 HD
ATOM     22  H   UNL d   1      -3.147  -0.262   0.627  0.00  0.00     0.156 HD
ENDBRANCH   3  20
BRANCH   1  23
ATOM     23  S   UNL d   1      -1.550  -2.701   0.015  0.00  0.00     0.181 S 
ATOM     24  O   UNL d   1      -0.547  -3.740  -0.119  0.00  0.00    -0.222 OA
ATOM     25  O   UNL d   1      -2.366  -2.578   1.208  0.00  0.00    -0.222 OA
BRANCH  23  26
ATOM     26  C   UNL d   1      -2.623  -2.723  -1.422  0.00  0.00     0.105 C 
ATOM     27  C   UNL d   1      -1.854  -2.589  -2.729  0.00  0.00     0.026 C 
ATOM     28  C   UNL d   1      -3.442  -4.018  -1.433  0.00  0.00     0.026 C 
ENDBRANCH  23  26
ENDBRANCH   1  23
TORSDOF 8
