REMARK  5 active torsions:
REMARK  status: ('A' for Active; 'I' for Inactive)
REMARK    1  A    between atoms: N_5  and  C_1 
REMARK    2  A    between atoms: C_3  and  C_2 
REMARK       I    between atoms: N_6  and  C_3 
REMARK    3  A    between atoms: O_19  and  C_4 
REMARK       I    between atoms: C_8  and  N_6 
REMARK       I    between atoms: N_11  and  C_8 
REMARK    4  A    between atoms: O_21  and  C_9 
REMARK    5  A    between atoms: C_12  and  N_11 
ROOT
ATOM      1  C   UNL d   1       2.293   2.405  -0.025  0.00  0.00     0.265 C 
ATOM      2  N   UNL d   1       3.560   2.379  -0.596  0.00  0.00    -0.275 N 
ATOM      3  C   UNL d   1       4.133   1.398  -1.406  0.00  0.00     0.327 C 
ATOM      4  N   UNL d   1       5.433   1.740  -1.766  0.00  0.00    -0.308 N 
ATOM      5  O   UNL d   1       1.827   3.438   0.444  0.00  0.00    -0.267 OA
ATOM      6  O   UNL d   1       3.539   0.387  -1.764  0.00  0.00    -0.247 OA
ATOM      7  H   UNL d   1       4.041   3.258  -0.509  0.00  0.00     0.173 HD
ATOM      8  H   UNL d   1       5.580   2.733  -1.820  0.00  0.00     0.170 HD
ENDROOT
BRANCH   1   9
ATOM      9  C   UNL d   1       1.524   1.145   0.037  0.00  0.00     0.103 C 
ATOM     10  C   UNL d   1       2.057   0.080   0.784  0.00  0.00     0.119 C 
ATOM     11  C   UNL d   1       1.475  -1.179   0.641  0.00  0.00     0.139 C 
ATOM     12  C   UNL d   1       0.298  -1.350  -0.100  0.00  0.00     0.065 C 
ATOM     13  C   UNL d   1      -0.286  -0.253  -0.740  0.00  0.00     0.070 C 
ATOM     14  C   UNL d   1       0.319   1.012  -0.678  0.00  0.00     0.108 C 
ATOM     15 CL   UNL d   1      -1.706  -0.570  -1.673  0.00  0.00    -0.081 Cl
BRANCH  10  16
ATOM     16  O   UNL d   1       3.150   0.324   1.574  0.00  0.00    -0.352 OA
ATOM     17  C   UNL d   1       2.831   0.253   2.967  0.00  0.00     0.210 C 
ENDBRANCH  10  16
BRANCH  11  18
ATOM     18  N   UNL d   1       2.112  -2.368   1.190  0.00  0.00    -0.113 N 
ATOM     19  O   UNL d   1       3.344  -2.453   1.145  0.00  0.00    -0.532 OA
ATOM     20  O   UNL d   1       1.359  -3.233   1.664  0.00  0.00    -0.532 OA
ENDBRANCH  11  18
BRANCH  14  21
ATOM     21  O   UNL d   1      -0.140   2.095  -1.383  0.00  0.00    -0.353 OA
ATOM     22  C   UNL d   1      -1.455   2.522  -1.010  0.00  0.00     0.210 C 
ENDBRANCH  14  21
ENDBRANCH   1   9
BRANCH   4  23
ATOM     23  C   UNL d   1       6.238   0.954  -2.638  0.00  0.00     0.048 C 
ATOM     24  C   UNL d   1       6.356  -0.446  -2.510  0.00  0.00    -0.035 C 
ATOM     25  C   UNL d   1       6.991  -1.181  -3.529  0.00  0.00     0.009 C 
ATOM     26  C   UNL d   1       5.908  -1.228  -1.300  0.00  0.00     0.050 C 
ATOM     27  C   UNL d   1       7.562  -0.540  -4.623  0.00  0.00     0.001 C 
ATOM     28  C   UNL d   1       7.569   0.848  -4.673  0.00  0.00     0.009 C 
ATOM     29  C   UNL d   1       6.946   1.612  -3.671  0.00  0.00    -0.035 C 
ATOM     30  C   UNL d   1       7.005   3.110  -3.821  0.00  0.00     0.050 C 
ENDBRANCH   4  23
TORSDOF 5
