REMARK  4 active torsions:
REMARK  status: ('A' for Active; 'I' for Inactive)
REMARK    1  A    between atoms: C_5  and  C_4 
REMARK    2  A    between atoms: C_7  and  O_11 
REMARK    3  A    between atoms: O_18  and  C_8 
REMARK    4  A    between atoms: O_11  and  C_10 
ROOT
ATOM      1  N   UNL d   1      -0.499  -1.899  -0.131  0.00  0.00    -0.349 N 
ATOM      2  HN  UNL d   1      -0.188  -2.866  -0.222  1.00  0.00     0.166 HD
ATOM      3  C   UNL d   1       0.406  -0.907  -0.046  0.00  0.00     0.079 A 
ATOM      4  C   UNL d   1      -1.836  -1.613  -0.093  0.00  0.00     0.119 A 
ATOM      5  C   UNL d   1       0.009   0.447  -0.014  0.00  0.00     0.027 A 
ATOM      6  C   UNL d   1      -1.373   0.718  -0.017  0.00  0.00     0.080 A 
ATOM      7  C   UNL d   1      -2.303  -0.307  -0.043  0.00  0.00     0.071 A 
ATOM      8  C   UNL d   1       1.785  -1.181   0.011  0.00  0.00     0.105 A 
ATOM      9  C   UNL d   1       0.970   1.476   0.021  0.00  0.00     0.017 A 
ATOM     10  C   UNL d   1       2.731  -0.146   0.021  0.00  0.00     0.039 A 
ATOM     11  C   UNL d   1       2.330   1.182   0.029  0.00  0.00     0.004 A 
ENDROOT
BRANCH   8  12
ATOM     12  O   UNL d   1       2.354  -2.425  -0.011  0.00  0.00    -0.253 OA
BRANCH  12  13
ATOM     13  C   UNL d   1       1.741  -3.485   0.712  0.00  0.00     0.530 C 
ATOM     14  F   UNL d   1       0.819  -3.094   1.617  0.00  0.00    -0.144 F 
ATOM     15  F   UNL d   1       1.215  -4.384  -0.143  0.00  0.00    -0.144 F 
ATOM     16  F   UNL d   1       2.721  -4.113   1.411  0.00  0.00    -0.144 F 
ENDBRANCH  12  13
ENDBRANCH   8  12
BRANCH   4  17
ATOM     17  C   UNL d   1      -2.840  -2.755  -0.065  0.00  0.00     0.432 C 
ATOM     18  F   UNL d   1      -2.285  -3.998  -0.050  0.00  0.00    -0.165 F 
ATOM     19  F   UNL d   1      -3.653  -2.697   1.032  0.00  0.00    -0.165 F 
ATOM     20  F   UNL d   1      -3.683  -2.732  -1.140  0.00  0.00    -0.165 F 
ENDBRANCH   4  17
BRANCH   6  21
ATOM     21  O   UNL d   1      -1.797   2.021   0.024  0.00  0.00    -0.360 OA
ATOM     22  H   UNL d   1      -2.768   2.054   0.013  0.00  0.00     0.217 HD
ENDBRANCH   6  21
TORSDOF 4
