REMARK  8 active torsions:
REMARK  status: ('A' for Active; 'I' for Inactive)
REMARK    1  A    between atoms: N_2  and  C_1 
REMARK    2  A    between atoms: O_13  and  C_3 
REMARK    3  A    between atoms: C_5  and  C_8 
REMARK    4  A    between atoms: N_23  and  C_5 
REMARK    5  A    between atoms: O_19  and  N_6 
REMARK    6  A    between atoms: C_12  and  O_13 
REMARK    7  A    between atoms: C_18  and  O_19 
REMARK    8  A    between atoms: C_27  and  C_18 
ROOT
ATOM      1  C   UNL d   1      -4.172   4.442   0.847  0.00  0.00     0.137 A 
ATOM      2  C   UNL d   1      -5.146   3.487   0.534  0.00  0.00     0.109 A 
ATOM      3  C   UNL d   1      -2.808   4.135   0.804  0.00  0.00     0.053 A 
ATOM      4  C   UNL d   1      -2.397   2.836   0.492  0.00  0.00     0.006 A 
ATOM      5  C   UNL d   1      -4.720   2.177   0.264  0.00  0.00     0.041 A 
ATOM      6  C   UNL d   1      -3.354   1.850   0.238  0.00  0.00     0.018 A 
ENDROOT
BRANCH   4   7
ATOM      7  C   UNL d   1      -0.926   2.550   0.473  0.00  0.00     0.109 C 
ATOM      8  N   UNL d   1      -0.194   3.342   1.187  0.00  0.00    -0.246 N 
ATOM      9  HN  UNL d   1      -0.581   4.097   1.754  1.00  0.00     0.196 HD
BRANCH   8  10
ATOM     10  O   UNL d   1       1.182   3.070   1.111  0.00  0.00    -0.198 OA
BRANCH  10  11
ATOM     11  C   UNL d   1       1.846   3.987   1.901  0.00  0.00     0.281 C 
ATOM     12  O   UNL d   1       1.337   4.869   2.585  0.00  0.00    -0.263 OA
BRANCH  11  13
ATOM     13  C   UNL d   1       3.333   3.759   1.781  0.00  0.00     0.108 C 
ATOM     14  C   UNL d   1       4.117   4.720   2.662  0.00  0.00     0.015 C 
ENDBRANCH  11  13
ENDBRANCH  10  11
ENDBRANCH   8  10
BRANCH   7  15
ATOM     15  N   UNL d   1      -0.447   1.520  -0.297  0.00  0.00    -0.286 NA
ATOM     16  H   UNL d   1      -0.957   1.322  -1.152  0.00  0.00     0.125 HD
ATOM     17  H   UNL d   1       0.554   1.581  -0.451  0.00  0.00     0.125 HD
ENDBRANCH   7  15
ENDBRANCH   4   7
BRANCH   1  18
ATOM     18  N   UNL d   1      -4.511   5.795   1.235  0.00  0.00    -0.113 N 
ATOM     19  O   UNL d   1      -5.243   5.939   2.221  0.00  0.00    -0.532 OA
ATOM     20  O   UNL d   1      -4.013   6.710   0.562  0.00  0.00    -0.532 OA
ENDBRANCH   1  18
BRANCH   2  21
ATOM     21  O   UNL d   1      -6.510   3.666   0.531  0.00  0.00    -0.308 OA
BRANCH  21  22
ATOM     22  C   UNL d   1      -7.079   4.730  -0.136  0.00  0.00     0.077 C 
ATOM     23  C   UNL d   1      -6.455   5.471  -1.137  0.00  0.00     0.045 C 
ATOM     24  C   UNL d   1      -7.051   6.639  -1.638  0.00  0.00    -0.037 C 
ATOM     25  C   UNL d   1      -6.235   7.528  -2.538  0.00  0.00     0.050 C 
ATOM     26  C   UNL d   1      -8.361   6.973  -1.240  0.00  0.00     0.046 C 
ATOM     27  C   UNL d   1      -9.047   6.173  -0.308  0.00  0.00    -0.037 C 
ATOM     28 CL   UNL d   1      -9.113   8.382  -1.917  0.00  0.00    -0.083 Cl
ATOM     29  C   UNL d   1      -8.378   5.067   0.253  0.00  0.00     0.045 C 
ATOM     30  C   UNL d   1     -10.464   6.426   0.133  0.00  0.00     0.050 C 
ENDBRANCH  21  22
ENDBRANCH   2  21
TORSDOF 8
