REMARK  0 active torsions:
REMARK  status: ('A' for Active; 'I' for Inactive)
ROOT
ATOM      1  C   UNL d   1       2.713   0.079  -0.945  0.00  0.00     0.171 C 
ATOM      2  N   UNL d   1       1.935   0.791  -2.025  0.00  0.00    -0.249 NA
ATOM      3  C   UNL d   1       4.174  -0.107  -1.532  0.00  0.00     0.033 C 
ATOM      4  O   UNL d   1       2.610   0.766   0.323  0.00  0.00    -0.316 OA
ATOM      5  C   UNL d   1       3.765  -0.341  -2.981  0.00  0.00    -0.022 A 
ATOM      6  N   UNL d   1       1.031  -1.555  -0.015  0.00  0.00    -0.362 N 
ATOM      7  HN  UNL d   1       0.662  -2.486   0.178  1.00  0.00     0.165 HD
ATOM      8  C   UNL d   1       2.510   0.246  -3.198  0.00  0.00     0.020 A 
ATOM      9  C   UNL d   1       2.077  -1.333  -0.744  0.00  0.00     0.117 C 
ATOM     10  C   UNL d   1       0.458  -0.369   0.482  0.00  0.00     0.077 A 
ATOM     11  C   UNL d   1       1.269   0.760   0.719  0.00  0.00     0.099 A 
ATOM     12  C   UNL d   1      -0.942  -0.264   0.560  0.00  0.00     0.004 A 
ATOM     13  C   UNL d   1       1.855   0.173  -4.415  0.00  0.00     0.026 A 
ATOM     14  C   UNL d   1       4.362  -1.080  -3.989  0.00  0.00     0.033 A 
ATOM     15  C   UNL d   1       0.711   1.956   1.157  0.00  0.00     0.040 A 
ATOM     16  C   UNL d   1      -1.517   0.985   0.882  0.00  0.00    -0.024 A 
ATOM     17  C   UNL d   1      -0.683   2.068   1.217  0.00  0.00     0.015 A 
ATOM     18  C   UNL d   1       3.682  -1.202  -5.208  0.00  0.00     0.034 A 
ATOM     19  C   UNL d   1       1.938   2.257  -2.059  0.00  0.00     0.120 C 
ATOM     20  C   UNL d   1       2.446  -0.572  -5.428  0.00  0.00     0.026 A 
ATOM     21  C   UNL d   1       5.037   1.164  -1.413  0.00  0.00     0.025 C 
ATOM     22  C   UNL d   1       4.990  -1.252  -0.908  0.00  0.00     0.025 C 
ATOM     23 CL   UNL d   1       4.336  -2.205  -6.447  0.00  0.00    -0.084 Cl
ATOM     24  C   UNL d   1      -1.779  -1.345   0.234  0.00  0.00     0.014 A 
ATOM     25  C   UNL d   1      -2.919   1.122   0.805  0.00  0.00     0.012 A 
ATOM     26  C   UNL d   1      -3.168  -1.197   0.170  0.00  0.00     0.001 A 
ATOM     27  C   UNL d   1      -3.733   0.044   0.436  0.00  0.00     0.001 A 
ENDROOT
TORSDOF 0
