REMARK  4 active torsions:
REMARK  status: ('A' for Active; 'I' for Inactive)
REMARK    1  A    between atoms: S_14  and  C_2 
REMARK    2  A    between atoms: C_7  and  C_4 
REMARK       I    between atoms: N_9  and  C_7 
REMARK       I    between atoms: C_8  and  N_10 
REMARK    3  A    between atoms: C_13  and  C_8 
REMARK    4  A    between atoms: N_10  and  N_9 
ROOT
ATOM      1  C   UNL d   1       0.283   0.840   0.163  0.00  0.00     0.002 C 
ATOM      2  C   UNL d   1       1.633   1.079  -0.081  0.00  0.00     0.051 C 
ATOM      3  C   UNL d   1      -0.003  -0.579  -0.010  0.00  0.00    -0.025 C 
ATOM      4  C   UNL d   1       1.144  -1.358  -0.070  0.00  0.00     0.082 C 
ATOM      5  S   UNL d   1       2.520  -0.376  -0.288  0.00  0.00    -0.076 SA
ATOM      6  C   UNL d   1      -0.819   1.807   0.613  0.00  0.00     0.085 C 
ATOM      7  S   UNL d   1      -0.926   3.335  -0.392  0.00  0.00    -0.142 SA
ATOM      8  S   UNL d   1      -0.478   2.277   2.379  0.00  0.00    -0.142 SA
ATOM      9  C   UNL d   1      -1.407  -1.107   0.009  0.00  0.00     0.041 C 
ATOM     10  C   UNL d   1      -2.245   1.165   0.616  0.00  0.00     0.037 C 
ATOM     11  C   UNL d   1      -2.397  -0.004  -0.359  0.00  0.00     0.007 C 
ATOM     12  C   UNL d   1      -0.361   4.063   2.142  0.00  0.00     0.086 C 
ATOM     13  C   UNL d   1      -1.262   4.457   0.991  0.00  0.00     0.086 C 
ENDROOT
BRANCH   4  14
ATOM     14  C   UNL d   1       1.230  -2.814   0.048  0.00  0.00     0.277 C 
ATOM     15  N   UNL d   1       2.491  -3.384   0.066  0.00  0.00    -0.263 N 
ATOM     16  H   UNL d   1       3.349  -2.835   0.052  0.00  0.00     0.190 HD
ATOM     17  O   UNL d   1       0.238  -3.542   0.184  0.00  0.00    -0.265 OA
BRANCH  15  18
ATOM     18  N   UNL d   1       2.601  -4.746   0.411  0.00  0.00    -0.263 N 
ATOM     19  C   UNL d   1       3.849  -5.327   0.415  0.00  0.00     0.270 C 
ATOM     20  O   UNL d   1       4.875  -4.696   0.165  0.00  0.00    -0.266 OA
ATOM     21  H   UNL d   1       1.725  -5.260   0.472  0.00  0.00     0.190 HD
BRANCH  19  22
ATOM     22  C   UNL d   1       3.914  -6.787   0.717  0.00  0.00     0.033 A 
ATOM     23  C   UNL d   1       4.991  -7.519   0.195  0.00  0.00     0.019 A 
ATOM     24  C   UNL d   1       5.112  -8.888   0.462  0.00  0.00     0.025 A 
ATOM     25  C   UNL d   1       4.163  -9.523   1.260  0.00  0.00     0.034 A 
ATOM     26  C   UNL d   1       3.095  -8.803   1.794  0.00  0.00     0.025 A 
ATOM     27 CL   UNL d   1       4.318 -11.203   1.598  0.00  0.00    -0.084 Cl
ATOM     28  C   UNL d   1       2.968  -7.434   1.524  0.00  0.00     0.019 A 
ENDBRANCH  19  22
ENDBRANCH  15  18
ENDBRANCH   4  14
BRANCH   2  29
ATOM     29  S   UNL d   1       2.507   2.613  -0.080  0.00  0.00    -0.126 SA
ATOM     30  C   UNL d   1       2.475   3.031  -1.843  0.00  0.00     0.096 C 
ENDBRANCH   2  29
TORSDOF 4
