REMARK  4 active torsions:
REMARK  status: ('A' for Active; 'I' for Inactive)
REMARK    1  A    between atoms: C_6  and  C_1 
REMARK    2  A    between atoms: C_2  and  C_5 
REMARK       I    between atoms: N_10  and  C_6 
REMARK       I    between atoms: C_8  and  N_12 
REMARK       I    between atoms: N_13  and  C_8 
REMARK    3  A    between atoms: N_12  and  N_10 
REMARK    4  A    between atoms: C_20  and  N_13 
ROOT
ATOM      1  C   UNL d   1      -0.114   2.137   0.590  0.00  0.00     0.288 C 
ATOM      2  N   UNL d   1      -0.507   3.456   0.467  0.00  0.00    -0.261 N 
ATOM      3  O   UNL d   1      -0.828   1.216   0.207  0.00  0.00    -0.264 OA
ATOM      4  H   UNL d   1       0.108   4.235   0.710  0.00  0.00     0.190 HD
ENDROOT
BRANCH   2   5
ATOM      5  N   UNL d   1      -1.708   3.741  -0.191  0.00  0.00    -0.248 N 
ATOM      6  C   UNL d   1      -2.143   5.053  -0.227  0.00  0.00     0.339 C 
ATOM      7  N   UNL d   1      -3.341   5.179  -0.903  0.00  0.00    -0.308 N 
ATOM      8  O   UNL d   1      -1.474   5.959   0.262  0.00  0.00    -0.245 OA
ATOM      9  H   UNL d   1      -3.788   4.316  -1.177  0.00  0.00     0.170 HD
ATOM     10  H   UNL d   1      -2.313   2.945  -0.365  0.00  0.00     0.192 HD
BRANCH   7  11
ATOM     11  C   UNL d   1      -3.985   6.373  -1.284  0.00  0.00     0.036 A 
ATOM     12  C   UNL d   1      -3.456   7.647  -1.053  0.00  0.00     0.031 A 
ATOM     13  C   UNL d   1      -4.120   8.791  -1.510  0.00  0.00     0.026 A 
ATOM     14  C   UNL d   1      -5.322   8.666  -2.199  0.00  0.00     0.034 A 
ATOM     15  C   UNL d   1      -5.872   7.408  -2.424  0.00  0.00     0.026 A 
ATOM     16 CL   UNL d   1      -6.124  10.072  -2.782  0.00  0.00    -0.084 Cl
ATOM     17  C   UNL d   1      -5.204   6.266  -1.967  0.00  0.00     0.031 A 
ENDBRANCH   7  11
ENDBRANCH   2   5
BRANCH   1  18
ATOM     18  C   UNL d   1       1.244   1.948   1.207  0.00  0.00     0.124 A 
ATOM     19  N   UNL d   1       2.002   3.091   1.266  0.00  0.00    -0.359 N 
ATOM     20  C   UNL d   1       3.254   2.986   1.774  0.00  0.00     0.105 A 
ATOM     21  HN  UNL d   1       1.637   3.985   0.939  1.00  0.00     0.165 HD
ATOM     22  C   UNL d   1       3.798   1.801   2.246  0.00  0.00     0.065 A 
ATOM     23  C   UNL d   1       2.996   0.654   2.193  0.00  0.00     0.044 A 
ATOM     24  C   UNL d   1       1.701   0.716   1.669  0.00  0.00     0.067 A 
ATOM     25 CL   UNL d   1       0.783  -0.741   1.685  0.00  0.00    -0.082 Cl
BRANCH  22  26
ATOM     26  C   UNL d   1       5.198   1.779   2.785  0.00  0.00     0.418 C 
ATOM     27  F   UNL d   1       5.585   0.554   3.231  0.00  0.00    -0.166 F 
ATOM     28  F   UNL d   1       6.117   2.148   1.853  0.00  0.00    -0.166 F 
ATOM     29  F   UNL d   1       5.362   2.630   3.834  0.00  0.00    -0.166 F 
ENDBRANCH  22  26
ENDBRANCH   1  18
TORSDOF 4
