REMARK  5 active torsions:
REMARK  status: ('A' for Active; 'I' for Inactive)
REMARK    1  A    between atoms: C_9  and  C_1 
REMARK    2  A    between atoms: N_8  and  C_2 
REMARK    3  A    between atoms: C_10  and  C_4 
REMARK    4  A    between atoms: C_6  and  C_7 
REMARK       I    between atoms: C_7  and  N_8 
REMARK    5  A    between atoms: O_18  and  C_9 
ROOT
ATOM      1  C   UNL d   1       0.069   1.256   0.011  0.00  0.00     0.107 A 
ATOM      2  C   UNL d   1       1.349   0.745  -0.129  0.00  0.00     0.059 A 
ATOM      3  S   UNL d   1      -1.106  -0.015   0.037  0.00  0.00    -0.081 SA
ATOM      4  C   UNL d   1       0.064  -1.250  -0.089  0.00  0.00     0.018 A 
ATOM      5  C   UNL d   1       1.318  -0.690  -0.216  0.00  0.00     0.051 A 
ENDROOT
BRANCH   2   6
ATOM      6  N   UNL d   1       2.602   1.351  -0.157  0.00  0.00    -0.318 N 
ATOM      7  C   UNL d   1       2.972   2.637   0.215  0.00  0.00     0.330 C 
ATOM      8  O   UNL d   1       2.210   3.508   0.627  0.00  0.00    -0.263 OA
ATOM      9  H   UNL d   1       3.381   0.715  -0.322  0.00  0.00     0.169 HD
BRANCH   7  10
ATOM     10  C   UNL d   1       4.498   2.836   0.080  0.00  0.00     0.472 C 
ATOM     11  F   UNL d   1       5.139   1.629  -0.028  0.00  0.00    -0.162 F 
ATOM     12  F   UNL d   1       4.842   3.537  -1.033  0.00  0.00    -0.162 F 
ATOM     13  F   UNL d   1       5.059   3.466   1.144  0.00  0.00    -0.162 F 
ENDBRANCH   7  10
ENDBRANCH   2   6
BRANCH   1  14
ATOM     14  C   UNL d   1      -0.486   2.589   0.133  0.00  0.00     0.302 C 
ATOM     15  O   UNL d   1      -1.336   2.919   0.949  0.00  0.00    -0.259 OA
BRANCH  14  16
ATOM     16  O   UNL d   1      -0.027   3.389  -0.875  0.00  0.00    -0.322 OA
ATOM     17  C   UNL d   1      -0.511   4.739  -0.854  0.00  0.00     0.213 C 
ENDBRANCH  14  16
ENDBRANCH   1  14
BRANCH   4  18
ATOM     18  C   UNL d   1      -0.290  -2.681  -0.050  0.00  0.00    -0.019 A 
ATOM     19  C   UNL d   1       0.547  -3.628  -0.671  0.00  0.00     0.016 A 
ATOM     20  C   UNL d   1       0.278  -4.996  -0.588  0.00  0.00     0.043 A 
ATOM     21  C   UNL d   1      -0.839  -5.431   0.110  0.00  0.00     0.116 A 
ATOM     22  C   UNL d   1      -1.691  -4.523   0.723  0.00  0.00     0.043 A 
ATOM     23  F   UNL d   1      -1.094  -6.742   0.196  0.00  0.00    -0.206 F 
ATOM     24  C   UNL d   1      -1.417  -3.154   0.645  0.00  0.00     0.016 A 
ENDBRANCH   4  18
TORSDOF 5
