REMARK  5 active torsions:
REMARK  status: ('A' for Active; 'I' for Inactive)
REMARK    1  A    between atoms: C_3  and  C_1 
REMARK    2  A    between atoms: N_14  and  C_3 
REMARK    3  A    between atoms: O_12  and  N_4 
REMARK    4  A    between atoms: C_6  and  O_12 
REMARK       I    between atoms: N_10  and  C_6 
REMARK    5  A    between atoms: C_15  and  N_10 
ROOT
ATOM      1  C   UNL d   1       2.385   0.910  -1.837  0.00  0.00     0.127 C 
ATOM      2  N   UNL d   1       1.629   1.621  -2.636  0.00  0.00    -0.242 N 
ATOM      3  HN  UNL d   1       1.778   1.719  -3.640  1.00  0.00     0.196 HD
ENDROOT
BRANCH   1   4
ATOM      4  C   UNL d   1       2.155   0.777  -0.300  0.00  0.00     0.222 C 
ATOM      5  O   UNL d   1       2.640  -0.462   0.231  0.00  0.00    -0.333 OA
ATOM      6  C   UNL d   1       3.945  -0.408   0.642  0.00  0.00     0.103 A 
ATOM      7  C   UNL d   1       4.557  -1.631   0.920  0.00  0.00     0.040 A 
ATOM      8  C   UNL d   1       4.678   0.776   0.723  0.00  0.00     0.102 A 
ATOM      9  C   UNL d   1       5.916  -1.673   1.231  0.00  0.00     0.003 A 
ATOM     10  C   UNL d   1       6.658  -0.492   1.277  0.00  0.00     0.003 A 
ATOM     11  C   UNL d   1       6.037   0.733   1.029  0.00  0.00     0.039 A 
ATOM     12  O   UNL d   1       4.142   2.010   0.469  0.00  0.00    -0.345 OA
ATOM     13  C   UNL d   1       2.710   1.978   0.462  0.00  0.00     0.216 C 
ENDBRANCH   1   4
BRANCH   1  14
ATOM     14  N   UNL d   1       3.433   0.226  -2.407  0.00  0.00    -0.385 N 
ATOM     15  H   UNL d   1       3.775  -0.585  -1.896  0.00  0.00     0.157 HD
ATOM     16  H   UNL d   1       3.364   0.089  -3.406  0.00  0.00     0.157 HD
ENDBRANCH   1  14
BRANCH   2  17
ATOM     17  O   UNL d   1       0.581   2.234  -1.916  0.00  0.00    -0.179 OA
BRANCH  17  18
ATOM     18  C   UNL d   1      -0.402   2.769  -2.731  0.00  0.00     0.387 C 
ATOM     19  N   UNL d   1      -0.074   2.806  -4.067  0.00  0.00    -0.301 N 
ATOM     20  H   UNL d   1       0.876   2.497  -4.239  0.00  0.00     0.171 HD
ATOM     21  O   UNL d   1      -1.442   3.179  -2.222  0.00  0.00    -0.236 OA
BRANCH  19  22
ATOM     22  C   UNL d   1      -0.884   3.203  -5.148  0.00  0.00     0.036 A 
ATOM     23  C   UNL d   1      -2.249   3.482  -5.022  0.00  0.00     0.029 A 
ATOM     24  C   UNL d   1      -3.015   3.827  -6.141  0.00  0.00     0.002 A 
ATOM     25  C   UNL d   1      -2.421   3.907  -7.397  0.00  0.00     0.000 A 
ATOM     26  C   UNL d   1      -1.060   3.646  -7.534  0.00  0.00     0.002 A 
ATOM     27  C   UNL d   1      -0.296   3.290  -6.414  0.00  0.00     0.029 A 
ENDBRANCH  19  22
ENDBRANCH  17  18
ENDBRANCH   2  17
TORSDOF 5
