REMARK  12 active torsions:
REMARK  status: ('A' for Active; 'I' for Inactive)
REMARK    1  A    between atoms: C_5  and  C_1 
REMARK    2  A    between atoms: S_14  and  C_6 
REMARK    3  A    between atoms: C_9  and  C_19 
REMARK    4  A    between atoms: C_10  and  C_20 
REMARK    5  A    between atoms: O_16  and  C_11 
REMARK    6  A    between atoms: C_12  and  C_31 
REMARK       I    between atoms: N_15  and  C_12 
REMARK    7  A    between atoms: C_31  and  S_14 
REMARK    8  A    between atoms: C_33  and  N_15 
REMARK    9  A    between atoms: C_19  and  O_16 
REMARK   10  A    between atoms: C_34  and  C_17 
REMARK   11  A    between atoms: C_20  and  O_32 
REMARK   12  A    between atoms: O_32  and  C_30 
ROOT
ATOM      1  C   UNL d   1      -0.293  -0.997   0.189  0.00  0.00     0.178 A 
ATOM      2  O   UNL d   1      -1.158  -0.179   0.877  0.00  0.00    -0.267 OA
ATOM      3  N   UNL d   1       0.778  -0.354  -0.223  0.00  0.00    -0.277 N 
ATOM      4  HN  UNL d   1       1.555  -0.743  -0.757  1.00  0.00     0.189 HD
ATOM      5  C   UNL d   1      -0.509   1.025   0.841  0.00  0.00     0.204 A 
ATOM      6  N   UNL d   1       0.644   0.948   0.208  0.00  0.00    -0.272 N 
ATOM      7  HN  UNL d   1       1.310   1.707   0.066  1.00  0.00     0.189 HD
ENDROOT
BRANCH   1   8
ATOM      8  C   UNL d   1      -0.699  -2.388   0.046  0.00  0.00     0.053 A 
ATOM      9  C   UNL d   1       0.176  -3.486   0.018  0.00  0.00     0.083 A 
ATOM     10  C   UNL d   1      -0.342  -4.774  -0.218  0.00  0.00     0.040 A 
ATOM     11  C   UNL d   1      -1.714  -4.994  -0.382  0.00  0.00     0.039 A 
ATOM     12  C   UNL d   1      -2.586  -3.918  -0.317  0.00  0.00     0.070 A 
ATOM     13  C   UNL d   1      -2.078  -2.634  -0.126  0.00  0.00     0.055 A 
BRANCH   9  14
ATOM     14  O   UNL d   1       1.544  -3.489   0.123  0.00  0.00    -0.341 OA
BRANCH  14  15
ATOM     15  C   UNL d   1       2.152  -2.638   1.104  0.00  0.00     0.293 C 
BRANCH  15  16
ATOM     16  C   UNL d   1       3.337  -3.311   1.796  0.00  0.00     0.408 C 
ATOM     17  F   UNL d   1       3.525  -4.589   1.400  0.00  0.00    -0.169 F 
ATOM     18  F   UNL d   1       4.488  -2.638   1.559  0.00  0.00    -0.169 F 
ATOM     19  F   UNL d   1       3.157  -3.330   3.139  0.00  0.00    -0.169 F 
ENDBRANCH  15  16
ENDBRANCH  14  15
ENDBRANCH   9  14
BRANCH  12  20
ATOM     20  O   UNL d   1      -3.939  -3.974  -0.476  0.00  0.00    -0.342 OA
BRANCH  20  21
ATOM     21  C   UNL d   1      -4.587  -5.186  -0.075  0.00  0.00     0.293 C 
BRANCH  21  22
ATOM     22  C   UNL d   1      -6.025  -4.909   0.358  0.00  0.00     0.408 C 
ATOM     23  F   UNL d   1      -6.383  -3.615   0.201  0.00  0.00    -0.169 F 
ATOM     24  F   UNL d   1      -6.898  -5.660  -0.352  0.00  0.00    -0.169 F 
ATOM     25  F   UNL d   1      -6.200  -5.218   1.665  0.00  0.00    -0.169 F 
ENDBRANCH  21  22
ENDBRANCH  20  21
ENDBRANCH  12  20
ENDBRANCH   1   8
BRANCH   5  26
ATOM     26  S   UNL d   1      -1.157   2.471   1.564  0.00  0.00    -0.075 SA
BRANCH  26  27
ATOM     27  C   UNL d   1       0.119   3.642   1.041  0.00  0.00     0.186 C 
BRANCH  27  28
ATOM     28  C   UNL d   1      -0.105   5.096   1.423  0.00  0.00     0.231 C 
ATOM     29  N   UNL d   1      -1.243   5.396   2.145  0.00  0.00    -0.327 N 
ATOM     30  H   UNL d   1      -1.779   4.610   2.499  0.00  0.00     0.169 HD
ATOM     31  O   UNL d   1       0.742   5.917   1.068  0.00  0.00    -0.272 OA
BRANCH  29  32
ATOM     32  C   UNL d   1      -1.733   6.688   2.450  0.00  0.00     0.034 A 
ATOM     33  C   UNL d   1      -1.199   7.857   1.905  0.00  0.00     0.030 A 
ATOM     34  C   UNL d   1      -1.767   9.104   2.180  0.00  0.00     0.010 A 
ATOM     35  C   UNL d   1      -2.885   9.218   3.014  0.00  0.00    -0.055 A 
ATOM     36  C   UNL d   1      -3.404   8.049   3.586  0.00  0.00     0.010 A 
ATOM     37  C   UNL d   1      -2.836   6.797   3.302  0.00  0.00     0.030 A 
BRANCH  35  38
ATOM     38  C   UNL d   1      -3.550  10.562   3.253  0.00  0.00     0.010 C 
ATOM     39  C   UNL d   1      -2.595  11.579   3.883  0.00  0.00     0.015 C 
ATOM     40  C   UNL d   1      -4.140  11.114   1.950  0.00  0.00     0.015 C 
ENDBRANCH  35  38
ENDBRANCH  29  32
ENDBRANCH  27  28
ENDBRANCH  26  27
ENDBRANCH   5  26
TORSDOF 12
