REMARK  2 active torsions:
REMARK  status: ('A' for Active; 'I' for Inactive)
REMARK    1  A    between atoms: C_4  and  C_8 
REMARK    2  A    between atoms: C_13  and  C_7 
ROOT
ATOM      1  C   UNL d   1      -1.116  -0.838   0.036  0.00  0.00     0.045 A 
ATOM      2  C   UNL d   1       0.387  -0.957  -0.020  0.00  0.00     0.257 A 
ATOM      3  N   UNL d   1       0.838   0.342  -0.187  0.00  0.00    -0.322 N 
ATOM      4  C   UNL d   1      -1.444   0.587  -0.054  0.00  0.00     0.006 A 
ATOM      5  C   UNL d   1      -0.219   1.248  -0.209  0.00  0.00     0.046 A 
ATOM      6  C   UNL d   1      -1.875  -1.942   0.083  0.00  0.00     0.029 C 
ATOM      7  O   UNL d   1       1.054  -1.968   0.048  0.00  0.00    -0.267 OA
ATOM      8  C   UNL d   1      -2.620   1.311   0.009  0.00  0.00     0.015 A 
ATOM      9  C   UNL d   1      -0.125   2.619  -0.347  0.00  0.00     0.030 A 
ATOM     10  C   UNL d   1      -2.550   2.703  -0.124  0.00  0.00     0.001 A 
ATOM     11  C   UNL d   1      -1.315   3.350  -0.310  0.00  0.00     0.002 A 
ATOM     12  H   UNL d   1       1.816   0.573  -0.268  0.00  0.00     0.169 HD
ENDROOT
BRANCH   6  13
ATOM     13  C   UNL d   1      -3.335  -1.977   0.015  0.00  0.00    -0.035 A 
ATOM     14  C   UNL d   1      -3.967  -2.101  -1.227  0.00  0.00     0.012 A 
ATOM     15  C   UNL d   1      -5.360  -2.167  -1.306  0.00  0.00     0.017 A 
ATOM     16  C   UNL d   1      -6.143  -2.118  -0.143  0.00  0.00     0.048 A 
ATOM     17  C   UNL d   1      -5.502  -1.974   1.099  0.00  0.00     0.017 A 
ATOM     18  C   UNL d   1      -4.107  -1.902   1.176  0.00  0.00     0.012 A 
BRANCH  16  19
ATOM     19  C   UNL d   1      -7.646  -2.236  -0.219  0.00  0.00     0.417 C 
ATOM     20  F   UNL d   1      -8.117  -2.374  -1.491  0.00  0.00    -0.166 F 
ATOM     21  F   UNL d   1      -8.120  -3.310   0.470  0.00  0.00    -0.166 F 
ATOM     22  F   UNL d   1      -8.284  -1.149   0.296  0.00  0.00    -0.166 F 
ENDBRANCH  16  19
ENDBRANCH   6  13
TORSDOF 2
