REMARK  2 active torsions:
REMARK  status: ('A' for Active; 'I' for Inactive)
REMARK    1  A    between atoms: C_6  and  C_1 
REMARK    2  A    between atoms: O_7  and  C_6 
ROOT
ATOM      1  C   UNL d   1      -1.553  -1.185   0.007  0.00  0.00    -0.007 A 
ATOM      2  N   UNL d   1      -1.539   1.045   0.025  0.00  0.00    -0.365 N 
ATOM      3  C   UNL d   1      -2.350  -0.055   0.024  0.00  0.00     0.098 A 
ATOM      4  C   UNL d   1      -0.194  -0.733   0.015  0.00  0.00     0.000 A 
ATOM      5  C   UNL d   1      -0.219   0.663   0.015  0.00  0.00     0.043 A 
ATOM      6  C   UNL d   1       1.060  -1.380   0.005  0.00  0.00     0.014 A 
ATOM      7  C   UNL d   1       0.944   1.443  -0.002  0.00  0.00     0.030 A 
ATOM      8  C   UNL d   1       2.232  -0.616  -0.008  0.00  0.00     0.001 A 
ATOM      9  C   UNL d   1       2.172   0.775  -0.013  0.00  0.00     0.002 A 
ATOM     10  H   UNL d   1      -1.859   2.004   0.016  0.00  0.00     0.165 HD
ENDROOT
BRANCH   1  11
ATOM     11  C   UNL d   1      -2.030  -2.599  -0.049  0.00  0.00     0.208 C 
BRANCH  11  12
ATOM     12  O   UNL d   1      -2.858  -2.869  -1.187  0.00  0.00    -0.391 OA
ATOM     13  C   UNL d   1      -2.140  -2.792  -2.413  0.00  0.00     0.201 C 
ENDBRANCH  11  12
ENDBRANCH   1  11
TORSDOF 2
