REMARK  5 active torsions:
REMARK  status: ('A' for Active; 'I' for Inactive)
REMARK    1  A    between atoms: C_4  and  C_1 
REMARK    2  A    between atoms: N_13  and  C_1 
REMARK    3  A    between atoms: O_6  and  N_2 
REMARK    4  A    between atoms: C_5  and  O_6 
REMARK    5  A    between atoms: C_9  and  C_5 
ROOT
ATOM      1  C   UNL d   1       0.915  -0.566  -0.578  0.00  0.00     0.127 C 
ATOM      2  N   UNL d   1       0.218   0.421  -1.057  0.00  0.00    -0.244 N 
ATOM      3  HN  UNL d   1      -0.774   0.562  -0.868  1.00  0.00     0.196 HD
ENDROOT
BRANCH   1   4
ATOM      4  C   UNL d   1       0.267  -1.458   0.445  0.00  0.00     0.087 A 
ATOM      5  N   UNL d   1       1.025  -2.495   0.905  0.00  0.00    -0.361 N 
ATOM      6  C   UNL d   1       0.452  -3.217   1.898  0.00  0.00     0.105 A 
ATOM      7  HN  UNL d   1       1.949  -2.710   0.531  1.00  0.00     0.165 HD
ATOM      8  C   UNL d   1      -0.810  -2.936   2.401  0.00  0.00     0.104 A 
ATOM      9  N   UNL d   1      -1.571  -1.923   1.927  0.00  0.00    -0.372 N 
ATOM     10  C   UNL d   1      -1.004  -1.188   0.936  0.00  0.00     0.120 A 
ATOM     11  HN  UNL d   1      -2.505  -1.727   2.288  1.00  0.00     0.164 HD
ENDBRANCH   1   4
BRANCH   1  12
ATOM     12  N   UNL d   1       2.213  -0.857  -0.948  0.00  0.00    -0.285 NA
ATOM     13  H   UNL d   1       2.441  -0.569  -1.892  0.00  0.00     0.125 HD
ATOM     14  H   UNL d   1       2.485  -1.816  -0.736  0.00  0.00     0.125 HD
ENDBRANCH   1  12
BRANCH   2  15
ATOM     15  O   UNL d   1       0.993   1.277  -1.870  0.00  0.00    -0.193 OA
BRANCH  15  16
ATOM     16  C   UNL d   1       0.210   1.734  -2.887  0.00  0.00     0.315 C 
ATOM     17  O   UNL d   1      -0.492   1.041  -3.614  0.00  0.00    -0.257 OA
BRANCH  16  18
ATOM     18  C   UNL d   1       0.291   3.216  -3.015  0.00  0.00     0.041 A 
ATOM     19  C   UNL d   1      -0.482   3.828  -4.017  0.00  0.00     0.019 A 
ATOM     20  C   UNL d   1      -0.519   5.220  -4.138  0.00  0.00     0.025 A 
ATOM     21  C   UNL d   1       0.218   6.009  -3.259  0.00  0.00     0.034 A 
ATOM     22  C   UNL d   1       0.999   5.417  -2.267  0.00  0.00     0.025 A 
ATOM     23 CL   UNL d   1       0.151   7.723  -3.390  0.00  0.00    -0.084 Cl
ATOM     24  C   UNL d   1       1.038   4.021  -2.143  0.00  0.00     0.019 A 
ENDBRANCH  16  18
ENDBRANCH  15  16
ENDBRANCH   2  15
TORSDOF 5
