REMARK  4 active torsions:
REMARK  status: ('A' for Active; 'I' for Inactive)
REMARK    1  A    between atoms: C_6  and  C_1 
REMARK    2  A    between atoms: C_7  and  C_2 
REMARK    3  A    between atoms: C_11  and  C_5 
REMARK       I    between atoms: N_8  and  C_6 
REMARK    4  A    between atoms: C_13  and  N_8 
ROOT
ATOM      1  C   UNL d   1       1.137   0.615   0.170  0.00  0.00     0.073 A 
ATOM      2  C   UNL d   1       0.841  -0.623  -0.383  0.00  0.00     0.175 A 
ATOM      3  O   UNL d   1      -0.427  -1.000  -0.015  0.00  0.00    -0.304 OA
ATOM      4  C   UNL d   1      -0.068   1.036   0.813  0.00  0.00     0.058 A 
ATOM      5  C   UNL d   1      -0.973   0.006   0.724  0.00  0.00     0.087 A 
ENDROOT
BRANCH   1   6
ATOM      6  C   UNL d   1       2.349   1.428   0.134  0.00  0.00     0.259 C 
ATOM      7  N   UNL d   1       3.537   0.749  -0.044  0.00  0.00    -0.323 N 
ATOM      8  H   UNL d   1       3.501  -0.226  -0.306  0.00  0.00     0.169 HD
ATOM      9  O   UNL d   1       2.245   2.640   0.294  0.00  0.00    -0.267 OA
BRANCH   7  10
ATOM     10  C   UNL d   1       4.825   1.328  -0.082  0.00  0.00     0.037 A 
ATOM     11  C   UNL d   1       5.099   2.625   0.358  0.00  0.00     0.069 A 
ATOM     12  C   UNL d   1       6.361   3.180   0.158  0.00  0.00     0.104 A 
ATOM     13  O   UNL d   1       6.521   4.487   0.543  0.00  0.00    -0.346 OA
ATOM     14  C   UNL d   1       7.379   2.428  -0.430  0.00  0.00     0.102 A 
ATOM     15  C   UNL d   1       7.602   5.085  -0.177  0.00  0.00     0.202 C 
ATOM     16  C   UNL d   1       8.840   4.207  -0.090  0.00  0.00     0.202 C 
ATOM     17  O   UNL d   1       8.627   2.927  -0.698  0.00  0.00    -0.346 OA
ATOM     18  C   UNL d   1       7.135   1.111  -0.807  0.00  0.00     0.042 A 
ATOM     19  C   UNL d   1       5.863   0.559  -0.624  0.00  0.00     0.032 A 
ENDBRANCH   7  10
ENDBRANCH   1   6
BRANCH   2  20
ATOM     20  C   UNL d   1       1.551  -1.580  -1.265  0.00  0.00     0.440 C 
ATOM     21  F   UNL d   1       2.750  -1.092  -1.682  0.00  0.00    -0.164 F 
ATOM     22  F   UNL d   1       1.828  -2.745  -0.627  0.00  0.00    -0.164 F 
ATOM     23  F   UNL d   1       0.847  -1.888  -2.381  0.00  0.00    -0.164 F 
ENDBRANCH   2  20
BRANCH   5  24
ATOM     24  C   UNL d   1      -2.325  -0.200   1.236  0.00  0.00    -0.002 A 
ATOM     25  C   UNL d   1      -2.973   0.826   1.942  0.00  0.00     0.016 A 
ATOM     26  C   UNL d   1      -4.267   0.648   2.440  0.00  0.00     0.024 A 
ATOM     27  C   UNL d   1      -4.924  -0.562   2.239  0.00  0.00     0.034 A 
ATOM     28  C   UNL d   1      -4.293  -1.597   1.554  0.00  0.00     0.024 A 
ATOM     29 CL   UNL d   1      -6.521  -0.777   2.839  0.00  0.00    -0.084 Cl
ATOM     30  C   UNL d   1      -2.998  -1.415   1.056  0.00  0.00     0.016 A 
ENDBRANCH   5  24
TORSDOF 4
