REMARK  6 active torsions:
REMARK  status: ('A' for Active; 'I' for Inactive)
REMARK    1  A    between atoms: C_9  and  C_3 
REMARK    2  A    between atoms: O_12  and  C_4 
REMARK    3  A    between atoms: C_20  and  C_8 
REMARK    4  A    between atoms: O_10  and  C_9 
REMARK    5  A    between atoms: C_11  and  O_10 
REMARK    6  A    between atoms: O_19  and  C_20 
ROOT
ATOM      1  N   UNL d   1      -0.294  -1.140   0.026  0.00  0.00    -0.325 N 
ATOM      2  HN  UNL d   1      -0.833  -2.006   0.015  1.00  0.00     0.169 HD
ATOM      3  C   UNL d   1       1.054  -1.129   0.037  0.00  0.00     0.108 A 
ATOM      4  C   UNL d   1      -0.873   0.063   0.030  0.00  0.00     0.143 A 
ATOM      5  N   UNL d   1       1.808  -0.008   0.026  0.00  0.00    -0.345 N 
ATOM      6  HN  UNL d   1       2.827  -0.054   0.009  1.00  0.00     0.167 HD
ATOM      7  C   UNL d   1      -0.219   1.263   0.036  0.00  0.00     0.083 A 
ATOM      8  C   UNL d   1       1.156   1.181   0.040  0.00  0.00     0.038 A 
ENDROOT
BRANCH   3   9
ATOM      9  C   UNL d   1       1.766  -2.464   0.014  0.00  0.00     0.252 C 
BRANCH   9  10
ATOM     10  O   UNL d   1       2.043  -2.903   1.349  0.00  0.00    -0.344 OA
BRANCH  10  11
ATOM     11  C   UNL d   1       2.748  -4.072   1.454  0.00  0.00     0.069 A 
ATOM     12  C   UNL d   1       3.474  -4.226   2.638  0.00  0.00     0.038 A 
ATOM     13  C   UNL d   1       4.226  -5.383   2.865  0.00  0.00     0.026 A 
ATOM     14  C   UNL d   1       4.237  -6.395   1.910  0.00  0.00     0.034 A 
ATOM     15  C   UNL d   1       3.501  -6.259   0.735  0.00  0.00     0.026 A 
ATOM     16 CL   UNL d   1       5.155  -7.823   2.183  0.00  0.00    -0.084 Cl
ATOM     17  C   UNL d   1       2.754  -5.099   0.507  0.00  0.00     0.038 A 
ENDBRANCH  10  11
ENDBRANCH   9  10
ENDBRANCH   3   9
BRANCH   4  18
ATOM     18  O   UNL d   1      -2.229   0.024   0.006  0.00  0.00    -0.346 OA
ATOM     19  H   UNL d   1      -2.377  -0.938   0.026  0.00  0.00     0.219 HD
ENDBRANCH   4  18
BRANCH   8  20
ATOM     20  C   UNL d   1       1.992   2.439   0.025  0.00  0.00     0.224 C 
BRANCH  20  21
ATOM     21  O   UNL d   1       1.672   3.252   1.155  0.00  0.00    -0.390 OA
ATOM     22  C   UNL d   1       2.485   4.416   1.204  0.00  0.00     0.201 C 
ENDBRANCH  20  21
ENDBRANCH   8  20
TORSDOF 6
