REMARK  3 active torsions:
REMARK  status: ('A' for Active; 'I' for Inactive)
REMARK    1  A    between atoms: C_2  and  C_1 
REMARK       I    between atoms: N_3  and  C_2 
REMARK    2  A    between atoms: C_6  and  N_3 
REMARK    3  A    between atoms: N_11  and  C_4 
ROOT
ATOM      1  C   UNL d   1       0.858   0.105  -0.077  0.00  0.00     0.127 C 
ATOM      2  C   UNL d   1       0.188  -0.888   0.554  0.00  0.00     0.113 C 
ATOM      3  C   UNL d   1       0.213   1.251  -0.605  0.00  0.00     0.106 C 
ATOM      4  N   UNL d   1      -0.256   2.211  -1.054  0.00  0.00    -0.191 NA
ENDROOT
BRANCH   1   5
ATOM      5  C   UNL d   1       2.351  -0.019  -0.210  0.00  0.00     0.268 C 
ATOM      6  N   UNL d   1       3.008   1.146  -0.562  0.00  0.00    -0.321 N 
ATOM      7  H   UNL d   1       2.548   2.040  -0.406  0.00  0.00     0.169 HD
ATOM      8  O   UNL d   1       2.920  -1.082   0.019  0.00  0.00    -0.266 OA
BRANCH   6   9
ATOM      9  C   UNL d   1       4.365   1.244  -0.953  0.00  0.00     0.057 A 
ATOM     10  C   UNL d   1       5.058   2.447  -0.728  0.00  0.00     0.062 A 
ATOM     11  C   UNL d   1       6.370   2.617  -1.174  0.00  0.00     0.050 A 
ATOM     12 CL   UNL d   1       4.322   3.739   0.159  0.00  0.00    -0.082 Cl
ATOM     13  C   UNL d   1       6.986   1.593  -1.886  0.00  0.00     0.035 A 
ATOM     14  C   UNL d   1       6.316   0.392  -2.118  0.00  0.00     0.026 A 
ATOM     15 CL   UNL d   1       8.576   1.820  -2.501  0.00  0.00    -0.084 Cl
ATOM     16  C   UNL d   1       5.014   0.210  -1.637  0.00  0.00     0.033 A 
ENDBRANCH   6   9
ENDBRANCH   1   5
BRANCH   2  17
ATOM     17  N   UNL d   1      -1.171  -1.101   0.809  0.00  0.00    -0.397 N 
ATOM     18  C   UNL d   1      -2.235  -0.807  -0.158  0.00  0.00     0.148 C 
ATOM     19  C   UNL d   1      -1.592  -2.096   1.810  0.00  0.00     0.148 C 
ENDBRANCH   2  17
TORSDOF 3
