REMARK  8 active torsions:
REMARK  status: ('A' for Active; 'I' for Inactive)
REMARK    1  A    between atoms: O_6  and  S_1 
REMARK    2  A    between atoms: C_11  and  S_1 
REMARK    3  A    between atoms: S_2  and  O_5 
REMARK    4  A    between atoms: C_12  and  S_2 
REMARK    5  A    between atoms: C_3  and  O_6 
REMARK    6  A    between atoms: O_5  and  C_4 
REMARK    7  A    between atoms: C_17  and  C_7 
REMARK    8  A    between atoms: C_18  and  C_8 
ROOT
ATOM      1  C   UNL d   1       0.888  -0.676  -2.481  0.00  0.00     0.097 A 
ATOM      2  C   UNL d   1       1.755  -0.145  -5.100  0.00  0.00     0.097 A 
ATOM      3  C   UNL d   1       0.410  -0.492  -4.912  0.00  0.00    -0.013 A 
ATOM      4  C   UNL d   1       2.258  -0.442  -2.685  0.00  0.00    -0.013 A 
ATOM      5  C   UNL d   1       2.645  -0.143  -4.012  0.00  0.00     0.049 A 
ATOM      6  C   UNL d   1       0.002  -0.706  -3.576  0.00  0.00     0.049 A 
ENDROOT
BRANCH   1   7
ATOM      7  O   UNL d   1       0.416  -1.013  -1.230  0.00  0.00    -0.229 OA
BRANCH   7   8
ATOM      8  S   UNL d   1      -0.879  -0.227  -0.596  0.00  0.00     0.303 S 
ATOM      9  O   UNL d   1      -2.092  -0.635  -1.284  0.00  0.00    -0.193 OA
ATOM     10  O   UNL d   1      -0.542   1.172  -0.427  0.00  0.00    -0.193 OA
BRANCH   8  11
ATOM     11  C   UNL d   1      -1.029  -0.928   1.045  0.00  0.00     0.086 A 
ATOM     12  C   UNL d   1      -1.089  -0.095   2.168  0.00  0.00     0.027 A 
ATOM     13  C   UNL d   1      -1.247  -0.662   3.435  0.00  0.00     0.025 A 
ATOM     14  C   UNL d   1      -1.345  -2.048   3.572  0.00  0.00     0.034 A 
ATOM     15  C   UNL d   1      -1.291  -2.876   2.450  0.00  0.00     0.025 A 
ATOM     16 CL   UNL d   1      -1.543  -2.741   5.134  0.00  0.00    -0.084 Cl
ATOM     17  C   UNL d   1      -1.133  -2.319   1.179  0.00  0.00     0.027 A 
ENDBRANCH   8  11
ENDBRANCH   7   8
ENDBRANCH   1   7
BRANCH   4  18
ATOM     18  C   UNL d   1       3.348  -0.563  -1.591  0.00  0.00    -0.021 C 
ATOM     19  C   UNL d   1       3.668  -2.061  -1.399  0.00  0.00     0.019 C 
ATOM     20  C   UNL d   1       4.677   0.147  -1.978  0.00  0.00     0.019 C 
ATOM     21  C   UNL d   1       2.941   0.042  -0.232  0.00  0.00     0.019 C 
ENDBRANCH   4  18
BRANCH   3  22
ATOM     22  C   UNL d   1      -0.622  -0.723  -6.046  0.00  0.00    -0.021 C 
ATOM     23  C   UNL d   1      -0.049  -0.756  -7.482  0.00  0.00     0.019 C 
ATOM     24  C   UNL d   1      -1.300  -2.105  -5.849  0.00  0.00     0.019 C 
ATOM     25  C   UNL d   1      -1.701   0.375  -6.008  0.00  0.00     0.019 C 
ENDBRANCH   3  22
BRANCH   2  26
ATOM     26  O   UNL d   1       2.151   0.300  -6.334  0.00  0.00    -0.229 OA
BRANCH  26  27
ATOM     27  S   UNL d   1       3.600  -0.014  -7.015  0.00  0.00     0.303 S 
ATOM     28  O   UNL d   1       4.215  -1.164  -6.378  0.00  0.00    -0.193 OA
ATOM     29  O   UNL d   1       3.433   0.030  -8.455  0.00  0.00    -0.193 OA
BRANCH  27  30
ATOM     30  C   UNL d   1       4.610   1.404  -6.620  0.00  0.00     0.086 A 
ATOM     31  C   UNL d   1       5.998   1.245  -6.543  0.00  0.00     0.027 A 
ATOM     32  C   UNL d   1       6.802   2.350  -6.257  0.00  0.00     0.025 A 
ATOM     33  C   UNL d   1       6.214   3.600  -6.040  0.00  0.00     0.034 A 
ATOM     34  C   UNL d   1       4.829   3.749  -6.096  0.00  0.00     0.025 A 
ATOM     35 CL   UNL d   1       7.210   4.962  -5.713  0.00  0.00    -0.084 Cl
ATOM     36  C   UNL d   1       4.016   2.648  -6.384  0.00  0.00     0.027 A 
ENDBRANCH  27  30
ENDBRANCH  26  27
ENDBRANCH   2  26
TORSDOF 8
