REMARK  5 active torsions:
REMARK  status: ('A' for Active; 'I' for Inactive)
REMARK    1  A    between atoms: N_2  and  C_1 
REMARK    2  A    between atoms: S_6  and  C_3 
REMARK    3  A    between atoms: C_12  and  S_6 
REMARK    4  A    between atoms: C_10  and  C_12 
REMARK    5  A    between atoms: O_13  and  C_10 
ROOT
ATOM      1  C   UNL d   1       1.141   0.538   0.747  0.00  0.00     0.127 A 
ATOM      2  C   UNL d   1       0.353   1.339  -0.071  0.00  0.00     0.074 A 
ATOM      3  C   UNL d   1       1.306  -0.785   0.191  0.00  0.00     0.045 A 
ATOM      4  S   UNL d   1      -0.186   0.459  -1.461  0.00  0.00    -0.092 SA
ATOM      5  C   UNL d   1       0.635  -0.955  -0.996  0.00  0.00     0.053 A 
ENDROOT
BRANCH   2   6
ATOM      6  S   UNL d   1      -0.279   2.978   0.110  0.00  0.00    -0.110 SA
BRANCH   6   7
ATOM      7  C   UNL d   1       1.168   4.063   0.072  0.00  0.00     0.191 C 
BRANCH   7   8
ATOM      8  C   UNL d   1       2.042   3.946  -1.154  0.00  0.00     0.268 C 
ATOM      9  O   UNL d   1       1.939   3.143  -2.068  0.00  0.00    -0.264 OA
BRANCH   8  10
ATOM     10  O   UNL d   1       3.030   4.894  -1.067  0.00  0.00    -0.326 OA
ATOM     11  C   UNL d   1       3.965   4.882  -2.145  0.00  0.00     0.213 C 
ENDBRANCH   8  10
ENDBRANCH   7   8
ENDBRANCH   6   7
ENDBRANCH   2   6
BRANCH   1  12
ATOM     12  N   UNL d   1       1.724   0.904   2.021  0.00  0.00    -0.114 N 
ATOM     13  O   UNL d   1       1.527   2.042   2.461  0.00  0.00    -0.532 OA
ATOM     14  O   UNL d   1       2.403   0.036   2.588  0.00  0.00    -0.532 OA
ENDBRANCH   1  12
TORSDOF 5
