REMARK  3 active torsions:
REMARK  status: ('A' for Active; 'I' for Inactive)
REMARK    1  A    between atoms: C_4  and  C_1 
REMARK       I    between atoms: N_9  and  C_4 
REMARK    2  A    between atoms: N_10  and  N_9 
REMARK    3  A    between atoms: C_11  and  N_10 
ROOT
ATOM      1  C   UNL d   1      -0.087  -2.550  -0.538  0.00  0.00     0.276 C 
ATOM      2  N   UNL d   1       0.762  -3.553  -0.070  0.00  0.00    -0.282 N 
ATOM      3  O   UNL d   1       0.349  -1.411  -0.716  0.00  0.00    -0.266 OA
ATOM      4  H   UNL d   1       0.412  -4.423   0.317  0.00  0.00     0.184 HD
ENDROOT
BRANCH   2   5
ATOM      5  N   UNL d   1       2.041  -3.155   0.346  0.00  0.00    -0.203 NA
ATOM      6  H   UNL d   1       2.290  -2.251  -0.082  0.00  0.00     0.153 HD
BRANCH   5   7
ATOM      7  C   UNL d   1       3.093  -4.084   0.148  0.00  0.00     0.033 A 
ATOM      8  C   UNL d   1       3.218  -5.018  -0.900  0.00  0.00    -0.038 A 
ATOM      9  C   UNL d   1       4.352  -5.862  -0.933  0.00  0.00     0.032 A 
ATOM     10  C   UNL d   1       2.226  -5.217  -2.013  0.00  0.00     0.050 C 
ATOM     11  C   UNL d   1       5.380  -5.733   0.003  0.00  0.00     0.034 A 
ATOM     12  C   UNL d   1       5.304  -4.758   0.982  0.00  0.00     0.026 A 
ATOM     13 CL   UNL d   1       6.745  -6.774  -0.074  0.00  0.00    -0.084 Cl
ATOM     14  C   UNL d   1       4.175  -3.940   1.044  0.00  0.00     0.027 A 
ENDBRANCH   5   7
ENDBRANCH   2   5
BRANCH   1  15
ATOM     15  C   UNL d   1      -1.457  -2.922  -0.798  0.00  0.00     0.115 A 
ATOM     16  C   UNL d   1      -2.547  -2.140  -1.175  0.00  0.00     0.046 A 
ATOM     17  N   UNL d   1      -3.723  -2.856  -1.387  0.00  0.00    -0.298 N 
ATOM     18  C   UNL d   1      -2.614  -0.670  -1.383  0.00  0.00     0.071 C 
ATOM     19  N   UNL d   1      -3.565  -4.149  -1.180  0.00  0.00    -0.269 N 
ATOM     20  HN  UNL d   1      -4.605  -2.429  -1.670  1.00  0.00     0.187 HD
ATOM     21  S   UNL d   1      -2.013  -4.543  -0.723  0.00  0.00     0.009 SA
ATOM     22  HN  UNL d   1      -4.313  -4.834  -1.287  1.00  0.00     0.195 HD
ENDBRANCH   1  15
TORSDOF 3
