REMARK  6 active torsions:
REMARK  status: ('A' for Active; 'I' for Inactive)
REMARK    1  A    between atoms: C_5  and  S_1 
REMARK    2  A    between atoms: N_6  and  S_1 
REMARK    3  A    between atoms: C_2  and  C_12 
REMARK    4  A    between atoms: C_9  and  C_13 
REMARK    5  A    between atoms: C_10  and  C_14 
REMARK    6  A    between atoms: C_12  and  C_20 
ROOT
ATOM      1  N   UNL d   1       0.653  -0.053   1.952  0.00  0.00    -0.307 N 
ATOM      2  C   UNL d   1      -1.676   0.750   3.622  0.00  0.00     0.064 C 
ATOM      3  C   UNL d   1      -0.258  -1.087   2.461  0.00  0.00     0.136 C 
ATOM      4  C   UNL d   1       0.393   1.380   2.178  0.00  0.00     0.136 C 
ATOM      5  C   UNL d   1      -0.541   1.726   3.342  0.00  0.00     0.033 C 
ATOM      6  C   UNL d   1      -1.072  -0.666   3.671  0.00  0.00     0.033 C 
ENDROOT
BRANCH   1   7
ATOM      7  S   UNL d   1       1.620  -0.488   0.608  0.00  0.00     0.260 S 
ATOM      8  O   UNL d   1       2.340   0.686   0.155  0.00  0.00    -0.200 OA
ATOM      9  O   UNL d   1       2.323  -1.707   0.971  0.00  0.00    -0.200 OA
BRANCH   7  10
ATOM     10  C   UNL d   1       0.481  -0.932  -0.699  0.00  0.00     0.081 A 
ATOM     11  C   UNL d   1      -0.512  -0.027  -1.080  0.00  0.00     0.041 A 
ATOM     12  C   UNL d   1      -1.404  -0.349  -2.113  0.00  0.00     0.050 A 
ATOM     13  C   UNL d   1      -1.288  -1.588  -2.761  0.00  0.00     0.032 A 
ATOM     14  C   UNL d   1      -0.280  -2.506  -2.408  0.00  0.00     0.050 A 
ATOM     15  C   UNL d   1       0.604  -2.169  -1.368  0.00  0.00     0.041 A 
BRANCH  12  16
ATOM     16  C   UNL d   1      -2.478   0.625  -2.537  0.00  0.00     0.417 C 
ATOM     17  F   UNL d   1      -2.396   1.827  -1.901  0.00  0.00    -0.166 F 
ATOM     18  F   UNL d   1      -2.434   0.907  -3.868  0.00  0.00    -0.166 F 
ATOM     19  F   UNL d   1      -3.731   0.153  -2.296  0.00  0.00    -0.166 F 
ENDBRANCH  12  16
BRANCH  14  20
ATOM     20  C   UNL d   1      -0.170  -3.802  -3.176  0.00  0.00     0.417 C 
ATOM     21  F   UNL d   1       0.860  -4.595  -2.795  0.00  0.00    -0.166 F 
ATOM     22  F   UNL d   1      -1.300  -4.566  -3.062  0.00  0.00    -0.166 F 
ATOM     23  F   UNL d   1      -0.011  -3.593  -4.520  0.00  0.00    -0.166 F 
ENDBRANCH  14  20
ENDBRANCH   7  10
ENDBRANCH   1   7
BRANCH   2  24
ATOM     24  C   UNL d   1      -2.954   0.858   2.750  0.00  0.00     0.164 C 
ATOM     25  O   UNL d   1      -3.220  -0.121   2.042  0.00  0.00    -0.292 OA
BRANCH  24  26
ATOM     26  C   UNL d   1      -3.988   2.035   2.759  0.00  0.00     0.023 C 
ATOM     27  C   UNL d   1      -4.729   2.274   1.545  0.00  0.00    -0.041 C 
ATOM     28  C   UNL d   1      -5.853   3.169   1.502  0.00  0.00    -0.049 C 
ATOM     29  C   UNL d   1      -4.442   1.522   0.262  0.00  0.00     0.050 C 
ATOM     30  C   UNL d   1      -6.548   3.506   0.190  0.00  0.00     0.049 C 
ATOM     31  C   UNL d   1      -6.303   3.793   2.681  0.00  0.00    -0.049 C 
ATOM     32  C   UNL d   1      -5.589   3.587   3.883  0.00  0.00    -0.049 C 
ATOM     33  C   UNL d   1      -7.585   4.610   2.643  0.00  0.00     0.049 C 
ATOM     34  C   UNL d   1      -4.387   2.777   3.914  0.00  0.00    -0.041 C 
ATOM     35  C   UNL d   1      -6.168   4.208   5.146  0.00  0.00     0.049 C 
ATOM     36  C   UNL d   1      -3.675   2.741   5.239  0.00  0.00     0.050 C 
ENDBRANCH  24  26
ENDBRANCH   2  24
TORSDOF 6
