REMARK  5 active torsions:
REMARK  status: ('A' for Active; 'I' for Inactive)
REMARK    1  A    between atoms: C_6  and  N_1 
REMARK    2  A    between atoms: C_7  and  C_10 
REMARK    3  A    between atoms: O_17  and  C_9 
REMARK    4  A    between atoms: C_23  and  O_17 
REMARK    5  A    between atoms: O_29  and  C_24 
ROOT
ATOM      1  C   UNL d   1      -3.791  -1.117  -0.194  0.00  0.00     0.080 C 
ATOM      2  C   UNL d   1      -4.726  -0.625  -1.121  0.00  0.00     0.049 C 
ATOM      3  C   UNL d   1      -4.239  -1.945   0.854  0.00  0.00     0.103 C 
ATOM      4  C   UNL d   1      -6.088  -0.967  -1.038  0.00  0.00     0.050 C 
ATOM      5  C   UNL d   1      -5.619  -2.156   1.015  0.00  0.00     0.040 C 
ATOM      6  C   UNL d   1      -6.528  -1.705   0.062  0.00  0.00     0.019 C 
ENDROOT
BRANCH   1   7
ATOM      7  N   UNL d   1      -2.433  -0.747  -0.329  0.00  0.00    -0.238 N 
ATOM      8  C   UNL d   1      -2.011   0.543  -0.585  0.00  0.00     0.284 A 
ATOM      9  C   UNL d   1      -0.551   0.488  -0.611  0.00  0.00     0.134 A 
ATOM     10  O   UNL d   1      -2.667   1.556  -0.745  0.00  0.00    -0.265 OA
ATOM     11  N   UNL d   1       0.308   1.519  -0.749  0.00  0.00    -0.358 N 
ATOM     12  C   UNL d   1      -0.169  -0.817  -0.460  0.00  0.00     0.134 A 
ATOM     13  C   UNL d   1       1.609   1.126  -0.732  0.00  0.00     0.105 A 
ATOM     14  HN  UNL d   1       0.012   2.490  -0.854  1.00  0.00     0.165 HD
ATOM     15  C   UNL d   1       2.000  -0.213  -0.601  0.00  0.00     0.105 A 
ATOM     16  N   UNL d   1       1.113  -1.234  -0.461  0.00  0.00    -0.358 N 
ATOM     17  HN  UNL d   1       1.388  -2.211  -0.367  1.00  0.00     0.165 HD
ATOM     18  C   UNL d   1      -1.376  -1.631  -0.315  0.00  0.00     0.284 A 
ATOM     19  O   UNL d   1      -1.382  -2.850  -0.304  0.00  0.00    -0.265 OA
ENDBRANCH   1   7
BRANCH   3  20
ATOM     20  O   UNL d   1      -3.318  -2.438   1.764  0.00  0.00    -0.308 OA
BRANCH  20  21
ATOM     21  C   UNL d   1      -3.635  -3.607   2.429  0.00  0.00     0.076 A 
ATOM     22  C   UNL d   1      -4.180  -4.721   1.781  0.00  0.00     0.040 A 
ATOM     23  C   UNL d   1      -4.656  -5.801   2.528  0.00  0.00     0.039 A 
ATOM     24  C   UNL d   1      -4.532  -5.794   3.917  0.00  0.00     0.068 A 
ATOM     25  C   UNL d   1      -3.860  -4.742   4.545  0.00  0.00     0.039 A 
ATOM     26  C   UNL d   1      -3.417  -3.643   3.805  0.00  0.00     0.040 A 
BRANCH  24  27
ATOM     27  O   UNL d   1      -5.000  -6.780   4.742  0.00  0.00    -0.356 OA
ATOM     28  C   UNL d   1      -6.220  -7.385   4.315  0.00  0.00     0.210 C 
ENDBRANCH  24  27
ENDBRANCH  20  21
ENDBRANCH   3  20
BRANCH   4  29
ATOM     29  C   UNL d   1      -7.063  -0.593  -2.124  0.00  0.00     0.417 C 
ATOM     30  F   UNL d   1      -6.514   0.147  -3.126  0.00  0.00    -0.166 F 
ATOM     31  F   UNL d   1      -7.595  -1.694  -2.727  0.00  0.00    -0.166 F 
ATOM     32  F   UNL d   1      -8.122   0.123  -1.658  0.00  0.00    -0.166 F 
ENDBRANCH   4  29
TORSDOF 5
