REMARK  3 active torsions:
REMARK  status: ('A' for Active; 'I' for Inactive)
REMARK    1  A    between atoms: N_4  and  C_1 
REMARK       I    between atoms: C_2  and  N_3 
REMARK    2  A    between atoms: C_6  and  C_2 
REMARK    3  A    between atoms: N_3  and  C_5 
ROOT
ATOM      1  C   UNL d   1      -0.586   1.348   0.201  0.00  0.00     0.109 A 
ATOM      2  C   UNL d   1       0.815   1.137   0.145  0.00  0.00     0.074 A 
ATOM      3  N   UNL d   1      -1.459   0.317   0.145  0.00  0.00    -0.355 N 
ATOM      4  HN  UNL d   1      -2.465   0.474   0.204  1.00  0.00     0.166 HD
ATOM      5  C   UNL d   1       1.302  -0.157  -0.019  0.00  0.00     0.034 A 
ATOM      6  C   UNL d   1      -0.952  -0.929   0.008  0.00  0.00     0.089 A 
ATOM      7  C   UNL d   1       0.400  -1.213  -0.084  0.00  0.00     0.019 A 
ENDROOT
BRANCH   2   8
ATOM      8  N   UNL d   1       1.652   2.258   0.320  0.00  0.00    -0.318 N 
ATOM      9  C   UNL d   1       2.947   2.427  -0.104  0.00  0.00     0.280 C 
ATOM     10  O   UNL d   1       3.615   1.576  -0.680  0.00  0.00    -0.265 OA
ATOM     11  H   UNL d   1       1.167   3.091   0.648  0.00  0.00     0.169 HD
BRANCH   9  12
ATOM     12  C   UNL d   1       3.429   3.777   0.120  0.00  0.00     0.142 A 
ATOM     13  O   UNL d   1       2.736   4.605   0.969  0.00  0.00    -0.317 OA
ATOM     14  C   UNL d   1       3.404   5.786   1.011  0.00  0.00     0.143 A 
ATOM     15  C   UNL d   1       4.494   5.753   0.173  0.00  0.00     0.027 A 
ATOM     16  C   UNL d   1       4.513   4.458  -0.399  0.00  0.00     0.045 A 
ENDBRANCH   9  12
ENDBRANCH   2   8
BRANCH   1  17
ATOM     17  N   UNL d   1      -1.067   2.677   0.314  0.00  0.00    -0.263 NA
ATOM     18  C   UNL d   1      -2.468   2.747   0.788  0.00  0.00     0.123 C 
ATOM     19  C   UNL d   1      -2.837   4.226   1.001  0.00  0.00     0.182 C 
ATOM     20  O   UNL d   1      -2.666   5.000  -0.202  0.00  0.00    -0.389 OA
ATOM     21  C   UNL d   1      -1.316   4.896  -0.685  0.00  0.00     0.182 C 
ATOM     22  C   UNL d   1      -0.936   3.430  -0.959  0.00  0.00     0.123 C 
ENDBRANCH   1  17
TORSDOF 3
