REMARK  7 active torsions:
REMARK  status: ('A' for Active; 'I' for Inactive)
REMARK    1  A    between atoms: O_10  and  C_2 
REMARK    2  A    between atoms: S_11  and  C_4 
REMARK    3  A    between atoms: C_8  and  C_12 
REMARK    4  A    between atoms: C_9  and  C_13 
REMARK    5  A    between atoms: C_16  and  O_10 
REMARK    6  A    between atoms: C_26  and  S_11 
REMARK    7  A    between atoms: C_27  and  C_26 
ROOT
ATOM      1  N   UNL d   1      -0.743   1.230   0.034  0.00  0.00    -0.297 N 
ATOM      2  C   UNL d   1      -0.737  -1.209   0.086  0.00  0.00     0.166 C 
ATOM      3  C   UNL d   1      -1.460   0.080   0.308  0.00  0.00     0.285 C 
ATOM      4  C   UNL d   1       0.636   1.166  -0.028  0.00  0.00     0.149 C 
ATOM      5  N   UNL d   1       1.304   0.060  -0.018  0.00  0.00    -0.338 N 
ATOM      6  HN  UNL d   1       2.324   0.065  -0.028  1.00  0.00     0.168 HD
ATOM      7  C   UNL d   1       0.605  -1.122   0.004  0.00  0.00     0.047 C 
ATOM      8  O   UNL d   1      -2.620   0.090   0.725  0.00  0.00    -0.265 OA
ATOM      9  C   UNL d   1      -1.494   2.479   0.010  0.00  0.00     0.162 C 
ATOM     10  C   UNL d   1       1.448  -2.366  -0.065  0.00  0.00     0.071 C 
ENDROOT
BRANCH   4  11
ATOM     11  S   UNL d   1       1.520   2.687  -0.068  0.00  0.00    -0.089 SA
BRANCH  11  12
ATOM     12  C   UNL d   1       3.121   2.169  -0.757  0.00  0.00     0.121 C 
BRANCH  12  13
ATOM     13  C   UNL d   1       4.129   3.301  -0.729  0.00  0.00    -0.048 A 
ATOM     14  C   UNL d   1       5.061   3.395   0.316  0.00  0.00     0.009 A 
ATOM     15  C   UNL d   1       5.967   4.460   0.376  0.00  0.00     0.017 A 
ATOM     16  C   UNL d   1       5.955   5.464  -0.602  0.00  0.00     0.047 A 
ATOM     17  C   UNL d   1       5.040   5.359  -1.660  0.00  0.00     0.017 A 
ATOM     18  C   UNL d   1       4.135   4.291  -1.722  0.00  0.00     0.009 A 
BRANCH  16  19
ATOM     19  C   UNL d   1       6.884   6.651  -0.517  0.00  0.00     0.417 C 
ATOM     20  F   UNL d   1       7.684   6.642   0.585  0.00  0.00    -0.166 F 
ATOM     21  F   UNL d   1       7.723   6.737  -1.586  0.00  0.00    -0.166 F 
ATOM     22  F   UNL d   1       6.210   7.834  -0.477  0.00  0.00    -0.166 F 
ENDBRANCH  16  19
ENDBRANCH  12  13
ENDBRANCH  11  12
ENDBRANCH   4  11
BRANCH   2  23
ATOM     23  O   UNL d   1      -1.381  -2.445   0.072  0.00  0.00    -0.303 OA
BRANCH  23  24
ATOM     24  C   UNL d   1      -2.636  -2.577  -0.479  0.00  0.00     0.077 A 
ATOM     25  C   UNL d   1      -3.118  -1.803  -1.537  0.00  0.00     0.053 A 
ATOM     26  C   UNL d   1      -4.439  -1.953  -1.990  0.00  0.00     0.050 A 
ATOM     27  C   UNL d   1      -5.245  -2.951  -1.419  0.00  0.00     0.016 A 
ATOM     28  C   UNL d   1      -4.740  -3.776  -0.413  0.00  0.00     0.004 A 
ATOM     29  C   UNL d   1      -3.439  -3.586   0.056  0.00  0.00     0.037 A 
BRANCH  26  30
ATOM     30  C   UNL d   1      -5.003  -1.037  -3.046  0.00  0.00     0.417 C 
ATOM     31  F   UNL d   1      -4.115  -0.099  -3.484  0.00  0.00    -0.166 F 
ATOM     32  F   UNL d   1      -5.410  -1.709  -4.158  0.00  0.00    -0.166 F 
ATOM     33  F   UNL d   1      -6.091  -0.342  -2.612  0.00  0.00    -0.166 F 
ENDBRANCH  26  30
ENDBRANCH  23  24
ENDBRANCH   2  23
TORSDOF 7
