REMARK  5 active torsions:
REMARK  status: ('A' for Active; 'I' for Inactive)
REMARK    1  A    between atoms: C_2  and  S_1 
REMARK    2  A    between atoms: N_5  and  S_1 
REMARK    3  A    between atoms: C_11  and  C_4 
REMARK       I    between atoms: C_7  and  N_9 
REMARK    4  A    between atoms: C_10  and  C_7 
REMARK    5  A    between atoms: O_25  and  C_11 
ROOT
ATOM      1  N   UNL d   1       0.541   1.573   0.055  0.00  0.00    -0.204 NA
ATOM      2  C   UNL d   1       0.433   5.142  -1.717  0.00  0.00     0.260 C 
ATOM      3  N   UNL d   1       0.134   4.548  -0.476  0.00  0.00    -0.346 N 
ATOM      4  C   UNL d   1       1.667   2.565  -0.121  0.00  0.00     0.127 C 
ATOM      5  C   UNL d   1       1.256   3.990   0.290  0.00  0.00     0.141 C 
ATOM      6  O   UNL d   1       1.608   5.150  -2.101  0.00  0.00    -0.267 OA
ATOM      7  C   UNL d   1      -1.611   2.727  -0.509  0.00  0.00     0.035 C 
ATOM      8  C   UNL d   1      -0.516   1.785  -0.989  0.00  0.00     0.109 C 
ATOM      9  C   UNL d   1      -1.183   4.108  -0.026  0.00  0.00     0.127 C 
ENDROOT
BRANCH   1  10
ATOM     10  S   UNL d   1       1.098  -0.060   0.030  0.00  0.00     0.259 S 
ATOM     11  O   UNL d   1      -0.043  -0.931   0.216  0.00  0.00    -0.204 OA
ATOM     12  O   UNL d   1       1.991  -0.207  -1.099  0.00  0.00    -0.204 OA
BRANCH  10  13
ATOM     13  C   UNL d   1       2.108  -0.368   1.467  0.00  0.00     0.146 A 
ATOM     14  N   UNL d   1       1.647  -0.320   2.774  0.00  0.00    -0.336 N 
ATOM     15  C   UNL d   1       2.635  -0.751   3.655  0.00  0.00     0.111 A 
ATOM     16  C   UNL d   1       0.315   0.073   3.196  0.00  0.00     0.157 C 
ATOM     17  C   UNL d   1       3.755  -1.023   2.883  0.00  0.00     0.039 A 
ATOM     18  C   UNL d   1       3.431  -0.777   1.535  0.00  0.00     0.046 A 
BRANCH  15  19
ATOM     19  C   UNL d   1       2.481  -0.894   5.093  0.00  0.00     0.309 C 
ATOM     20  O   UNL d   1       1.477  -0.616   5.736  0.00  0.00    -0.258 OA
BRANCH  19  21
ATOM     21  O   UNL d   1       3.630  -1.392   5.635  0.00  0.00    -0.321 OA
ATOM     22  C   UNL d   1       3.581  -1.587   7.048  0.00  0.00     0.213 C 
ENDBRANCH  19  21
ENDBRANCH  15  19
ENDBRANCH  10  13
ENDBRANCH   1  10
BRANCH   2  23
ATOM     23  C   UNL d   1      -0.633   5.736  -2.524  0.00  0.00     0.072 A 
ATOM     24  S   UNL d   1      -0.480   5.660  -4.240  0.00  0.00    -0.097 SA
ATOM     25  C   UNL d   1      -1.955   6.482  -4.490  0.00  0.00     0.050 A 
ATOM     26  C   UNL d   1      -2.551   6.838  -3.303  0.00  0.00     0.009 A 
ATOM     27  C   UNL d   1      -1.759   6.461  -2.175  0.00  0.00     0.025 A 
ENDBRANCH   2  23
TORSDOF 5
