REMARK  3 active torsions:
REMARK  status: ('A' for Active; 'I' for Inactive)
REMARK    1  A    between atoms: C_7  and  C_2 
REMARK    2  A    between atoms: S_5  and  N_8 
REMARK    3  A    between atoms: C_13  and  S_5 
REMARK       I    between atoms: N_8  and  C_7 
ROOT
ATOM      1  C   UNL d   1       3.655   0.246  -0.460  0.00  0.00     0.270 C 
ATOM      2  N   UNL d   1       4.364  -0.950  -0.231  0.00  0.00    -0.279 N 
ATOM      3  HN  UNL d   1       3.853  -1.830  -0.162  1.00  0.00     0.179 HD
ATOM      4  O   UNL d   1       4.245   1.279  -0.760  0.00  0.00    -0.266 OA
ENDROOT
BRANCH   1   5
ATOM      5  C   UNL d   1       2.177   0.222  -0.393  0.00  0.00     0.081 A 
ATOM      6  S   UNL d   1       1.360  -1.260  -0.017  0.00  0.00    -0.076 SA
ATOM      7  C   UNL d   1      -0.115  -0.497  -0.093  0.00  0.00     0.057 A 
ATOM      8  C   UNL d   1      -0.058   0.810  -0.406  0.00  0.00     0.002 A 
ATOM      9  S   UNL d   1      -1.653  -1.091   0.162  0.00  0.00    -0.093 SA
ATOM     10  C   UNL d   1       1.272   1.287  -0.601  0.00  0.00    -0.027 A 
ATOM     11  C   UNL d   1      -1.339   1.429  -0.468  0.00  0.00    -0.043 A 
ATOM     12  C   UNL d   1       1.738   2.666  -0.944  0.00  0.00     0.050 C 
ATOM     13  C   UNL d   1      -1.752   2.824  -0.795  0.00  0.00     0.049 C 
ATOM     14  C   UNL d   1      -2.305   0.469  -0.153  0.00  0.00     0.058 A 
ENDBRANCH   1   5
BRANCH   2  15
ATOM     15  S   UNL d   1       5.894  -0.950  -0.083  0.00  0.00     0.055 S 
ATOM     16  O   UNL d   1       6.642  -0.075   0.798  0.00  0.00    -0.245 OA
ATOM     17  C   UNL d   1       6.389  -2.603   0.343  0.00  0.00     0.142 C 
BRANCH  15  18
ATOM     18  C   UNL d   1       6.548  -0.737  -1.732  0.00  0.00     0.038 A 
ATOM     19  C   UNL d   1       7.458   0.291  -1.987  0.00  0.00     0.023 A 
ATOM     20  C   UNL d   1       7.909   0.503  -3.292  0.00  0.00     0.025 A 
ATOM     21  C   UNL d   1       7.446  -0.309  -4.328  0.00  0.00     0.034 A 
ATOM     22  C   UNL d   1       6.545  -1.343  -4.071  0.00  0.00     0.025 A 
ATOM     23 CL   UNL d   1       7.975  -0.022  -5.940  0.00  0.00    -0.084 Cl
ATOM     24  C   UNL d   1       6.090  -1.560  -2.768  0.00  0.00     0.023 A 
ENDBRANCH  15  18
ENDBRANCH   2  15
TORSDOF 3
