REMARK  7 active torsions:
REMARK  status: ('A' for Active; 'I' for Inactive)
REMARK    1  A    between atoms: C_7  and  C_1 
REMARK    2  A    between atoms: C_3  and  C_2 
REMARK    3  A    between atoms: S_11  and  C_6 
REMARK    4  A    between atoms: O_12  and  C_7 
REMARK    5  A    between atoms: C_17  and  S_11 
REMARK    6  A    between atoms: C_18  and  O_12 
REMARK    7  A    between atoms: C_21  and  C_18 
ROOT
ATOM      1  C   UNL d   1      -0.025  -1.417  -0.026  0.00  0.00     0.086 A 
ATOM      2  C   UNL d   1       1.210  -0.793  -0.013  0.00  0.00     0.136 A 
ATOM      3  N   UNL d   1       1.307   0.576   0.019  0.00  0.00    -0.332 N 
ATOM      4  HN  UNL d   1       2.219   1.032   0.056  1.00  0.00     0.168 HD
ATOM      5  C   UNL d   1       0.178   1.304   0.003  0.00  0.00     0.149 A 
ATOM      6  N   UNL d   1      -1.051   0.774  -0.027  0.00  0.00    -0.345 N 
ATOM      7  HN  UNL d   1      -1.888   1.357  -0.033  1.00  0.00     0.167 HD
ATOM      8  C   UNL d   1      -1.122  -0.575  -0.047  0.00  0.00     0.110 A 
ENDROOT
BRANCH   1   9
ATOM      9  C   UNL d   1      -0.292  -2.857  -0.124  0.00  0.00     0.297 C 
ATOM     10  O   UNL d   1      -1.128  -3.298  -0.899  0.00  0.00    -0.259 OA
BRANCH   9  11
ATOM     11  O   UNL d   1       0.439  -3.555   0.763  0.00  0.00    -0.313 OA
BRANCH  11  12
ATOM     12  C   UNL d   1       0.325  -4.988   0.644  0.00  0.00     0.217 C 
BRANCH  12  13
ATOM     13  C   UNL d   1      -0.606  -5.534   1.700  0.00  0.00    -0.034 A 
ATOM     14  C   UNL d   1      -1.730  -6.289   1.342  0.00  0.00     0.011 A 
ATOM     15  C   UNL d   1      -2.580  -6.803   2.327  0.00  0.00     0.024 A 
ATOM     16  C   UNL d   1      -2.307  -6.561   3.671  0.00  0.00     0.034 A 
ATOM     17  C   UNL d   1      -1.189  -5.816   4.040  0.00  0.00     0.024 A 
ATOM     18 CL   UNL d   1      -3.358  -7.180   4.885  0.00  0.00    -0.084 Cl
ATOM     19  C   UNL d   1      -0.339  -5.305   3.057  0.00  0.00     0.011 A 
ENDBRANCH  12  13
ENDBRANCH  11  12
ENDBRANCH   9  11
ENDBRANCH   1   9
BRANCH   2  20
ATOM     20  C   UNL d   1       2.530  -1.534  -0.091  0.00  0.00     0.433 C 
ATOM     21  F   UNL d   1       2.454  -2.862  -0.377  0.00  0.00    -0.165 F 
ATOM     22  F   UNL d   1       3.339  -1.025  -1.068  0.00  0.00    -0.165 F 
ATOM     23  F   UNL d   1       3.247  -1.441   1.065  0.00  0.00    -0.165 F 
ENDBRANCH   2  20
BRANCH   5  24
ATOM     24  S   UNL d   1       0.332   3.068   0.067  0.00  0.00    -0.054 SA
BRANCH  24  25
ATOM     25  C   UNL d   1       0.359   3.492  -1.666  0.00  0.00     0.008 A 
ATOM     26  C   UNL d   1      -0.603   4.378  -2.168  0.00  0.00     0.021 A 
ATOM     27  C   UNL d   1      -0.581   4.767  -3.512  0.00  0.00     0.025 A 
ATOM     28  C   UNL d   1       0.410   4.275  -4.357  0.00  0.00     0.034 A 
ATOM     29  C   UNL d   1       1.382   3.403  -3.869  0.00  0.00     0.025 A 
ATOM     30 CL   UNL d   1       0.442   4.753  -6.009  0.00  0.00    -0.084 Cl
ATOM     31  C   UNL d   1       1.359   3.018  -2.524  0.00  0.00     0.021 A 
ENDBRANCH  24  25
ENDBRANCH   5  24
TORSDOF 7
