REMARK  3 active torsions:
REMARK  status: ('A' for Active; 'I' for Inactive)
REMARK    1  A    between atoms: C_6  and  C_1 
REMARK    2  A    between atoms: C_9  and  C_4 
REMARK    3  A    between atoms: O_10  and  C_9 
ROOT
ATOM      1  C   UNL d   1       0.152   1.252  -0.095  0.00  0.00     0.032 A 
ATOM      2  S   UNL d   1      -1.018  -0.005  -0.117  0.00  0.00    -0.090 SA
ATOM      3  C   UNL d   1       1.425   0.726   0.052  0.00  0.00     0.022 A 
ATOM      4  C   UNL d   1       0.167  -1.232   0.011  0.00  0.00     0.007 A 
ATOM      5  C   UNL d   1       1.436  -0.698   0.096  0.00  0.00     0.018 A 
ENDROOT
BRANCH   1   6
ATOM      6  C   UNL d   1      -0.236   2.666  -0.205  0.00  0.00     0.049 A 
ATOM      7  N   UNL d   1       0.622   3.528   0.395  0.00  0.00    -0.365 N 
ATOM      8  C   UNL d   1       0.341   4.847   0.309  0.00  0.00     0.088 A 
ATOM      9  HN  UNL d   1       1.448   3.194   0.891  1.00  0.00     0.165 HD
ATOM     10  C   UNL d   1      -0.755   5.360  -0.363  0.00  0.00     0.017 A 
ATOM     11  C   UNL d   1      -1.621   4.467  -0.983  0.00  0.00     0.004 A 
ATOM     12  C   UNL d   1      -1.362   3.099  -0.902  0.00  0.00     0.031 A 
ENDBRANCH   1   6
BRANCH   4  13
ATOM     13  C   UNL d   1      -0.233  -2.669   0.023  0.00  0.00     0.210 C 
BRANCH  13  14
ATOM     14  O   UNL d   1       0.294  -3.267  -1.154  0.00  0.00    -0.396 OA
ATOM     15  H   UNL d   1      -0.022  -2.733  -1.903  0.00  0.00     0.209 HD
ENDBRANCH  13  14
ENDBRANCH   4  13
TORSDOF 3
