REMARK  5 active torsions:
REMARK  status: ('A' for Active; 'I' for Inactive)
REMARK    1  A    between atoms: C_7  and  C_4 
REMARK    2  A    between atoms: C_8  and  C_5 
REMARK    3  A    between atoms: C_13  and  C_6 
REMARK    4  A    between atoms: O_18  and  C_7 
REMARK    5  A    between atoms: O_19  and  C_8 
ROOT
ATOM      1  S   UNL d   1       0.897   1.498  -0.421  0.00  0.00     0.171 S 
ATOM      2  S   UNL d   1       0.872  -1.434  -0.310  0.00  0.00     0.171 S 
ATOM      3  C   UNL d   1       1.746   0.041   0.070  0.00  0.00     0.281 C 
ATOM      4  C   UNL d   1      -0.723  -1.241   0.435  0.00  0.00     0.218 C 
ATOM      5  C   UNL d   1      -0.769   1.355   0.184  0.00  0.00     0.218 C 
ATOM      6  C   UNL d   1      -1.459   0.001  -0.107  0.00  0.00     0.075 C 
ATOM      7  O   UNL d   1       1.527   2.586   0.302  0.00  0.00    -0.226 OA
ATOM      8  O   UNL d   1       0.874   1.519  -1.869  0.00  0.00    -0.226 OA
ATOM      9  O   UNL d   1       0.670  -1.510  -1.743  0.00  0.00    -0.226 OA
ATOM     10  O   UNL d   1       1.547  -2.527   0.366  0.00  0.00    -0.226 OA
ENDROOT
BRANCH   6  11
ATOM     11  C   UNL d   1      -2.913  -0.039   0.387  0.00  0.00    -0.050 A 
ATOM     12  C   UNL d   1      -3.301   0.529   1.612  0.00  0.00     0.009 A 
ATOM     13  C   UNL d   1      -4.635   0.500   2.024  0.00  0.00     0.024 A 
ATOM     14  C   UNL d   1      -5.597  -0.109   1.225  0.00  0.00     0.034 A 
ATOM     15  C   UNL d   1      -5.232  -0.698   0.018  0.00  0.00     0.024 A 
ATOM     16 CL   UNL d   1      -7.239  -0.133   1.736  0.00  0.00    -0.084 Cl
ATOM     17  C   UNL d   1      -3.897  -0.665  -0.399  0.00  0.00     0.009 A 
ENDBRANCH   6  11
BRANCH   4  18
ATOM     18  C   UNL d   1      -0.506  -1.212   1.920  0.00  0.00     0.278 C 
ATOM     19  O   UNL d   1       0.050  -0.277   2.482  0.00  0.00    -0.264 OA
BRANCH  18  20
ATOM     20  O   UNL d   1      -0.998  -2.311   2.537  0.00  0.00    -0.325 OA
ATOM     21  C   UNL d   1      -0.749  -2.369   3.947  0.00  0.00     0.213 C 
ENDBRANCH  18  20
ENDBRANCH   4  18
BRANCH   5  22
ATOM     22  C   UNL d   1      -1.526   2.498  -0.454  0.00  0.00     0.278 C 
ATOM     23  O   UNL d   1      -2.114   2.437  -1.524  0.00  0.00    -0.264 OA
BRANCH  22  24
ATOM     24  O   UNL d   1      -1.508   3.589   0.364  0.00  0.00    -0.325 OA
ATOM     25  C   UNL d   1      -2.197   4.731  -0.152  0.00  0.00     0.213 C 
ENDBRANCH  22  24
ENDBRANCH   5  22
TORSDOF 5
