REMARK  5 active torsions:
REMARK  status: ('A' for Active; 'I' for Inactive)
REMARK    1  A    between atoms: S_7  and  C_1 
REMARK    2  A    between atoms: C_19  and  S_7 
REMARK    3  A    between atoms: C_8  and  C_13 
REMARK    4  A    between atoms: C_9  and  C_19 
REMARK       I    between atoms: N_12  and  C_9 
REMARK    5  A    between atoms: C_23  and  N_12 
ROOT
ATOM      1  C   UNL d   1       0.772  -7.441   0.688  0.00  0.00     0.231 C 
ATOM      2  N   UNL d   1       0.380  -6.361  -0.078  0.00  0.00    -0.327 N 
ATOM      3  O   UNL d   1       0.015  -8.167   1.336  0.00  0.00    -0.272 OA
ATOM      4  H   UNL d   1       1.096  -5.915  -0.640  0.00  0.00     0.169 HD
ENDROOT
BRANCH   1   5
ATOM      5  C   UNL d   1       2.237  -7.825   0.617  0.00  0.00     0.182 C 
BRANCH   5   6
ATOM      6  S   UNL d   1       3.391  -6.419   0.619  0.00  0.00    -0.114 SA
BRANCH   6   7
ATOM      7  C   UNL d   1       4.899  -7.348   0.900  0.00  0.00     0.084 A 
ATOM      8  C   UNL d   1       5.384  -8.250  -0.061  0.00  0.00     0.177 A 
ATOM      9  C   UNL d   1       6.502  -9.035   0.195  0.00  0.00     0.198 A 
ATOM     10  F   UNL d   1       4.751  -8.380  -1.235  0.00  0.00    -0.201 F 
ATOM     11  F   UNL d   1       6.928  -9.907  -0.730  0.00  0.00    -0.199 F 
ATOM     12  C   UNL d   1       7.162  -8.934   1.409  0.00  0.00     0.199 A 
ATOM     13  C   UNL d   1       6.715  -8.031   2.364  0.00  0.00     0.198 A 
ATOM     14  F   UNL d   1       8.223  -9.713   1.664  0.00  0.00    -0.199 F 
ATOM     15  C   UNL d   1       5.597  -7.240   2.110  0.00  0.00     0.177 A 
ATOM     16  F   UNL d   1       7.349  -7.933   3.538  0.00  0.00    -0.199 F 
ATOM     17  F   UNL d   1       5.174  -6.393   3.060  0.00  0.00    -0.201 F 
ENDBRANCH   6   7
ENDBRANCH   5   6
ENDBRANCH   1   5
BRANCH   2  18
ATOM     18  C   UNL d   1      -0.916  -5.795  -0.132  0.00  0.00     0.034 A 
ATOM     19  C   UNL d   1      -1.959  -6.181   0.715  0.00  0.00     0.030 A 
ATOM     20  C   UNL d   1      -3.203  -5.545   0.662  0.00  0.00     0.011 A 
ATOM     21  C   UNL d   1      -3.449  -4.505  -0.244  0.00  0.00    -0.035 A 
ATOM     22  C   UNL d   1      -2.409  -4.140  -1.117  0.00  0.00     0.011 A 
ATOM     23  C   UNL d   1      -1.157  -4.773  -1.055  0.00  0.00     0.030 A 
BRANCH  21  24
ATOM     24  C   UNL d   1      -4.784  -3.791  -0.205  0.00  0.00     0.141 C 
ATOM     25  S   UNL d   1      -5.679  -3.852  -1.790  0.00  0.00    -0.148 SA
ATOM     26  C   UNL d   1      -6.270  -2.141  -1.758  0.00  0.00     0.085 C 
ATOM     27  C   UNL d   1      -5.145  -1.291  -1.199  0.00  0.00     0.085 C 
ATOM     28  S   UNL d   1      -4.607  -2.058   0.347  0.00  0.00    -0.148 SA
ENDBRANCH  21  24
ENDBRANCH   2  18
TORSDOF 5
