REMARK  2 active torsions:
REMARK  status: ('A' for Active; 'I' for Inactive)
REMARK    1  A    between atoms: C_8  and  C_4 
REMARK    2  A    between atoms: C_9  and  C_5 
ROOT
ATOM      1  C   UNL d   1      -0.557  -1.004  -0.298  0.00  0.00     0.004 C 
ATOM      2  C   UNL d   1      -0.099   0.927   1.126  0.00  0.00     0.052 C 
ATOM      3  C   UNL d   1      -1.055   0.329   0.144  0.00  0.00     0.195 C 
ATOM      4  C   UNL d   1      -1.424  -1.943  -0.716  0.00  0.00     0.025 C 
ATOM      5  C   UNL d   1      -0.223   2.083   1.792  0.00  0.00     0.035 C 
ATOM      6  S   UNL d   1       1.288  -0.095   1.365  0.00  0.00    -0.121 SA
ATOM      7  C   UNL d   1       0.915  -1.133  -0.075  0.00  0.00     0.122 C 
ATOM      8  O   UNL d   1      -2.099   0.827  -0.245  0.00  0.00    -0.286 OA
ENDROOT
BRANCH   4   9
ATOM      9  C   UNL d   1      -0.997  -3.320  -1.000  0.00  0.00    -0.014 A 
ATOM     10  C   UNL d   1      -0.977  -4.318  -0.012  0.00  0.00     0.044 A 
ATOM     11 CL   UNL d   1      -1.563  -4.026   1.590  0.00  0.00    -0.083 Cl
ATOM     12  C   UNL d   1      -0.459  -5.586  -0.294  0.00  0.00     0.024 A 
ATOM     13  C   UNL d   1       0.029  -5.870  -1.569  0.00  0.00     0.002 A 
ATOM     14  C   UNL d   1      -0.012  -4.896  -2.564  0.00  0.00     0.001 A 
ATOM     15  C   UNL d   1      -0.520  -3.624  -2.283  0.00  0.00     0.013 A 
ENDBRANCH   4   9
BRANCH   5  16
ATOM     16  C   UNL d   1      -1.327   3.041   1.663  0.00  0.00    -0.013 A 
ATOM     17  C   UNL d   1      -1.287   4.115   0.760  0.00  0.00     0.044 A 
ATOM     18 CL   UNL d   1       0.049   4.355  -0.312  0.00  0.00    -0.083 Cl
ATOM     19  C   UNL d   1      -2.334   5.041   0.719  0.00  0.00     0.024 A 
ATOM     20  C   UNL d   1      -3.430   4.895   1.569  0.00  0.00     0.002 A 
ATOM     21  C   UNL d   1      -3.485   3.822   2.457  0.00  0.00     0.001 A 
ATOM     22  C   UNL d   1      -2.438   2.899   2.505  0.00  0.00     0.013 A 
ENDBRANCH   5  16
TORSDOF 2
