REMARK  6 active torsions:
REMARK  status: ('A' for Active; 'I' for Inactive)
REMARK    1  A    between atoms: C_6  and  C_1 
REMARK    2  A    between atoms: S_8  and  C_3 
REMARK    3  A    between atoms: C_10  and  C_4 
REMARK    4  A    between atoms: O_14  and  C_6 
REMARK    5  A    between atoms: C_15  and  S_8 
REMARK    6  A    between atoms: C_20  and  C_15 
ROOT
ATOM      1  C   UNL d   1       1.325  -1.251   0.044  0.00  0.00     0.092 A 
ATOM      2  C   UNL d   1      -0.710  -0.086  -0.014  0.00  0.00     0.081 A 
ATOM      3  C   UNL d   1       0.190   0.961   0.046  0.00  0.00     0.063 A 
ATOM      4  C   UNL d   1      -0.065  -1.389   0.019  0.00  0.00     0.021 A 
ATOM      5  S   UNL d   1       1.797   0.398   0.038  0.00  0.00    -0.074 SA
ATOM      6  C   UNL d   1      -2.127   0.131  -0.103  0.00  0.00     0.102 C 
ATOM      7  N   UNL d   1      -3.273   0.306  -0.137  0.00  0.00    -0.191 NA
ENDROOT
BRANCH   4   8
ATOM      8  C   UNL d   1      -0.746  -2.705   0.003  0.00  0.00    -0.023 A 
ATOM      9  C   UNL d   1      -0.278  -3.769  -0.782  0.00  0.00     0.014 A 
ATOM     10  C   UNL d   1      -0.917  -5.018  -0.758  0.00  0.00     0.024 A 
ATOM     11  C   UNL d   1      -2.062  -5.198   0.009  0.00  0.00     0.034 A 
ATOM     12  C   UNL d   1      -2.567  -4.144   0.763  0.00  0.00     0.024 A 
ATOM     13 CL   UNL d   1      -2.852  -6.725   0.030  0.00  0.00    -0.084 Cl
ATOM     14  C   UNL d   1      -1.901  -2.912   0.774  0.00  0.00     0.014 A 
ENDBRANCH   4   8
BRANCH   3  15
ATOM     15  S   UNL d   1      -0.106   2.698   0.031  0.00  0.00    -0.121 SA
BRANCH  15  16
ATOM     16  C   UNL d   1      -1.009   2.989   1.590  0.00  0.00     0.084 C 
BRANCH  16  17
ATOM     17  C   UNL d   1      -0.275   2.609   2.889  0.00  0.00    -0.013 C 
ATOM     18  C   UNL d   1       1.056   3.341   3.071  0.00  0.00     0.010 C 
ATOM     19  C   UNL d   1      -1.183   2.913   4.088  0.00  0.00     0.010 C 
ENDBRANCH  16  17
ENDBRANCH  15  16
ENDBRANCH   3  15
BRANCH   1  20
ATOM     20  C   UNL d   1       2.377  -2.257   0.118  0.00  0.00     0.184 C 
ATOM     21  O   UNL d   1       2.295  -3.350   0.658  0.00  0.00    -0.646 OA
BRANCH  20  22
ATOM     22  O   UNL d   1       3.507  -1.879  -0.537  0.00  0.00    -0.772 OA
ATOM     23  H   UNL d   1       3.438  -0.983  -0.921  0.00  0.00     0.167 HD
ENDBRANCH  20  22
ENDBRANCH   1  20
TORSDOF 6
