REMARK  4 active torsions:
REMARK  status: ('A' for Active; 'I' for Inactive)
REMARK    1  A    between atoms: C_6  and  N_1 
REMARK    2  A    between atoms: C_8  and  C_2 
REMARK    3  A    between atoms: C_9  and  C_3 
REMARK    4  A    between atoms: O_18  and  C_9 
ROOT
ATOM      1  C   UNL d   1       2.236   1.593  -0.068  0.00  0.00     0.066 C 
ATOM      2  C   UNL d   1       2.912   1.988   1.024  0.00  0.00     0.126 C 
ATOM      3  N   UNL d   1       2.191   1.374   3.421  0.00  0.00    -0.191 NA
ATOM      4  N   UNL d   1       5.020   3.445   0.668  0.00  0.00    -0.191 NA
ATOM      5  C   UNL d   1       2.519   1.656   2.341  0.00  0.00     0.111 C 
ATOM      6  C   UNL d   1       4.069   2.802   0.838  0.00  0.00     0.111 C 
ENDROOT
BRANCH   1   7
ATOM      7  C   UNL d   1       1.034   0.824  -0.057  0.00  0.00     0.076 A 
ATOM      8  N   UNL d   1       0.983  -0.581  -0.072  0.00  0.00    -0.252 N 
ATOM      9  N   UNL d   1      -0.312  -0.997  -0.130  0.00  0.00    -0.303 N 
ATOM     10  C   UNL d   1      -1.053   0.102  -0.062  0.00  0.00     0.127 A 
ATOM     11  HN  UNL d   1      -0.645  -1.957  -0.208  1.00  0.00     0.186 HD
ATOM     12  C   UNL d   1      -0.288   1.274  -0.031  0.00  0.00     0.085 A 
BRANCH   8  13
ATOM     13  C   UNL d   1       2.005  -1.584  -0.044  0.00  0.00     0.100 A 
ATOM     14  C   UNL d   1       1.809  -2.759   0.727  0.00  0.00     0.064 A 
ATOM     15 CL   UNL d   1       0.481  -3.024   1.816  0.00  0.00    -0.082 Cl
ATOM     16  C   UNL d   1       2.764  -3.790   0.731  0.00  0.00     0.026 A 
ATOM     17  C   UNL d   1       3.946  -3.661   0.018  0.00  0.00     0.003 A 
ATOM     18  C   UNL d   1       4.159  -2.515  -0.736  0.00  0.00     0.026 A 
ATOM     19  C   UNL d   1       3.185  -1.502  -0.807  0.00  0.00     0.064 A 
ATOM     20 CL   UNL d   1       3.484  -0.345  -2.057  0.00  0.00    -0.082 Cl
ENDBRANCH   8  13
BRANCH  12  21
ATOM     21  C   UNL d   1      -0.743   2.648   0.019  0.00  0.00     0.296 C 
ATOM     22  O   UNL d   1       0.020   3.607   0.061  0.00  0.00    -0.259 OA
BRANCH  21  23
ATOM     23  O   UNL d   1      -2.104   2.747   0.012  0.00  0.00    -0.322 OA
ATOM     24  C   UNL d   1      -2.586   4.093   0.054  0.00  0.00     0.213 C 
ENDBRANCH  21  23
ENDBRANCH  12  21
ENDBRANCH   1   7
TORSDOF 4
