REMARK  2 active torsions:
REMARK  status: ('A' for Active; 'I' for Inactive)
REMARK    1  A    between atoms: C_2  and  S_1 
REMARK    2  A    between atoms: N_7  and  S_1 
ROOT
ATOM      1  S   UNL d   1       1.175   0.049   0.348  0.00  0.00     0.250 S 
ATOM      2  O   UNL d   1       1.780  -0.235  -0.938  0.00  0.00    -0.205 OA
ATOM      3  O   UNL d   1       1.997   0.352   1.496  0.00  0.00    -0.205 OA
ENDROOT
BRANCH   1   4
ATOM      4  C   UNL d   1       0.282  -1.442   0.738  0.00  0.00     0.117 A 
ATOM      5  S   UNL d   1       0.132  -1.847   2.399  0.00  0.00    -0.068 SA
ATOM      6  C   UNL d   1      -0.610  -3.329   2.035  0.00  0.00     0.070 A 
ATOM      7 BR   UNL d   1      -1.085  -4.554   3.375  0.00  0.00    -0.042 Br
ATOM      8  C   UNL d   1      -0.790  -3.505   0.688  0.00  0.00     0.037 A 
ATOM      9  C   UNL d   1      -0.296  -2.408  -0.069  0.00  0.00     0.053 A 
ATOM     10 BR   UNL d   1      -1.554  -5.001  -0.177  0.00  0.00    -0.049 Br
ENDBRANCH   1   4
BRANCH   1  11
ATOM     11  N   UNL d   1       0.084   1.332   0.112  0.00  0.00    -0.202 NA
ATOM     12  C   UNL d   1      -0.870   1.654   1.216  0.00  0.00     0.134 C 
ATOM     13  C   UNL d   1      -0.215   2.486   2.321  0.00  0.00     0.183 C 
ATOM     14  O   UNL d   1       0.342   3.696   1.788  0.00  0.00    -0.389 OA
ATOM     15  C   UNL d   1       1.338   3.402   0.797  0.00  0.00     0.183 C 
ATOM     16  C   UNL d   1       0.743   2.598  -0.367  0.00  0.00     0.134 C 
ENDBRANCH   1  11
TORSDOF 2
