REMARK  3 active torsions:
REMARK  status: ('A' for Active; 'I' for Inactive)
REMARK    1  A    between atoms: C_2  and  N_1 
REMARK    2  A    between atoms: C_3  and  S_4 
REMARK    3  A    between atoms: S_4  and  C_7 
ROOT
ATOM      1  C   UNL d   1       0.324   0.002  -1.381  0.00  0.00     0.118 A 
ATOM      2  N   UNL d   1      -1.596  -0.271  -2.817  0.00  0.00    -0.358 N 
ATOM      3  HN  UNL d   1      -2.488  -0.722  -3.024  1.00  0.00     0.166 HD
ATOM      4  C   UNL d   1      -1.067   0.656  -3.652  0.00  0.00     0.074 A 
ATOM      5  C   UNL d   1      -0.896  -0.577  -1.695  0.00  0.00     0.124 A 
ATOM      6  C   UNL d   1       0.863   0.950  -2.250  0.00  0.00     0.040 A 
ATOM      7  C   UNL d   1       0.150   1.286  -3.402  0.00  0.00     0.040 A 
ENDROOT
BRANCH   4   8
ATOM      8  S   UNL d   1      -2.036   1.107  -5.072  0.00  0.00    -0.071 SA
BRANCH   8   9
ATOM      9  C   UNL d   1      -1.510  -0.139  -6.246  0.00  0.00     0.030 A 
ATOM     10  C   UNL d   1      -2.209  -1.356  -6.270  0.00  0.00     0.044 A 
ATOM     11  C   UNL d   1      -1.888  -2.334  -7.212  0.00  0.00     0.035 A 
ATOM     12 CL   UNL d   1      -2.762  -3.816  -7.238  0.00  0.00    -0.084 Cl
ATOM     13  C   UNL d   1      -0.873  -2.119  -8.140  0.00  0.00     0.025 A 
ATOM     14  C   UNL d   1      -0.167  -0.916  -8.122  0.00  0.00     0.027 A 
ATOM     15  C   UNL d   1      -0.481   0.072  -7.181  0.00  0.00     0.051 A 
ATOM     16 CL   UNL d   1       0.442   1.534  -7.236  0.00  0.00    -0.083 Cl
ENDBRANCH   8   9
ENDBRANCH   4   8
BRANCH   1  17
ATOM     17  N   UNL d   1       1.018  -0.378  -0.159  0.00  0.00    -0.114 N 
ATOM     18  O   UNL d   1       0.468  -1.205   0.581  0.00  0.00    -0.532 OA
ATOM     19  O   UNL d   1       2.116   0.149   0.064  0.00  0.00    -0.532 OA
ENDBRANCH   1  17
TORSDOF 3
