REMARK  5 active torsions:
REMARK  status: ('A' for Active; 'I' for Inactive)
REMARK       I    between atoms: C_2  and  N_1 
REMARK       I    between atoms: N_7  and  C_2 
REMARK    1  A    between atoms: C_5  and  C_3 
REMARK    2  A    between atoms: C_6  and  C_5 
REMARK       I    between atoms: N_9  and  C_6 
REMARK    3  A    between atoms: C_13  and  N_7 
REMARK    4  A    between atoms: C_14  and  N_9 
REMARK    5  A    between atoms: O_28  and  C_18 
ROOT
ATOM      1  N   UNL d   1      -1.423  -0.982   0.504  0.00  0.00    -0.318 N 
ATOM      2  C   UNL d   1      -2.249  -1.955   1.052  0.00  0.00     0.323 C 
ATOM      3  C   UNL d   1       0.065  -1.074   0.572  0.00  0.00     0.189 C 
ATOM      4  C   UNL d   1       0.708   0.159   1.255  0.00  0.00     0.241 C 
ATOM      5  N   UNL d   1      -3.598  -1.695   1.000  0.00  0.00    -0.309 N 
ATOM      6  N   UNL d   1       0.055   1.359   1.111  0.00  0.00    -0.358 N 
ATOM      7  O   UNL d   1      -1.789  -2.964   1.569  0.00  0.00    -0.247 OA
ATOM      8  O   UNL d   1       1.827   0.150   1.760  0.00  0.00    -0.271 OA
ATOM      9  C   UNL d   1      -1.877   0.309  -0.039  0.00  0.00     0.148 C 
ATOM     10  C   UNL d   1      -1.362   1.457   0.829  0.00  0.00     0.142 C 
ATOM     11  H   UNL d   1      -3.927  -1.165   0.210  0.00  0.00     0.170 HD
ATOM     12  H   UNL d   1       0.524   2.136   1.564  0.00  0.00     0.162 HD
ENDROOT
BRANCH   3  13
ATOM     13  C   UNL d   1       0.775  -2.373   0.963  0.00  0.00     0.138 C 
BRANCH  13  14
ATOM     14  C   UNL d   1       0.863  -2.890   2.398  0.00  0.00     0.224 C 
ATOM     15  N   UNL d   1       0.270  -2.154   3.401  0.00  0.00    -0.327 N 
ATOM     16  H   UNL d   1      -0.250  -1.334   3.131  0.00  0.00     0.169 HD
ATOM     17  O   UNL d   1       1.471  -3.954   2.571  0.00  0.00    -0.273 OA
BRANCH  15  18
ATOM     18  C   UNL d   1       0.103  -2.549   4.751  0.00  0.00     0.034 A 
ATOM     19  C   UNL d   1       0.663  -3.704   5.303  0.00  0.00     0.032 A 
ATOM     20  C   UNL d   1       0.348  -4.105   6.606  0.00  0.00     0.039 A 
ATOM     21  C   UNL d   1      -0.532  -3.350   7.375  0.00  0.00     0.068 A 
ATOM     22  C   UNL d   1      -1.022  -2.147   6.873  0.00  0.00     0.039 A 
ATOM     23  C   UNL d   1      -0.712  -1.751   5.565  0.00  0.00     0.032 A 
BRANCH  21  24
ATOM     24  O   UNL d   1      -0.938  -3.703   8.632  0.00  0.00    -0.356 OA
ATOM     25  C   UNL d   1      -1.250  -5.092   8.753  0.00  0.00     0.210 C 
ENDBRANCH  21  24
ENDBRANCH  15  18
ENDBRANCH  13  14
ENDBRANCH   3  13
BRANCH   5  26
ATOM     26  C   UNL d   1      -4.613  -2.336   1.750  0.00  0.00     0.036 A 
ATOM     27  C   UNL d   1      -4.362  -3.219   2.807  0.00  0.00     0.032 A 
ATOM     28  C   UNL d   1      -5.419  -3.779   3.531  0.00  0.00     0.044 A 
ATOM     29  C   UNL d   1      -6.727  -3.445   3.209  0.00  0.00     0.116 A 
ATOM     30  C   UNL d   1      -6.999  -2.567   2.168  0.00  0.00     0.044 A 
ATOM     31  F   UNL d   1      -7.738  -3.967   3.915  0.00  0.00    -0.206 F 
ATOM     32  C   UNL d   1      -5.943  -2.016   1.436  0.00  0.00     0.032 A 
ENDBRANCH   5  26
TORSDOF 5
