REMARK  3 active torsions:
REMARK  status: ('A' for Active; 'I' for Inactive)
REMARK    1  A    between atoms: N_6  and  C_1 
REMARK    2  A    between atoms: C_9  and  C_2 
REMARK       I    between atoms: C_8  and  N_6 
REMARK       I    between atoms: N_11  and  C_8 
REMARK    3  A    between atoms: C_16  and  N_11 
ROOT
ATOM      1  N   UNL d   1      -0.440  -2.173  -0.241  0.00  0.00    -0.301 N 
ATOM      2  C   UNL d   1      -1.718  -2.643  -0.288  0.00  0.00     0.325 C 
ATOM      3  N   UNL d   1      -2.644  -2.046   0.526  0.00  0.00    -0.309 N 
ATOM      4  O   UNL d   1      -1.902  -3.667  -0.936  0.00  0.00    -0.247 OA
ATOM      5  H   UNL d   1       0.226  -2.907  -0.449  0.00  0.00     0.171 HD
ATOM      6  H   UNL d   1      -2.412  -1.141   0.899  0.00  0.00     0.170 HD
ENDROOT
BRANCH   1   7
ATOM      7  C   UNL d   1       0.080  -1.012   0.257  0.00  0.00     0.102 A 
ATOM      8  S   UNL d   1       1.636  -1.224   0.913  0.00  0.00    -0.051 SA
ATOM      9  C   UNL d   1       1.759   0.467   1.183  0.00  0.00     0.093 A 
ATOM     10  N   UNL d   1       0.677   1.150   0.856  0.00  0.00    -0.351 N 
ATOM     11  C   UNL d   1      -0.266   0.323   0.240  0.00  0.00     0.040 A 
ATOM     12  HN  UNL d   1       0.547   2.146   1.029  1.00  0.00     0.166 HD
ATOM     13  C   UNL d   1      -1.368   0.995  -0.495  0.00  0.00     0.071 C 
BRANCH   9  14
ATOM     14  C   UNL d   1       2.967   1.123   1.633  0.00  0.00     0.038 A 
ATOM     15  S   UNL d   1       4.466   0.307   1.855  0.00  0.00    -0.099 SA
ATOM     16  C   UNL d   1       5.295   1.757   2.208  0.00  0.00     0.050 A 
ATOM     17  C   UNL d   1       4.453   2.844   2.202  0.00  0.00     0.008 A 
ATOM     18  C   UNL d   1       3.112   2.477   1.883  0.00  0.00     0.022 A 
ENDBRANCH   9  14
ENDBRANCH   1   7
BRANCH   3  19
ATOM     19  C   UNL d   1      -3.789  -2.678   1.079  0.00  0.00     0.036 A 
ATOM     20  C   UNL d   1      -4.111  -4.026   0.879  0.00  0.00     0.031 A 
ATOM     21  C   UNL d   1      -5.143  -4.636   1.604  0.00  0.00     0.026 A 
ATOM     22  C   UNL d   1      -5.876  -3.891   2.521  0.00  0.00     0.034 A 
ATOM     23  C   UNL d   1      -5.616  -2.533   2.683  0.00  0.00     0.026 A 
ATOM     24 CL   UNL d   1      -7.081  -4.658   3.479  0.00  0.00    -0.084 Cl
ATOM     25  C   UNL d   1      -4.578  -1.928   1.962  0.00  0.00     0.031 A 
ENDBRANCH   3  19
TORSDOF 3
