REMARK  4 active torsions:
REMARK  status: ('A' for Active; 'I' for Inactive)
REMARK    1  A    between atoms: C_2  and  C_1 
REMARK       I    between atoms: N_5  and  C_1 
REMARK       I    between atoms: C_3  and  N_4 
REMARK    2  A    between atoms: C_8  and  C_3 
REMARK    3  A    between atoms: N_4  and  C_6 
REMARK    4  A    between atoms: C_9  and  N_5 
ROOT
ATOM      1  C   UNL d   1       0.097   1.351   0.681  0.00  0.00     0.058 A 
ATOM      2  C   UNL d   1       0.688   2.173  -0.295  0.00  0.00     0.050 A 
ATOM      3  C   UNL d   1      -1.042   1.791   1.387  0.00  0.00     0.019 A 
ATOM      4  C   UNL d   1       0.090   3.411  -0.567  0.00  0.00     0.030 A 
ATOM      5  C   UNL d   1      -1.621   3.020   1.098  0.00  0.00     0.001 A 
ATOM      6  C   UNL d   1      -1.060   3.826   0.116  0.00  0.00     0.002 A 
ENDROOT
BRANCH   1   7
ATOM      7  C   UNL d   1       0.576  -0.043   0.934  0.00  0.00     0.254 C 
ATOM      8  N   UNL d   1      -0.433  -0.939   1.181  0.00  0.00    -0.344 N 
ATOM      9  H   UNL d   1      -1.364  -0.688   0.858  0.00  0.00     0.163 HD
ATOM     10  O   UNL d   1       1.766  -0.322   0.876  0.00  0.00    -0.268 OA
BRANCH   8  11
ATOM     11  C   UNL d   1      -0.243  -2.373   1.361  0.00  0.00     0.177 C 
ATOM     12  C   UNL d   1      -1.132  -3.063   0.310  0.00  0.00     0.240 C 
ATOM     13  N   UNL d   1      -1.047  -4.418   0.191  0.00  0.00    -0.359 N 
ATOM     14  O   UNL d   1      -1.953  -2.445  -0.371  0.00  0.00    -0.271 OA
ATOM     15  C   UNL d   1      -0.184  -5.283   0.961  0.00  0.00     0.122 C 
ATOM     16  H   UNL d   1      -1.684  -4.821  -0.486  0.00  0.00     0.162 HD
ATOM     17  C   UNL d   1      -0.593  -5.338   2.429  0.00  0.00     0.020 C 
ATOM     18  C   UNL d   1      -0.163  -4.118   3.245  0.00  0.00     0.004 C 
ATOM     19  C   UNL d   1      -0.713  -2.775   2.765  0.00  0.00     0.035 C 
ENDBRANCH   8  11
ENDBRANCH   1   7
BRANCH   2  20
ATOM     20  N   UNL d   1       1.872   1.767  -0.956  0.00  0.00    -0.322 N 
ATOM     21  C   UNL d   1       2.305   2.197  -2.200  0.00  0.00     0.263 C 
ATOM     22  O   UNL d   1       1.608   2.867  -2.962  0.00  0.00    -0.267 OA
ATOM     23  H   UNL d   1       2.390   0.999  -0.525  0.00  0.00     0.169 HD
BRANCH  21  24
ATOM     24  C   UNL d   1       3.638   1.754  -2.600  0.00  0.00     0.072 A 
ATOM     25  S   UNL d   1       4.790   1.163  -1.479  0.00  0.00    -0.097 SA
ATOM     26  C   UNL d   1       5.981   0.976  -2.693  0.00  0.00     0.050 A 
ATOM     27  C   UNL d   1       5.514   1.340  -3.936  0.00  0.00     0.009 A 
ATOM     28  C   UNL d   1       4.166   1.796  -3.879  0.00  0.00     0.025 A 
ENDBRANCH  21  24
ENDBRANCH   2  20
TORSDOF 4
