REMARK  5 active torsions:
REMARK  status: ('A' for Active; 'I' for Inactive)
REMARK    1  A    between atoms: N_2  and  C_1 
REMARK    2  A    between atoms: C_3  and  C_6 
REMARK       I    between atoms: N_7  and  C_3 
REMARK    3  A    between atoms: O_9  and  C_5 
REMARK    4  A    between atoms: C_14  and  N_7 
REMARK    5  A    between atoms: C_15  and  O_9 
ROOT
ATOM      1  C   UNL d   1       1.479  -0.347   0.259  0.00  0.00     0.137 A 
ATOM      2  C   UNL d   1       0.513  -1.365   0.274  0.00  0.00     0.056 A 
ATOM      3  C   UNL d   1       1.113   0.996   0.152  0.00  0.00     0.109 A 
ATOM      4  C   UNL d   1      -0.854  -1.048   0.294  0.00  0.00     0.034 A 
ATOM      5  C   UNL d   1      -0.252   1.307   0.234  0.00  0.00     0.041 A 
ATOM      6  C   UNL d   1      -1.228   0.301   0.325  0.00  0.00     0.020 A 
ENDROOT
BRANCH   4   7
ATOM      7  C   UNL d   1      -1.819  -2.194   0.321  0.00  0.00     0.256 C 
ATOM      8  N   UNL d   1      -3.170  -1.906   0.208  0.00  0.00    -0.323 N 
ATOM      9  H   UNL d   1      -3.445  -0.963  -0.021  0.00  0.00     0.169 HD
ATOM     10  O   UNL d   1      -1.339  -3.322   0.393  0.00  0.00    -0.267 OA
BRANCH   8  11
ATOM     11  C   UNL d   1      -4.213  -2.862   0.178  0.00  0.00     0.035 A 
ATOM     12  C   UNL d   1      -4.045  -4.200   0.549  0.00  0.00     0.031 A 
ATOM     13  C   UNL d   1      -5.088  -5.119   0.404  0.00  0.00     0.026 A 
ATOM     14  C   UNL d   1      -6.313  -4.701  -0.103  0.00  0.00     0.034 A 
ATOM     15  C   UNL d   1      -6.515  -3.361  -0.425  0.00  0.00     0.026 A 
ATOM     16 CL   UNL d   1      -7.574  -5.844  -0.345  0.00  0.00    -0.084 Cl
ATOM     17  C   UNL d   1      -5.471  -2.441  -0.272  0.00  0.00     0.031 A 
ENDBRANCH   8  11
ENDBRANCH   4   7
BRANCH   1  18
ATOM     18  N   UNL d   1       2.854  -0.759   0.471  0.00  0.00    -0.113 N 
ATOM     19  O   UNL d   1       3.308  -1.613  -0.296  0.00  0.00    -0.532 OA
ATOM     20  O   UNL d   1       3.450  -0.258   1.438  0.00  0.00    -0.532 OA
ENDBRANCH   1  18
BRANCH   3  21
ATOM     21  O   UNL d   1       1.930   2.095   0.054  0.00  0.00    -0.308 OA
BRANCH  21  22
ATOM     22  C   UNL d   1       3.090   2.071  -0.685  0.00  0.00     0.076 A 
ATOM     23  C   UNL d   1       3.327   1.271  -1.806  0.00  0.00     0.039 A 
ATOM     24  C   UNL d   1       4.600   1.248  -2.387  0.00  0.00     0.026 A 
ATOM     25  C   UNL d   1       5.607   2.078  -1.894  0.00  0.00     0.034 A 
ATOM     26  C   UNL d   1       5.345   2.953  -0.844  0.00  0.00     0.026 A 
ATOM     27 CL   UNL d   1       7.183   2.018  -2.582  0.00  0.00    -0.084 Cl
ATOM     28  C   UNL d   1       4.085   2.949  -0.242  0.00  0.00     0.039 A 
ENDBRANCH  21  22
ENDBRANCH   3  21
TORSDOF 5
