REMARK  2 active torsions:
REMARK  status: ('A' for Active; 'I' for Inactive)
REMARK    1  A    between atoms: C_6  and  C_5 
REMARK    2  A    between atoms: O_14  and  C_11 
ROOT
ATOM      1  N   UNL d   1      -0.415  -2.476  -2.092  0.00  0.00    -0.277 N 
ATOM      2  C   UNL d   1       0.164  -2.325  -0.867  0.00  0.00     0.253 A 
ATOM      3  C   UNL d   1      -1.558  -1.756  -2.179  0.00  0.00     0.323 A 
ATOM      4  N   UNL d   1      -1.729  -1.063  -1.006  0.00  0.00    -0.325 N 
ATOM      5  C   UNL d   1      -0.705  -1.371  -0.039  0.00  0.00     0.212 A 
ATOM      6  O   UNL d   1       1.198  -2.869  -0.512  0.00  0.00    -0.270 OA
ATOM      7  O   UNL d   1      -2.323  -1.732  -3.124  0.00  0.00    -0.247 OA
ATOM      8  H   UNL d   1      -0.070  -3.077  -2.820  0.00  0.00     0.173 HD
ATOM      9  H   UNL d   1      -2.555  -0.507  -0.831  0.00  0.00     0.165 HD
ENDROOT
BRANCH   5  10
ATOM     10  C   UNL d   1      -1.278  -1.983   1.215  0.00  0.00    -0.026 A 
ATOM     11  C   UNL d   1      -0.959  -1.447   2.470  0.00  0.00     0.012 A 
ATOM     12  C   UNL d   1      -1.506  -1.984   3.643  0.00  0.00     0.037 A 
ATOM     13  C   UNL d   1      -2.380  -3.068   3.577  0.00  0.00     0.068 A 
ATOM     14  C   UNL d   1      -2.688  -3.619   2.333  0.00  0.00     0.037 A 
ATOM     15  C   UNL d   1      -2.145  -3.085   1.162  0.00  0.00     0.012 A 
BRANCH  13  16
ATOM     16  O   UNL d   1      -2.991  -3.678   4.637  0.00  0.00    -0.356 OA
ATOM     17  C   UNL d   1      -2.759  -3.119   5.923  0.00  0.00     0.210 C 
ENDBRANCH  13  16
ENDBRANCH   5  10
TORSDOF 2
