REMARK  4 active torsions:
REMARK  status: ('A' for Active; 'I' for Inactive)
REMARK    1  A    between atoms: C_5  and  C_3 
REMARK    2  A    between atoms: C_9  and  C_5 
REMARK    3  A    between atoms: O_13  and  C_9 
REMARK    4  A    between atoms: C_14  and  O_13 
ROOT
ATOM      1  C   UNL d   1      -0.317  -1.639  -1.442  0.00  0.00     0.146 C 
ATOM      2  N   UNL d   1       0.537  -0.820  -0.765  0.00  0.00    -0.329 N 
ATOM      3  C   UNL d   1       0.341   0.537  -0.977  0.00  0.00     0.029 C 
ATOM      4  S   UNL d   1      -1.701  -0.731  -1.982  0.00  0.00    -0.064 SA
ATOM      5  C   UNL d   1      -0.851   0.775  -1.579  0.00  0.00     0.079 C 
ATOM      6  N   UNL d   1       0.028  -2.873  -1.665  0.00  0.00    -0.369 N 
ATOM      7  HN  UNL d   1      -0.507  -3.636  -2.078  1.00  0.00     0.161 HD
ATOM      8  C   UNL d   1       1.449  -2.856  -1.137  0.00  0.00     0.142 C 
ATOM      9  C   UNL d   1       1.572  -1.633  -0.204  0.00  0.00     0.150 C 
ENDROOT
BRANCH   3  10
ATOM     10  C   UNL d   1       1.467   1.500  -0.740  0.00  0.00     0.168 C 
BRANCH  10  11
ATOM     11  C   UNL d   1       1.131   2.965  -0.604  0.00  0.00     0.264 C 
ATOM     12  O   UNL d   1       0.034   3.440  -0.313  0.00  0.00    -0.265 OA
BRANCH  11  13
ATOM     13  O   UNL d   1       2.266   3.691  -0.813  0.00  0.00    -0.322 OA
BRANCH  13  14
ATOM     14  C   UNL d   1       2.151   5.114  -0.690  0.00  0.00     0.174 C 
ATOM     15  C   UNL d   1       2.332   5.525   0.758  0.00  0.00     0.034 C 
ENDBRANCH  13  14
ENDBRANCH  11  13
ENDBRANCH  10  11
ENDBRANCH   3  10
TORSDOF 4
