REMARK  2 active torsions:
REMARK  status: ('A' for Active; 'I' for Inactive)
REMARK       I    between atoms: C_3  and  N_6 
REMARK       I    between atoms: N_13  and  C_3 
REMARK    1  A    between atoms: C_7  and  C_4 
REMARK    2  A    between atoms: N_6  and  C_12 
ROOT
ATOM      1  C   UNL d   1       1.833   2.381  -0.132  0.00  0.00    -0.007 A 
ATOM      2  C   UNL d   1       1.604   3.222   0.974  0.00  0.00     0.043 A 
ATOM      3  C   UNL d   1       2.279   4.433   1.151  0.00  0.00     0.037 A 
ATOM      4  C   UNL d   1       2.808   2.784  -1.056  0.00  0.00     0.014 A 
ATOM      5  C   UNL d   1       3.505   3.985  -0.889  0.00  0.00     0.003 A 
ATOM      6  C   UNL d   1       3.237   4.809   0.208  0.00  0.00     0.029 A 
ENDROOT
BRANCH   1   7
ATOM      7  C   UNL d   1       1.076   1.121  -0.290  0.00  0.00     0.045 A 
ATOM      8  N   UNL d   1       1.736   0.101  -0.882  0.00  0.00    -0.345 N 
ATOM      9  C   UNL d   1       1.087  -1.075  -0.983  0.00  0.00     0.077 A 
ATOM     10  HN  UNL d   1       2.686   0.216  -1.236  1.00  0.00     0.167 HD
ATOM     11  N   UNL d   1      -0.168  -1.303  -0.554  0.00  0.00    -0.356 N 
ATOM     12  C   UNL d   1       1.815  -2.226  -1.600  0.00  0.00     0.089 C 
ATOM     13  C   UNL d   1      -0.798  -0.262   0.011  0.00  0.00     0.091 A 
ATOM     14  HN  UNL d   1      -0.614  -2.215  -0.652  1.00  0.00     0.166 HD
ATOM     15  C   UNL d   1      -0.225   0.977   0.163  0.00  0.00     0.047 A 
ENDBRANCH   1   7
BRANCH   3  16
ATOM     16  N   UNL d   1       2.046   5.292   2.248  0.00  0.00    -0.309 N 
ATOM     17  C   UNL d   1       1.101   5.126   3.244  0.00  0.00     0.320 C 
ATOM     18  O   UNL d   1       0.271   4.230   3.319  0.00  0.00    -0.247 OA
ATOM     19  N   UNL d   1       1.182   6.119   4.194  0.00  0.00    -0.347 N 
ATOM     20  C   UNL d   1       0.337   6.112   5.364  0.00  0.00     0.151 C 
ATOM     21  H   UNL d   1       1.937   6.784   4.157  0.00  0.00     0.163 HD
ATOM     22  H   UNL d   1       2.589   6.139   2.279  0.00  0.00     0.170 HD
ENDBRANCH   3  16
TORSDOF 2
