REMARK  6 active torsions:
REMARK  status: ('A' for Active; 'I' for Inactive)
REMARK       I    between atoms: N_2  and  C_1 
REMARK    1  A    between atoms: C_14  and  C_1 
REMARK    2  A    between atoms: C_3  and  N_2 
REMARK    3  A    between atoms: S_6  and  C_14 
REMARK    4  A    between atoms: C_17  and  S_6 
REMARK    5  A    between atoms: S_9  and  C_7 
REMARK    6  A    between atoms: C_10  and  C_17 
ROOT
ATOM      1  C   UNL d   1       1.318   0.135  -0.073  0.00  0.00     0.231 C 
ATOM      2  N   UNL d   1       0.563  -0.780  -0.780  0.00  0.00    -0.326 N 
ATOM      3  O   UNL d   1       0.859   1.046   0.624  0.00  0.00    -0.272 OA
ATOM      4  H   UNL d   1       1.072  -1.563  -1.181  0.00  0.00     0.169 HD
ENDROOT
BRANCH   1   5
ATOM      5  C   UNL d   1       2.831  -0.009  -0.138  0.00  0.00     0.177 C 
BRANCH   5   6
ATOM      6  S   UNL d   1       3.464  -1.406  -1.099  0.00  0.00    -0.155 SA
BRANCH   6   7
ATOM      7  C   UNL d   1       5.248  -1.116  -0.799  0.00  0.00     0.112 C 
BRANCH   7   8
ATOM      8  C   UNL d   1       6.091  -2.101  -1.569  0.00  0.00    -0.049 A 
ATOM      9  C   UNL d   1       6.545  -1.792  -2.860  0.00  0.00     0.009 A 
ATOM     10  C   UNL d   1       7.236  -2.744  -3.614  0.00  0.00     0.024 A 
ATOM     11  C   UNL d   1       7.480  -4.006  -3.078  0.00  0.00     0.034 A 
ATOM     12  C   UNL d   1       7.069  -4.315  -1.784  0.00  0.00     0.024 A 
ATOM     13 CL   UNL d   1       8.273  -5.200  -4.031  0.00  0.00    -0.084 Cl
ATOM     14  C   UNL d   1       6.378  -3.364  -1.029  0.00  0.00     0.009 A 
ENDBRANCH   7   8
ENDBRANCH   6   7
ENDBRANCH   5   6
ENDBRANCH   1   5
BRANCH   2  15
ATOM     15  C   UNL d   1      -0.853  -0.829  -0.828  0.00  0.00     0.035 A 
ATOM     16  C   UNL d   1      -1.666   0.244  -0.444  0.00  0.00     0.048 A 
ATOM     17  C   UNL d   1      -3.062   0.132  -0.398  0.00  0.00     0.002 A 
ATOM     18  C   UNL d   1      -3.649  -1.073  -0.792  0.00  0.00     0.018 A 
ATOM     19  C   UNL d   1      -2.856  -2.133  -1.234  0.00  0.00     0.004 A 
ATOM     20  C   UNL d   1      -1.464  -2.009  -1.260  0.00  0.00     0.029 A 
BRANCH  17  21
ATOM     21  S   UNL d   1      -4.147   1.452   0.139  0.00  0.00    -0.134 SA
ATOM     22  C   UNL d   1      -3.042   2.485   1.146  0.00  0.00     0.095 C 
ENDBRANCH  17  21
ENDBRANCH   2  15
TORSDOF 6
