REMARK  2 active torsions:
REMARK  status: ('A' for Active; 'I' for Inactive)
REMARK    1  A    between atoms: C_5  and  C_1 
REMARK    2  A    between atoms: C_13  and  C_4 
ROOT
ATOM      1  C   UNL d   1      -0.002  -1.309  -0.028  0.00  0.00     0.051 A 
ATOM      2  N   UNL d   1      -1.321   0.548   0.090  0.00  0.00    -0.259 N 
ATOM      3  HN  UNL d   1      -2.129   1.169   0.140  1.00  0.00     0.195 HD
ATOM      4  C   UNL d   1      -1.343  -0.797   0.044  0.00  0.00     0.080 A 
ATOM      5  O   UNL d   1      -0.002   0.922   0.057  0.00  0.00    -0.241 OA
ATOM      6  C   UNL d   1       0.790  -0.176  -0.018  0.00  0.00     0.087 A 
ATOM      7  C   UNL d   1       2.238   0.106  -0.087  0.00  0.00     0.080 C 
ENDROOT
BRANCH   1   8
ATOM      8  C   UNL d   1       0.488  -2.673  -0.146  0.00  0.00     0.050 A 
ATOM      9  N   UNL d   1      -0.284  -3.504  -0.875  0.00  0.00    -0.345 N 
ATOM     10  C   UNL d   1       0.101  -4.788  -0.962  0.00  0.00     0.077 A 
ATOM     11  HN  UNL d   1      -1.127  -3.171  -1.342  1.00  0.00     0.167 HD
ATOM     12  C   UNL d   1      -0.791  -5.739  -1.697  0.00  0.00     0.089 C 
ATOM     13  N   UNL d   1       1.217  -5.288  -0.403  0.00  0.00    -0.356 N 
ATOM     14  C   UNL d   1       1.966  -4.426   0.303  0.00  0.00     0.091 A 
ATOM     15  HN  UNL d   1       1.480  -6.268  -0.510  1.00  0.00     0.166 HD
ATOM     16  C   UNL d   1       1.640  -3.102   0.477  0.00  0.00     0.047 A 
ENDBRANCH   1   8
BRANCH   4  17
ATOM     17  C   UNL d   1      -2.629  -1.501   0.092  0.00  0.00    -0.007 A 
ATOM     18  C   UNL d   1      -3.754  -0.957  -0.546  0.00  0.00     0.014 A 
ATOM     19  C   UNL d   1      -4.989  -1.609  -0.500  0.00  0.00     0.001 A 
ATOM     20  C   UNL d   1      -5.115  -2.815   0.186  0.00  0.00     0.000 A 
ATOM     21  C   UNL d   1      -4.010  -3.362   0.833  0.00  0.00     0.001 A 
ATOM     22  C   UNL d   1      -2.778  -2.703   0.797  0.00  0.00     0.014 A 
ENDBRANCH   4  17
TORSDOF 2
