REMARK  4 active torsions:
REMARK  status: ('A' for Active; 'I' for Inactive)
REMARK    1  A    between atoms: C_7  and  C_1 
REMARK    2  A    between atoms: C_9  and  C_3 
REMARK       I    between atoms: N_12  and  C_7 
REMARK    3  A    between atoms: C_8  and  C_15 
REMARK    4  A    between atoms: N_10  and  N_12 
ROOT
ATOM      1  C   UNL d   1      -0.249  -2.575  -0.014  0.00  0.00     0.279 C 
ATOM      2  N   UNL d   1       0.918  -3.340  -0.069  0.00  0.00    -0.266 N 
ATOM      3  O   UNL d   1      -1.367  -3.092   0.033  0.00  0.00    -0.265 OA
ATOM      4  H   UNL d   1       1.829  -2.899  -0.086  0.00  0.00     0.190 HD
ENDROOT
BRANCH   1   5
ATOM      5  C   UNL d   1      -0.086  -1.127  -0.009  0.00  0.00     0.098 A 
ATOM      6  S   UNL d   1       1.436  -0.340  -0.038  0.00  0.00    -0.064 SA
ATOM      7  C   UNL d   1       0.659   1.200  -0.011  0.00  0.00     0.086 A 
ATOM      8  N   UNL d   1      -0.655   1.144   0.045  0.00  0.00    -0.352 N 
ATOM      9  C   UNL d   1      -1.093  -0.172   0.019  0.00  0.00     0.029 A 
ATOM     10  HN  UNL d   1      -1.267   1.958   0.100  1.00  0.00     0.166 HD
ATOM     11  C   UNL d   1      -2.562  -0.420   0.021  0.00  0.00     0.070 C 
BRANCH   7  12
ATOM     12  C   UNL d   1       1.423   2.452  -0.018  0.00  0.00     0.013 A 
ATOM     13  C   UNL d   1       0.905   3.588   0.604  0.00  0.00     0.101 A 
ATOM     14  N   UNL d   1       1.527   4.795   0.652  0.00  0.00    -0.374 N 
ATOM     15  C   UNL d   1       2.720   4.888   0.032  0.00  0.00     0.087 A 
ATOM     16  HN  UNL d   1       1.111   5.593   1.134  1.00  0.00     0.164 HD
ATOM     17  C   UNL d   1       3.318   3.831  -0.633  0.00  0.00     0.018 A 
ATOM     18  C   UNL d   1       2.660   2.601  -0.656  0.00  0.00     0.017 A 
ENDBRANCH   7  12
ENDBRANCH   1   5
BRANCH   2  19
ATOM     19  N   UNL d   1       0.804  -4.700  -0.053  0.00  0.00    -0.308 N 
ATOM     20  C   UNL d   1       1.886  -5.407  -0.057  0.00  0.00     0.123 C 
ATOM     21  HN  UNL d   1      -0.112  -5.148  -0.037  1.00  0.00     0.186 HD
BRANCH  20  22
ATOM     22  C   UNL d   1       1.806  -6.883   0.000  0.00  0.00     0.041 A 
ATOM     23  C   UNL d   1       0.685  -7.543  -0.514  0.00  0.00     0.129 A 
ATOM     24  F   UNL d   1      -0.285  -6.876  -1.156  0.00  0.00    -0.205 F 
ATOM     25  C   UNL d   1       0.550  -8.928  -0.411  0.00  0.00     0.043 A 
ATOM     26  C   UNL d   1       1.544  -9.677   0.207  0.00  0.00     0.005 A 
ATOM     27  C   UNL d   1       2.679  -9.037   0.707  0.00  0.00     0.025 A 
ATOM     28  C   UNL d   1       2.816  -7.644   0.601  0.00  0.00     0.048 A 
ATOM     29 CL   UNL d   1       4.242  -6.935   1.272  0.00  0.00    -0.083 Cl
ENDBRANCH  20  22
ENDBRANCH   2  19
TORSDOF 4
