REMARK  4 active torsions:
REMARK  status: ('A' for Active; 'I' for Inactive)
REMARK    1  A    between atoms: N_2  and  S_1 
REMARK    2  A    between atoms: C_4  and  S_1 
REMARK    3  A    between atoms: C_3  and  N_2 
REMARK    4  A    between atoms: C_9  and  C_3 
ROOT
ATOM      1  N   UNL d   1       0.581  -0.973   1.299  0.00  0.00    -0.265 N 
ATOM      2  H   UNL d   1       0.114  -0.427   2.019  0.00  0.00     0.180 HD
ENDROOT
BRANCH   1   3
ATOM      3  S   UNL d   1       0.932  -0.068  -0.058  0.00  0.00     0.264 S 
ATOM      4  O   UNL d   1       2.176  -0.534  -0.631  0.00  0.00    -0.200 OA
ATOM      5  O   UNL d   1       0.708   1.315   0.297  0.00  0.00    -0.200 OA
BRANCH   3   6
ATOM      6  C   UNL d   1      -0.398  -0.590  -1.116  0.00  0.00     0.081 A 
ATOM      7  C   UNL d   1      -1.573   0.166  -1.167  0.00  0.00     0.050 A 
ATOM      8  C   UNL d   1      -2.661  -0.306  -1.905  0.00  0.00     0.057 A 
ATOM      9 CL   UNL d   1      -4.105   0.642  -1.894  0.00  0.00    -0.083 Cl
ATOM     10  C   UNL d   1      -2.567  -1.522  -2.597  0.00  0.00     0.055 A 
ATOM     11  C   UNL d   1      -1.373  -2.251  -2.568  0.00  0.00     0.027 A 
ATOM     12 CL   UNL d   1      -3.891  -2.187  -3.484  0.00  0.00    -0.083 Cl
ATOM     13  C   UNL d   1      -0.282  -1.784  -1.833  0.00  0.00     0.027 A 
ENDBRANCH   3   6
ENDBRANCH   1   3
BRANCH   1  14
ATOM     14  C   UNL d   1       0.845  -2.333   1.488  0.00  0.00     0.118 C 
ATOM     15  N   UNL d   1       1.750  -2.954   0.821  0.00  0.00    -0.384 N 
ATOM     16  H   UNL d   1       2.256  -2.296   0.209  0.00  0.00     0.157 HD
ATOM     17  HN  UNL d   1       1.941  -3.954   0.886  1.00  0.00     0.157 HD
BRANCH  14  18
ATOM     18  C   UNL d   1      -0.002  -3.041   2.482  0.00  0.00     0.008 A 
ATOM     19  C   UNL d   1      -1.298  -2.605   2.795  0.00  0.00     0.017 A 
ATOM     20  C   UNL d   1      -2.104  -3.366   3.648  0.00  0.00     0.025 A 
ATOM     21  C   UNL d   1      -1.617  -4.553   4.194  0.00  0.00     0.034 A 
ATOM     22  C   UNL d   1      -0.321  -4.979   3.912  0.00  0.00     0.025 A 
ATOM     23 CL   UNL d   1      -2.633  -5.513   5.196  0.00  0.00    -0.084 Cl
ATOM     24  C   UNL d   1       0.486  -4.224   3.057  0.00  0.00     0.017 A 
ENDBRANCH  14  18
ENDBRANCH   1  14
TORSDOF 4
