REMARK  3 active torsions:
REMARK  status: ('A' for Active; 'I' for Inactive)
REMARK    1  A    between atoms: C_9  and  C_3 
REMARK    2  A    between atoms: O_11  and  C_9 
REMARK    3  A    between atoms: C_12  and  O_11 
ROOT
ATOM      1  N   UNL d   1       5.125  -9.325  -0.087  0.00  0.00    -0.191 NA
ATOM      2  C   UNL d   1       4.456  -8.375  -0.071  0.00  0.00     0.099 C 
ATOM      3  C   UNL d   1       3.642  -7.197  -0.052  0.00  0.00     0.044 A 
ATOM      4  C   UNL d   1       2.099  -4.859  -0.081  0.00  0.00     0.069 A 
ATOM      5  C   UNL d   1       4.081  -6.057   0.627  0.00  0.00     0.025 A 
ATOM      6  C   UNL d   1       2.412  -7.176  -0.717  0.00  0.00     0.025 A 
ATOM      7  C   UNL d   1       3.305  -4.895   0.623  0.00  0.00     0.038 A 
ATOM      8  C   UNL d   1       1.641  -6.011  -0.723  0.00  0.00     0.038 A 
ENDROOT
BRANCH   4   9
ATOM      9  O   UNL d   1       1.297  -3.755  -0.201  0.00  0.00    -0.345 OA
BRANCH   9  10
ATOM     10  C   UNL d   1       1.984  -2.501  -0.084  0.00  0.00     0.233 C 
BRANCH  10  11
ATOM     11  C   UNL d   1       1.236  -1.381  -0.736  0.00  0.00     0.041 A 
ATOM     12  N   UNL d   1       1.974  -0.369  -1.338  0.00  0.00    -0.355 N 
ATOM     13  C   UNL d   1       1.171   0.529  -1.865  0.00  0.00     0.047 A 
ATOM     14  HN  UNL d   1       2.993  -0.328  -1.367  1.00  0.00     0.166 HD
ATOM     15  S   UNL d   1      -0.507   0.233  -1.651  0.00  0.00    -0.087 SA
ATOM     16  C   UNL d   1       1.636   1.734  -2.603  0.00  0.00     0.076 C 
ATOM     17  C   UNL d   1      -0.133  -1.209  -0.802  0.00  0.00     0.078 A 
ENDBRANCH  10  11
ENDBRANCH   9  10
ENDBRANCH   4   9
TORSDOF 3
