REMARK  9 active torsions:
REMARK  status: ('A' for Active; 'I' for Inactive)
REMARK       I    between atoms: N_2  and  C_1 
REMARK    1  A    between atoms: C_4  and  C_1 
REMARK    2  A    between atoms: C_5  and  N_2 
REMARK    3  A    between atoms: C_7  and  N_2 
REMARK    4  A    between atoms: C_3  and  C_6 
REMARK    5  A    between atoms: C_16  and  C_7 
REMARK    6  A    between atoms: O_23  and  C_16 
REMARK    7  A    between atoms: O_24  and  C_16 
REMARK    8  A    between atoms: C_26  and  O_23 
REMARK    9  A    between atoms: C_25  and  O_24 
ROOT
ATOM      1  C   UNL d   1       0.883  -0.232   0.026  0.00  0.00     0.258 C 
ATOM      2  N   UNL d   1       0.129   0.365  -1.017  0.00  0.00    -0.309 N 
ATOM      3  O   UNL d   1       0.420  -0.744   1.045  0.00  0.00    -0.267 OA
ENDROOT
BRANCH   2   4
ATOM      4  C   UNL d   1      -1.315   0.278  -0.997  0.00  0.00     0.037 A 
ATOM      5  C   UNL d   1      -2.034   0.274   0.211  0.00  0.00     0.033 A 
ATOM      6  C   UNL d   1      -3.432   0.205   0.234  0.00  0.00     0.044 A 
ATOM      7  C   UNL d   1      -4.133   0.153  -0.959  0.00  0.00     0.116 A 
ATOM      8  C   UNL d   1      -3.459   0.145  -2.171  0.00  0.00     0.044 A 
ATOM      9  F   UNL d   1      -5.471   0.107  -0.943  0.00  0.00    -0.206 F 
ATOM     10  C   UNL d   1      -2.060   0.189  -2.188  0.00  0.00     0.033 A 
ENDBRANCH   2   4
BRANCH   2  11
ATOM     11  C   UNL d   1       0.792   0.950  -2.203  0.00  0.00     0.193 C 
BRANCH  11  12
ATOM     12  C   UNL d   1       0.262   2.278  -2.811  0.00  0.00     0.277 C 
BRANCH  12  13
ATOM     13  O   UNL d   1       0.359   3.311  -1.821  0.00  0.00    -0.360 OA
BRANCH  13  14
ATOM     14  C   UNL d   1      -0.200   4.539  -2.285  0.00  0.00     0.166 C 
ATOM     15  C   UNL d   1      -0.104   5.573  -1.181  0.00  0.00     0.033 C 
ENDBRANCH  13  14
ENDBRANCH  12  13
BRANCH  12  16
ATOM     16  O   UNL d   1       1.076   2.639  -3.939  0.00  0.00    -0.360 OA
BRANCH  16  17
ATOM     17  C   UNL d   1       0.845   1.854  -5.104  0.00  0.00     0.166 C 
ATOM     18  C   UNL d   1       1.698   2.408  -6.226  0.00  0.00     0.033 C 
ENDBRANCH  16  17
ENDBRANCH  12  16
ENDBRANCH  11  12
ENDBRANCH   2  11
BRANCH   1  19
ATOM     19  C   UNL d   1       2.366  -0.335  -0.073  0.00  0.00     0.032 A 
ATOM     20  C   UNL d   1       3.130   0.093   1.018  0.00  0.00     0.018 A 
ATOM     21  C   UNL d   1       4.519  -0.069   1.016  0.00  0.00     0.017 A 
ATOM     22  C   UNL d   1       5.164  -0.667  -0.078  0.00  0.00     0.048 A 
ATOM     23  C   UNL d   1       4.389  -1.103  -1.167  0.00  0.00     0.017 A 
ATOM     24  C   UNL d   1       2.997  -0.964  -1.153  0.00  0.00     0.018 A 
BRANCH  22  25
ATOM     25  C   UNL d   1       6.662  -0.865  -0.091  0.00  0.00     0.417 C 
ATOM     26  F   UNL d   1       7.269  -0.522   1.079  0.00  0.00    -0.166 F 
ATOM     27  F   UNL d   1       7.014  -2.159  -0.329  0.00  0.00    -0.166 F 
ATOM     28  F   UNL d   1       7.274  -0.128  -1.060  0.00  0.00    -0.166 F 
ENDBRANCH  22  25
ENDBRANCH   1  19
TORSDOF 9
