REMARK  6 active torsions:
REMARK  status: ('A' for Active; 'I' for Inactive)
REMARK    1  A    between atoms: C_2  and  C_1 
REMARK    2  A    between atoms: S_17  and  C_7 
REMARK    3  A    between atoms: S_13  and  C_9 
REMARK    4  A    between atoms: C_19  and  S_13 
REMARK    5  A    between atoms: C_14  and  C_19 
REMARK       I    between atoms: N_16  and  C_14 
REMARK    6  A    between atoms: C_23  and  N_16 
ROOT
ATOM      1  C   UNL d   1       0.134   1.319   0.118  0.00  0.00     0.141 A 
ATOM      2  N   UNL d   1       1.022   0.280   0.330  0.00  0.00    -0.315 N 
ATOM      3  N   UNL d   1      -1.092   0.832   0.224  0.00  0.00    -0.282 N 
ATOM      4  HN  UNL d   1      -1.954   1.368   0.114  1.00  0.00     0.188 HD
ATOM      5  C   UNL d   1       0.252  -0.828   0.587  0.00  0.00     0.163 A 
ATOM      6  N   UNL d   1      -1.017  -0.512   0.506  0.00  0.00    -0.278 N 
ATOM      7  HN  UNL d   1      -1.806  -1.147   0.628  1.00  0.00     0.189 HD
ATOM      8  C   UNL d   1       2.465   0.315   0.337  0.00  0.00     0.160 C 
ENDROOT
BRANCH   1   9
ATOM      9  C   UNL d   1       0.428   2.727  -0.066  0.00  0.00     0.059 C 
ATOM     10  S   UNL d   1       1.798   3.275  -0.949  0.00  0.00    -0.078 SA
ATOM     11  C   UNL d   1       1.616   4.888  -0.412  0.00  0.00     0.052 C 
ATOM     12  C   UNL d   1       0.393   5.057   0.201  0.00  0.00    -0.005 A 
ATOM     13  C   UNL d   1      -0.320   3.816   0.374  0.00  0.00    -0.025 A 
ATOM     14  C   UNL d   1      -0.141   6.282   0.703  0.00  0.00     0.010 A 
ATOM     15  C   UNL d   1      -1.666   3.765   1.054  0.00  0.00     0.045 A 
ATOM     16  C   UNL d   1      -2.210   5.129   1.529  0.00  0.00     0.032 A 
ATOM     17  C   UNL d   1      -1.336   6.335   1.310  0.00  0.00    -0.025 A 
BRANCH  11  18
ATOM     18  S   UNL d   1       2.933   6.040  -0.620  0.00  0.00    -0.126 SA
ATOM     19  C   UNL d   1       2.284   7.120  -1.906  0.00  0.00     0.096 C 
ENDBRANCH  11  18
ENDBRANCH   1   9
BRANCH   5  20
ATOM     20  S   UNL d   1       0.920  -2.372   1.018  0.00  0.00    -0.083 SA
BRANCH  20  21
ATOM     21  C   UNL d   1      -0.561  -3.415   1.117  0.00  0.00     0.185 C 
BRANCH  21  22
ATOM     22  C   UNL d   1      -0.268  -4.825   1.633  0.00  0.00     0.227 C 
ATOM     23  N   UNL d   1       0.725  -4.952   2.589  0.00  0.00    -0.357 N 
ATOM     24  H   UNL d   1       1.177  -4.109   2.922  0.00  0.00     0.162 HD
ATOM     25  O   UNL d   1      -0.942  -5.782   1.261  0.00  0.00    -0.273 OA
BRANCH  23  26
ATOM     26  C   UNL d   1       1.014  -6.223   3.244  0.00  0.00     0.076 C 
ATOM     27  C   UNL d   1       2.488  -6.312   3.624  0.00  0.00     0.032 C 
ATOM     28  C   UNL d   1       0.134  -6.411   4.478  0.00  0.00     0.032 C 
ENDBRANCH  23  26
ENDBRANCH  21  22
ENDBRANCH  20  21
ENDBRANCH   5  20
TORSDOF 6
