REMARK  6 active torsions:
REMARK  status: ('A' for Active; 'I' for Inactive)
REMARK    1  A    between atoms: S_9  and  C_2 
REMARK    2  A    between atoms: C_14  and  C_7 
REMARK    3  A    between atoms: C_16  and  S_9 
REMARK    4  A    between atoms: C_10  and  C_14 
REMARK    5  A    between atoms: C_11  and  C_16 
REMARK    6  A    between atoms: C_18  and  C_11 
ROOT
ATOM      1  O   UNL d   1       0.798  -0.579  -0.578  0.00  0.00    -0.272 OA
ATOM      2  C   UNL d   1      -0.348  -1.119  -0.057  0.00  0.00     0.203 A 
ATOM      3  N   UNL d   1      -1.139  -0.205   0.469  0.00  0.00    -0.272 N 
ATOM      4  HN  UNL d   1      -2.036  -0.367   0.926  1.00  0.00     0.189 HD
ATOM      5  N   UNL d   1      -0.519   1.013   0.284  0.00  0.00    -0.281 N 
ATOM      6  HN  UNL d   1      -0.864   1.927   0.577  1.00  0.00     0.189 HD
ATOM      7  C   UNL d   1       0.609   0.758  -0.346  0.00  0.00     0.145 A 
ENDROOT
BRANCH   2   8
ATOM      8  S   UNL d   1      -0.685  -2.823  -0.065  0.00  0.00    -0.077 SA
BRANCH   8   9
ATOM      9  C   UNL d   1      -2.506  -2.770  -0.063  0.00  0.00     0.166 C 
BRANCH   9  10
ATOM     10  C   UNL d   1      -3.045  -2.126  -1.330  0.00  0.00     0.169 C 
ATOM     11  O   UNL d   1      -2.462  -2.216  -2.413  0.00  0.00    -0.291 OA
BRANCH  10  12
ATOM     12  C   UNL d   1      -4.352  -1.398  -1.285  0.00  0.00     0.010 A 
ATOM     13  C   UNL d   1      -5.190  -1.397  -0.163  0.00  0.00     0.015 A 
ATOM     14  C   UNL d   1      -6.392  -0.681  -0.184  0.00  0.00     0.001 A 
ATOM     15  C   UNL d   1      -6.770   0.028  -1.324  0.00  0.00     0.000 A 
ATOM     16  C   UNL d   1      -5.951   0.019  -2.450  0.00  0.00     0.001 A 
ATOM     17  C   UNL d   1      -4.749  -0.690  -2.430  0.00  0.00     0.015 A 
ENDBRANCH  10  12
ENDBRANCH   9  10
ENDBRANCH   8   9
ENDBRANCH   2   8
BRANCH   7  18
ATOM     18  C   UNL d   1       1.679   1.689  -0.781  0.00  0.00     0.125 C 
BRANCH  18  19
ATOM     19  C   UNL d   1       1.452   2.224  -2.167  0.00  0.00    -0.044 A 
ATOM     20  C   UNL d   1       0.699   3.345  -2.467  0.00  0.00     0.057 A 
ATOM     21  S   UNL d   1       0.650   3.686  -4.142  0.00  0.00    -0.113 SA
ATOM     22  C   UNL d   1       1.636   2.338  -4.499  0.00  0.00     0.050 A 
ATOM     23  C   UNL d   1       1.995   1.645  -3.364  0.00  0.00     0.015 A 
ENDBRANCH  18  19
ENDBRANCH   7  18
TORSDOF 6
