REMARK  1 active torsions:
REMARK  status: ('A' for Active; 'I' for Inactive)
REMARK    1  A    between atoms: O_9  and  C_3 
ROOT
ATOM      1  C   UNL d   1       2.334  -0.262   0.009  0.00  0.00     0.079 A 
ATOM      2  C   UNL d   1      -0.011  -0.735  -0.003  0.00  0.00    -0.016 A 
ATOM      3  C   UNL d   1       1.305  -1.215   0.002  0.00  0.00     0.095 A 
ATOM      4  C   UNL d   1      -0.314   0.632  -0.003  0.00  0.00    -0.043 A 
ATOM      5  C   UNL d   1       0.697   1.584   0.002  0.00  0.00    -0.053 A 
ATOM      6  C   UNL d   1       3.731  -0.577   0.010  0.00  0.00     0.102 C 
ATOM      7  C   UNL d   1       2.019   1.118   0.009  0.00  0.00     0.032 A 
ATOM      8  N   UNL d   1       4.870  -0.808   0.011  0.00  0.00    -0.191 NA
ATOM      9  C   UNL d   1      -1.256  -1.570  -0.028  0.00  0.00     0.042 A 
ATOM     10  C   UNL d   1      -1.791   0.866  -0.028  0.00  0.00     0.040 A 
ATOM     11  C   UNL d   1       0.437   3.059  -0.006  0.00  0.00     0.049 C 
ATOM     12  C   UNL d   1      -2.392  -0.543   0.023  0.00  0.00     0.009 A 
ENDROOT
BRANCH   3  13
ATOM     13  O   UNL d   1       1.371  -2.579  -0.003  0.00  0.00    -0.354 OA
ATOM     14  C   UNL d   1       2.623  -3.246  -0.003  0.00  0.00     0.210 C 
ENDBRANCH   3  13
TORSDOF 1
