REMARK  4 active torsions:
REMARK  status: ('A' for Active; 'I' for Inactive)
REMARK       I    between atoms: N_2  and  C_1 
REMARK    1  A    between atoms: C_5  and  C_1 
REMARK       I    between atoms: C_7  and  N_2 
REMARK    2  A    between atoms: C_3  and  C_4 
REMARK    3  A    between atoms: C_6  and  N_12 
REMARK       I    between atoms: N_13  and  C_7 
REMARK    4  A    between atoms: N_12  and  N_13 
ROOT
ATOM      1  C   UNL d   1       0.970   0.004   0.271  0.00  0.00     0.261 C 
ATOM      2  N   UNL d   1       0.430  -0.915  -0.611  0.00  0.00    -0.274 N 
ATOM      3  C   UNL d   1       1.034  -1.930  -1.299  0.00  0.00     0.337 C 
ATOM      4  N   UNL d   1       2.404  -1.925  -1.375  0.00  0.00    -0.267 N 
ATOM      5  O   UNL d   1       2.151   0.319   0.309  0.00  0.00    -0.267 OA
ATOM      6  O   UNL d   1       0.324  -2.814  -1.790  0.00  0.00    -0.246 OA
ATOM      7  H   UNL d   1      -0.571  -1.058  -0.594  0.00  0.00     0.173 HD
ATOM      8  H   UNL d   1       2.862  -1.021  -1.255  0.00  0.00     0.186 HD
ENDROOT
BRANCH   4   9
ATOM      9  N   UNL d   1       2.907  -2.755  -2.400  0.00  0.00    -0.185 NA
ATOM     10  H   UNL d   1       2.477  -3.686  -2.387  0.00  0.00     0.154 HD
BRANCH   9  11
ATOM     11  C   UNL d   1       4.292  -2.917  -2.535  0.00  0.00     0.120 A 
ATOM     12  N   UNL d   1       4.664  -4.186  -2.848  0.00  0.00    -0.353 N 
ATOM     13  C   UNL d   1       5.946  -4.417  -3.218  0.00  0.00     0.105 A 
ATOM     14  HN  UNL d   1       3.990  -4.950  -2.806  1.00  0.00     0.166 HD
ATOM     15  C   UNL d   1       6.914  -3.433  -3.301  0.00  0.00     0.065 A 
ATOM     16  C   UNL d   1       6.542  -2.140  -2.924  0.00  0.00     0.044 A 
ATOM     17  C   UNL d   1       5.223  -1.870  -2.542  0.00  0.00     0.074 A 
ATOM     18 CL   UNL d   1       4.820  -0.228  -2.194  0.00  0.00    -0.081 Cl
BRANCH  15  19
ATOM     19  C   UNL d   1       8.275  -3.769  -3.822  0.00  0.00     0.418 C 
ATOM     20  F   UNL d   1       9.099  -2.689  -3.921  0.00  0.00    -0.166 F 
ATOM     21  F   UNL d   1       8.929  -4.670  -3.041  0.00  0.00    -0.166 F 
ATOM     22  F   UNL d   1       8.231  -4.316  -5.068  0.00  0.00    -0.166 F 
ENDBRANCH  15  19
ENDBRANCH   9  11
ENDBRANCH   4   9
BRANCH   1  23
ATOM     23  C   UNL d   1      -0.052   0.746   1.068  0.00  0.00     0.054 A 
ATOM     24  C   UNL d   1      -1.155   0.126   1.674  0.00  0.00     0.049 A 
ATOM     25 CL   UNL d   1      -1.341  -1.590   1.758  0.00  0.00    -0.083 Cl
ATOM     26  C   UNL d   1      -2.160   0.901   2.260  0.00  0.00     0.025 A 
ATOM     27  C   UNL d   1      -2.058   2.292   2.268  0.00  0.00     0.002 A 
ATOM     28  C   UNL d   1      -0.935   2.911   1.720  0.00  0.00     0.001 A 
ATOM     29  C   UNL d   1       0.070   2.142   1.127  0.00  0.00     0.019 A 
ENDBRANCH   1  23
TORSDOF 4
