REMARK  4 active torsions:
REMARK  status: ('A' for Active; 'I' for Inactive)
REMARK    1  A    between atoms: C_3  and  S_1 
REMARK    2  A    between atoms: O_8  and  S_1 
REMARK       I    between atoms: N_6  and  C_2 
REMARK       I    between atoms: N_10  and  C_2 
REMARK    3  A    between atoms: C_11  and  C_3 
REMARK    4  A    between atoms: N_9  and  C_11 
ROOT
ATOM      1  C   UNL d   1      -0.565   2.994  -3.714  0.00  0.00     0.143 C 
ATOM      2  N   UNL d   1      -1.528   3.333  -2.944  0.00  0.00    -0.376 N 
ATOM      3  HN  UNL d   1      -2.361   3.837  -3.246  1.00  0.00     0.158 HD
ATOM      4  N   UNL d   1       0.555   2.299  -3.421  0.00  0.00    -0.366 N 
ATOM      5  N   UNL d   1      -0.614   3.325  -5.017  0.00  0.00    -0.274 NA
ATOM      6  H   UNL d   1      -1.350   3.030  -1.987  0.00  0.00     0.158 HD
ATOM      7  H   UNL d   1       1.322   2.507  -4.053  0.00  0.00     0.162 HD
ATOM      8  H   UNL d   1      -0.434   2.541  -5.631  0.00  0.00     0.127 HD
ATOM      9  H   UNL d   1      -1.521   3.732  -5.224  0.00  0.00     0.127 HD
ENDROOT
BRANCH   4  10
ATOM     10  C   UNL d   1       0.974   1.906  -2.086  0.00  0.00     0.139 C 
BRANCH  10  11
ATOM     11  C   UNL d   1       0.403   0.543  -1.750  0.00  0.00     0.175 C 
BRANCH  11  12
ATOM     12  S   UNL d   1       0.900   0.080  -0.109  0.00  0.00     0.095 S 
ATOM     13  O   UNL d   1       0.273   0.959   0.850  0.00  0.00    -0.601 OA
ATOM     14  O   UNL d   1       2.316  -0.208  -0.096  0.00  0.00    -0.601 OA
BRANCH  12  15
ATOM     15  O   UNL d   1       0.097  -1.316  -0.016  0.00  0.00    -0.296 OA
ATOM     16  H   UNL d   1      -0.540  -1.255   0.728  0.00  0.00     0.232 HD
ENDBRANCH  12  15
ENDBRANCH  11  12
ENDBRANCH  10  11
ENDBRANCH   4  10
TORSDOF 4
