REMARK  7 active torsions:
REMARK  status: ('A' for Active; 'I' for Inactive)
REMARK    1  A    between atoms: N_2  and  S_1 
REMARK    2  A    between atoms: C_5  and  S_1 
REMARK    3  A    between atoms: S_4  and  N_2 
REMARK    4  A    between atoms: C_8  and  S_4 
REMARK    5  A    between atoms: C_6  and  O_11 
REMARK    6  A    between atoms: C_13  and  C_6 
REMARK    7  A    between atoms: O_11  and  C_22 
ROOT
ATOM      1  C   UNL d   1       0.222   1.738   2.974  0.00  0.00     0.039 A 
ATOM      2  C   UNL d   1       0.085   0.349   2.977  0.00  0.00     0.024 A 
ATOM      3  C   UNL d   1      -0.012   2.480   4.134  0.00  0.00     0.024 A 
ATOM      4  C   UNL d   1      -0.463   0.429   5.329  0.00  0.00     0.079 A 
ATOM      5  C   UNL d   1      -0.363   1.819   5.319  0.00  0.00     0.039 A 
ATOM      6  C   UNL d   1      -0.254  -0.306   4.160  0.00  0.00     0.039 A 
ENDROOT
BRANCH   1   7
ATOM      7  S   UNL d   1       0.745   2.520   1.500  0.00  0.00     0.061 S 
ATOM      8  O   UNL d   1       0.548   1.679   0.345  0.00  0.00    -0.244 OA
ATOM      9  C   UNL d   1       2.456   2.915   1.712  0.00  0.00     0.143 C 
BRANCH   7  10
ATOM     10  N   UNL d   1       0.009   3.996   1.363  0.00  0.00    -0.236 N 
ATOM     11  HN  UNL d   1       0.585   4.833   1.452  1.00  0.00     0.189 HD
BRANCH  10  12
ATOM     12  S   UNL d   1      -1.637   4.192   1.084  0.00  0.00     0.276 S 
ATOM     13  O   UNL d   1      -1.985   5.543   1.489  0.00  0.00    -0.199 OA
ATOM     14  O   UNL d   1      -2.380   3.068   1.619  0.00  0.00    -0.199 OA
BRANCH  12  15
ATOM     15  C   UNL d   1      -2.017   4.187  -0.656  0.00  0.00     0.120 A 
ATOM     16  S   UNL d   1      -0.722   4.066  -1.762  0.00  0.00    -0.088 SA
ATOM     17  C   UNL d   1      -1.777   4.131  -3.110  0.00  0.00     0.051 A 
ATOM     18  C   UNL d   1      -3.092   4.279  -2.729  0.00  0.00     0.009 A 
ATOM     19  C   UNL d   1      -3.230   4.312  -1.312  0.00  0.00     0.033 A 
ENDBRANCH  12  15
ENDBRANCH  10  12
ENDBRANCH   7  10
ENDBRANCH   1   7
BRANCH   4  20
ATOM     20  O   UNL d   1      -0.746  -0.358   6.474  0.00  0.00    -0.275 OA
BRANCH  20  21
ATOM     21  C   UNL d   1      -0.833   0.089   7.786  0.00  0.00     0.298 C 
ATOM     22  O   UNL d   1      -0.776   1.243   8.180  0.00  0.00    -0.259 OA
BRANCH  21  23
ATOM     23  C   UNL d   1      -0.972  -1.079   8.706  0.00  0.00     0.040 A 
ATOM     24  C   UNL d   1      -1.090  -0.824  10.081  0.00  0.00     0.019 A 
ATOM     25  C   UNL d   1      -1.181  -1.880  10.994  0.00  0.00     0.025 A 
ATOM     26  C   UNL d   1      -1.155  -3.195  10.536  0.00  0.00     0.034 A 
ATOM     27  C   UNL d   1      -1.046  -3.463   9.172  0.00  0.00     0.025 A 
ATOM     28 CL   UNL d   1      -1.248  -4.495  11.658  0.00  0.00    -0.084 Cl
ATOM     29  C   UNL d   1      -0.956  -2.408   8.257  0.00  0.00     0.019 A 
ENDBRANCH  21  23
ENDBRANCH  20  21
ENDBRANCH   4  20
TORSDOF 7
