REMARK  4 active torsions:
REMARK  status: ('A' for Active; 'I' for Inactive)
REMARK    1  A    between atoms: C_8  and  C_1 
REMARK    2  A    between atoms: S_3  and  O_11 
REMARK    3  A    between atoms: O_11  and  C_15 
REMARK    4  A    between atoms: O_19  and  C_16 
ROOT
ATOM      1  C   UNL d   1      -2.250  -0.358   0.160  0.00  0.00     0.050 C 
ATOM      2  C   UNL d   1      -1.339   0.784   0.425  0.00  0.00     0.198 C 
ATOM      3  C   UNL d   1       0.099   0.502   0.281  0.00  0.00     0.049 A 
ATOM      4  C   UNL d   1      -1.698  -1.577   0.074  0.00  0.00     0.159 C 
ATOM      5  C   UNL d   1       0.525  -0.818   0.169  0.00  0.00     0.091 A 
ATOM      6  O   UNL d   1      -0.354  -1.874   0.158  0.00  0.00    -0.321 OA
ATOM      7  C   UNL d   1       1.889  -1.102   0.067  0.00  0.00     0.076 A 
ATOM      8  C   UNL d   1       1.017   1.551   0.232  0.00  0.00     0.021 A 
ATOM      9  O   UNL d   1      -1.739   1.900   0.719  0.00  0.00    -0.286 OA
ATOM     10  C   UNL d   1       2.820  -0.055   0.061  0.00  0.00     0.092 A 
ATOM     11  C   UNL d   1       2.377   1.270   0.099  0.00  0.00     0.039 A 
ENDROOT
BRANCH   1  12
ATOM     12  C   UNL d   1      -3.696  -0.152   0.001  0.00  0.00     0.013 A 
ATOM     13  C   UNL d   1      -4.346   0.186  -1.200  0.00  0.00     0.079 A 
ATOM     14  C   UNL d   1      -5.740   0.375  -1.187  0.00  0.00     0.037 A 
ATOM     15  C   UNL d   1      -6.490   0.228  -0.022  0.00  0.00     0.003 A 
ATOM     16  C   UNL d   1      -5.852  -0.111   1.163  0.00  0.00     0.001 A 
ATOM     17  C   UNL d   1      -4.469  -0.297   1.174  0.00  0.00     0.015 A 
BRANCH  13  18
ATOM     18  O   UNL d   1      -3.846   0.377  -2.459  0.00  0.00    -0.355 OA
ATOM     19  C   UNL d   1      -2.466   0.240  -2.733  0.00  0.00     0.210 C 
ENDBRANCH  13  18
ENDBRANCH   1  12
BRANCH  10  20
ATOM     20  O   UNL d   1       4.146  -0.417   0.014  0.00  0.00    -0.233 OA
BRANCH  20  21
ATOM     21  S   UNL d   1       5.309   0.595   0.563  0.00  0.00     0.266 S 
ATOM     22  O   UNL d   1       5.674   1.517  -0.493  0.00  0.00    -0.199 OA
ATOM     23  O   UNL d   1       4.967   1.056   1.896  0.00  0.00    -0.199 OA
ATOM     24  C   UNL d   1       6.604  -0.605   0.727  0.00  0.00     0.194 C 
ENDBRANCH  20  21
ENDBRANCH  10  20
TORSDOF 4
