REMARK  2 active torsions:
REMARK  status: ('A' for Active; 'I' for Inactive)
REMARK    1  A    between atoms: N_2  and  C_1 
REMARK    2  A    between atoms: C_3  and  C_1 
ROOT
ATOM      1  C   UNL d   1       1.061  -0.061  -0.117  0.00  0.00     0.109 C 
ATOM      2  S   UNL d   1       2.691   0.145   0.259  0.00  0.00    -0.060 SA
ENDROOT
BRANCH   1   3
ATOM      3  N   UNL d   1       0.305   0.974  -0.659  0.00  0.00    -0.367 N 
ATOM      4  C   UNL d   1      -0.899   1.487   0.005  0.00  0.00     0.150 C 
ATOM      5  C   UNL d   1      -0.769   2.999   0.244  0.00  0.00     0.187 C 
ATOM      6  O   UNL d   1      -0.465   3.696  -0.977  0.00  0.00    -0.388 OA
ATOM      7  C   UNL d   1       0.789   3.244  -1.516  0.00  0.00     0.187 C 
ATOM      8  C   UNL d   1       0.737   1.749  -1.827  0.00  0.00     0.150 C 
ENDBRANCH   1   3
BRANCH   1   9
ATOM      9  C   UNL d   1       0.354  -1.381   0.016  0.00  0.00     0.002 A 
ATOM     10  C   UNL d   1      -0.630  -1.721  -0.930  0.00  0.00     0.016 A 
ATOM     11  C   UNL d   1      -1.226  -2.987  -0.918  0.00  0.00     0.024 A 
ATOM     12  C   UNL d   1      -0.840  -3.921   0.036  0.00  0.00     0.034 A 
ATOM     13  C   UNL d   1       0.124  -3.597   0.992  0.00  0.00     0.024 A 
ATOM     14 CL   UNL d   1      -1.540  -5.492   0.025  0.00  0.00    -0.084 Cl
ATOM     15  C   UNL d   1       0.719  -2.327   0.985  0.00  0.00     0.016 A 
ENDBRANCH   1   9
TORSDOF 2
