REMARK  2 active torsions:
REMARK  status: ('A' for Active; 'I' for Inactive)
REMARK       I    between atoms: C_2  and  N_3 
REMARK    1  A    between atoms: C_5  and  C_2 
REMARK    2  A    between atoms: N_3  and  C_4 
ROOT
ATOM      1  C   UNL d   1       0.152   0.504  -0.488  0.00  0.00     0.093 A 
ATOM      2  C   UNL d   1       1.211   1.391  -0.212  0.00  0.00     0.057 A 
ATOM      3  C   UNL d   1      -1.011   0.927  -1.218  0.00  0.00     0.103 C 
ATOM      4  N   UNL d   1      -1.899   1.230  -1.904  0.00  0.00    -0.191 NA
ATOM      5  C   UNL d   1       0.332  -0.869  -0.248  0.00  0.00     0.057 A 
ATOM      6 CL   UNL d   1      -0.950  -2.017  -0.449  0.00  0.00    -0.083 Cl
ATOM      7  C   UNL d   1       2.471   0.866   0.125  0.00  0.00     0.031 A 
ATOM      8  C   UNL d   1       2.654  -0.506   0.295  0.00  0.00     0.004 A 
ATOM      9  C   UNL d   1       1.575  -1.369   0.149  0.00  0.00     0.025 A 
ENDROOT
BRANCH   2  10
ATOM     10  N   UNL d   1       1.140   2.805  -0.255  0.00  0.00    -0.321 N 
ATOM     11  C   UNL d   1       0.030   3.587   0.042  0.00  0.00     0.263 C 
ATOM     12  O   UNL d   1      -1.026   3.120   0.455  0.00  0.00    -0.267 OA
ATOM     13  H   UNL d   1       2.015   3.317  -0.261  0.00  0.00     0.169 HD
BRANCH  11  14
ATOM     14  C   UNL d   1       0.234   5.027  -0.106  0.00  0.00     0.072 A 
ATOM     15  S   UNL d   1       1.769   5.704  -0.471  0.00  0.00    -0.097 SA
ATOM     16  C   UNL d   1       1.140   7.293  -0.507  0.00  0.00     0.050 A 
ATOM     17  C   UNL d   1      -0.206   7.321  -0.226  0.00  0.00     0.009 A 
ATOM     18  C   UNL d   1      -0.725   6.016   0.020  0.00  0.00     0.025 A 
ENDBRANCH  11  14
ENDBRANCH   2  10
TORSDOF 2
