REMARK  5 active torsions:
REMARK  status: ('A' for Active; 'I' for Inactive)
REMARK    1  A    between atoms: C_7  and  C_1 
REMARK    2  A    between atoms: C_3  and  C_2 
REMARK    3  A    between atoms: N_11  and  C_6 
REMARK    4  A    between atoms: O_16  and  C_7 
REMARK    5  A    between atoms: C_17  and  N_11 
ROOT
ATOM      1  C   UNL d   1      -0.027  -1.589   0.107  0.00  0.00     0.087 A 
ATOM      2  C   UNL d   1       1.137  -0.855  -0.001  0.00  0.00     0.150 A 
ATOM      3  N   UNL d   1       1.104   0.513  -0.113  0.00  0.00    -0.185 N 
ATOM      4  HN  UNL d   1       1.963   1.044  -0.259  1.00  0.00     0.184 HD
ATOM      5  C   UNL d   1      -0.079   1.139  -0.026  0.00  0.00     0.683 A 
ATOM      6  N   UNL d   1      -1.235   0.481   0.136  0.00  0.00    -0.201 N 
ATOM      7  HN  UNL d   1      -2.120   0.982   0.216  1.00  0.00     0.183 HD
ATOM      8  C   UNL d   1      -1.191  -0.863   0.190  0.00  0.00     0.126 A 
ENDROOT
BRANCH   5   9
ATOM      9  N   UNL d   1      -0.071   2.522  -0.160  0.00  0.00    -0.192 N 
ATOM     10  H   UNL d   1       0.853   2.866  -0.378  0.00  0.00     0.184 HD
BRANCH   9  11
ATOM     11  C   UNL d   1      -0.975   3.473   0.333  0.00  0.00     0.049 A 
ATOM     12  C   UNL d   1      -1.844   3.210   1.400  0.00  0.00     0.030 A 
ATOM     13  C   UNL d   1      -2.756   4.171   1.843  0.00  0.00     0.002 A 
ATOM     14  C   UNL d   1      -2.834   5.404   1.203  0.00  0.00     0.000 A 
ATOM     15  C   UNL d   1      -1.993   5.678   0.128  0.00  0.00     0.002 A 
ATOM     16  C   UNL d   1      -1.067   4.721  -0.300  0.00  0.00     0.030 A 
ENDBRANCH   9  11
ENDBRANCH   5   9
BRANCH   2  17
ATOM     17  C   UNL d   1       2.501  -1.513   0.038  0.00  0.00     0.434 C 
ATOM     18  F   UNL d   1       2.530  -2.712   0.688  0.00  0.00    -0.165 F 
ATOM     19  F   UNL d   1       3.016  -1.741  -1.203  0.00  0.00    -0.165 F 
ATOM     20  F   UNL d   1       3.431  -0.751   0.688  0.00  0.00    -0.165 F 
ENDBRANCH   2  17
BRANCH   1  21
ATOM     21  C   UNL d   1      -0.134  -3.046   0.174  0.00  0.00     0.296 C 
ATOM     22  O   UNL d   1      -0.890  -3.621   0.939  0.00  0.00    -0.259 OA
BRANCH  21  23
ATOM     23  O   UNL d   1       0.625  -3.603  -0.795  0.00  0.00    -0.322 OA
ATOM     24  C   UNL d   1       0.546  -5.032  -0.832  0.00  0.00     0.213 C 
ENDBRANCH  21  23
ENDBRANCH   1  21
TORSDOF 5
