REMARK  9 active torsions:
REMARK  status: ('A' for Active; 'I' for Inactive)
REMARK    1  A    between atoms: C_5  and  C_1 
REMARK    2  A    between atoms: N_9  and  C_2 
REMARK    3  A    between atoms: C_14  and  N_6 
REMARK    4  A    between atoms: C_17  and  N_9 
REMARK    5  A    between atoms: S_10  and  C_23 
REMARK    6  A    between atoms: C_24  and  S_10 
REMARK    7  A    between atoms: C_20  and  C_14 
REMARK    8  A    between atoms: C_23  and  C_20 
REMARK    9  A    between atoms: O_25  and  C_20 
ROOT
ATOM      1  N   UNL d   1      -0.831   0.858   6.429  0.00  0.00     0.091 N 
ATOM      2  C   UNL d   1       1.066   2.451   6.113  0.00  0.00     0.056 C 
ATOM      3  C   UNL d   1      -1.184   3.029   5.202  0.00  0.00     0.056 C 
ATOM      4  C   UNL d   1       0.323   3.217   5.017  0.00  0.00     0.102 C 
ATOM      5  C   UNL d   1      -1.576   1.562   5.360  0.00  0.00     0.274 C 
ATOM      6  C   UNL d   1       0.620   0.991   6.221  0.00  0.00     0.274 C 
ENDROOT
BRANCH   4   7
ATOM      7  N   UNL d   1       0.714   2.798   3.673  0.00  0.00    -0.221 N 
ATOM      8  H   UNL d   1       0.508   1.850   3.384  0.00  0.00     0.178 HD
BRANCH   7   9
ATOM      9  C   UNL d   1       1.950   3.154   3.182  0.00  0.00     0.678 A 
ATOM     10  N   UNL d   1       2.399   2.424   2.154  0.00  0.00    -0.187 N 
ATOM     11  C   UNL d   1       3.601   2.756   1.611  0.00  0.00     0.133 A 
ATOM     12  HN  UNL d   1       1.855   1.642   1.789  1.00  0.00     0.184 HD
ATOM     13  C   UNL d   1       4.368   3.789   2.117  0.00  0.00     0.052 A 
ATOM     14  C   UNL d   1       3.831   4.466   3.183  0.00  0.00     0.108 A 
ATOM     15  N   UNL d   1       2.635   4.170   3.720  0.00  0.00    -0.202 N 
ATOM     16  HN  UNL d   1       2.263   4.701   4.508  1.00  0.00     0.183 HD
BRANCH  11  17
ATOM     17  C   UNL d   1       4.128   1.978   0.417  0.00  0.00     0.433 C 
ATOM     18  F   UNL d   1       3.256   1.065  -0.094  0.00  0.00    -0.165 F 
ATOM     19  F   UNL d   1       5.266   1.283   0.713  0.00  0.00    -0.165 F 
ATOM     20  F   UNL d   1       4.465   2.793  -0.626  0.00  0.00    -0.165 F 
ENDBRANCH  11  17
ENDBRANCH   7   9
ENDBRANCH   4   7
BRANCH   1  21
ATOM     21  C   UNL d   1      -1.257  -0.562   6.411  0.00  0.00     0.304 C 
BRANCH  21  22
ATOM     22  C   UNL d   1      -0.602  -1.574   7.382  0.00  0.00     0.156 C 
BRANCH  22  23
ATOM     23  C   UNL d   1      -0.832  -1.251   8.872  0.00  0.00     0.113 C 
BRANCH  23  24
ATOM     24  S   UNL d   1      -0.025  -2.550   9.901  0.00  0.00    -0.127 SA
BRANCH  24  25
ATOM     25  C   UNL d   1      -0.308  -2.022  11.583  0.00  0.00     0.000 A 
ATOM     26  C   UNL d   1      -0.442  -3.018  12.560  0.00  0.00     0.018 A 
ATOM     27  C   UNL d   1      -0.565  -2.686  13.914  0.00  0.00     0.001 A 
ATOM     28  C   UNL d   1      -0.550  -1.350  14.302  0.00  0.00     0.000 A 
ATOM     29  C   UNL d   1      -0.417  -0.351  13.341  0.00  0.00     0.001 A 
ATOM     30  C   UNL d   1      -0.294  -0.684  11.986  0.00  0.00     0.018 A 
ENDBRANCH  24  25
ENDBRANCH  23  24
ENDBRANCH  22  23
BRANCH  22  31
ATOM     31  O   UNL d   1      -1.142  -2.866   7.042  0.00  0.00    -0.393 OA
ATOM     32  H   UNL d   1      -2.006  -2.956   7.478  0.00  0.00     0.210 HD
ENDBRANCH  22  31
ENDBRANCH  21  22
ENDBRANCH   1  21
TORSDOF 9
