REMARK  4 active torsions:
REMARK  status: ('A' for Active; 'I' for Inactive)
REMARK    1  A    between atoms: C_4  and  C_1 
REMARK       I    between atoms: N_8  and  C_4 
REMARK    2  A    between atoms: C_5  and  N_8 
REMARK    3  A    between atoms: C_6  and  C_12 
REMARK    4  A    between atoms: N_10  and  C_9 
ROOT
ATOM      1  C   UNL d   1      -4.002   0.457   0.066  0.00  0.00     0.057 A 
ATOM      2  C   UNL d   1      -3.106   1.040  -0.866  0.00  0.00     0.037 A 
ATOM      3  C   UNL d   1      -5.057   2.603   0.497  0.00  0.00     0.050 A 
ATOM      4  C   UNL d   1      -4.971   1.224   0.723  0.00  0.00     0.047 A 
ATOM      5  C   UNL d   1      -3.212   2.420  -1.087  0.00  0.00     0.027 A 
ATOM      6  C   UNL d   1      -4.173   3.190  -0.416  0.00  0.00     0.018 A 
ENDROOT
BRANCH   1   7
ATOM      7  N   UNL d   1      -3.829  -0.907   0.365  0.00  0.00    -0.320 N 
ATOM      8  C   UNL d   1      -4.840  -1.802   0.660  0.00  0.00     0.274 C 
ATOM      9  O   UNL d   1      -6.030  -1.525   0.753  0.00  0.00    -0.266 OA
ATOM     10  H   UNL d   1      -2.938  -1.302   0.079  0.00  0.00     0.169 HD
BRANCH   8  11
ATOM     11  C   UNL d   1      -4.375  -3.189   0.742  0.00  0.00     0.125 A 
ATOM     12  N   UNL d   1      -3.075  -3.507   0.880  0.00  0.00    -0.256 N 
ATOM     13  O   UNL d   1      -3.028  -4.890   0.928  0.00  0.00    -0.242 OA
ATOM     14  HN  UNL d   1      -2.287  -2.863   0.938  1.00  0.00     0.195 HD
ATOM     15  C   UNL d   1      -4.282  -5.394   0.775  0.00  0.00     0.075 A 
ATOM     16  C   UNL d   1      -5.171  -4.358   0.652  0.00  0.00     0.071 A 
ATOM     17  C   UNL d   1      -4.406  -6.861   0.766  0.00  0.00     0.079 C 
ENDBRANCH   8  11
ENDBRANCH   1   7
BRANCH   2  18
ATOM     18  N   UNL d   1      -2.175   0.222  -1.536  0.00  0.00    -0.278 NA
ATOM     19  C   UNL d   1      -0.956   0.844  -2.101  0.00  0.00     0.122 C 
ATOM     20  C   UNL d   1       0.035  -0.273  -2.482  0.00  0.00     0.182 C 
ATOM     21  O   UNL d   1      -0.546  -1.209  -3.409  0.00  0.00    -0.389 OA
ATOM     22  C   UNL d   1      -1.738  -1.793  -2.855  0.00  0.00     0.182 C 
ATOM     23  C   UNL d   1      -2.778  -0.710  -2.523  0.00  0.00     0.122 C 
ENDBRANCH   2  18
BRANCH   3  24
ATOM     24  C   UNL d   1      -6.059   3.447   1.243  0.00  0.00     0.417 C 
ATOM     25  F   UNL d   1      -6.844   2.742   2.104  0.00  0.00    -0.166 F 
ATOM     26  F   UNL d   1      -5.462   4.414   1.996  0.00  0.00    -0.166 F 
ATOM     27  F   UNL d   1      -6.913   4.101   0.408  0.00  0.00    -0.166 F 
ENDBRANCH   3  24
TORSDOF 4
