REMARK  3 active torsions:
REMARK  status: ('A' for Active; 'I' for Inactive)
REMARK    1  A    between atoms: C_10  and  C_1 
REMARK    2  A    between atoms: C_4  and  C_9 
REMARK    3  A    between atoms: O_19  and  C_7 
ROOT
ATOM      1  C   UNL d   1      -0.639   1.132   0.030  0.00  0.00     0.117 A 
ATOM      2  N   UNL d   1      -0.861   0.309   1.074  0.00  0.00    -0.323 N 
ATOM      3  HN  UNL d   1      -1.500   0.547   1.832  1.00  0.00     0.169 HD
ATOM      4  N   UNL d   1       0.200   0.857  -0.991  0.00  0.00    -0.345 N 
ATOM      5  HN  UNL d   1       0.335   1.517  -1.756  1.00  0.00     0.167 HD
ATOM      6  C   UNL d   1      -0.183  -0.839   1.041  0.00  0.00     0.143 A 
ATOM      7  C   UNL d   1       0.690  -1.228   0.063  0.00  0.00     0.080 A 
ATOM      8  C   UNL d   1       0.856  -0.325  -0.961  0.00  0.00     0.011 A 
ATOM      9  C   UNL d   1       1.778  -0.614  -2.106  0.00  0.00     0.068 C 
ENDROOT
BRANCH   1  10
ATOM     10  C   UNL d   1      -1.400   2.398  -0.020  0.00  0.00     0.008 A 
ATOM     11  C   UNL d   1      -2.288   2.764   1.009  0.00  0.00     0.016 A 
ATOM     12  C   UNL d   1      -3.054   3.934   0.941  0.00  0.00     0.017 A 
ATOM     13  C   UNL d   1      -2.955   4.784  -0.166  0.00  0.00     0.048 A 
ATOM     14  C   UNL d   1      -2.054   4.454  -1.186  0.00  0.00     0.017 A 
ATOM     15  C   UNL d   1      -1.290   3.282  -1.111  0.00  0.00     0.016 A 
BRANCH  13  16
ATOM     16  C   UNL d   1      -3.808   6.023  -0.280  0.00  0.00     0.417 C 
ATOM     17  F   UNL d   1      -4.663   6.195   0.767  0.00  0.00    -0.166 F 
ATOM     18  F   UNL d   1      -3.070   7.164  -0.350  0.00  0.00    -0.166 F 
ATOM     19  F   UNL d   1      -4.588   6.014  -1.397  0.00  0.00    -0.166 F 
ENDBRANCH  13  16
ENDBRANCH   1  10
BRANCH   6  20
ATOM     20  O   UNL d   1      -0.430  -1.658   2.097  0.00  0.00    -0.346 OA
ATOM     21  H   UNL d   1      -1.076  -1.122   2.590  0.00  0.00     0.219 HD
ENDBRANCH   6  20
TORSDOF 3
