REMARK  6 active torsions:
REMARK  status: ('A' for Active; 'I' for Inactive)
REMARK    1  A    between atoms: C_4  and  C_1 
REMARK    2  A    between atoms: O_12  and  C_1 
REMARK    3  A    between atoms: C_5  and  S_9 
REMARK    4  A    between atoms: S_9  and  C_20 
REMARK    5  A    between atoms: C_21  and  O_12 
REMARK    6  A    between atoms: C_20  and  C_21 
ROOT
ATOM      1  C   UNL d   1       3.088   0.483   1.121  0.00  0.00     0.189 C 
ENDROOT
BRANCH   1   2
ATOM      2  C   UNL d   1       4.601   0.347   0.949  0.00  0.00     0.107 C 
BRANCH   2   3
ATOM      3  S   UNL d   1       5.425   0.691   2.543  0.00  0.00    -0.110 SA
BRANCH   3   4
ATOM      4  C   UNL d   1       7.141   0.590   2.075  0.00  0.00     0.069 A 
ATOM      5  N   UNL d   1       7.478   0.821   0.787  0.00  0.00    -0.359 N 
ATOM      6  C   UNL d   1       8.801   0.807   0.482  0.00  0.00     0.112 A 
ATOM      7  HN  UNL d   1       6.769   0.998   0.075  1.00  0.00     0.166 HD
ATOM      8  C   UNL d   1       9.807   0.571   1.406  0.00  0.00     0.049 A 
ATOM      9  C   UNL d   1       9.444   0.330   2.723  0.00  0.00     0.028 A 
ATOM     10 CL   UNL d   1      11.458   0.588   0.942  0.00  0.00    -0.083 Cl
ATOM     11  C   UNL d   1       8.091   0.343   3.065  0.00  0.00     0.038 A 
ENDBRANCH   3   4
ENDBRANCH   2   3
ENDBRANCH   1   2
BRANCH   1  12
ATOM     12  O   UNL d   1       2.382   0.209  -0.108  0.00  0.00    -0.317 OA
BRANCH  12  13
ATOM     13  C   UNL d   1       2.135  -1.102  -0.348  0.00  0.00     0.293 C 
ATOM     14  O   UNL d   1       2.553  -2.037   0.319  0.00  0.00    -0.259 OA
BRANCH  13  15
ATOM     15  C   UNL d   1       1.251  -1.285  -1.531  0.00  0.00     0.041 A 
ATOM     16  C   UNL d   1       0.715  -0.211  -2.252  0.00  0.00     0.041 A 
ATOM     17  C   UNL d   1      -0.138  -0.461  -3.329  0.00  0.00     0.035 A 
ATOM     18 CL   UNL d   1      -0.813   0.857  -4.208  0.00  0.00    -0.084 Cl
ATOM     19  C   UNL d   1      -0.459  -1.767  -3.700  0.00  0.00     0.024 A 
ATOM     20  C   UNL d   1       0.077  -2.838  -2.989  0.00  0.00     0.003 A 
ATOM     21  C   UNL d   1       0.927  -2.599  -1.908  0.00  0.00     0.018 A 
ENDBRANCH  13  15
ENDBRANCH  12  13
ENDBRANCH   1  12
TORSDOF 6
