REMARK  4 active torsions:
REMARK  status: ('A' for Active; 'I' for Inactive)
REMARK    1  A    between atoms: C_12  and  C_1 
REMARK    2  A    between atoms: N_14  and  C_2 
REMARK    3  A    between atoms: C_16  and  C_8 
REMARK    4  A    between atoms: C_13  and  C_12 
ROOT
ATOM      1  C   UNL d   1      -2.409  -0.715   0.074  0.00  0.00     0.085 A 
ATOM      2  C   UNL d   1      -1.322  -1.573   0.063  0.00  0.00     0.062 A 
ATOM      3  C   UNL d   1      -0.250   0.479  -0.003  0.00  0.00     0.091 A 
ATOM      4  C   UNL d   1      -0.058  -0.894   0.021  0.00  0.00     0.048 A 
ATOM      5  S   UNL d   1      -1.899   0.915  -0.017  0.00  0.00    -0.065 SA
ATOM      6  N   UNL d   1       0.701   1.431  -0.031  0.00  0.00    -0.335 N 
ATOM      7  HN  UNL d   1       0.494   2.430  -0.039  1.00  0.00     0.168 HD
ATOM      8  C   UNL d   1       1.946   0.935  -0.048  0.00  0.00     0.116 A 
ATOM      9  N   UNL d   1       2.261  -0.376  -0.041  0.00  0.00    -0.345 N 
ATOM     10  HN  UNL d   1       3.240  -0.663  -0.063  1.00  0.00     0.167 HD
ATOM     11  C   UNL d   1       1.283  -1.315  -0.006  0.00  0.00     0.022 A 
ATOM     12  C   UNL d   1       1.739  -2.741  -0.018  0.00  0.00     0.069 C 
ENDROOT
BRANCH   1  13
ATOM     13  C   UNL d   1      -3.813  -1.106   0.049  0.00  0.00     0.201 C 
ATOM     14  O   UNL d   1      -4.180  -2.164  -0.471  0.00  0.00    -0.286 OA
BRANCH  13  15
ATOM     15  C   UNL d   1      -4.886  -0.296   0.696  0.00  0.00     0.015 A 
ATOM     16  C   UNL d   1      -4.668   0.456   1.857  0.00  0.00     0.017 A 
ATOM     17  C   UNL d   1      -5.728   1.147   2.454  0.00  0.00     0.025 A 
ATOM     18  C   UNL d   1      -7.009   1.069   1.910  0.00  0.00     0.034 A 
ATOM     19  C   UNL d   1      -7.244   0.302   0.771  0.00  0.00     0.025 A 
ATOM     20 CL   UNL d   1      -8.310   1.907   2.659  0.00  0.00    -0.084 Cl
ATOM     21  C   UNL d   1      -6.186  -0.381   0.167  0.00  0.00     0.017 A 
ENDBRANCH  13  15
ENDBRANCH   1  13
BRANCH   2  22
ATOM     22  N   UNL d   1      -1.475  -2.920   0.100  0.00  0.00    -0.397 N 
ATOM     23  H   UNL d   1      -2.399  -3.316  -0.108  0.00  0.00     0.156 HD
ATOM     24  H   UNL d   1      -0.732  -3.567  -0.135  0.00  0.00     0.156 HD
ENDBRANCH   2  22
BRANCH   8  25
ATOM     25  C   UNL d   1       3.083   1.883  -0.087  0.00  0.00     0.008 A 
ATOM     26  C   UNL d   1       2.903   3.275   0.025  0.00  0.00     0.015 A 
ATOM     27  C   UNL d   1       3.991   4.157  -0.015  0.00  0.00     0.001 A 
ATOM     28  C   UNL d   1       5.286   3.669  -0.169  0.00  0.00     0.000 A 
ATOM     29  C   UNL d   1       5.496   2.301  -0.280  0.00  0.00     0.001 A 
ATOM     30  C   UNL d   1       4.409   1.422  -0.239  0.00  0.00     0.015 A 
ENDBRANCH   8  25
TORSDOF 4
