REMARK  4 active torsions:
REMARK  status: ('A' for Active; 'I' for Inactive)
REMARK    1  A    between atoms: N_12  and  C_5 
REMARK    2  A    between atoms: C_20  and  N_12 
REMARK    3  A    between atoms: C_14  and  C_22 
REMARK    4  A    between atoms: C_22  and  C_20 
ROOT
ATOM      1  C   UNL d   1       2.304  -0.338   0.084  0.00  0.00     0.075 A 
ATOM      2  S   UNL d   1       4.021  -0.425   0.050  0.00  0.00    -0.095 SA
ATOM      3  C   UNL d   1       1.878   0.990   0.081  0.00  0.00     0.060 A 
ATOM      4  C   UNL d   1       2.967   1.928   0.096  0.00  0.00    -0.027 A 
ATOM      5  C   UNL d   1       1.347  -1.367   0.129  0.00  0.00     0.121 A 
ATOM      6  C   UNL d   1       4.184   1.275   0.074  0.00  0.00     0.059 A 
ATOM      7  N   UNL d   1       0.046  -0.999   0.138  0.00  0.00    -0.338 N 
ATOM      8  HN  UNL d   1      -0.689  -1.706   0.170  1.00  0.00     0.168 HD
ATOM      9  N   UNL d   1       0.569   1.337   0.081  0.00  0.00    -0.351 N 
ATOM     10  HN  UNL d   1       0.252   2.306   0.064  1.00  0.00     0.166 HD
ATOM     11  C   UNL d   1      -0.269   0.301   0.105  0.00  0.00     0.182 A 
ATOM     12  C   UNL d   1       2.805   3.412   0.148  0.00  0.00     0.051 C 
ENDROOT
BRANCH   5  13
ATOM     13  N   UNL d   1       1.684  -2.724   0.187  0.00  0.00    -0.375 N 
ATOM     14  H   UNL d   1       2.559  -2.932  -0.283  0.00  0.00     0.161 HD
BRANCH  13  15
ATOM     15  C   UNL d   1       0.569  -3.645  -0.009  0.00  0.00     0.126 C 
BRANCH  15  16
ATOM     16  C   UNL d   1       1.038  -5.105  -0.014  0.00  0.00     0.058 C 
BRANCH  16  17
ATOM     17  C   UNL d   1      -0.139  -6.054  -0.067  0.00  0.00    -0.057 A 
ATOM     18  C   UNL d   1      -0.692  -6.442  -1.297  0.00  0.00     0.009 A 
ATOM     19  C   UNL d   1      -1.812  -7.275  -1.338  0.00  0.00     0.024 A 
ATOM     20  C   UNL d   1      -2.388  -7.724  -0.152  0.00  0.00     0.034 A 
ATOM     21  C   UNL d   1      -1.850  -7.347   1.077  0.00  0.00     0.024 A 
ATOM     22 CL   UNL d   1      -3.775  -8.741  -0.204  0.00  0.00    -0.084 Cl
ATOM     23  C   UNL d   1      -0.731  -6.513   1.120  0.00  0.00     0.009 A 
ENDBRANCH  16  17
ENDBRANCH  15  16
ENDBRANCH  13  15
ENDBRANCH   5  13
TORSDOF 4
