REMARK  5 active torsions:
REMARK  status: ('A' for Active; 'I' for Inactive)
REMARK    1  A    between atoms: N_6  and  C_1 
REMARK    2  A    between atoms: C_11  and  C_2 
REMARK       I    between atoms: C_8  and  N_6 
REMARK    3  A    between atoms: C_9  and  C_8 
REMARK    4  A    between atoms: S_10  and  C_9 
REMARK    5  A    between atoms: C_17  and  S_10 
ROOT
ATOM      1  C   UNL d   1      -2.336  -0.463  -0.055  0.00  0.00     0.121 C 
ATOM      2  C   UNL d   1      -2.028  -1.776   0.003  0.00  0.00     0.117 C 
ATOM      3  C   UNL d   1      -1.256   0.473  -0.484  0.00  0.00     0.214 C 
ATOM      4  O   UNL d   1      -0.719  -2.256  -0.043  0.00  0.00    -0.306 OA
ATOM      5  C   UNL d   1       0.119  -0.013  -0.374  0.00  0.00     0.050 A 
ATOM      6  C   UNL d   1       0.316  -1.360  -0.100  0.00  0.00     0.090 A 
ATOM      7  O   UNL d   1      -1.518   1.599  -0.898  0.00  0.00    -0.285 OA
ATOM      8  C   UNL d   1       1.203   0.857  -0.510  0.00  0.00     0.018 A 
ATOM      9  C   UNL d   1       1.609  -1.845   0.088  0.00  0.00     0.038 A 
ATOM     10  C   UNL d   1       2.497   0.371  -0.328  0.00  0.00     0.001 A 
ATOM     11  C   UNL d   1       2.698  -0.975  -0.016  0.00  0.00     0.003 A 
ENDROOT
BRANCH   1  12
ATOM     12  N   UNL d   1      -3.556   0.147   0.133  0.00  0.00    -0.321 N 
ATOM     13  C   UNL d   1      -4.427   0.098   1.182  0.00  0.00     0.234 C 
ATOM     14  O   UNL d   1      -5.445   0.804   1.093  0.00  0.00    -0.272 OA
ATOM     15  H   UNL d   1      -3.647   1.045  -0.346  0.00  0.00     0.169 HD
BRANCH  13  16
ATOM     16  C   UNL d   1      -4.254  -0.769   2.411  0.00  0.00     0.211 C 
BRANCH  16  17
ATOM     17  S   UNL d   1      -2.599  -0.810   3.147  0.00  0.00     0.023 S 
ATOM     18  O   UNL d   1      -2.019   0.572   3.122  0.00  0.00    -0.258 OA
BRANCH  17  19
ATOM     19  C   UNL d   1      -3.081  -1.161   4.865  0.00  0.00     0.104 C 
ATOM     20  C   UNL d   1      -3.821  -2.474   5.016  0.00  0.00     0.018 C 
ENDBRANCH  17  19
ENDBRANCH  16  17
ENDBRANCH  13  16
ENDBRANCH   1  12
BRANCH   2  21
ATOM     21  C   UNL d   1      -3.021  -2.881  -0.014  0.00  0.00     0.000 A 
ATOM     22  C   UNL d   1      -4.179  -2.802  -0.808  0.00  0.00     0.014 A 
ATOM     23  C   UNL d   1      -5.036  -3.897  -0.950  0.00  0.00     0.001 A 
ATOM     24  C   UNL d   1      -4.740  -5.099  -0.316  0.00  0.00     0.000 A 
ATOM     25  C   UNL d   1      -3.597  -5.202   0.472  0.00  0.00     0.001 A 
ATOM     26  C   UNL d   1      -2.746  -4.102   0.624  0.00  0.00     0.014 A 
ENDBRANCH   2  21
TORSDOF 5
