REMARK  5 active torsions:
REMARK  status: ('A' for Active; 'I' for Inactive)
REMARK       I    between atoms: C_2  and  N_5 
REMARK       I    between atoms: N_6  and  C_2 
REMARK    1  A    between atoms: N_5  and  C_9 
REMARK    2  A    between atoms: C_14  and  N_6 
REMARK    3  A    between atoms: O_15  and  C_16 
REMARK    4  A    between atoms: C_18  and  O_15 
REMARK    5  A    between atoms: C_23  and  C_18 
ROOT
ATOM      1  C   UNL d   1      -2.621   3.908  -0.666  0.00  0.00     0.325 C 
ATOM      2  N   UNL d   1      -3.535   4.679   0.008  0.00  0.00    -0.309 N 
ATOM      3  N   UNL d   1      -1.338   3.907  -0.206  0.00  0.00    -0.309 N 
ATOM      4  O   UNL d   1      -3.048   3.224  -1.595  0.00  0.00    -0.247 OA
ATOM      5  H   UNL d   1      -4.469   4.421  -0.287  0.00  0.00     0.170 HD
ATOM      6  H   UNL d   1      -1.188   4.376   0.667  0.00  0.00     0.170 HD
ENDROOT
BRANCH   3   7
ATOM      7  C   UNL d   1      -0.249   3.115  -0.615  0.00  0.00     0.036 C 
ATOM      8  C   UNL d   1      -0.310   2.117  -1.585  0.00  0.00     0.032 C 
ATOM      9  C   UNL d   1       0.779   1.255  -1.771  0.00  0.00     0.039 C 
ATOM     10  C   UNL d   1       1.933   1.397  -1.001  0.00  0.00     0.069 C 
ATOM     11  C   UNL d   1       2.047   2.482  -0.135  0.00  0.00     0.039 C 
ATOM     12  C   UNL d   1       0.954   3.323   0.071  0.00  0.00     0.032 C 
BRANCH  10  13
ATOM     13  O   UNL d   1       2.884   0.418  -1.137  0.00  0.00    -0.347 OA
BRANCH  13  14
ATOM     14  C   UNL d   1       3.654   0.185   0.052  0.00  0.00     0.214 C 
BRANCH  14  15
ATOM     15  C   UNL d   1       4.138  -1.245   0.146  0.00  0.00    -0.034 A 
ATOM     16  C   UNL d   1       4.509  -1.976  -0.988  0.00  0.00     0.009 A 
ATOM     17  C   UNL d   1       4.987  -3.283  -0.859  0.00  0.00     0.001 A 
ATOM     18  C   UNL d   1       5.111  -3.866   0.401  0.00  0.00     0.000 A 
ATOM     19  C   UNL d   1       4.759  -3.143   1.539  0.00  0.00     0.001 A 
ATOM     20  C   UNL d   1       4.281  -1.838   1.412  0.00  0.00     0.009 A 
ENDBRANCH  14  15
ENDBRANCH  13  14
ENDBRANCH  10  13
ENDBRANCH   3   7
BRANCH   2  21
ATOM     21  C   UNL d   1      -3.443   5.577   1.090  0.00  0.00     0.037 C 
ATOM     22  C   UNL d   1      -2.280   6.249   1.468  0.00  0.00     0.048 C 
ATOM     23  C   UNL d   1      -2.296   6.951   2.661  0.00  0.00     0.050 A 
ATOM     24  C   UNL d   1      -1.179   7.601   3.329  0.00  0.00     0.294 A 
ATOM     25  C   UNL d   1      -3.422   7.085   3.441  0.00  0.00    -0.018 A 
ATOM     26  O   UNL d   1      -1.668   8.106   4.502  0.00  0.00    -0.313 OA
ATOM     27  O   UNL d   1      -0.033   7.641   2.934  0.00  0.00    -0.259 OA
ATOM     28  C   UNL d   1      -3.078   7.835   4.664  0.00  0.00     0.218 A 
ATOM     29  C   UNL d   1      -4.619   6.536   3.025  0.00  0.00     0.012 C 
ATOM     30  C   UNL d   1      -4.622   5.780   1.843  0.00  0.00     0.030 C 
ENDBRANCH   2  21
TORSDOF 5
