REMARK  5 active torsions:
REMARK  status: ('A' for Active; 'I' for Inactive)
REMARK    1  A    between atoms: C_14  and  C_2 
REMARK    2  A    between atoms: S_15  and  C_5 
REMARK    3  A    between atoms: C_10  and  C_22 
REMARK    4  A    between atoms: C_22  and  S_15 
REMARK    5  A    between atoms: C_16  and  C_17 
ROOT
ATOM      1  N   UNL d   1      -0.602   0.010   0.883  0.00  0.00    -0.320 N 
ATOM      2  C   UNL d   1      -0.277   1.021   0.013  0.00  0.00     0.132 A 
ATOM      3  N   UNL d   1       0.548   0.518  -0.894  0.00  0.00    -0.283 N 
ATOM      4  HN  UNL d   1       0.958   1.033  -1.673  1.00  0.00     0.188 HD
ATOM      5  C   UNL d   1       0.062  -1.098   0.451  0.00  0.00     0.161 A 
ATOM      6  N   UNL d   1       0.763  -0.815  -0.615  0.00  0.00    -0.278 N 
ATOM      7  HN  UNL d   1       1.357  -1.457  -1.140  1.00  0.00     0.189 HD
ATOM      8  H   UNL d   1      -1.193   0.059   1.698  0.00  0.00     0.169 HD
ENDROOT
BRANCH   2   9
ATOM      9  C   UNL d   1      -0.748   2.405   0.085  0.00  0.00     0.009 A 
ATOM     10  C   UNL d   1      -1.568   2.882   1.113  0.00  0.00     0.016 A 
ATOM     11  C   UNL d   1      -1.978   4.226   1.138  0.00  0.00     0.009 A 
ATOM     12  C   UNL d   1      -1.590   5.141   0.141  0.00  0.00    -0.051 A 
ATOM     13  C   UNL d   1      -0.769   4.648  -0.883  0.00  0.00     0.009 A 
ATOM     14  C   UNL d   1      -0.359   3.308  -0.909  0.00  0.00     0.016 A 
BRANCH  12  15
ATOM     15  C   UNL d   1      -2.067   6.603   0.188  0.00  0.00    -0.024 C 
ATOM     16  C   UNL d   1      -1.549   7.463  -0.989  0.00  0.00     0.019 C 
ATOM     17  C   UNL d   1      -3.609   6.649   0.140  0.00  0.00     0.019 C 
ATOM     18  C   UNL d   1      -1.584   7.279   1.488  0.00  0.00     0.019 C 
ENDBRANCH  12  15
ENDBRANCH   2   9
BRANCH   5  19
ATOM     19  S   UNL d   1      -0.071  -2.596   1.274  0.00  0.00    -0.086 SA
BRANCH  19  20
ATOM     20  C   UNL d   1       1.427  -2.525   2.301  0.00  0.00     0.140 C 
BRANCH  20  21
ATOM     21  C   UNL d   1       1.356  -1.450   3.344  0.00  0.00     0.026 A 
ATOM     22  N   UNL d   1       0.280  -1.420   4.226  0.00  0.00    -0.356 N 
ATOM     23  C   UNL d   1       0.416  -0.431   5.082  0.00  0.00     0.047 A 
ATOM     24  HN  UNL d   1      -0.504  -2.072   4.210  1.00  0.00     0.166 HD
ATOM     25  C   UNL d   1      -0.546  -0.129   6.176  0.00  0.00     0.076 C 
ATOM     26  S   UNL d   1       1.809   0.547   4.861  0.00  0.00    -0.087 SA
ATOM     27  C   UNL d   1       2.282  -0.442   3.544  0.00  0.00     0.077 A 
ENDBRANCH  20  21
ENDBRANCH  19  20
ENDBRANCH   5  19
TORSDOF 5
