REMARK  1 active torsions:
REMARK  status: ('A' for Active; 'I' for Inactive)
REMARK    1  A    between atoms: O_13  and  C_10 
ROOT
ATOM      1  C   UNL d   1       0.373   0.783  -0.011  0.00  0.00     0.092 A 
ATOM      2  C   UNL d   1      -0.544  -1.507  -0.006  0.00  0.00    -0.043 A 
ATOM      3  O   UNL d   1      -0.935   1.308  -0.015  0.00  0.00    -0.275 OA
ATOM      4  C   UNL d   1      -2.038   0.476  -0.006  0.00  0.00     0.288 A 
ATOM      5  C   UNL d   1       0.610  -0.596  -0.002  0.00  0.00     0.004 A 
ATOM      6  C   UNL d   1      -1.774  -0.969  -0.007  0.00  0.00     0.090 A 
ATOM      7  C   UNL d   1       1.401   1.731  -0.018  0.00  0.00     0.075 A 
ATOM      8  C   UNL d   1       1.947  -1.007   0.009  0.00  0.00     0.017 A 
ATOM      9  O   UNL d   1      -3.186   0.904  -0.002  0.00  0.00    -0.260 OA
ATOM     10  C   UNL d   1       2.723   1.303  -0.012  0.00  0.00     0.070 A 
ATOM     11  C   UNL d   1       2.989  -0.067   0.004  0.00  0.00     0.038 A 
ATOM     12  C   UNL d   1      -0.403  -3.001  -0.015  0.00  0.00     0.049 C 
ENDROOT
BRANCH  10  13
ATOM     13  O   UNL d   1       3.829   2.106  -0.022  0.00  0.00    -0.356 OA
ATOM     14  C   UNL d   1       3.599   3.510  -0.046  0.00  0.00     0.210 C 
ENDBRANCH  10  13
TORSDOF 1
