REMARK  6 active torsions:
REMARK  status: ('A' for Active; 'I' for Inactive)
REMARK    1  A    between atoms: C_6  and  C_1 
REMARK    2  A    between atoms: C_9  and  N_2 
REMARK       I    between atoms: N_8  and  C_6 
REMARK    3  A    between atoms: C_10  and  N_8 
REMARK    4  A    between atoms: C_11  and  N_8 
REMARK    5  A    between atoms: C_15  and  C_10 
REMARK    6  A    between atoms: C_20  and  C_11 
ROOT
ATOM      1  C   UNL d   1      -0.491   2.411   0.499  0.00  0.00     0.257 C 
ATOM      2  N   UNL d   1       0.114   3.592   0.055  0.00  0.00    -0.339 N 
ATOM      3  O   UNL d   1      -1.621   2.413   0.989  0.00  0.00    -0.267 OA
ENDROOT
BRANCH   1   4
ATOM      4  C   UNL d   1       0.222   1.143   0.343  0.00  0.00     0.073 C 
ATOM      5  C   UNL d   1       0.114   0.029   1.175  0.00  0.00     0.048 C 
ATOM      6  N   UNL d   1       0.857  -0.980   0.578  0.00  0.00    -0.260 N 
ATOM      7  C   UNL d   1      -0.558  -0.089   2.499  0.00  0.00     0.071 C 
ATOM      8  N   UNL d   1       1.583  -0.509  -0.463  0.00  0.00    -0.304 N 
ATOM      9  C   UNL d   1       1.106   0.723  -0.667  0.00  0.00     0.126 C 
ATOM     10  HN  UNL d   1       2.325  -0.986  -0.976  1.00  0.00     0.186 HD
BRANCH   6  11
ATOM     11  C   UNL d   1       0.961  -2.352   0.949  0.00  0.00     0.056 A 
ATOM     12  C   UNL d   1      -0.130  -3.037   1.504  0.00  0.00     0.034 A 
ATOM     13  C   UNL d   1       0.028  -4.352   1.948  0.00  0.00     0.044 A 
ATOM     14  C   UNL d   1       1.266  -4.972   1.833  0.00  0.00     0.116 A 
ATOM     15  C   UNL d   1       2.341  -4.322   1.237  0.00  0.00     0.044 A 
ATOM     16  F   UNL d   1       1.426  -6.216   2.305  0.00  0.00    -0.206 F 
ATOM     17  C   UNL d   1       2.184  -3.015   0.768  0.00  0.00     0.034 A 
ENDBRANCH   6  11
ENDBRANCH   1   4
BRANCH   2  18
ATOM     18  C   UNL d   1      -0.747   4.774  -0.084  0.00  0.00     0.166 C 
BRANCH  18  19
ATOM     19  C   UNL d   1      -0.640   5.823   0.993  0.00  0.00    -0.025 A 
ATOM     20  C   UNL d   1      -0.678   7.172   0.639  0.00  0.00     0.096 A 
ATOM     21  N   UNL d   1      -0.641   8.198   1.518  0.00  0.00    -0.375 N 
ATOM     22  C   UNL d   1      -0.580   7.871   2.824  0.00  0.00     0.087 A 
ATOM     23  HN  UNL d   1      -0.660   9.170   1.209  1.00  0.00     0.164 HD
ATOM     24  C   UNL d   1      -0.554   6.566   3.287  0.00  0.00     0.018 A 
ATOM     25  C   UNL d   1      -0.594   5.528   2.357  0.00  0.00     0.011 A 
ENDBRANCH  18  19
ENDBRANCH   2  18
BRANCH   2  26
ATOM     26  C   UNL d   1       1.567   3.794   0.088  0.00  0.00     0.165 C 
BRANCH  26  27
ATOM     27  C   UNL d   1       2.296   3.951  -1.231  0.00  0.00    -0.040 A 
ATOM     28  C   UNL d   1       1.679   4.179  -2.467  0.00  0.00     0.009 A 
ATOM     29  C   UNL d   1       2.445   4.399  -3.618  0.00  0.00     0.001 A 
ATOM     30  C   UNL d   1       3.836   4.374  -3.557  0.00  0.00     0.000 A 
ATOM     31  C   UNL d   1       4.467   4.121  -2.344  0.00  0.00     0.001 A 
ATOM     32  C   UNL d   1       3.704   3.917  -1.193  0.00  0.00     0.009 A 
ENDBRANCH  26  27
ENDBRANCH   2  26
TORSDOF 6
