REMARK  5 active torsions:
REMARK  status: ('A' for Active; 'I' for Inactive)
REMARK    1  A    between atoms: C_12  and  C_2 
REMARK    2  A    between atoms: N_13  and  C_6 
REMARK    3  A    between atoms: C_17  and  N_13 
REMARK    4  A    between atoms: N_14  and  C_18 
REMARK    5  A    between atoms: C_18  and  C_17 
ROOT
ATOM      1  C   UNL d   1       0.251   0.992  -0.042  0.00  0.00     0.053 A 
ATOM      2  C   UNL d   1      -1.002   1.747  -0.026  0.00  0.00    -0.003 A 
ATOM      3  C   UNL d   1      -2.094   0.896  -0.009  0.00  0.00     0.065 A 
ATOM      4  C   UNL d   1      -0.003  -0.372  -0.020  0.00  0.00     0.089 A 
ATOM      5  S   UNL d   1      -1.660  -0.751   0.029  0.00  0.00    -0.082 SA
ATOM      6  C   UNL d   1       1.623   1.347  -0.104  0.00  0.00     0.116 A 
ATOM      7  N   UNL d   1       0.903  -1.367  -0.034  0.00  0.00    -0.346 N 
ATOM      8  HN  UNL d   1       0.661  -2.357   0.009  1.00  0.00     0.167 HD
ATOM      9  N   UNL d   1       2.551   0.363  -0.166  0.00  0.00    -0.338 N 
ATOM     10  HN  UNL d   1       3.542   0.591  -0.252  1.00  0.00     0.168 HD
ATOM     11  C   UNL d   1       2.149  -0.911  -0.112  0.00  0.00     0.182 A 
ENDROOT
BRANCH   6  12
ATOM     12  N   UNL d   1       2.038   2.665  -0.148  0.00  0.00    -0.374 N 
ATOM     13  H   UNL d   1       1.776   3.198   0.681  0.00  0.00     0.161 HD
BRANCH  12  14
ATOM     14  C   UNL d   1       3.367   2.976  -0.640  0.00  0.00     0.151 C 
BRANCH  14  15
ATOM     15  C   UNL d   1       3.550   4.507  -0.627  0.00  0.00     0.286 C 
BRANCH  15  16
ATOM     16  N   UNL d   1       3.462   5.061   0.731  0.00  0.00     0.079 N 
ATOM     17  H   UNL d   1       3.625   6.067   0.694  0.00  0.00     0.312 HD
ATOM     18  H   UNL d   1       4.213   4.670   1.301  0.00  0.00     0.312 HD
ENDBRANCH  15  16
ENDBRANCH  14  15
ENDBRANCH  12  14
ENDBRANCH   6  12
BRANCH   2  19
ATOM     19  C   UNL d   1      -1.212   3.202  -0.033  0.00  0.00    -0.024 A 
ATOM     20  C   UNL d   1      -0.460   4.040  -0.865  0.00  0.00     0.012 A 
ATOM     21  C   UNL d   1      -0.581   5.430  -0.788  0.00  0.00     0.001 A 
ATOM     22  C   UNL d   1      -1.513   6.001   0.073  0.00  0.00     0.000 A 
ATOM     23  C   UNL d   1      -2.323   5.182   0.853  0.00  0.00     0.001 A 
ATOM     24  C   UNL d   1      -2.166   3.792   0.811  0.00  0.00     0.012 A 
ENDBRANCH   2  19
TORSDOF 5
