REMARK  1 active torsions:
REMARK  status: ('A' for Active; 'I' for Inactive)
REMARK    1  A    between atoms: C_13  and  C_6 
ROOT
ATOM      1  C   UNL d   1       2.002   1.401   0.065  0.00  0.00     0.030 C 
ATOM      2  N   UNL d   1       0.924   1.460  -0.633  0.00  0.00    -0.357 N 
ATOM      3  HN  UNL d   1       0.916   2.161  -1.374  1.00  0.00     0.166 HD
ATOM      4  C   UNL d   1       2.459   0.425   1.086  0.00  0.00     0.079 C 
ATOM      5  S   UNL d   1       0.555  -1.606   1.094  0.00  0.00    -0.117 SA
ATOM      6  C   UNL d   1       2.213  -1.023   0.728  0.00  0.00     0.097 C 
ATOM      7  C   UNL d   1       2.899   2.562   0.123  0.00  0.00     0.020 A 
ATOM      8  C   UNL d   1      -0.249   0.686  -0.511  0.00  0.00     0.049 A 
ATOM      9  C   UNL d   1       2.008   1.095   2.375  0.00  0.00     0.188 C 
ATOM     10  C   UNL d   1      -0.510  -0.538   0.133  0.00  0.00     0.028 A 
ATOM     11  O   UNL d   1       2.724   2.356   2.567  0.00  0.00    -0.349 OA
ATOM     12  C   UNL d   1       3.243   2.949   1.432  0.00  0.00     0.081 A 
ATOM     13  C   UNL d   1       3.538   3.083  -0.996  0.00  0.00     0.016 A 
ATOM     14  C   UNL d   1      -1.358   1.364  -1.072  0.00  0.00     0.031 A 
ATOM     15  C   UNL d   1      -1.839  -1.042   0.137  0.00  0.00     0.021 A 
ATOM     16  C   UNL d   1       4.241   3.897   1.614  0.00  0.00     0.037 A 
ATOM     17  C   UNL d   1       4.569   4.001  -0.796  0.00  0.00     0.001 A 
ATOM     18  C   UNL d   1      -2.665   0.874  -1.023  0.00  0.00     0.002 A 
ATOM     19  C   UNL d   1      -2.904  -0.349  -0.428  0.00  0.00     0.002 A 
ATOM     20  C   UNL d   1       4.917   4.406   0.501  0.00  0.00     0.003 A 
ENDROOT
BRANCH   6  21
ATOM     21  C   UNL d   1       3.322  -1.825   1.437  0.00  0.00    -0.043 A 
ATOM     22  C   UNL d   1       4.595  -1.891   0.832  0.00  0.00     0.010 A 
ATOM     23  C   UNL d   1       5.704  -2.363   1.540  0.00  0.00     0.024 A 
ATOM     24  C   UNL d   1       5.550  -2.800   2.852  0.00  0.00     0.034 A 
ATOM     25  C   UNL d   1       4.295  -2.787   3.454  0.00  0.00     0.024 A 
ATOM     26 CL   UNL d   1       6.922  -3.323   3.748  0.00  0.00    -0.084 Cl
ATOM     27  C   UNL d   1       3.189  -2.297   2.755  0.00  0.00     0.010 A 
ENDBRANCH   6  21
TORSDOF 1
