REMARK  6 active torsions:
REMARK  status: ('A' for Active; 'I' for Inactive)
REMARK    1  A    between atoms: C_4  and  C_1 
REMARK    2  A    between atoms: S_6  and  C_1 
REMARK    3  A    between atoms: C_2  and  C_3 
REMARK    4  A    between atoms: C_10  and  C_4 
REMARK    5  A    between atoms: N_14  and  C_5 
REMARK    6  A    between atoms: C_9  and  S_6 
ROOT
ATOM      1  C   UNL d   1       0.893   0.030  -0.252  0.00  0.00     0.073 C 
ATOM      2  C   UNL d   1       0.156  -0.802   0.509  0.00  0.00     0.107 C 
ENDROOT
BRANCH   1   3
ATOM      3  C   UNL d   1       2.396   0.009  -0.020  0.00  0.00     0.200 C 
ATOM      4  O   UNL d   1       2.955  -0.994   0.415  0.00  0.00    -0.286 OA
BRANCH   3   5
ATOM      5  C   UNL d   1       3.231   1.196  -0.369  0.00  0.00     0.015 A 
ATOM      6  C   UNL d   1       2.752   2.508  -0.287  0.00  0.00     0.016 A 
ATOM      7  C   UNL d   1       3.508   3.566  -0.792  0.00  0.00     0.007 A 
ATOM      8  C   UNL d   1       4.785   3.341  -1.314  0.00  0.00    -0.062 A 
ATOM      9  C   UNL d   1       5.313   2.045  -1.288  0.00  0.00     0.007 A 
ATOM     10  C   UNL d   1       5.535   4.476  -1.946  0.00  0.00     0.048 C 
ATOM     11  C   UNL d   1       4.541   0.978  -0.817  0.00  0.00     0.016 A 
ENDBRANCH   3   5
ENDBRANCH   1   3
BRANCH   1  12
ATOM     12  S   UNL d   1       0.240   1.019  -1.517  0.00  0.00    -0.067 SA
BRANCH  12  13
ATOM     13  C   UNL d   1       0.144  -0.089  -2.899  0.00  0.00     0.074 A 
ATOM     14  N   UNL d   1      -0.875   0.182  -3.750  0.00  0.00    -0.359 N 
ATOM     15  C   UNL d   1      -0.993  -0.568  -4.869  0.00  0.00     0.105 A 
ATOM     16  HN  UNL d   1      -1.537   0.932  -3.552  1.00  0.00     0.166 HD
ATOM     17  C   UNL d   1      -0.131  -1.597  -5.204  0.00  0.00     0.063 A 
ATOM     18  C   UNL d   1       0.926  -1.854  -4.327  0.00  0.00     0.020 A 
ATOM     19  C   UNL d   1       1.071  -1.089  -3.167  0.00  0.00     0.038 A 
BRANCH  17  20
ATOM     20  C   UNL d   1      -0.338  -2.390  -6.456  0.00  0.00     0.418 C 
ATOM     21  F   UNL d   1      -1.423  -1.996  -7.178  0.00  0.00    -0.166 F 
ATOM     22  F   UNL d   1       0.722  -2.310  -7.306  0.00  0.00    -0.166 F 
ATOM     23  F   UNL d   1      -0.518  -3.717  -6.208  0.00  0.00    -0.166 F 
ENDBRANCH  17  20
ENDBRANCH  12  13
ENDBRANCH   1  12
BRANCH   2  24
ATOM     24  N   UNL d   1      -1.214  -1.040   0.621  0.00  0.00    -0.397 N 
ATOM     25  C   UNL d   1      -2.249  -0.026   0.420  0.00  0.00     0.148 C 
ATOM     26  C   UNL d   1      -1.728  -2.338   1.057  0.00  0.00     0.148 C 
ENDBRANCH   2  24
TORSDOF 6
