REMARK  5 active torsions:
REMARK  status: ('A' for Active; 'I' for Inactive)
REMARK    1  A    between atoms: C_2  and  S_1 
REMARK    2  A    between atoms: N_9  and  S_1 
REMARK    3  A    between atoms: N_4  and  C_16 
REMARK    4  A    between atoms: C_14  and  N_9 
REMARK    5  A    between atoms: C_16  and  C_14 
ROOT
ATOM      1  S   UNL d   1       0.995  -0.052   0.098  0.00  0.00     0.243 S 
ATOM      2  O   UNL d   1       0.657   0.097   1.494  0.00  0.00    -0.206 OA
ATOM      3  O   UNL d   1       0.566   0.948  -0.862  0.00  0.00    -0.206 OA
ENDROOT
BRANCH   1   4
ATOM      4  C   UNL d   1       0.442  -1.635  -0.465  0.00  0.00     0.102 A 
ATOM      5  C   UNL d   1       0.838  -2.782   0.230  0.00  0.00     0.065 A 
ATOM      6  N   UNL d   1       1.700  -2.753   1.276  0.00  0.00    -0.364 N 
ATOM      7  C   UNL d   1       0.330  -4.013  -0.247  0.00  0.00    -0.008 A 
ATOM      8  C   UNL d   1       2.047  -3.916   1.874  0.00  0.00     0.088 A 
ATOM      9  HN  UNL d   1       2.082  -1.867   1.608  1.00  0.00     0.165 HD
ATOM     10  C   UNL d   1       1.585  -5.151   1.474  0.00  0.00     0.018 A 
ATOM     11  C   UNL d   1       0.709  -5.196   0.400  0.00  0.00     0.015 A 
ATOM     12  C   UNL d   1      -0.517  -4.066  -1.368  0.00  0.00     0.014 A 
ATOM     13  C   UNL d   1      -0.839  -2.908  -2.066  0.00  0.00     0.003 A 
ATOM     14  C   UNL d   1      -0.360  -1.688  -1.615  0.00  0.00     0.027 A 
ENDBRANCH   1   4
BRANCH   1  15
ATOM     15  N   UNL d   1       2.681  -0.133  -0.007  0.00  0.00    -0.214 NA
ATOM     16  H   UNL d   1       3.024  -0.565   0.855  0.00  0.00     0.140 HD
BRANCH  15  17
ATOM     17  C   UNL d   1       3.306  -0.635  -1.244  0.00  0.00     0.124 C 
BRANCH  17  18
ATOM     18  C   UNL d   1       3.010   0.193  -2.497  0.00  0.00     0.142 C 
BRANCH  18  19
ATOM     19  N   UNL d   1       3.653  -0.384  -3.664  0.00  0.00    -0.332 N 
ATOM     20  C   UNL d   1       3.131  -1.431  -4.410  0.00  0.00     0.318 C 
ATOM     21  N   UNL d   1       4.072  -1.764  -5.372  0.00  0.00    -0.341 N 
ATOM     22  O   UNL d   1       2.067  -2.000  -4.244  0.00  0.00    -0.247 OA
ATOM     23  C   UNL d   1       5.331  -1.133  -5.080  0.00  0.00     0.144 C 
ATOM     24  H   UNL d   1       3.947  -2.612  -5.908  0.00  0.00     0.164 HD
ATOM     25  C   UNL d   1       4.949   0.020  -4.157  0.00  0.00     0.147 C 
ENDBRANCH  18  19
ENDBRANCH  17  18
ENDBRANCH  15  17
ENDBRANCH   1  15
TORSDOF 5
