REMARK  5 active torsions:
REMARK  status: ('A' for Active; 'I' for Inactive)
REMARK    1  A    between atoms: C_7  and  C_1 
REMARK    2  A    between atoms: O_10  and  C_4 
REMARK    3  A    between atoms: C_8  and  C_6 
REMARK    4  A    between atoms: O_13  and  C_7 
REMARK    5  A    between atoms: C_18  and  O_13 
ROOT
ATOM      1  C   UNL d   1      -0.143   1.089   0.018  0.00  0.00     0.133 A 
ATOM      2  N   UNL d   1      -0.560  -1.210  -0.125  0.00  0.00    -0.329 N 
ATOM      3  HN  UNL d   1      -1.123  -2.058  -0.179  1.00  0.00     0.168 HD
ATOM      4  C   UNL d   1      -1.060   0.065  -0.073  0.00  0.00     0.164 A 
ATOM      5  S   UNL d   1       1.434   0.405  -0.018  0.00  0.00    -0.061 SA
ATOM      6  C   UNL d   1       0.758  -1.175  -0.096  0.00  0.00     0.087 A 
ENDROOT
BRANCH   6   7
ATOM      7  C   UNL d   1       1.610  -2.377  -0.062  0.00  0.00    -0.002 A 
ATOM      8  C   UNL d   1       1.090  -3.561   0.492  0.00  0.00     0.016 A 
ATOM      9  C   UNL d   1       1.862  -4.726   0.557  0.00  0.00     0.024 A 
ATOM     10  C   UNL d   1       3.162  -4.720   0.062  0.00  0.00     0.034 A 
ATOM     11  C   UNL d   1       3.695  -3.562  -0.499  0.00  0.00     0.024 A 
ATOM     12 CL   UNL d   1       4.114  -6.150   0.140  0.00  0.00    -0.084 Cl
ATOM     13  C   UNL d   1       2.923  -2.397  -0.561  0.00  0.00     0.016 A 
ENDBRANCH   6   7
BRANCH   1  14
ATOM     14  C   UNL d   1      -0.290   2.515   0.176  0.00  0.00     0.304 C 
ATOM     15  O   UNL d   1       0.626   3.319   0.314  0.00  0.00    -0.259 OA
BRANCH  14  16
ATOM     16  O   UNL d   1      -1.609   2.855   0.228  0.00  0.00    -0.317 OA
BRANCH  16  17
ATOM     17  C   UNL d   1      -1.907   4.170   0.712  0.00  0.00     0.174 C 
ATOM     18  C   UNL d   1      -2.038   4.106   2.223  0.00  0.00     0.034 C 
ENDBRANCH  16  17
ENDBRANCH  14  16
ENDBRANCH   1  14
BRANCH   4  19
ATOM     19  O   UNL d   1      -2.386   0.256  -0.079  0.00  0.00    -0.345 OA
ATOM     20  H   UNL d   1      -2.788  -0.629  -0.138  0.00  0.00     0.219 HD
ENDBRANCH   4  19
TORSDOF 5
