REMARK  5 active torsions:
REMARK  status: ('A' for Active; 'I' for Inactive)
REMARK    1  A    between atoms: C_10  and  N_1 
REMARK    2  A    between atoms: C_9  and  C_6 
REMARK    3  A    between atoms: C_20  and  C_9 
REMARK    4  A    between atoms: C_11  and  N_19 
REMARK    5  A    between atoms: N_19  and  N_12 
ROOT
ATOM      1  N   UNL d   1      -0.479  -0.982  -0.999  0.00  0.00    -0.227 N 
ATOM      2  N   UNL d   1       0.678  -0.204   0.646  0.00  0.00    -0.226 N 
ATOM      3  HN  UNL d   1       1.467   0.042   1.244  1.00  0.00     0.210 HD
ATOM      4  N   UNL d   1       0.775  -0.886  -0.479  0.00  0.00    -0.220 N 
ATOM      5  HN  UNL d   1       1.629  -1.270  -0.883  1.00  0.00     0.210 HD
ATOM      6  C   UNL d   1      -1.337  -0.351  -0.097  0.00  0.00     0.125 A 
ATOM      7  N   UNL d   1      -0.615   0.127   0.901  0.00  0.00    -0.271 N 
ATOM      8  HN  UNL d   1      -0.961   0.645   1.708  1.00  0.00     0.190 HD
ENDROOT
BRANCH   6   9
ATOM      9  C   UNL d   1      -2.811  -0.235  -0.141  0.00  0.00     0.126 C 
BRANCH   9  10
ATOM     10  C   UNL d   1      -3.430  -1.556   0.215  0.00  0.00     0.087 C 
ATOM     11  N   UNL d   1      -4.281  -2.125  -0.579  0.00  0.00    -0.315 N 
ATOM     12  HN  UNL d   1      -4.536  -1.736  -1.487  1.00  0.00     0.185 HD
BRANCH  11  13
ATOM     13  N   UNL d   1      -4.805  -3.280  -0.103  0.00  0.00    -0.301 N 
ATOM     14  H   UNL d   1      -4.393  -3.776   0.684  0.00  0.00     0.187 HD
BRANCH  13  15
ATOM     15  C   UNL d   1      -5.736  -4.006  -0.869  0.00  0.00     0.051 A 
ATOM     16  C   UNL d   1      -6.117  -3.625  -2.161  0.00  0.00     0.054 A 
ATOM     17  C   UNL d   1      -7.096  -4.343  -2.855  0.00  0.00     0.037 A 
ATOM     18 CL   UNL d   1      -7.524  -3.876  -4.456  0.00  0.00    -0.084 Cl
ATOM     19  C   UNL d   1      -7.733  -5.431  -2.265  0.00  0.00     0.048 A 
ATOM     20  C   UNL d   1      -7.381  -5.796  -0.972  0.00  0.00     0.037 A 
ATOM     21  C   UNL d   1      -6.394  -5.093  -0.276  0.00  0.00     0.054 A 
ATOM     22 CL   UNL d   1      -8.178  -7.117  -0.209  0.00  0.00    -0.084 Cl
ENDBRANCH  13  15
ENDBRANCH  11  13
ENDBRANCH   9  10
ENDBRANCH   6   9
BRANCH   1  23
ATOM     23  C   UNL d   1      -0.679  -1.662  -2.234  0.00  0.00     0.059 A 
ATOM     24  C   UNL d   1       0.414  -2.340  -2.811  0.00  0.00     0.031 A 
ATOM     25  C   UNL d   1       0.269  -3.049  -4.007  0.00  0.00     0.002 A 
ATOM     26  C   UNL d   1      -0.964  -3.086  -4.648  0.00  0.00     0.000 A 
ATOM     27  C   UNL d   1      -2.046  -2.405  -4.100  0.00  0.00     0.002 A 
ATOM     28  C   UNL d   1      -1.905  -1.692  -2.903  0.00  0.00     0.031 A 
ENDBRANCH   1  23
TORSDOF 5
