REMARK  2 active torsions:
REMARK  status: ('A' for Active; 'I' for Inactive)
REMARK    1  A    between atoms: C_11  and  C_8 
REMARK    2  A    between atoms: C_12  and  C_9 
ROOT
ATOM      1  C   UNL d   1       0.244   0.551  -0.026  0.00  0.00     0.172 A 
ATOM      2  N   UNL d   1       0.446  -0.787  -0.006  0.00  0.00    -0.242 N 
ATOM      3  S   UNL d   1      -1.433   0.881  -0.054  0.00  0.00    -0.037 SA
ATOM      4  N   UNL d   1      -0.600  -1.639  -0.011  0.00  0.00    -0.289 N 
ATOM      5  HN  UNL d   1      -0.561  -2.658  -0.006  1.00  0.00     0.188 HD
ATOM      6  N   UNL d   1       1.342   1.251  -0.037  0.00  0.00    -0.337 N 
ATOM      7  HN  UNL d   1       1.444   2.266  -0.049  1.00  0.00     0.168 HD
ATOM      8  C   UNL d   1      -1.674  -0.893  -0.022  0.00  0.00     0.078 A 
ATOM      9  C   UNL d   1       2.343   0.283  -0.027  0.00  0.00     0.036 A 
ATOM     10  C   UNL d   1       1.786  -0.995  -0.006  0.00  0.00     0.144 A 
ENDROOT
BRANCH   8  11
ATOM     11  C   UNL d   1      -3.084  -1.482  -0.091  0.00  0.00    -0.001 C 
ATOM     12  C   UNL d   1      -3.453  -1.655  -1.571  0.00  0.00     0.021 C 
ATOM     13  C   UNL d   1      -3.075  -2.864   0.592  0.00  0.00     0.021 C 
ATOM     14  C   UNL d   1      -4.144  -0.617   0.607  0.00  0.00     0.021 C 
ENDBRANCH   8  11
BRANCH   9  15
ATOM     15  C   UNL d   1       3.809   0.666  -0.054  0.00  0.00    -0.007 C 
ATOM     16  C   UNL d   1       3.984   2.198  -0.077  0.00  0.00     0.021 C 
ATOM     17  C   UNL d   1       4.525   0.116   1.195  0.00  0.00     0.021 C 
ATOM     18  C   UNL d   1       4.484   0.085  -1.312  0.00  0.00     0.021 C 
ENDBRANCH   9  15
TORSDOF 2
