REMARK  2 active torsions:
REMARK  status: ('A' for Active; 'I' for Inactive)
REMARK    1  A    between atoms: C_2  and  S_1 
REMARK    2  A    between atoms: C_5  and  S_1 
ROOT
ATOM      1  C   UNL d   1       0.387   1.491   0.420  0.00  0.00     0.167 C 
ATOM      2  C   UNL d   1      -0.486   2.243  -0.291  0.00  0.00     0.069 C 
ATOM      3  C   UNL d   1       1.042   1.963   1.587  0.00  0.00     0.114 C 
ATOM      4  N   UNL d   1       1.601   2.338   2.529  0.00  0.00    -0.191 NA
ATOM      5  S   UNL d   1      -0.992   3.836   0.284  0.00  0.00    -0.121 SA
ATOM      6  S   UNL d   1      -1.303   1.706  -1.740  0.00  0.00    -0.121 SA
ATOM      7  C   UNL d   1      -0.035   4.897  -0.841  0.00  0.00     0.080 C 
ATOM      8  C   UNL d   1      -0.668   2.848  -2.999  0.00  0.00     0.080 C 
ATOM      9  C   UNL d   1      -0.759   5.287  -2.129  0.00  0.00     0.011 C 
ATOM     10  C   UNL d   1      -1.403   4.184  -2.975  0.00  0.00     0.011 C 
ENDROOT
BRANCH   1  11
ATOM     11  S   UNL d   1       0.947  -0.044  -0.170  0.00  0.00     0.218 S 
ATOM     12  O   UNL d   1       2.102   0.194  -1.020  0.00  0.00    -0.216 OA
ATOM     13  O   UNL d   1      -0.146  -0.864  -0.661  0.00  0.00    -0.216 OA
BRANCH  11  14
ATOM     14  C   UNL d   1       1.559  -0.966   1.248  0.00  0.00     0.065 A 
ATOM     15  C   UNL d   1       0.690  -1.848   1.906  0.00  0.00     0.025 A 
ATOM     16  C   UNL d   1       1.194  -2.735   2.861  0.00  0.00     0.025 A 
ATOM     17  C   UNL d   1       2.558  -2.739   3.152  0.00  0.00     0.034 A 
ATOM     18  C   UNL d   1       3.421  -1.848   2.511  0.00  0.00     0.025 A 
ATOM     19 CL   UNL d   1       3.185  -3.879   4.277  0.00  0.00    -0.084 Cl
ATOM     20  C   UNL d   1       2.926  -0.963   1.549  0.00  0.00     0.025 A 
ENDBRANCH  11  14
ENDBRANCH   1  11
TORSDOF 2
