REMARK  2 active torsions:
REMARK  status: ('A' for Active; 'I' for Inactive)
REMARK    1  A    between atoms: C_2  and  C_1 
REMARK       I    between atoms: N_4  and  C_2 
REMARK    2  A    between atoms: C_12  and  N_4 
ROOT
ATOM      1  C   UNL d   1      -2.459  -2.216  -0.108  0.00  0.00     0.257 C 
ATOM      2  N   UNL d   1      -2.381  -3.571   0.144  0.00  0.00    -0.322 N 
ATOM      3  O   UNL d   1      -3.495  -1.612  -0.365  0.00  0.00    -0.267 OA
ATOM      4  H   UNL d   1      -1.502  -3.938   0.489  0.00  0.00     0.169 HD
ENDROOT
BRANCH   1   5
ATOM      5  C   UNL d   1      -1.179  -1.438  -0.123  0.00  0.00     0.054 A 
ATOM      6  C   UNL d   1       0.015  -1.782   0.528  0.00  0.00     0.051 A 
ATOM      7  C   UNL d   1       1.160  -0.984   0.373  0.00  0.00     0.048 A 
ATOM      8 CL   UNL d   1       0.180  -3.152   1.571  0.00  0.00    -0.083 Cl
ATOM      9  C   UNL d   1       1.117   0.161  -0.419  0.00  0.00     0.035 A 
ATOM     10  C   UNL d   1      -0.062   0.532  -1.051  0.00  0.00     0.025 A 
ATOM     11 CL   UNL d   1       2.531   1.119  -0.619  0.00  0.00    -0.084 Cl
ATOM     12  C   UNL d   1      -1.201  -0.261  -0.901  0.00  0.00     0.020 A 
ENDBRANCH   1   5
BRANCH   2  13
ATOM     13  C   UNL d   1      -3.418  -4.514  -0.040  0.00  0.00     0.050 A 
ATOM     14  C   UNL d   1      -4.644  -4.245  -0.646  0.00  0.00     0.117 A 
ATOM     15  N   UNL d   1      -5.604  -5.180  -0.877  0.00  0.00    -0.373 N 
ATOM     16  C   UNL d   1      -5.337  -6.438  -0.476  0.00  0.00     0.088 A 
ATOM     17  HN  UNL d   1      -6.484  -4.940  -1.332  1.00  0.00     0.164 HD
ATOM     18  C   UNL d   1      -4.158  -6.808   0.149  0.00  0.00     0.019 A 
ATOM     19  C   UNL d   1      -3.187  -5.830   0.366  0.00  0.00     0.032 A 
ENDBRANCH   2  13
TORSDOF 2
