REMARK  4 active torsions:
REMARK  status: ('A' for Active; 'I' for Inactive)
REMARK    1  A    between atoms: C_6  and  C_1 
REMARK    2  A    between atoms: C_8  and  C_2 
REMARK    3  A    between atoms: C_9  and  N_3 
REMARK    4  A    between atoms: O_16  and  C_8 
ROOT
ATOM      1  C   UNL d   1       0.991  -0.866  -0.021  0.00  0.00     0.158 C 
ATOM      2  C   UNL d   1      -0.352  -1.234  -0.023  0.00  0.00     0.088 C 
ATOM      3  N   UNL d   1       1.027   0.513   0.072  0.00  0.00    -0.251 N 
ATOM      4  N   UNL d   1      -0.218   1.006   0.324  0.00  0.00    -0.303 N 
ATOM      5  HN  UNL d   1      -0.466   1.962   0.579  1.00  0.00     0.186 HD
ATOM      6  C   UNL d   1      -1.038  -0.026   0.166  0.00  0.00     0.128 C 
ENDROOT
BRANCH   3   7
ATOM      7  C   UNL d   1       2.105   1.442  -0.054  0.00  0.00     0.057 A 
ATOM      8  C   UNL d   1       3.246   1.167  -0.817  0.00  0.00     0.033 A 
ATOM      9  C   UNL d   1       4.274   2.113  -0.914  0.00  0.00     0.026 A 
ATOM     10  C   UNL d   1       4.164   3.337  -0.259  0.00  0.00     0.034 A 
ATOM     11  C   UNL d   1       3.024   3.634   0.482  0.00  0.00     0.026 A 
ATOM     12 CL   UNL d   1       5.433   4.491  -0.382  0.00  0.00    -0.084 Cl
ATOM     13  C   UNL d   1       1.992   2.696   0.574  0.00  0.00     0.033 A 
ENDBRANCH   3   7
BRANCH   1  14
ATOM     14  C   UNL d   1       2.198  -1.710   0.009  0.00  0.00     0.435 C 
ATOM     15  F   UNL d   1       1.946  -2.963   0.456  0.00  0.00    -0.165 F 
ATOM     16  F   UNL d   1       2.774  -1.830  -1.211  0.00  0.00    -0.165 F 
ATOM     17  F   UNL d   1       3.139  -1.210   0.851  0.00  0.00    -0.165 F 
ENDBRANCH   1  14
BRANCH   2  18
ATOM     18  C   UNL d   1      -0.886  -2.574  -0.175  0.00  0.00     0.179 C 
ATOM     19  O   UNL d   1      -0.321  -3.449  -0.805  0.00  0.00    -0.646 OA
BRANCH  18  20
ATOM     20  O   UNL d   1      -2.079  -2.785   0.438  0.00  0.00    -0.773 OA
ATOM     21  H   UNL d   1      -2.372  -2.059   1.014  0.00  0.00     0.167 HD
ENDBRANCH  18  20
ENDBRANCH   2  18
TORSDOF 4
