REMARK  2 active torsions:
REMARK  status: ('A' for Active; 'I' for Inactive)
REMARK    1  A    between atoms: C_6  and  N_1 
REMARK    2  A    between atoms: N_10  and  C_8 
ROOT
ATOM      1  N   UNL d   1      -2.434  -0.743  -0.027  0.00  0.00    -0.239 N 
ATOM      2  C   UNL d   1      -1.382  -1.632   0.014  0.00  0.00     0.284 A 
ATOM      3  C   UNL d   1      -2.001   0.567  -0.013  0.00  0.00     0.284 A 
ATOM      4  C   UNL d   1      -0.535   0.499  -0.029  0.00  0.00     0.134 A 
ATOM      5  C   UNL d   1      -0.170  -0.821  -0.028  0.00  0.00     0.134 A 
ATOM      6  N   UNL d   1       0.338   1.522  -0.014  0.00  0.00    -0.358 N 
ATOM      7  HN  UNL d   1       0.059   2.503   0.003  1.00  0.00     0.165 HD
ATOM      8  N   UNL d   1       1.104  -1.259  -0.043  0.00  0.00    -0.358 N 
ATOM      9  HN  UNL d   1       1.363  -2.246  -0.050  1.00  0.00     0.165 HD
ATOM     10  O   UNL d   1      -1.408  -2.848   0.054  0.00  0.00    -0.265 OA
ATOM     11  O   UNL d   1      -2.652   1.588   0.083  0.00  0.00    -0.265 OA
ATOM     12  C   UNL d   1       1.635   1.108  -0.025  0.00  0.00     0.105 A 
ATOM     13  C   UNL d   1       2.007  -0.244  -0.049  0.00  0.00     0.105 A 
ENDROOT
BRANCH   1  14
ATOM     14  C   UNL d   1      -3.785  -1.147  -0.012  0.00  0.00     0.069 A 
ATOM     15  C   UNL d   1      -4.217  -2.017   1.001  0.00  0.00     0.058 A 
ATOM     16  C   UNL d   1      -5.528  -2.515   1.031  0.00  0.00     0.063 A 
ATOM     17 CL   UNL d   1      -5.844  -3.663   2.286  0.00  0.00    -0.082 Cl
ATOM     18  C   UNL d   1      -6.428  -2.166   0.011  0.00  0.00     0.061 A 
ATOM     19  C   UNL d   1      -5.990  -1.303  -1.014  0.00  0.00     0.058 A 
ATOM     20  C   UNL d   1      -4.689  -0.784  -1.018  0.00  0.00     0.063 A 
ATOM     21 CL   UNL d   1      -4.217   0.164  -2.386  0.00  0.00    -0.082 Cl
BRANCH  18  22
ATOM     22  N   UNL d   1      -7.760  -2.670  -0.066  0.00  0.00    -0.331 N 
ATOM     23  C   UNL d   1      -8.616  -2.958   0.977  0.00  0.00     0.096 A 
ATOM     24  C   UNL d   1      -9.802  -3.447   0.474  0.00  0.00     0.019 A 
ATOM     25  C   UNL d   1      -9.697  -3.430  -0.930  0.00  0.00     0.019 A 
ATOM     26  C   UNL d   1      -8.453  -2.925  -1.238  0.00  0.00     0.096 A 
ENDBRANCH  18  22
ENDBRANCH   1  14
TORSDOF 2
