REMARK  6 active torsions:
REMARK  status: ('A' for Active; 'I' for Inactive)
REMARK       I    between atoms: N_4  and  C_1 
REMARK    1  A    between atoms: C_6  and  C_1 
REMARK       I    between atoms: C_2  and  N_5 
REMARK    2  A    between atoms: C_14  and  C_2 
REMARK    3  A    between atoms: C_3  and  C_9 
REMARK    4  A    between atoms: N_5  and  N_4 
REMARK    5  A    between atoms: O_15  and  C_14 
REMARK    6  A    between atoms: C_16  and  O_15 
ROOT
ATOM      1  C   UNL d   1       0.922  -1.399   4.717  0.00  0.00     0.280 C 
ENDROOT
BRANCH   1   2
ATOM      2  C   UNL d   1       0.161  -1.009   3.446  0.00  0.00     0.260 C 
ATOM      3  N   UNL d   1      -1.209  -1.123   3.518  0.00  0.00    -0.266 N 
ATOM      4  H   UNL d   1      -1.692  -1.471   4.348  0.00  0.00     0.190 HD
ATOM      5  O   UNL d   1       0.739  -0.631   2.427  0.00  0.00    -0.269 OA
BRANCH   3   6
ATOM      6  N   UNL d   1      -1.976  -0.813   2.390  0.00  0.00    -0.267 N 
ATOM      7  C   UNL d   1      -3.341  -0.990   2.440  0.00  0.00     0.243 C 
ATOM      8  O   UNL d   1      -3.898  -1.369   3.471  0.00  0.00    -0.271 OA
ATOM      9  H   UNL d   1      -1.462  -0.538   1.553  0.00  0.00     0.190 HD
BRANCH   7  10
ATOM     10  C   UNL d   1      -4.107  -0.695   1.137  0.00  0.00     0.032 C 
ATOM     11  C   UNL d   1      -3.607  -1.613   0.010  0.00  0.00     0.025 C 
ATOM     12  C   UNL d   1      -5.607  -0.957   1.358  0.00  0.00     0.025 C 
ATOM     13  C   UNL d   1      -3.924   0.772   0.717  0.00  0.00     0.025 C 
ENDBRANCH   7  10
ENDBRANCH   3   6
ENDBRANCH   1   2
BRANCH   1  14
ATOM     14  O   UNL d   1       0.045  -1.795   5.765  0.00  0.00    -0.342 OA
BRANCH  14  15
ATOM     15  C   UNL d   1       0.636  -2.108   6.960  0.00  0.00     0.069 A 
ATOM     16  C   UNL d   1      -0.182  -1.961   8.080  0.00  0.00     0.037 A 
ATOM     17  C   UNL d   1       0.289  -2.282   9.357  0.00  0.00     0.012 A 
ATOM     18  C   UNL d   1       1.590  -2.776   9.540  0.00  0.00    -0.035 A 
ATOM     19  C   UNL d   1       2.403  -2.924   8.402  0.00  0.00     0.012 A 
ATOM     20  C   UNL d   1       1.932  -2.592   7.124  0.00  0.00     0.037 A 
BRANCH  18  21
ATOM     21  C   UNL d   1       2.064  -3.163  10.928  0.00  0.00     0.141 C 
ATOM     22  S   UNL d   1       3.554  -2.243  11.443  0.00  0.00    -0.148 SA
ATOM     23  C   UNL d   1       4.413  -3.643  12.204  0.00  0.00     0.085 C 
ATOM     24  C   UNL d   1       4.143  -4.866  11.353  0.00  0.00     0.085 C 
ATOM     25  S   UNL d   1       2.357  -4.960  11.076  0.00  0.00    -0.148 SA
ENDBRANCH  18  21
ENDBRANCH  14  15
ENDBRANCH   1  14
TORSDOF 6
