REMARK  2 active torsions:
REMARK  status: ('A' for Active; 'I' for Inactive)
REMARK    1  A    between atoms: N_5  and  C_1 
REMARK    2  A    between atoms: O_10  and  C_2 
REMARK       I    between atoms: C_3  and  N_5 
REMARK       I    between atoms: N_8  and  C_3 
ROOT
ATOM      1  C   UNL d   1      -2.244   3.738  -0.224  0.00  0.00     0.323 C 
ATOM      2  N   UNL d   1      -2.270   2.379  -0.021  0.00  0.00    -0.306 N 
ATOM      3  N   UNL d   1      -0.980   4.279  -0.451  0.00  0.00    -0.334 N 
ATOM      4  O   UNL d   1      -3.250   4.445  -0.167  0.00  0.00    -0.247 OA
ATOM      5  C   UNL d   1      -0.836   5.726  -0.303  0.00  0.00     0.127 C 
ATOM      6  C   UNL d   1       0.268   3.516  -0.553  0.00  0.00     0.127 C 
ATOM      7  C   UNL d   1       0.081   6.321  -1.368  0.00  0.00     0.020 C 
ATOM      8  C   UNL d   1       1.224   4.108  -1.587  0.00  0.00     0.020 C 
ATOM      9  C   UNL d   1       1.425   5.606  -1.387  0.00  0.00     0.003 C 
ATOM     10  H   UNL d   1      -1.444   1.965   0.380  0.00  0.00     0.171 HD
ENDROOT
BRANCH   2  11
ATOM     11  C   UNL d   1      -3.449   1.664   0.189  0.00  0.00     0.078 A 
ATOM     12  C   UNL d   1      -3.554   0.552   1.087  0.00  0.00     0.124 A 
ATOM     13  C   UNL d   1      -4.792  -0.038   1.021  0.00  0.00     0.110 A 
ATOM     14 CL   UNL d   1      -5.352  -1.410   1.894  0.00  0.00    -0.073 Cl
ATOM     15  S   UNL d   1      -5.857   0.764  -0.025  0.00  0.00    -0.085 SA
ATOM     16  C   UNL d   1      -4.655   1.916  -0.437  0.00  0.00     0.083 A 
BRANCH  12  17
ATOM     17  O   UNL d   1      -2.587   0.096   1.927  0.00  0.00    -0.351 OA
ATOM     18  C   UNL d   1      -2.099   1.114   2.803  0.00  0.00     0.210 C 
ENDBRANCH  12  17
ENDBRANCH   2  11
TORSDOF 2
