REMARK  5 active torsions:
REMARK  status: ('A' for Active; 'I' for Inactive)
REMARK    1  A    between atoms: S_17  and  C_3 
REMARK    2  A    between atoms: S_6  and  C_14 
REMARK    3  A    between atoms: C_11  and  S_6 
REMARK    4  A    between atoms: C_14  and  C_21 
REMARK    5  A    between atoms: C_21  and  S_17 
ROOT
ATOM      1  C   UNL d   1       0.896  -0.697  -1.090  0.00  0.00     0.042 A 
ATOM      2  C   UNL d   1       0.907   0.697  -0.701  0.00  0.00    -0.014 A 
ATOM      3  C   UNL d   1       1.138  -1.540  -0.023  0.00  0.00     0.057 A 
ATOM      4  C   UNL d   1       1.143   0.846   0.657  0.00  0.00     0.093 A 
ATOM      5  S   UNL d   1       1.330  -0.663   1.435  0.00  0.00    -0.071 SA
ATOM      6  C   UNL d   1       0.672  -1.091  -2.484  0.00  0.00     0.162 C 
ATOM      7  C   UNL d   1       1.240   2.091   1.356  0.00  0.00     0.107 C 
ATOM      8  N   UNL d   1       1.315   3.120   1.891  0.00  0.00    -0.191 NA
ATOM      9  C   UNL d   1       0.716   1.814  -1.704  0.00  0.00     0.050 C 
ATOM     10  C   UNL d   1       0.148   1.319  -3.065  0.00  0.00    -0.037 C 
ATOM     11  C   UNL d   1       0.864   0.020  -3.501  0.00  0.00     0.093 C 
ATOM     12  O   UNL d   1       0.339  -2.222  -2.828  0.00  0.00    -0.292 OA
ATOM     13  C   UNL d   1       0.386   2.394  -4.142  0.00  0.00     0.015 C 
ATOM     14  C   UNL d   1      -1.373   1.083  -2.960  0.00  0.00     0.015 C 
ENDROOT
BRANCH   3  15
ATOM     15  S   UNL d   1       1.383  -3.286  -0.054  0.00  0.00    -0.121 SA
BRANCH  15  16
ATOM     16  C   UNL d   1      -0.279  -3.902   0.364  0.00  0.00     0.095 C 
BRANCH  16  17
ATOM     17  C   UNL d   1      -0.369  -5.427   0.345  0.00  0.00     0.156 C 
BRANCH  17  18
ATOM     18  S   UNL d   1       0.442  -6.181   1.742  0.00  0.00     0.176 S 
ATOM     19  O   UNL d   1       1.880  -6.093   1.576  0.00  0.00    -0.223 OA
ATOM     20  O   UNL d   1      -0.198  -5.684   2.947  0.00  0.00    -0.223 OA
BRANCH  18  21
ATOM     21  C   UNL d   1       0.036  -7.914   1.611  0.00  0.00     0.059 A 
ATOM     22  C   UNL d   1       0.794  -8.734   0.770  0.00  0.00     0.024 A 
ATOM     23  C   UNL d   1       0.541 -10.108   0.733  0.00  0.00     0.008 A 
ATOM     24  C   UNL d   1      -0.455 -10.671   1.542  0.00  0.00    -0.062 A 
ATOM     25  C   UNL d   1      -1.202  -9.839   2.387  0.00  0.00     0.008 A 
ATOM     26  C   UNL d   1      -0.710 -12.151   1.496  0.00  0.00     0.048 C 
ATOM     27  C   UNL d   1      -0.955  -8.463   2.428  0.00  0.00     0.024 A 
ENDBRANCH  18  21
ENDBRANCH  17  18
ENDBRANCH  16  17
ENDBRANCH  15  16
ENDBRANCH   3  15
TORSDOF 5
