REMARK  7 active torsions:
REMARK  status: ('A' for Active; 'I' for Inactive)
REMARK    1  A    between atoms: N_15  and  C_3 
REMARK    2  A    between atoms: C_7  and  C_4 
REMARK    3  A    between atoms: C_5  and  C_11 
REMARK    4  A    between atoms: S_12  and  C_6 
REMARK    5  A    between atoms: O_19  and  C_7 
REMARK    6  A    between atoms: C_21  and  S_12 
REMARK    7  A    between atoms: C_20  and  C_21 
ROOT
ATOM      1  N   UNL d   1       0.292  -1.085  -0.506  0.00  0.00    -0.327 N 
ATOM      2  HN  UNL d   1       0.789  -1.918  -0.821  1.00  0.00     0.169 HD
ATOM      3  C   UNL d   1       0.850   0.132  -0.597  0.00  0.00     0.098 A 
ATOM      4  C   UNL d   1       0.218   1.274  -0.150  0.00  0.00     0.091 A 
ATOM      5  C   UNL d   1      -0.946  -1.168   0.016  0.00  0.00     0.145 A 
ATOM      6  N   UNL d   1      -1.662  -0.112   0.439  0.00  0.00    -0.346 N 
ATOM      7  HN  UNL d   1      -2.607  -0.214   0.809  1.00  0.00     0.167 HD
ATOM      8  C   UNL d   1      -1.055   1.096   0.347  0.00  0.00     0.111 A 
ENDROOT
BRANCH   5   9
ATOM      9  S   UNL d   1      -1.582  -2.810   0.229  0.00  0.00    -0.089 SA
BRANCH   9  10
ATOM     10  C   UNL d   1      -3.371  -2.511   0.105  0.00  0.00     0.121 C 
BRANCH  10  11
ATOM     11  C   UNL d   1      -4.145  -3.813   0.187  0.00  0.00    -0.048 A 
ATOM     12  C   UNL d   1      -4.438  -4.556  -0.970  0.00  0.00     0.024 A 
ATOM     13  C   UNL d   1      -5.147  -5.769  -0.896  0.00  0.00     0.048 A 
ATOM     14  C   UNL d   1      -5.557  -6.242   0.360  0.00  0.00     0.016 A 
ATOM     15  C   UNL d   1      -5.262  -5.520   1.515  0.00  0.00     0.001 A 
ATOM     16  C   UNL d   1      -4.558  -4.317   1.430  0.00  0.00     0.008 A 
BRANCH  13  17
ATOM     17  C   UNL d   1      -5.473  -6.568  -2.135  0.00  0.00     0.417 C 
ATOM     18  F   UNL d   1      -5.023  -5.999  -3.288  0.00  0.00    -0.166 F 
ATOM     19  F   UNL d   1      -4.940  -7.822  -2.105  0.00  0.00    -0.166 F 
ATOM     20  F   UNL d   1      -6.814  -6.739  -2.305  0.00  0.00    -0.166 F 
ENDBRANCH  13  17
ENDBRANCH  10  11
ENDBRANCH   9  10
ENDBRANCH   5   9
BRANCH   3  21
ATOM     21  N   UNL d   1       2.139   0.155  -1.153  0.00  0.00    -0.288 NA
ATOM     22  H   UNL d   1       2.356  -0.816  -1.397  0.00  0.00     0.125 HD
ATOM     23  H   UNL d   1       2.154   0.718  -2.007  0.00  0.00     0.125 HD
ENDBRANCH   3  21
BRANCH   4  24
ATOM     24  C   UNL d   1       0.821   2.617  -0.153  0.00  0.00     0.180 C 
ATOM     25  O   UNL d   1       0.142   3.630  -0.161  0.00  0.00    -0.646 OA
BRANCH  24  26
ATOM     26  O   UNL d   1       2.168   2.630  -0.098  0.00  0.00    -0.773 OA
ATOM     27  H   UNL d   1       2.585   1.735  -0.107  0.00  0.00     0.167 HD
ENDBRANCH  24  26
ENDBRANCH   4  24
TORSDOF 7
