REMARK  3 active torsions:
REMARK  status: ('A' for Active; 'I' for Inactive)
REMARK    1  A    between atoms: C_10  and  C_6 
REMARK    2  A    between atoms: S_9  and  C_10 
REMARK    3  A    between atoms: C_11  and  S_9 
ROOT
ATOM      1  N   UNL d   1       0.347   0.928   0.213  0.00  0.00    -0.275 N 
ATOM      2  C   UNL d   1       0.900   0.169   1.202  0.00  0.00     0.327 A 
ATOM      3  C   UNL d   1      -0.321   0.435  -0.871  0.00  0.00     0.251 A 
ATOM      4  C   UNL d   1      -0.439  -1.034  -0.951  0.00  0.00     0.100 A 
ATOM      5  N   UNL d   1       0.739  -1.181   1.072  0.00  0.00    -0.311 N 
ATOM      6  C   UNL d   1       0.099  -1.791   0.016  0.00  0.00     0.028 A 
ATOM      7  O   UNL d   1       1.503   0.663   2.148  0.00  0.00    -0.247 OA
ATOM      8  O   UNL d   1      -0.805   1.151  -1.739  0.00  0.00    -0.268 OA
ATOM      9  H   UNL d   1       0.453   1.927   0.284  0.00  0.00     0.173 HD
ATOM     10  H   UNL d   1       1.187  -1.745   1.788  0.00  0.00     0.170 HD
ENDROOT
BRANCH   6  11
ATOM     11  C   UNL d   1       0.027  -3.301   0.020  0.00  0.00     0.136 C 
BRANCH  11  12
ATOM     12  S   UNL d   1       1.721  -3.987  -0.018  0.00  0.00    -0.124 SA
BRANCH  12  13
ATOM     13  C   UNL d   1       1.450  -5.751  -0.016  0.00  0.00     0.001 A 
ATOM     14  C   UNL d   1       2.402  -6.542  -0.677  0.00  0.00     0.020 A 
ATOM     15  C   UNL d   1       2.309  -7.936  -0.666  0.00  0.00     0.025 A 
ATOM     16  C   UNL d   1       1.262  -8.551   0.013  0.00  0.00     0.034 A 
ATOM     17  C   UNL d   1       0.309  -7.781   0.675  0.00  0.00     0.025 A 
ATOM     18 CL   UNL d   1       1.155 -10.267   0.049  0.00  0.00    -0.084 Cl
ATOM     19  C   UNL d   1       0.405  -6.384   0.664  0.00  0.00     0.020 A 
ENDBRANCH  12  13
ENDBRANCH  11  12
ENDBRANCH   6  11
TORSDOF 3
