REMARK  2 active torsions:
REMARK  status: ('A' for Active; 'I' for Inactive)
REMARK    1  A    between atoms: N_7  and  C_2 
REMARK    2  A    between atoms: C_8  and  C_5 
ROOT
ATOM      1  C   UNL d   1      -0.608   1.266   0.023  0.00  0.00     0.136 A 
ATOM      2  C   UNL d   1      -1.385   0.155  -0.026  0.00  0.00     0.060 A 
ATOM      3  C   UNL d   1      -0.673  -1.117  -0.070  0.00  0.00     0.069 A 
ATOM      4  C   UNL d   1       0.886   1.201   0.014  0.00  0.00     0.312 A 
ATOM      5  C   UNL d   1       0.662  -1.196  -0.029  0.00  0.00     0.092 A 
ATOM      6  O   UNL d   1       1.459  -0.039   0.022  0.00  0.00    -0.273 OA
ATOM      7  O   UNL d   1       1.591   2.206   0.014  0.00  0.00    -0.258 OA
ATOM      8 CL   UNL d   1      -1.242   2.875   0.208  0.00  0.00    -0.075 Cl
ENDROOT
BRANCH   5   9
ATOM      9  C   UNL d   1       1.407  -2.474   0.010  0.00  0.00    -0.002 A 
ATOM     10  C   UNL d   1       0.912  -3.642  -0.595  0.00  0.00     0.017 A 
ATOM     11  C   UNL d   1       1.612  -4.850  -0.509  0.00  0.00     0.043 A 
ATOM     12  C   UNL d   1       2.820  -4.894   0.170  0.00  0.00     0.116 A 
ATOM     13  C   UNL d   1       3.349  -3.753   0.757  0.00  0.00     0.043 A 
ATOM     14  F   UNL d   1       3.485  -6.055   0.262  0.00  0.00    -0.206 F 
ATOM     15  C   UNL d   1       2.646  -2.546   0.674  0.00  0.00     0.017 A 
ENDBRANCH   5   9
BRANCH   2  16
ATOM     16  N   UNL d   1      -2.797   0.074  -0.027  0.00  0.00    -0.388 N 
ATOM     17  C   UNL d   1      -3.679   1.061  -0.662  0.00  0.00     0.149 C 
ATOM     18  C   UNL d   1      -3.560  -1.032   0.570  0.00  0.00     0.149 C 
ENDBRANCH   2  16
TORSDOF 2
