REMARK  7 active torsions:
REMARK  status: ('A' for Active; 'I' for Inactive)
REMARK    1  A    between atoms: S_8  and  C_4 
REMARK    2  A    between atoms: C_9  and  C_7 
REMARK    3  A    between atoms: S_10  and  C_9 
REMARK    4  A    between atoms: C_13  and  S_10 
REMARK    5  A    between atoms: C_11  and  O_12 
REMARK    6  A    between atoms: O_12  and  C_14 
REMARK    7  A    between atoms: C_14  and  C_13 
ROOT
ATOM      1  C   UNL d   1       4.692   0.800  -1.411  0.00  0.00     0.160 C 
ENDROOT
BRANCH   1   2
ATOM      2  C   UNL d   1       4.712   0.024  -2.670  0.00  0.00     0.150 A 
ATOM      3  N   UNL d   1       5.732  -0.474  -3.336  0.00  0.00    -0.280 N 
ATOM      4  N   UNL d   1       5.197  -1.140  -4.416  0.00  0.00    -0.272 N 
ATOM      5  HN  UNL d   1       6.720  -0.384  -3.100  1.00  0.00     0.189 HD
ATOM      6  C   UNL d   1       3.891  -0.995  -4.342  0.00  0.00     0.200 A 
ATOM      7  HN  UNL d   1       5.713  -1.648  -5.135  1.00  0.00     0.189 HD
ATOM      8  O   UNL d   1       3.508  -0.253  -3.258  0.00  0.00    -0.272 OA
BRANCH   6   9
ATOM      9  S   UNL d   1       2.773  -1.663  -5.481  0.00  0.00    -0.098 SA
ATOM     10  H   UNL d   1       3.688  -2.313  -6.212  0.00  0.00     0.110 HD
ENDBRANCH   6   9
ENDBRANCH   1   2
BRANCH   1  11
ATOM     11  S   UNL d   1       4.524  -0.267   0.065  0.00  0.00    -0.159 SA
BRANCH  11  12
ATOM     12  C   UNL d   1       6.058  -1.269  -0.050  0.00  0.00     0.101 C 
BRANCH  12  13
ATOM     13  C   UNL d   1       7.317  -0.411   0.017  0.00  0.00     0.186 C 
BRANCH  13  14
ATOM     14  O   UNL d   1       8.476  -1.247   0.019  0.00  0.00    -0.350 OA
BRANCH  14  15
ATOM     15  C   UNL d   1       9.678  -0.585   0.036  0.00  0.00     0.068 A 
ATOM     16  C   UNL d   1       9.843   0.802   0.100  0.00  0.00     0.037 A 
ATOM     17  C   UNL d   1      11.122   1.362   0.124  0.00  0.00     0.003 A 
ATOM     18  C   UNL d   1      12.245   0.539   0.085  0.00  0.00     0.000 A 
ATOM     19  C   UNL d   1      12.088  -0.843   0.016  0.00  0.00     0.003 A 
ATOM     20  C   UNL d   1      10.809  -1.403  -0.009  0.00  0.00     0.037 A 
ENDBRANCH  14  15
ENDBRANCH  13  14
ENDBRANCH  12  13
ENDBRANCH  11  12
ENDBRANCH   1  11
TORSDOF 7
