REMARK  6 active torsions:
REMARK  status: ('A' for Active; 'I' for Inactive)
REMARK    1  A    between atoms: C_10  and  C_2 
REMARK    2  A    between atoms: S_12  and  C_3 
REMARK    3  A    between atoms: N_6  and  C_10 
REMARK    4  A    between atoms: O_19  and  C_11 
REMARK    5  A    between atoms: C_18  and  S_12 
REMARK    6  A    between atoms: C_21  and  C_18 
ROOT
ATOM      1  N   UNL d   1       0.762  -0.060   0.121  0.00  0.00    -0.318 N 
ATOM      2  C   UNL d   1      -0.057   1.038  -0.013  0.00  0.00     0.118 A 
ATOM      3  C   UNL d   1      -0.050  -1.145  -0.072  0.00  0.00     0.162 A 
ATOM      4  N   UNL d   1      -1.297   0.622  -0.193  0.00  0.00    -0.285 N 
ATOM      5  HN  UNL d   1      -2.120   1.218  -0.286  1.00  0.00     0.188 HD
ATOM      6  N   UNL d   1      -1.289  -0.748  -0.233  0.00  0.00    -0.278 N 
ATOM      7  HN  UNL d   1      -2.102  -1.351  -0.365  1.00  0.00     0.189 HD
ATOM      8  C   UNL d   1       2.181  -0.074   0.364  0.00  0.00     0.160 C 
ENDROOT
BRANCH   2   9
ATOM      9  C   UNL d   1       0.382   2.466  -0.020  0.00  0.00     0.210 C 
BRANCH   9  10
ATOM     10  N   UNL d   1       0.596   2.980   1.335  0.00  0.00    -0.315 N 
ATOM     11  C   UNL d   1       1.843   3.537   1.647  0.00  0.00     0.281 A 
ATOM     12  C   UNL d   1       2.007   4.079   3.060  0.00  0.00     0.136 A 
ATOM     13  O   UNL d   1       2.762   3.570   0.829  0.00  0.00    -0.265 OA
ATOM     14  C   UNL d   1       0.939   4.039   3.872  0.00  0.00     0.044 A 
ATOM     15  C   UNL d   1      -0.329   3.513   3.451  0.00  0.00     0.020 A 
ATOM     16  C   UNL d   1      -0.467   3.006   2.223  0.00  0.00     0.095 A 
BRANCH  12  17
ATOM     17  O   UNL d   1       3.183   4.604   3.578  0.00  0.00    -0.351 OA
ATOM     18  C   UNL d   1       4.321   4.664   2.730  0.00  0.00     0.210 C 
ENDBRANCH  12  17
ENDBRANCH   9  10
ENDBRANCH   2   9
BRANCH   3  19
ATOM     19  S   UNL d   1       0.509  -2.780  -0.142  0.00  0.00    -0.088 SA
BRANCH  19  20
ATOM     20  C   UNL d   1      -0.868  -3.531  -1.064  0.00  0.00     0.121 C 
BRANCH  20  21
ATOM     21  C   UNL d   1      -0.689  -5.021  -1.241  0.00  0.00    -0.048 A 
ATOM     22  C   UNL d   1      -1.220  -5.917  -0.299  0.00  0.00     0.009 A 
ATOM     23  C   UNL d   1      -1.079  -7.295  -0.470  0.00  0.00     0.024 A 
ATOM     24  C   UNL d   1      -0.401  -7.788  -1.582  0.00  0.00     0.034 A 
ATOM     25  C   UNL d   1       0.145  -6.915  -2.519  0.00  0.00     0.024 A 
ATOM     26 CL   UNL d   1      -0.238  -9.488  -1.800  0.00  0.00    -0.084 Cl
ATOM     27  C   UNL d   1       0.004  -5.535  -2.349  0.00  0.00     0.009 A 
ENDBRANCH  20  21
ENDBRANCH  19  20
ENDBRANCH   3  19
TORSDOF 6
