REMARK  8 active torsions:
REMARK  status: ('A' for Active; 'I' for Inactive)
REMARK    1  A    between atoms: N_8  and  C_2 
REMARK    2  A    between atoms: S_15  and  C_3 
REMARK    3  A    between atoms: O_10  and  C_12 
REMARK    4  A    between atoms: C_11  and  O_10 
REMARK    5  A    between atoms: C_12  and  C_14 
REMARK    6  A    between atoms: N_19  and  C_13 
REMARK    7  A    between atoms: C_22  and  S_15 
REMARK    8  A    between atoms: C_25  and  C_22 
ROOT
ATOM      1  C   UNL d   1       2.607  -7.489  -0.351  0.00  0.00     0.040 A 
ATOM      2  C   UNL d   1       3.248  -6.575  -1.197  0.00  0.00     0.018 A 
ATOM      3  C   UNL d   1       1.680  -7.010   0.586  0.00  0.00     0.018 A 
ATOM      4  C   UNL d   1       2.071  -4.718  -0.139  0.00  0.00    -0.049 A 
ATOM      5  C   UNL d   1       2.989  -5.202  -1.084  0.00  0.00     0.009 A 
ATOM      6  C   UNL d   1       1.416  -5.640   0.690  0.00  0.00     0.009 A 
ENDROOT
BRANCH   4   7
ATOM      7  C   UNL d   1       1.811  -3.232   0.012  0.00  0.00     0.120 C 
BRANCH   7   8
ATOM      8  S   UNL d   1       1.046  -2.518  -1.473  0.00  0.00    -0.099 SA
BRANCH   8   9
ATOM      9  C   UNL d   1       0.874  -0.844  -0.994  0.00  0.00     0.130 A 
ATOM     10  S   UNL d   1       0.260   0.352  -2.050  0.00  0.00    -0.026 SA
ATOM     11  C   UNL d   1       0.439   1.496  -0.762  0.00  0.00     0.166 A 
ATOM     12  N   UNL d   1       0.944   0.950   0.332  0.00  0.00    -0.278 N 
ATOM     13  N   UNL d   1       1.194  -0.403   0.201  0.00  0.00    -0.286 N 
ATOM     14  HN  UNL d   1       1.129   1.475   1.187  1.00  0.00     0.189 HD
ATOM     15  HN  UNL d   1       1.581  -0.988   0.942  1.00  0.00     0.188 HD
BRANCH  11  16
ATOM     16  N   UNL d   1       0.058   2.781  -0.993  0.00  0.00    -0.332 N 
ATOM     17  C   UNL d   1       0.177   3.586   0.010  0.00  0.00     0.179 C 
ATOM     18  HN  UNL d   1      -0.297   3.089  -1.898  1.00  0.00     0.168 HD
BRANCH  17  19
ATOM     19  N   UNL d   1      -0.150   4.925   0.024  0.00  0.00    -0.386 N 
ATOM     20  C   UNL d   1      -0.695   5.601  -1.142  0.00  0.00     0.149 C 
ATOM     21  C   UNL d   1       0.025   5.749   1.209  0.00  0.00     0.149 C 
ENDBRANCH  17  19
ENDBRANCH  11  16
ENDBRANCH   8   9
ENDBRANCH   7   8
ENDBRANCH   4   7
BRANCH   1  22
ATOM     22  C   UNL d   1       3.007  -8.929  -0.410  0.00  0.00     0.298 C 
ATOM     23  O   UNL d   1       3.860  -9.373  -1.163  0.00  0.00    -0.259 OA
BRANCH  22  24
ATOM     24  O   UNL d   1       2.315  -9.639   0.557  0.00  0.00    -0.269 OA
BRANCH  24  25
ATOM     25  C   UNL d   1       3.035 -10.703   1.110  0.00  0.00     0.156 A 
ATOM     26  C   UNL d   1       4.256 -10.477   1.745  0.00  0.00     0.153 A 
ATOM     27  F   UNL d   1       4.782  -9.244   1.779  0.00  0.00    -0.203 F 
ATOM     28  C   UNL d   1       4.923 -11.511   2.396  0.00  0.00     0.045 A 
ATOM     29  C   UNL d   1       4.353 -12.785   2.436  0.00  0.00     0.006 A 
ATOM     30  C   UNL d   1       3.113 -13.009   1.830  0.00  0.00     0.045 A 
ATOM     31  C   UNL d   1       2.459 -11.966   1.175  0.00  0.00     0.153 A 
ATOM     32  F   UNL d   1       1.250 -12.192   0.640  0.00  0.00    -0.203 F 
ENDBRANCH  24  25
ENDBRANCH  22  24
ENDBRANCH   1  22
TORSDOF 8
