REMARK  4 active torsions:
REMARK  status: ('A' for Active; 'I' for Inactive)
REMARK    1  A    between atoms: C_2  and  S_1 
REMARK    2  A    between atoms: C_8  and  S_1 
REMARK    3  A    between atoms: N_6  and  N_3 
REMARK    4  A    between atoms: C_9  and  N_6 
ROOT
ATOM      1  C   UNL d   1       0.350  -1.189  -1.330  0.00  0.00     0.229 C 
ATOM      2  N   UNL d   1      -0.380  -2.212  -0.986  0.00  0.00    -0.281 N 
ATOM      3  HN  UNL d   1      -0.792  -2.816  -1.697  1.00  0.00     0.188 HD
ATOM      4  C   UNL d   1       0.874  -0.299  -0.334  0.00  0.00     0.132 C 
ATOM      5  N   UNL d   1       1.262   0.426   0.491  0.00  0.00    -0.189 NA
ENDROOT
BRANCH   1   6
ATOM      6  S   UNL d   1       0.759  -0.853  -2.993  0.00  0.00     0.233 S 
ATOM      7  O   UNL d   1       2.200  -1.002  -3.088  0.00  0.00    -0.215 OA
ATOM      8  O   UNL d   1       0.105   0.397  -3.341  0.00  0.00    -0.215 OA
BRANCH   6   9
ATOM      9  C   UNL d   1       0.023  -2.112  -4.013  0.00  0.00     0.066 A 
ATOM     10  C   UNL d   1      -1.369  -2.260  -4.038  0.00  0.00     0.025 A 
ATOM     11  C   UNL d   1      -1.949  -3.198  -4.897  0.00  0.00     0.025 A 
ATOM     12  C   UNL d   1      -1.141  -3.969  -5.735  0.00  0.00     0.034 A 
ATOM     13  C   UNL d   1       0.245  -3.816  -5.718  0.00  0.00     0.025 A 
ATOM     14 CL   UNL d   1      -1.862  -5.101  -6.811  0.00  0.00    -0.084 Cl
ATOM     15  C   UNL d   1       0.833  -2.886  -4.855  0.00  0.00     0.025 A 
ENDBRANCH   6   9
ENDBRANCH   1   6
BRANCH   2  16
ATOM     16  N   UNL d   1      -0.585  -2.463   0.339  0.00  0.00    -0.298 N 
ATOM     17  H   UNL d   1      -1.061  -1.778   0.939  0.00  0.00     0.187 HD
BRANCH  16  18
ATOM     18  C   UNL d   1      -0.905  -3.798   0.706  0.00  0.00     0.069 A 
ATOM     19  C   UNL d   1      -1.237  -4.128   2.034  0.00  0.00     0.062 A 
ATOM     20 CL   UNL d   1      -1.404  -2.895   3.237  0.00  0.00    -0.082 Cl
ATOM     21  C   UNL d   1      -1.439  -5.458   2.418  0.00  0.00     0.026 A 
ATOM     22  C   UNL d   1      -1.302  -6.483   1.482  0.00  0.00     0.002 A 
ATOM     23  C   UNL d   1      -0.958  -6.179   0.169  0.00  0.00     0.002 A 
ATOM     24  C   UNL d   1      -0.748  -4.852  -0.209  0.00  0.00     0.033 A 
ENDBRANCH  16  18
ENDBRANCH   2  16
TORSDOF 4
