REMARK  5 active torsions:
REMARK  status: ('A' for Active; 'I' for Inactive)
REMARK    1  A    between atoms: C_2  and  C_1 
REMARK       I    between atoms: N_3  and  C_1 
REMARK    2  A    between atoms: C_10  and  N_3 
REMARK    3  A    between atoms: O_12  and  C_5 
REMARK    4  A    between atoms: O_15  and  C_6 
REMARK    5  A    between atoms: O_18  and  C_11 
ROOT
ATOM      1  C   UNL d   1       1.066   0.157  -0.177  0.00  0.00     0.256 C 
ATOM      2  N   UNL d   1       0.289   1.232   0.228  0.00  0.00    -0.323 N 
ATOM      3  O   UNL d   1       2.246  -0.035   0.095  0.00  0.00    -0.267 OA
ATOM      4  H   UNL d   1      -0.695   1.213   0.000  0.00  0.00     0.169 HD
ENDROOT
BRANCH   1   5
ATOM      5  C   UNL d   1       0.370  -0.891  -0.979  0.00  0.00     0.035 A 
ATOM      6  C   UNL d   1       0.838  -2.213  -0.871  0.00  0.00     0.056 A 
ATOM      7  C   UNL d   1       0.235  -3.263  -1.578  0.00  0.00     0.102 A 
ATOM      8  C   UNL d   1      -0.851  -2.967  -2.422  0.00  0.00     0.101 A 
ATOM      9  C   UNL d   1      -1.306  -1.644  -2.533  0.00  0.00     0.040 A 
ATOM     10  C   UNL d   1      -0.697  -0.605  -1.829  0.00  0.00     0.020 A 
BRANCH   7  11
ATOM     11  O   UNL d   1       0.635  -4.567  -1.467  0.00  0.00    -0.353 OA
ATOM     12  C   UNL d   1       1.703  -4.870  -0.576  0.00  0.00     0.210 C 
ENDBRANCH   7  11
BRANCH   8  13
ATOM     13  O   UNL d   1      -1.605  -3.846  -3.155  0.00  0.00    -0.353 OA
ATOM     14  C   UNL d   1      -0.968  -5.026  -3.625  0.00  0.00     0.210 C 
ENDBRANCH   8  13
ENDBRANCH   1   5
BRANCH   2  15
ATOM     15  C   UNL d   1       0.701   2.303   1.054  0.00  0.00     0.035 A 
ATOM     16  C   UNL d   1       2.000   2.449   1.540  0.00  0.00     0.032 A 
ATOM     17  C   UNL d   1       2.332   3.494   2.409  0.00  0.00     0.039 A 
ATOM     18  C   UNL d   1       1.367   4.418   2.802  0.00  0.00     0.068 A 
ATOM     19  C   UNL d   1       0.076   4.302   2.287  0.00  0.00     0.039 A 
ATOM     20  C   UNL d   1      -0.258   3.255   1.419  0.00  0.00     0.032 A 
BRANCH  18  21
ATOM     21  O   UNL d   1       1.561   5.454   3.672  0.00  0.00    -0.356 OA
ATOM     22  C   UNL d   1       2.849   5.545   4.272  0.00  0.00     0.210 C 
ENDBRANCH  18  21
ENDBRANCH   2  15
TORSDOF 5
