REMARK  3 active torsions:
REMARK  status: ('A' for Active; 'I' for Inactive)
REMARK    1  A    between atoms: C_4  and  C_1 
REMARK    2  A    between atoms: O_11  and  C_3 
REMARK       I    between atoms: N_10  and  C_4 
REMARK    3  A    between atoms: O_12  and  C_6 
ROOT
ATOM      1  C   UNL d   1       0.201   1.264  -0.009  0.00  0.00     0.056 A 
ATOM      2  C   UNL d   1      -0.507   0.039   0.025  0.00  0.00     0.085 A 
ATOM      3  C   UNL d   1       0.214  -1.181   0.006  0.00  0.00     0.124 A 
ATOM      4  C   UNL d   1       1.604   1.260  -0.025  0.00  0.00     0.022 A 
ATOM      5  C   UNL d   1       1.637  -1.148  -0.018  0.00  0.00     0.103 A 
ATOM      6  C   UNL d   1       2.317   0.068  -0.028  0.00  0.00     0.041 A 
ATOM      7 CL   UNL d   1      -2.238   0.092   0.166  0.00  0.00    -0.080 Cl
ENDROOT
BRANCH   1   8
ATOM      8  C   UNL d   1      -0.402   2.630  -0.005  0.00  0.00     0.251 C 
ATOM      9  O   UNL d   1       0.182   3.575   0.514  0.00  0.00    -0.268 OA
ATOM     10  N   UNL d   1      -1.589   2.835  -0.646  0.00  0.00    -0.366 N 
ATOM     11  H   UNL d   1      -2.168   2.078  -0.986  0.00  0.00     0.159 HD
ATOM     12  H   UNL d   1      -1.997   3.758  -0.578  0.00  0.00     0.159 HD
ENDBRANCH   1   8
BRANCH   3  13
ATOM     13  O   UNL d   1      -0.257  -2.472   0.015  0.00  0.00    -0.351 OA
ATOM     14  C   UNL d   1      -1.631  -2.802   0.031  0.00  0.00     0.210 C 
ENDBRANCH   3  13
BRANCH   5  15
ATOM     15  O   UNL d   1       2.273  -2.370  -0.022  0.00  0.00    -0.353 OA
ATOM     16  C   UNL d   1       3.696  -2.382  -0.026  0.00  0.00     0.210 C 
ENDBRANCH   5  15
TORSDOF 3
