REMARK  5 active torsions:
REMARK  status: ('A' for Active; 'I' for Inactive)
REMARK    1  A    between atoms: C_2  and  S_1 
REMARK    2  A    between atoms: C_8  and  S_1 
REMARK    3  A    between atoms: N_4  and  C_3 
REMARK    4  A    between atoms: C_9  and  C_6 
REMARK    5  A    between atoms: O_18  and  C_9 
ROOT
ATOM      1  C   UNL d   1       0.478   0.525  -1.704  0.00  0.00     0.097 A 
ATOM      2  C   UNL d   1      -0.268  -0.234  -2.611  0.00  0.00     0.125 A 
ATOM      3  C   UNL d   1      -0.717   0.310  -3.832  0.00  0.00     0.056 A 
ATOM      4  C   UNL d   1      -0.461   1.651  -4.123  0.00  0.00     0.040 A 
ATOM      5  C   UNL d   1       0.722   1.874  -2.003  0.00  0.00     0.027 A 
ATOM      6  C   UNL d   1       0.258   2.428  -3.203  0.00  0.00     0.020 A 
ENDROOT
BRANCH   1   7
ATOM      7  S   UNL d   1       0.966  -0.084  -0.103  0.00  0.00     0.209 S 
ATOM      8  O   UNL d   1      -0.231  -0.696   0.436  0.00  0.00    -0.217 OA
ATOM      9  O   UNL d   1       1.601   1.016   0.594  0.00  0.00    -0.217 OA
BRANCH   7  10
ATOM     10  C   UNL d   1       2.216  -1.338  -0.251  0.00  0.00     0.064 A 
ATOM     11  C   UNL d   1       3.375  -1.089  -0.992  0.00  0.00     0.025 A 
ATOM     12  C   UNL d   1       4.311  -2.115  -1.161  0.00  0.00     0.025 A 
ATOM     13  C   UNL d   1       4.085  -3.369  -0.589  0.00  0.00     0.034 A 
ATOM     14  C   UNL d   1       2.947  -3.602   0.181  0.00  0.00     0.025 A 
ATOM     15 CL   UNL d   1       5.214  -4.642  -0.846  0.00  0.00    -0.084 Cl
ATOM     16  C   UNL d   1       2.013  -2.581   0.362  0.00  0.00     0.025 A 
ENDBRANCH   7  10
ENDBRANCH   1   7
BRANCH   2  17
ATOM     17  N   UNL d   1      -0.624  -1.617  -2.362  0.00  0.00    -0.114 N 
ATOM     18  O   UNL d   1       0.306  -2.407  -2.179  0.00  0.00    -0.532 OA
ATOM     19  O   UNL d   1      -1.820  -1.912  -2.462  0.00  0.00    -0.532 OA
ENDBRANCH   2  17
BRANCH   4  20
ATOM     20  C   UNL d   1      -0.866   2.287  -5.404  0.00  0.00     0.176 C 
ATOM     21  O   UNL d   1      -0.250   3.224  -5.881  0.00  0.00    -0.646 OA
BRANCH  20  22
ATOM     22  O   UNL d   1      -1.962   1.758  -5.980  0.00  0.00    -0.773 OA
ATOM     23  H   UNL d   1      -2.500   1.150  -5.441  0.00  0.00     0.167 HD
ENDBRANCH  20  22
ENDBRANCH   4  20
TORSDOF 5
