REMARK  2 active torsions:
REMARK  status: ('A' for Active; 'I' for Inactive)
REMARK    1  A    between atoms: C_7  and  C_3 
REMARK    2  A    between atoms: N_8  and  C_4 
ROOT
ATOM      1  N   UNL d   1      -1.197  -0.351   1.069  0.00  0.00    -0.339 N 
ATOM      2  HN  UNL d   1      -1.830  -0.457   1.862  1.00  0.00     0.168 HD
ATOM      3  C   UNL d   1      -1.112  -1.239   0.003  0.00  0.00     0.025 A 
ATOM      4  C   UNL d   1      -0.356   0.640   0.917  0.00  0.00     0.142 A 
ATOM      5  S   UNL d   1       0.571   0.602  -0.524  0.00  0.00    -0.064 SA
ATOM      6  C   UNL d   1      -0.192  -0.866  -0.963  0.00  0.00     0.079 A 
ENDROOT
BRANCH   3   7
ATOM      7  C   UNL d   1      -1.989  -2.484  -0.009  0.00  0.00    -0.008 C 
ATOM      8  C   UNL d   1      -2.897  -2.546   1.238  0.00  0.00     0.021 C 
ATOM      9  C   UNL d   1      -2.893  -2.490  -1.257  0.00  0.00     0.021 C 
ATOM     10  C   UNL d   1      -1.111  -3.751  -0.020  0.00  0.00     0.021 C 
ENDBRANCH   3   7
BRANCH   4  11
ATOM     11  N   UNL d   1      -0.226   1.635   1.809  0.00  0.00    -0.380 N 
ATOM     12  H   UNL d   1      -0.988   1.728   2.470  0.00  0.00     0.158 HD
ATOM     13  H   UNL d   1       0.168   2.512   1.491  0.00  0.00     0.158 HD
ENDBRANCH   4  11
TORSDOF 2
