REMARK  4 active torsions:
REMARK  status: ('A' for Active; 'I' for Inactive)
REMARK    1  A    between atoms: C_7  and  C_1 
REMARK    2  A    between atoms: O_11  and  C_7 
REMARK    3  A    between atoms: N_8  and  O_11 
REMARK    4  A    between atoms: C_14  and  C_12 
ROOT
ATOM      1  C   UNL d   1      -3.226  -0.749   0.025  0.00  0.00     0.333 C 
ATOM      2  O   UNL d   1      -3.600  -1.923   0.068  0.00  0.00    -0.256 OA
ENDROOT
BRANCH   1   3
ATOM      3  C   UNL d   1      -1.794  -0.407   0.011  0.00  0.00     0.127 A 
ATOM      4  N   UNL d   1      -1.293   0.844  -0.036  0.00  0.00    -0.293 N 
ATOM      5  N   UNL d   1       0.047   0.672  -0.024  0.00  0.00    -0.300 N 
ATOM      6  HN  UNL d   1      -1.809   1.723  -0.073  1.00  0.00     0.187 HD
ATOM      7  C   UNL d   1       0.921   1.823  -0.047  0.00  0.00     0.177 C 
ATOM      8  C   UNL d   1       0.435  -0.642   0.024  0.00  0.00     0.026 A 
ATOM      9  C   UNL d   1      -0.737  -1.361   0.047  0.00  0.00     0.063 A 
ATOM     10  C   UNL d   1       1.847  -1.093   0.049  0.00  0.00     0.070 C 
ENDBRANCH   1   3
BRANCH   1  11
ATOM     11  O   UNL d   1      -4.068   0.349  -0.010  0.00  0.00    -0.194 OA
BRANCH  11  12
ATOM     12  N   UNL d   1      -5.412  -0.100   0.021  0.00  0.00    -0.268 N 
ATOM     13  C   UNL d   1      -6.236   0.896  -0.015  0.00  0.00     0.126 C 
ATOM     14  HN  UNL d   1      -5.692  -1.080   0.065  1.00  0.00     0.194 HD
BRANCH  13  15
ATOM     15  C   UNL d   1      -7.699   0.671   0.011  0.00  0.00    -0.019 A 
ATOM     16  C   UNL d   1      -8.216  -0.629   0.085  0.00  0.00     0.013 A 
ATOM     17  C   UNL d   1      -9.597  -0.833   0.115  0.00  0.00     0.001 A 
ATOM     18  C   UNL d   1     -10.463   0.259   0.070  0.00  0.00     0.000 A 
ATOM     19  C   UNL d   1      -9.951   1.555  -0.007  0.00  0.00     0.001 A 
ATOM     20  C   UNL d   1      -8.568   1.765  -0.036  0.00  0.00     0.013 A 
ENDBRANCH  13  15
ENDBRANCH  11  12
ENDBRANCH   1  11
TORSDOF 4
