REMARK  4 active torsions:
REMARK  status: ('A' for Active; 'I' for Inactive)
REMARK       I    between atoms: C_8  and  N_1 
REMARK    1  A    between atoms: C_12  and  C_4 
REMARK    2  A    between atoms: C_16  and  C_8 
REMARK    3  A    between atoms: O_18  and  C_12 
REMARK    4  A    between atoms: C_21  and  O_18 
ROOT
ATOM      1  N   UNL d   1       0.842  -0.735   0.094  0.00  0.00    -0.217 N 
ATOM      2  C   UNL d   1      -0.486  -1.121  -0.039  0.00  0.00     0.097 A 
ATOM      3  C   UNL d   1      -0.954  -2.470  -0.062  0.00  0.00     0.130 A 
ATOM      4  C   UNL d   1      -2.090  -4.360  -0.350  0.00  0.00     0.132 A 
ATOM      5  C   UNL d   1      -2.100  -2.973  -0.637  0.00  0.00     0.079 A 
ATOM      6  N   UNL d   1      -1.018  -4.676   0.392  0.00  0.00    -0.255 N 
ATOM      7  HN  UNL d   1      -0.770  -5.599   0.750  1.00  0.00     0.195 HD
ATOM      8  C   UNL d   1       2.030  -1.504   0.059  0.00  0.00     0.277 C 
ATOM      9  O   UNL d   1      -0.322  -3.502   0.572  0.00  0.00    -0.235 OA
ATOM     10  N   UNL d   1       0.944   0.629   0.201  0.00  0.00    -0.302 N 
ATOM     11  HN  UNL d   1       1.788   1.179   0.360  1.00  0.00     0.186 HD
ATOM     12  C   UNL d   1      -1.229   0.041  -0.088  0.00  0.00     0.053 A 
ATOM     13  C   UNL d   1      -0.300   1.077   0.053  0.00  0.00     0.110 A 
ATOM     14  O   UNL d   1       1.988  -2.615  -0.470  0.00  0.00    -0.265 OA
ENDROOT
BRANCH   8  15
ATOM     15  C   UNL d   1       3.331  -1.025   0.603  0.00  0.00     0.034 A 
ATOM     16  C   UNL d   1       3.385  -0.168   1.712  0.00  0.00     0.017 A 
ATOM     17  C   UNL d   1       4.618   0.273   2.194  0.00  0.00     0.001 A 
ATOM     18  C   UNL d   1       5.796  -0.151   1.587  0.00  0.00     0.000 A 
ATOM     19  C   UNL d   1       5.750  -1.034   0.508  0.00  0.00     0.001 A 
ATOM     20  C   UNL d   1       4.521  -1.478   0.021  0.00  0.00     0.017 A 
ENDBRANCH   8  15
BRANCH   4  21
ATOM     21  C   UNL d   1      -3.108  -5.334  -0.718  0.00  0.00     0.311 C 
ATOM     22  O   UNL d   1      -4.140  -5.024  -1.305  0.00  0.00    -0.258 OA
BRANCH  21  23
ATOM     23  O   UNL d   1      -2.827  -6.589  -0.263  0.00  0.00    -0.317 OA
BRANCH  23  24
ATOM     24  C   UNL d   1      -3.944  -7.477  -0.167  0.00  0.00     0.175 C 
ATOM     25  C   UNL d   1      -4.630  -7.228   1.165  0.00  0.00     0.034 C 
ENDBRANCH  23  24
ENDBRANCH  21  23
ENDBRANCH   4  21
TORSDOF 4
