REMARK  3 active torsions:
REMARK  status: ('A' for Active; 'I' for Inactive)
REMARK    1  A    between atoms: C_11  and  N_8 
REMARK    2  A    between atoms: C_9  and  C_11 
REMARK    3  A    between atoms: C_15  and  C_9 
ROOT
ATOM      1  C   UNL d   1       2.831  -1.047  -0.009  0.00  0.00     0.148 A 
ATOM      2  N   UNL d   1       1.690  -1.582  -0.385  0.00  0.00    -0.335 N 
ATOM      3  HN  UNL d   1       1.587  -2.535  -0.733  1.00  0.00     0.168 HD
ATOM      4  S   UNL d   1       2.708   0.611   0.475  0.00  0.00    -0.052 SA
ATOM      5  N   UNL d   1       4.021  -1.700  -0.039  0.00  0.00    -0.358 N 
ATOM      6  C   UNL d   1       0.648  -0.682  -0.246  0.00  0.00     0.053 A 
ATOM      7  C   UNL d   1       1.018   0.592   0.187  0.00  0.00     0.035 A 
ATOM      8  N   UNL d   1       5.703  -4.013   0.676  0.00  0.00     0.099 N 
ATOM      9  C   UNL d   1      -0.711  -0.945  -0.499  0.00  0.00     0.054 A 
ATOM     10  C   UNL d   1       4.245  -2.764  -1.021  0.00  0.00     0.155 C 
ATOM     11  C   UNL d   1       4.990  -1.580   1.050  0.00  0.00     0.155 C 
ATOM     12  C   UNL d   1       0.084   1.630   0.339  0.00  0.00     0.023 A 
ATOM     13  C   UNL d   1      -1.649   0.076  -0.328  0.00  0.00     0.036 A 
ATOM     14  C   UNL d   1       5.323  -2.967   1.654  0.00  0.00     0.292 C 
ATOM     15  C   UNL d   1       4.623  -4.096  -0.341  0.00  0.00     0.292 C 
ATOM     16  C   UNL d   1      -1.259   1.349   0.075  0.00  0.00     0.025 A 
ATOM     17 CL   UNL d   1      -3.316  -0.246  -0.618  0.00  0.00    -0.084 Cl
ENDROOT
BRANCH   8  18
ATOM     18  C   UNL d   1       7.027  -3.715   0.091  0.00  0.00     0.356 C 
BRANCH  18  19
ATOM     19  C   UNL d   1       7.484  -4.784  -0.895  0.00  0.00     0.187 C 
ATOM     20  O   UNL d   1       7.672  -4.496  -2.080  0.00  0.00    -0.290 OA
BRANCH  19  21
ATOM     21  C   UNL d   1       7.727  -6.186  -0.434  0.00  0.00     0.011 A 
ATOM     22  C   UNL d   1       7.557  -6.588   0.896  0.00  0.00     0.015 A 
ATOM     23  C   UNL d   1       7.763  -7.921   1.260  0.00  0.00     0.001 A 
ATOM     24  C   UNL d   1       8.149  -8.858   0.303  0.00  0.00     0.000 A 
ATOM     25  C   UNL d   1       8.335  -8.464  -1.020  0.00  0.00     0.001 A 
ATOM     26  C   UNL d   1       8.125  -7.134  -1.388  0.00  0.00     0.015 A 
ENDBRANCH  19  21
ENDBRANCH  18  19
ENDBRANCH   8  18
TORSDOF 3
