REMARK  3 active torsions:
REMARK  status: ('A' for Active; 'I' for Inactive)
REMARK    1  A    between atoms: C_2  and  C_1 
REMARK       I    between atoms: N_7  and  C_1 
REMARK    2  A    between atoms: S_17  and  C_6 
REMARK    3  A    between atoms: C_12  and  N_7 
ROOT
ATOM      1  C   UNL d   1       0.933   0.366  -0.211  0.00  0.00     0.259 C 
ATOM      2  N   UNL d   1       0.245  -0.473  -1.073  0.00  0.00    -0.323 N 
ATOM      3  O   UNL d   1       0.436   1.161   0.582  0.00  0.00    -0.267 OA
ATOM      4  H   UNL d   1       0.745  -1.268  -1.451  0.00  0.00     0.169 HD
ENDROOT
BRANCH   2   5
ATOM      5  C   UNL d   1      -1.137  -0.383  -1.351  0.00  0.00     0.036 A 
ATOM      6  C   UNL d   1      -1.789  -1.513  -1.850  0.00  0.00     0.048 A 
ATOM      7  C   UNL d   1      -3.149  -1.410  -2.105  0.00  0.00     0.050 A 
ATOM      8  C   UNL d   1      -4.068  -2.451  -2.547  0.00  0.00     0.294 A 
ATOM      9  C   UNL d   1      -3.860  -0.241  -1.937  0.00  0.00    -0.018 A 
ATOM     10  O   UNL d   1      -5.302  -1.870  -2.646  0.00  0.00    -0.313 OA
ATOM     11  O   UNL d   1      -3.788  -3.610  -2.771  0.00  0.00    -0.259 OA
ATOM     12  C   UNL d   1      -5.271  -0.468  -2.300  0.00  0.00     0.218 A 
ATOM     13  C   UNL d   1      -3.226   0.897  -1.484  0.00  0.00     0.012 A 
ATOM     14  C   UNL d   1      -1.860   0.816  -1.179  0.00  0.00     0.030 A 
ENDBRANCH   2   5
BRANCH   1  15
ATOM     15  C   UNL d   1       2.399   0.342  -0.343  0.00  0.00     0.065 A 
ATOM     16  C   UNL d   1       3.268   0.049   0.708  0.00  0.00     0.085 A 
ATOM     17  N   UNL d   1       4.614   0.209   0.577  0.00  0.00    -0.360 N 
ATOM     18  C   UNL d   1       5.095   0.682  -0.593  0.00  0.00     0.089 A 
ATOM     19  HN  UNL d   1       5.244  -0.023   1.345  1.00  0.00     0.166 HD
ATOM     20  C   UNL d   1       4.301   0.973  -1.687  0.00  0.00     0.018 A 
ATOM     21  C   UNL d   1       2.930   0.796  -1.559  0.00  0.00     0.021 A 
BRANCH  16  22
ATOM     22  S   UNL d   1       2.711  -0.633   2.265  0.00  0.00    -0.116 SA
ATOM     23  C   UNL d   1       4.282  -0.753   3.166  0.00  0.00     0.097 C 
ENDBRANCH  16  22
ENDBRANCH   1  15
TORSDOF 3
