REMARK  4 active torsions:
REMARK  status: ('A' for Active; 'I' for Inactive)
REMARK    1  A    between atoms: O_4  and  C_1 
REMARK    2  A    between atoms: C_3  and  C_2 
REMARK    3  A    between atoms: O_9  and  C_3 
REMARK    4  A    between atoms: C_8  and  O_4 
ROOT
ATOM      1  C   UNL d   1      -2.655   2.237   0.746  0.00  0.00     0.165 A 
ATOM      2  C   UNL d   1      -2.936   1.107   1.513  0.00  0.00     0.089 A 
ATOM      3  N   UNL d   1      -3.524   3.272   0.588  0.00  0.00    -0.346 N 
ATOM      4  HN  UNL d   1      -3.307   4.051  -0.033  1.00  0.00     0.167 HD
ATOM      5  C   UNL d   1      -4.165   1.099   2.192  0.00  0.00     0.024 A 
ATOM      6  C   UNL d   1      -4.680   3.233   1.277  0.00  0.00     0.090 A 
ATOM      7  C   UNL d   1      -5.040   2.179   2.091  0.00  0.00     0.018 A 
ENDROOT
BRANCH   1   8
ATOM      8  O   UNL d   1      -1.427   2.353   0.106  0.00  0.00    -0.293 OA
BRANCH   8   9
ATOM      9  C   UNL d   1      -0.860   3.615   0.060  0.00  0.00     0.077 A 
ATOM     10  C   UNL d   1      -0.954   4.531   1.115  0.00  0.00     0.038 A 
ATOM     11  C   UNL d   1      -0.330   5.774   1.029  0.00  0.00     0.009 A 
ATOM     12  C   UNL d   1       0.440   6.105  -0.089  0.00  0.00    -0.062 A 
ATOM     13  C   UNL d   1       0.539   5.186  -1.143  0.00  0.00     0.009 A 
ATOM     14  C   UNL d   1       1.158   7.422  -0.119  0.00  0.00     0.048 C 
ATOM     15  C   UNL d   1      -0.105   3.944  -1.067  0.00  0.00     0.038 A 
ENDBRANCH   8   9
ENDBRANCH   1   8
BRANCH   2  16
ATOM     16  C   UNL d   1      -2.051  -0.070   1.701  0.00  0.00     0.180 C 
ATOM     17  O   UNL d   1      -2.393  -1.019   2.390  0.00  0.00    -0.646 OA
BRANCH  16  18
ATOM     18  O   UNL d   1      -0.857  -0.048   1.087  0.00  0.00    -0.773 OA
ATOM     19  H   UNL d   1      -0.653   0.756   0.564  0.00  0.00     0.167 HD
ENDBRANCH  16  18
ENDBRANCH   2  16
TORSDOF 4
