REMARK  4 active torsions:
REMARK  status: ('A' for Active; 'I' for Inactive)
REMARK    1  A    between atoms: C_10  and  N_1 
REMARK    2  A    between atoms: C_3  and  C_2 
REMARK    3  A    between atoms: O_19  and  C_7 
REMARK    4  A    between atoms: C_17  and  C_10 
ROOT
ATOM      1  N   UNL d   1       2.187  -0.216   0.284  0.00  0.00    -0.322 N 
ATOM      2  C   UNL d   1       1.839  -1.573  -0.105  0.00  0.00     0.202 C 
ATOM      3  C   UNL d   1       1.280   0.798  -0.046  0.00  0.00     0.257 C 
ATOM      4  N   UNL d   1       0.489  -1.883   0.368  0.00  0.00    -0.266 NA
ATOM      5  C   UNL d   1      -0.148   0.424  -0.091  0.00  0.00     0.053 A 
ATOM      6  C   UNL d   1      -0.487  -0.916   0.096  0.00  0.00     0.026 A 
ATOM      7  O   UNL d   1       1.605   1.961  -0.265  0.00  0.00    -0.267 OA
ATOM      8  C   UNL d   1      -1.133   1.405  -0.257  0.00  0.00     0.019 A 
ATOM      9  C   UNL d   1      -1.844  -1.253   0.179  0.00  0.00     0.024 A 
ATOM     10  C   UNL d   1      -2.479   1.051  -0.199  0.00  0.00     0.001 A 
ATOM     11  C   UNL d   1      -2.834  -0.279   0.022  0.00  0.00     0.002 A 
ATOM     12  H   UNL d   1       0.182  -2.804   0.048  0.00  0.00     0.130 HD
ENDROOT
BRANCH   2  13
ATOM     13  C   UNL d   1       2.767  -2.667   0.411  0.00  0.00     0.016 A 
ATOM     14  C   UNL d   1       2.620  -3.298   1.662  0.00  0.00     0.097 A 
ATOM     15  C   UNL d   1       3.521  -4.292   2.078  0.00  0.00     0.069 A 
ATOM     16 CL   UNL d   1       3.340  -5.096   3.595  0.00  0.00    -0.081 Cl
ATOM     17  C   UNL d   1       4.599  -4.650   1.270  0.00  0.00     0.050 A 
ATOM     18  C   UNL d   1       4.763  -4.028   0.039  0.00  0.00     0.036 A 
ATOM     19  C   UNL d   1       3.853  -3.064  -0.398  0.00  0.00     0.037 A 
ATOM     20 CL   UNL d   1       6.109  -4.430  -0.952  0.00  0.00    -0.084 Cl
BRANCH  14  21
ATOM     21  O   UNL d   1       1.594  -2.965   2.509  0.00  0.00    -0.358 OA
ATOM     22  H   UNL d   1       1.010  -2.311   2.066  0.00  0.00     0.217 HD
ENDBRANCH  14  21
ENDBRANCH   2  13
BRANCH   1  23
ATOM     23  C   UNL d   1       3.584   0.205   0.400  0.00  0.00     0.168 C 
BRANCH  23  24
ATOM     24  C   UNL d   1       3.918   0.685   1.789  0.00  0.00    -0.025 A 
ATOM     25  C   UNL d   1       3.828   2.034   2.121  0.00  0.00     0.096 A 
ATOM     26  N   UNL d   1       4.113   2.536   3.345  0.00  0.00    -0.375 N 
ATOM     27  C   UNL d   1       4.488   1.651   4.292  0.00  0.00     0.087 A 
ATOM     28  HN  UNL d   1       4.048   3.535   3.542  1.00  0.00     0.164 HD
ATOM     29  C   UNL d   1       4.598   0.292   4.071  0.00  0.00     0.018 A 
ATOM     30  C   UNL d   1       4.312  -0.195   2.801  0.00  0.00     0.011 A 
ENDBRANCH  23  24
ENDBRANCH   1  23
TORSDOF 4
