REMARK  2 active torsions:
REMARK  status: ('A' for Active; 'I' for Inactive)
REMARK    1  A    between atoms: N_5  and  C_2 
REMARK    2  A    between atoms: N_4  and  C_3 
ROOT
ATOM      1  C   UNL d   1      -0.016  -0.883   0.055  0.00  0.00     0.027 A 
ATOM      2  C   UNL d   1       1.282  -1.551   0.174  0.00  0.00     0.043 A 
ATOM      3  C   UNL d   1      -1.338  -1.485  -0.125  0.00  0.00     0.043 A 
ATOM      4  C   UNL d   1       0.011   0.550   0.112  0.00  0.00    -0.021 A 
ATOM      5  C   UNL d   1       2.459  -0.774   0.271  0.00  0.00     0.030 A 
ATOM      6  C   UNL d   1      -2.490  -0.665  -0.132  0.00  0.00     0.030 A 
ATOM      7  C   UNL d   1      -2.406   0.712  -0.023  0.00  0.00     0.003 A 
ATOM      8  C   UNL d   1       2.429   0.612   0.268  0.00  0.00     0.003 A 
ATOM      9  C   UNL d   1       1.211   1.263   0.202  0.00  0.00     0.012 A 
ATOM     10  C   UNL d   1      -1.167   1.312   0.077  0.00  0.00     0.012 A 
ENDROOT
BRANCH   2  11
ATOM     11  N   UNL d   1       1.403  -2.960   0.210  0.00  0.00    -0.389 N 
ATOM     12  C   UNL d   1       0.790  -3.582   1.387  0.00  0.00     0.149 C 
ATOM     13  C   UNL d   1       2.640  -3.596  -0.231  0.00  0.00     0.149 C 
ENDBRANCH   2  11
BRANCH   3  14
ATOM     14  N   UNL d   1      -1.496  -2.877  -0.345  0.00  0.00    -0.389 N 
ATOM     15  C   UNL d   1      -2.689  -3.545   0.158  0.00  0.00     0.149 C 
ATOM     16  C   UNL d   1      -1.074  -3.277  -1.688  0.00  0.00     0.149 C 
ENDBRANCH   3  14
TORSDOF 2
