REMARK  5 active torsions:
REMARK  status: ('A' for Active; 'I' for Inactive)
REMARK    1  A    between atoms: S_11  and  C_5 
REMARK    2  A    between atoms: N_8  and  C_10 
REMARK    3  A    between atoms: C_19  and  S_11 
REMARK    4  A    between atoms: C_13  and  C_15 
REMARK    5  A    between atoms: C_15  and  C_19 
ROOT
ATOM      1  N   UNL d   1      -0.945  -0.373   0.792  0.00  0.00    -0.314 N 
ATOM      2  C   UNL d   1      -0.828   0.937   0.394  0.00  0.00     0.158 A 
ATOM      3  N   UNL d   1       0.326   1.090  -0.232  0.00  0.00    -0.281 N 
ATOM      4  HN  UNL d   1       0.667   1.955  -0.651  1.00  0.00     0.188 HD
ATOM      5  C   UNL d   1       0.214  -0.984   0.387  0.00  0.00     0.163 A 
ATOM      6  N   UNL d   1       0.988  -0.117  -0.221  0.00  0.00    -0.278 N 
ATOM      7  HN  UNL d   1       1.911  -0.302  -0.613  1.00  0.00     0.189 HD
ATOM      8  C   UNL d   1      -1.785   1.985   0.580  0.00  0.00     0.120 A 
ATOM      9  O   UNL d   1      -2.714   2.001   1.592  0.00  0.00    -0.319 OA
ATOM     10  C   UNL d   1      -1.950   3.133  -0.178  0.00  0.00     0.043 A 
ATOM     11  C   UNL d   1      -3.453   3.132   1.463  0.00  0.00     0.142 A 
ATOM     12  C   UNL d   1      -3.029   3.861   0.380  0.00  0.00     0.027 A 
ATOM     13  C   UNL d   1      -2.064  -1.005   1.441  0.00  0.00     0.160 C 
ENDROOT
BRANCH   5  14
ATOM     14  S   UNL d   1       0.549  -2.662   0.636  0.00  0.00    -0.085 SA
BRANCH  14  15
ATOM     15  C   UNL d   1       2.232  -2.802  -0.047  0.00  0.00     0.166 C 
BRANCH  15  16
ATOM     16  C   UNL d   1       2.710  -4.249  -0.061  0.00  0.00     0.169 C 
ATOM     17  O   UNL d   1       2.064  -5.190   0.404  0.00  0.00    -0.291 OA
BRANCH  16  18
ATOM     18  C   UNL d   1       4.043  -4.561  -0.681  0.00  0.00     0.013 A 
ATOM     19  C   UNL d   1       4.893  -3.572  -1.193  0.00  0.00     0.051 A 
ATOM     20  C   UNL d   1       6.109  -3.949  -1.793  0.00  0.00     0.103 A 
ATOM     21  C   UNL d   1       6.492  -5.294  -1.872  0.00  0.00     0.036 A 
ATOM     22  C   UNL d   1       5.653  -6.273  -1.347  0.00  0.00     0.003 A 
ATOM     23  C   UNL d   1       4.439  -5.909  -0.759  0.00  0.00     0.015 A 
BRANCH  20  24
ATOM     24  N   UNL d   1       6.989  -2.917  -2.359  0.00  0.00    -0.116 N 
ATOM     25  O   UNL d   1       6.625  -1.737  -2.262  0.00  0.00    -0.532 OA
ATOM     26  O   UNL d   1       8.039  -3.287  -2.903  0.00  0.00    -0.532 OA
ENDBRANCH  20  24
ENDBRANCH  16  18
ENDBRANCH  15  16
ENDBRANCH  14  15
ENDBRANCH   5  14
TORSDOF 5
