REMARK  1 active torsions:
REMARK  status: ('A' for Active; 'I' for Inactive)
REMARK    1  A    between atoms: O_15  and  C_8 
ROOT
ATOM      1  C   UNL d   1      -0.001   0.730   0.010  0.00  0.00     0.134 A 
ATOM      2  C   UNL d   1      -0.009  -0.628   0.015  0.00  0.00     0.110 A 
ATOM      3  N   UNL d   1       1.243   1.389   0.078  0.00  0.00    -0.288 N 
ATOM      4  N   UNL d   1       2.435  -0.653  -0.020  0.00  0.00    -0.270 N 
ATOM      5  C   UNL d   1       2.473   0.719  -0.015  0.00  0.00     0.332 A 
ATOM      6  C   UNL d   1       1.276  -1.376   0.036  0.00  0.00     0.268 A 
ATOM      7  N   UNL d   1      -1.261   1.390  -0.059  0.00  0.00    -0.303 N 
ATOM      8  C   UNL d   1      -1.258  -1.379   0.008  0.00  0.00     0.090 A 
ATOM      9  C   UNL d   1      -2.433  -0.765   0.035  0.00  0.00     0.112 A 
ATOM     10  C   UNL d   1      -2.485   0.698   0.029  0.00  0.00     0.251 A 
ATOM     11  O   UNL d   1       3.545   1.328  -0.073  0.00  0.00    -0.246 OA
ATOM     12  O   UNL d   1       1.263  -2.609   0.086  0.00  0.00    -0.267 OA
ATOM     13  O   UNL d   1      -3.590   1.235   0.076  0.00  0.00    -0.268 OA
ATOM     14  C   UNL d   1       1.408   2.821   0.273  0.00  0.00     0.163 C 
ATOM     15  C   UNL d   1       3.681  -1.402  -0.032  0.00  0.00     0.164 C 
ATOM     16  C   UNL d   1      -1.455   2.814  -0.246  0.00  0.00     0.161 C 
ENDROOT
BRANCH   8  17
ATOM     17  O   UNL d   1      -1.239  -2.764  -0.007  0.00  0.00    -0.359 OA
ATOM     18  H   UNL d   1      -0.310  -3.083   0.022  0.00  0.00     0.217 HD
ENDBRANCH   8  17
TORSDOF 1
