REMARK  6 active torsions:
REMARK  status: ('A' for Active; 'I' for Inactive)
REMARK    1  A    between atoms: N_5  and  S_1 
REMARK    2  A    between atoms: C_16  and  S_1 
REMARK    3  A    between atoms: S_2  and  N_12 
REMARK    4  A    between atoms: C_3  and  S_2 
REMARK    5  A    between atoms: N_12  and  C_23 
REMARK    6  A    between atoms: C_23  and  C_26 
ROOT
ATOM      1  N   UNL d   1       2.851  -3.733  -4.158  0.00  0.00    -0.315 N 
ATOM      2  H   UNL d   1       2.345  -4.428  -3.609  0.00  0.00     0.172 HD
ENDROOT
BRANCH   1   3
ATOM      3  S   UNL d   1       4.491  -4.118  -4.225  0.00  0.00     0.261 S 
ATOM      4  O   UNL d   1       4.597  -5.545  -4.412  0.00  0.00    -0.200 OA
ATOM      5  O   UNL d   1       5.120  -3.182  -5.134  0.00  0.00    -0.200 OA
BRANCH   3   6
ATOM      6  C   UNL d   1       5.073  -3.763  -2.612  0.00  0.00     0.110 A 
ATOM      7  C   UNL d   1       4.535  -4.367  -1.465  0.00  0.00     0.108 A 
ATOM      8  C   UNL d   1       5.096  -4.116  -0.141  0.00  0.00     0.086 A 
ATOM      9  N   UNL d   1       3.494  -5.199  -1.319  0.00  0.00    -0.238 N 
ATOM     10  N   UNL d   1       4.404  -4.831   0.752  0.00  0.00    -0.239 N 
ATOM     11  C   UNL d   1       6.187  -3.250   0.067  0.00  0.00     0.034 A 
ATOM     12  O   UNL d   1       3.432  -5.499   0.032  0.00  0.00    -0.156 OA
ATOM     13  HN  UNL d   1       4.562  -4.873   1.759  1.00  0.00     0.197 HD
ATOM     14  C   UNL d   1       6.681  -2.631  -1.097  0.00  0.00     0.004 A 
ATOM     15  C   UNL d   1       6.149  -2.877  -2.389  0.00  0.00     0.028 A 
ATOM     16  HN  UNL d   1       2.874  -5.541  -2.053  1.00  0.00     0.197 HD
ENDBRANCH   3   6
ENDBRANCH   1   3
BRANCH   1  17
ATOM     17  C   UNL d   1       2.478  -2.318  -4.032  0.00  0.00     0.137 C 
BRANCH  17  18
ATOM     18  C   UNL d   1       0.945  -2.162  -3.972  0.00  0.00     0.006 C 
ATOM     19  C   UNL d   1       0.312  -2.847  -2.754  0.00  0.00     0.022 C 
ATOM     20  C   UNL d   1       0.753  -2.198  -1.448  0.00  0.00     0.108 C 
ATOM     21  N   UNL d   1       0.397  -0.753  -1.446  0.00  0.00    -0.206 NA
ATOM     22  C   UNL d   1       0.924   0.004  -2.620  0.00  0.00     0.108 C 
ATOM     23  C   UNL d   1       0.534  -0.679  -3.933  0.00  0.00     0.022 C 
BRANCH  21  24
ATOM     24  S   UNL d   1       0.737  -0.010   0.071  0.00  0.00     0.243 S 
ATOM     25  O   UNL d   1       2.096   0.488   0.006  0.00  0.00    -0.206 OA
ATOM     26  O   UNL d   1       0.319  -0.911   1.124  0.00  0.00    -0.206 OA
BRANCH  24  27
ATOM     27  C   UNL d   1      -0.380   1.364   0.111  0.00  0.00     0.074 A 
ATOM     28  C   UNL d   1      -1.752   1.117   0.001  0.00  0.00     0.025 A 
ATOM     29  C   UNL d   1      -2.652   2.174   0.130  0.00  0.00     0.002 A 
ATOM     30  C   UNL d   1      -2.179   3.465   0.369  0.00  0.00     0.000 A 
ATOM     31  C   UNL d   1      -0.807   3.707   0.467  0.00  0.00     0.002 A 
ATOM     32  C   UNL d   1       0.101   2.656   0.337  0.00  0.00     0.025 A 
ENDBRANCH  24  27
ENDBRANCH  21  24
ENDBRANCH  17  18
ENDBRANCH   1  17
TORSDOF 6
