REMARK  3 active torsions:
REMARK  status: ('A' for Active; 'I' for Inactive)
REMARK    1  A    between atoms: C_2  and  C_1 
REMARK    2  A    between atoms: C_13  and  N_3 
REMARK    3  A    between atoms: C_14  and  C_7 
ROOT
ATOM      1  C   UNL d   1      -0.244  -1.353  -0.219  0.00  0.00     0.157 C 
ATOM      2  N   UNL d   1       0.870  -0.628   0.186  0.00  0.00    -0.224 N 
ATOM      3  N   UNL d   1      -1.152  -0.505  -0.655  0.00  0.00    -0.269 N 
ATOM      4  HN  UNL d   1      -2.042  -0.733  -1.099  1.00  0.00     0.185 HD
ATOM      5  N   UNL d   1       0.532   0.683   0.186  0.00  0.00     0.001 NA
ATOM      6  N   UNL d   1      -0.659   0.748  -0.390  0.00  0.00    -0.007 NA
ENDROOT
BRANCH   1   7
ATOM      7  C   UNL d   1      -0.468  -2.751  -0.027  0.00  0.00     0.075 C 
ATOM      8  S   UNL d   1      -0.078  -3.501   1.466  0.00  0.00    -0.066 SA
ATOM      9  C   UNL d   1      -0.471  -5.037   0.809  0.00  0.00     0.085 C 
ATOM     10  N   UNL d   1      -1.035  -4.987  -0.383  0.00  0.00    -0.352 N 
ATOM     11  C   UNL d   1      -1.065  -3.681  -0.862  0.00  0.00     0.027 C 
ATOM     12  HN  UNL d   1      -1.399  -5.797  -0.885  1.00  0.00     0.166 HD
ATOM     13  C   UNL d   1      -1.677  -3.431  -2.193  0.00  0.00     0.070 C 
BRANCH   9  14
ATOM     14  C   UNL d   1      -0.226  -6.254   1.596  0.00  0.00    -0.002 A 
ATOM     15  C   UNL d   1      -1.096  -7.347   1.478  0.00  0.00     0.014 A 
ATOM     16  C   UNL d   1      -0.905  -8.498   2.249  0.00  0.00     0.001 A 
ATOM     17  C   UNL d   1       0.165  -8.578   3.137  0.00  0.00     0.000 A 
ATOM     18  C   UNL d   1       1.058  -7.514   3.247  0.00  0.00     0.001 A 
ATOM     19  C   UNL d   1       0.866  -6.365   2.478  0.00  0.00     0.014 A 
ENDBRANCH   9  14
ENDBRANCH   1   7
BRANCH   2  20
ATOM     20  C   UNL d   1       2.174  -1.060   0.540  0.00  0.00     0.056 A 
ATOM     21  C   UNL d   1       2.723  -2.222  -0.025  0.00  0.00     0.033 A 
ATOM     22  C   UNL d   1       3.991  -2.657   0.368  0.00  0.00     0.026 A 
ATOM     23  C   UNL d   1       4.707  -1.939   1.324  0.00  0.00     0.034 A 
ATOM     24  C   UNL d   1       4.176  -0.772   1.873  0.00  0.00     0.026 A 
ATOM     25 CL   UNL d   1       6.253  -2.497   1.827  0.00  0.00    -0.084 Cl
ATOM     26  C   UNL d   1       2.917  -0.318   1.468  0.00  0.00     0.033 A 
ENDBRANCH   2  20
TORSDOF 3
