REMARK  6 active torsions:
REMARK  status: ('A' for Active; 'I' for Inactive)
REMARK    1  A    between atoms: S_16  and  C_3 
REMARK    2  A    between atoms: C_9  and  C_4 
REMARK    3  A    between atoms: S_6  and  C_13 
REMARK    4  A    between atoms: C_10  and  S_6 
REMARK    5  A    between atoms: C_13  and  C_21 
REMARK    6  A    between atoms: C_21  and  S_16 
ROOT
ATOM      1  C   UNL d   1       0.140  -0.784   0.053  0.00  0.00     0.041 A 
ATOM      2  C   UNL d   1       0.502   0.618   0.009  0.00  0.00    -0.021 A 
ATOM      3  C   UNL d   1       1.246  -1.611   0.035  0.00  0.00     0.056 A 
ATOM      4  C   UNL d   1       1.883   0.801  -0.038  0.00  0.00     0.059 A 
ATOM      5  S   UNL d   1       2.692  -0.707  -0.000  0.00  0.00    -0.078 SA
ATOM      6  C   UNL d   1      -1.260  -1.207   0.089  0.00  0.00     0.162 C 
ATOM      7  C   UNL d   1      -0.554   1.710  -0.024  0.00  0.00     0.050 C 
ATOM      8  C   UNL d   1      -1.978   1.198   0.346  0.00  0.00    -0.037 C 
ATOM      9  C   UNL d   1      -2.256  -0.152  -0.350  0.00  0.00     0.093 C 
ATOM     10  O   UNL d   1      -1.631  -2.320   0.456  0.00  0.00    -0.292 OA
ATOM     11  C   UNL d   1      -3.039   2.212  -0.124  0.00  0.00     0.015 C 
ATOM     12  C   UNL d   1      -2.112   1.051   1.877  0.00  0.00     0.015 C 
ENDROOT
BRANCH   3  13
ATOM     13  S   UNL d   1       1.283  -3.366  -0.077  0.00  0.00    -0.121 SA
BRANCH  13  14
ATOM     14  C   UNL d   1       1.506  -3.835   1.669  0.00  0.00     0.095 C 
BRANCH  14  15
ATOM     15  C   UNL d   1       1.573  -5.347   1.869  0.00  0.00     0.156 C 
BRANCH  15  16
ATOM     16  S   UNL d   1       3.117  -6.044   1.311  0.00  0.00     0.176 S 
ATOM     17  O   UNL d   1       3.168  -6.034  -0.137  0.00  0.00    -0.223 OA
ATOM     18  O   UNL d   1       4.183  -5.441   2.095  0.00  0.00    -0.223 OA
BRANCH  16  19
ATOM     19  C   UNL d   1       3.024  -7.761   1.788  0.00  0.00     0.059 A 
ATOM     20  C   UNL d   1       2.346  -8.664   0.963  0.00  0.00     0.024 A 
ATOM     21  C   UNL d   1       2.341 -10.023   1.286  0.00  0.00     0.008 A 
ATOM     22  C   UNL d   1       3.020 -10.490   2.421  0.00  0.00    -0.062 A 
ATOM     23  C   UNL d   1       3.703  -9.574   3.232  0.00  0.00     0.008 A 
ATOM     24  C   UNL d   1       3.006 -11.955   2.752  0.00  0.00     0.048 C 
ATOM     25  C   UNL d   1       3.712  -8.212   2.916  0.00  0.00     0.024 A 
ENDBRANCH  16  19
ENDBRANCH  15  16
ENDBRANCH  14  15
ENDBRANCH  13  14
ENDBRANCH   3  13
BRANCH   4  26
ATOM     26  C   UNL d   1       2.614   2.070  -0.126  0.00  0.00     0.163 C 
ATOM     27  O   UNL d   1       2.025   3.155  -0.182  0.00  0.00    -0.292 OA
ATOM     28  C   UNL d   1       4.129   2.102  -0.153  0.00  0.00     0.097 C 
ENDBRANCH   4  26
TORSDOF 6
