REMARK  8 active torsions:
REMARK  status: ('A' for Active; 'I' for Inactive)
REMARK    1  A    between atoms: S_9  and  C_2 
REMARK    2  A    between atoms: S_10  and  C_5 
REMARK    3  A    between atoms: C_15  and  S_9 
REMARK    4  A    between atoms: C_16  and  S_10 
REMARK    5  A    between atoms: C_11  and  C_16 
REMARK    6  A    between atoms: C_13  and  C_11 
REMARK    7  A    between atoms: C_12  and  C_15 
REMARK    8  A    between atoms: C_14  and  C_12 
ROOT
ATOM      1  C   UNL d   1      -0.346  -1.150  -0.005  0.00  0.00     0.103 A 
ATOM      2  C   UNL d   1       0.933  -0.640  -0.196  0.00  0.00     0.082 A 
ATOM      3  N   UNL d   1      -0.799   1.150   0.156  0.00  0.00    -0.319 N 
ATOM      4  HN  UNL d   1      -1.341   2.007   0.271  1.00  0.00     0.175 HD
ATOM      5  C   UNL d   1      -1.287  -0.086   0.196  0.00  0.00     0.099 A 
ATOM      6  S   UNL d   1       0.823   1.071  -0.107  0.00  0.00    -0.005 SA
ATOM      7  C   UNL d   1      -0.661  -2.545  -0.016  0.00  0.00     0.104 C 
ATOM      8  N   UNL d   1      -0.906  -3.678  -0.036  0.00  0.00    -0.191 NA
ENDROOT
BRANCH   2   9
ATOM      9  S   UNL d   1       2.432  -1.535  -0.487  0.00  0.00    -0.112 SA
BRANCH   9  10
ATOM     10  C   UNL d   1       3.684  -0.229  -0.632  0.00  0.00     0.164 C 
BRANCH  10  11
ATOM     11  C   UNL d   1       5.073  -0.796  -0.838  0.00  0.00     0.169 C 
ATOM     12  O   UNL d   1       5.799  -1.088   0.112  0.00  0.00    -0.291 OA
BRANCH  11  13
ATOM     13  C   UNL d   1       5.615  -0.922  -2.222  0.00  0.00     0.011 A 
ATOM     14  C   UNL d   1       6.997  -0.756  -2.412  0.00  0.00     0.018 A 
ATOM     15  C   UNL d   1       7.556  -0.902  -3.683  0.00  0.00     0.043 A 
ATOM     16  C   UNL d   1       6.736  -1.225  -4.757  0.00  0.00     0.116 A 
ATOM     17  C   UNL d   1       5.365  -1.386  -4.586  0.00  0.00     0.043 A 
ATOM     18  F   UNL d   1       7.273  -1.392  -5.972  0.00  0.00    -0.206 F 
ATOM     19  C   UNL d   1       4.798  -1.228  -3.317  0.00  0.00     0.018 A 
ENDBRANCH  11  13
ENDBRANCH  10  11
ENDBRANCH   9  10
ENDBRANCH   2   9
BRANCH   5  20
ATOM     20  S   UNL d   1      -3.016  -0.308   0.482  0.00  0.00    -0.102 SA
BRANCH  20  21
ATOM     21  C   UNL d   1      -3.580   1.421   0.641  0.00  0.00     0.164 C 
BRANCH  21  22
ATOM     22  C   UNL d   1      -5.064   1.533   0.951  0.00  0.00     0.169 C 
ATOM     23  O   UNL d   1      -5.806   0.565   1.108  0.00  0.00    -0.291 OA
BRANCH  22  24
ATOM     24  C   UNL d   1      -5.658   2.907   1.067  0.00  0.00     0.011 A 
ATOM     25  C   UNL d   1      -4.891   4.078   0.963  0.00  0.00     0.018 A 
ATOM     26  C   UNL d   1      -5.501   5.335   1.065  0.00  0.00     0.043 A 
ATOM     27  C   UNL d   1      -6.872   5.423   1.274  0.00  0.00     0.116 A 
ATOM     28  C   UNL d   1      -7.649   4.277   1.390  0.00  0.00     0.043 A 
ATOM     29  F   UNL d   1      -7.450   6.628   1.364  0.00  0.00    -0.206 F 
ATOM     30  C   UNL d   1      -7.042   3.022   1.289  0.00  0.00     0.018 A 
ENDBRANCH  22  24
ENDBRANCH  21  22
ENDBRANCH  20  21
ENDBRANCH   5  20
TORSDOF 8
