REMARK  3 active torsions:
REMARK  status: ('A' for Active; 'I' for Inactive)
REMARK    1  A    between atoms: C_4  and  C_2 
REMARK    2  A    between atoms: C_11  and  C_3 
REMARK       I    between atoms: N_7  and  C_4 
REMARK    3  A    between atoms: C_12  and  N_7 
ROOT
ATOM      1  C   UNL d   1      -0.150   2.635  -0.307  0.00  0.00     0.263 C 
ATOM      2  N   UNL d   1      -1.493   2.946  -0.125  0.00  0.00    -0.322 N 
ATOM      3  O   UNL d   1       0.734   3.478  -0.453  0.00  0.00    -0.267 OA
ATOM      4  H   UNL d   1      -2.107   2.169   0.089  0.00  0.00     0.169 HD
ENDROOT
BRANCH   1   5
ATOM      5  C   UNL d   1       0.206   1.222  -0.261  0.00  0.00     0.073 A 
ATOM      6  S   UNL d   1      -0.908  -0.036   0.034  0.00  0.00    -0.083 SA
ATOM      7  C   UNL d   1       0.326  -1.236   0.079  0.00  0.00     0.032 A 
ATOM      8  C   UNL d   1       1.552  -0.682  -0.247  0.00  0.00     0.023 A 
ATOM      9  C   UNL d   1       1.486   0.725  -0.420  0.00  0.00     0.026 A 
BRANCH   7  10
ATOM     10  C   UNL d   1       0.049  -2.635   0.436  0.00  0.00     0.049 A 
ATOM     11  N   UNL d   1       0.999  -3.514   0.026  0.00  0.00    -0.365 N 
ATOM     12  C   UNL d   1       0.856  -4.806   0.393  0.00  0.00     0.088 A 
ATOM     13  HN  UNL d   1       1.792  -3.210  -0.539  1.00  0.00     0.165 HD
ATOM     14  C   UNL d   1      -0.192  -5.275   1.166  0.00  0.00     0.017 A 
ATOM     15  C   UNL d   1      -1.157  -4.367   1.578  0.00  0.00     0.004 A 
ATOM     16  C   UNL d   1      -1.041  -3.028   1.208  0.00  0.00     0.031 A 
ENDBRANCH   7  10
ENDBRANCH   1   5
BRANCH   2  17
ATOM     17  C   UNL d   1      -2.034   4.250  -0.026  0.00  0.00     0.037 A 
ATOM     18  C   UNL d   1      -1.319   5.397  -0.381  0.00  0.00     0.069 A 
ATOM     19  C   UNL d   1      -1.835   6.665  -0.127  0.00  0.00     0.104 A 
ATOM     20  O   UNL d   1      -1.019   7.725  -0.430  0.00  0.00    -0.346 OA
ATOM     21  C   UNL d   1      -3.106   6.811   0.427  0.00  0.00     0.102 A 
ATOM     22  C   UNL d   1      -1.399   8.876   0.327  0.00  0.00     0.202 C 
ATOM     23  C   UNL d   1      -2.893   9.118   0.189  0.00  0.00     0.202 C 
ATOM     24  O   UNL d   1      -3.657   8.030   0.727  0.00  0.00    -0.346 OA
ATOM     25  C   UNL d   1      -3.858   5.677   0.725  0.00  0.00     0.042 A 
ATOM     26  C   UNL d   1      -3.327   4.399   0.493  0.00  0.00     0.032 A 
ENDBRANCH   2  17
TORSDOF 3
