REMARK  4 active torsions:
REMARK  status: ('A' for Active; 'I' for Inactive)
REMARK    1  A    between atoms: S_10  and  C_1 
REMARK    2  A    between atoms: S_16  and  C_5 
REMARK    3  A    between atoms: C_8  and  C_13 
REMARK    4  A    between atoms: C_14  and  S_10 
ROOT
ATOM      1  C   UNL d   1      -0.759   1.144  -0.004  0.00  0.00     0.099 A 
ATOM      2  C   UNL d   1      -1.456  -0.040  -0.171  0.00  0.00     0.112 A 
ATOM      3  N   UNL d   1       0.585   1.193   0.141  0.00  0.00    -0.339 N 
ATOM      4  HN  UNL d   1       1.074   2.081   0.256  1.00  0.00     0.168 HD
ATOM      5  C   UNL d   1      -0.689  -1.192  -0.114  0.00  0.00     0.094 A 
ATOM      6  N   UNL d   1       0.654  -1.165   0.031  0.00  0.00    -0.339 N 
ATOM      7  HN  UNL d   1       1.198  -2.027   0.066  1.00  0.00     0.167 HD
ATOM      8  C   UNL d   1       1.246   0.030   0.126  0.00  0.00     0.078 A 
ATOM      9  C   UNL d   1      -2.861  -0.063  -0.428  0.00  0.00     0.105 C 
ATOM     10  N   UNL d   1      -3.997  -0.059  -0.660  0.00  0.00    -0.191 NA
ATOM     11  C   UNL d   1       2.741   0.075   0.134  0.00  0.00     0.089 C 
ENDROOT
BRANCH   1  12
ATOM     12  S   UNL d   1      -1.536   2.757  -0.033  0.00  0.00    -0.071 SA
BRANCH  12  13
ATOM     13  C   UNL d   1      -1.978   2.978   1.682  0.00  0.00     0.007 A 
ATOM     14  C   UNL d   1      -1.025   2.919   2.708  0.00  0.00     0.035 A 
ATOM     15  C   UNL d   1      -1.402   3.094   4.051  0.00  0.00     0.049 A 
ATOM     16  C   UNL d   1      -2.747   3.359   4.352  0.00  0.00     0.016 A 
ATOM     17  C   UNL d   1      -3.694   3.446   3.333  0.00  0.00     0.002 A 
ATOM     18  C   UNL d   1      -3.310   3.255   2.005  0.00  0.00     0.019 A 
BRANCH  15  19
ATOM     19  C   UNL d   1      -0.396   2.985   5.171  0.00  0.00     0.417 C 
ATOM     20  F   UNL d   1       0.876   2.753   4.743  0.00  0.00    -0.166 F 
ATOM     21  F   UNL d   1      -0.335   4.112   5.934  0.00  0.00    -0.166 F 
ATOM     22  F   UNL d   1      -0.690   1.969   6.029  0.00  0.00    -0.166 F 
ENDBRANCH  15  19
ENDBRANCH  12  13
ENDBRANCH   1  12
BRANCH   5  23
ATOM     23  S   UNL d   1      -1.411  -2.829  -0.272  0.00  0.00    -0.115 SA
ATOM     24  C   UNL d   1       0.020  -3.884   0.106  0.00  0.00     0.097 C 
ENDBRANCH   5  23
TORSDOF 4
