REMARK  4 active torsions:
REMARK  status: ('A' for Active; 'I' for Inactive)
REMARK    1  A    between atoms: C_9  and  C_2 
REMARK    2  A    between atoms: S_8  and  C_3 
REMARK    3  A    between atoms: C_13  and  S_8 
REMARK    4  A    between atoms: C_17  and  C_13 
ROOT
ATOM      1  C   UNL d   1      -0.744  -0.027  -0.014  0.00  0.00     0.079 A 
ATOM      2  C   UNL d   1      -0.092  -1.320   0.012  0.00  0.00     0.003 A 
ATOM      3  C   UNL d   1       0.152   1.025   0.043  0.00  0.00     0.062 A 
ATOM      4  C   UNL d   1       1.282  -1.163   0.046  0.00  0.00     0.065 A 
ATOM      5  S   UNL d   1       1.770   0.471   0.057  0.00  0.00    -0.092 SA
ATOM      6  C   UNL d   1      -2.162   0.170  -0.095  0.00  0.00     0.102 C 
ATOM      7  N   UNL d   1      -3.314   0.319  -0.116  0.00  0.00    -0.191 NA
ENDROOT
BRANCH   2   8
ATOM      8  C   UNL d   1      -0.692  -2.662   0.015  0.00  0.00    -0.024 A 
ATOM      9  C   UNL d   1      -0.094  -3.722  -0.688  0.00  0.00     0.014 A 
ATOM     10  C   UNL d   1      -0.646  -5.008  -0.655  0.00  0.00     0.024 A 
ATOM     11  C   UNL d   1      -1.813  -5.242   0.066  0.00  0.00     0.034 A 
ATOM     12  C   UNL d   1      -2.428  -4.203   0.757  0.00  0.00     0.024 A 
ATOM     13 CL   UNL d   1      -2.494  -6.821   0.110  0.00  0.00    -0.084 Cl
ATOM     14  C   UNL d   1      -1.864  -2.923   0.741  0.00  0.00     0.014 A 
ENDBRANCH   2   8
BRANCH   3  15
ATOM     15  S   UNL d   1      -0.167   2.760   0.036  0.00  0.00    -0.121 SA
BRANCH  15  16
ATOM     16  C   UNL d   1      -1.049   3.019   1.612  0.00  0.00     0.084 C 
BRANCH  16  17
ATOM     17  C   UNL d   1      -0.289   2.617   2.891  0.00  0.00    -0.013 C 
ATOM     18  C   UNL d   1       1.039   3.356   3.063  0.00  0.00     0.010 C 
ATOM     19  C   UNL d   1      -1.178   2.883   4.109  0.00  0.00     0.010 C 
ENDBRANCH  16  17
ENDBRANCH  15  16
ENDBRANCH   3  15
TORSDOF 4
