REMARK  3 active torsions:
REMARK  status: ('A' for Active; 'I' for Inactive)
REMARK    1  A    between atoms: C_9  and  C_2 
REMARK    2  A    between atoms: S_11  and  C_5 
REMARK    3  A    between atoms: C_8  and  C_10 
ROOT
ATOM      1  N   UNL d   1      -1.871  -0.615   0.439  0.00  0.00    -0.320 N 
ATOM      2  C   UNL d   1      -1.867   0.664  -0.061  0.00  0.00     0.132 A 
ATOM      3  N   UNL d   1      -0.691   0.875  -0.626  0.00  0.00    -0.283 N 
ATOM      4  HN  UNL d   1      -0.403   1.733  -1.098  1.00  0.00     0.188 HD
ATOM      5  C   UNL d   1      -0.650  -1.140   0.162  0.00  0.00     0.157 A 
ATOM      6  N   UNL d   1       0.081  -0.258  -0.471  0.00  0.00    -0.278 N 
ATOM      7  HN  UNL d   1       1.041  -0.384  -0.789  1.00  0.00     0.189 HD
ATOM      8  H   UNL d   1      -2.640  -1.081   0.892  0.00  0.00     0.169 HD
ENDROOT
BRANCH   2   9
ATOM      9  C   UNL d   1      -2.999   1.583  -0.001  0.00  0.00     0.009 A 
ATOM     10  C   UNL d   1      -3.960   1.504   1.016  0.00  0.00     0.016 A 
ATOM     11  C   UNL d   1      -5.044   2.389   1.044  0.00  0.00     0.017 A 
ATOM     12  C   UNL d   1      -5.189   3.373   0.056  0.00  0.00     0.048 A 
ATOM     13  C   UNL d   1      -4.223   3.459  -0.956  0.00  0.00     0.017 A 
ATOM     14  C   UNL d   1      -3.137   2.577  -0.979  0.00  0.00     0.016 A 
BRANCH  12  15
ATOM     15  C   UNL d   1      -6.358   4.330   0.072  0.00  0.00     0.417 C 
ATOM     16  F   UNL d   1      -7.213   4.123   1.113  0.00  0.00    -0.166 F 
ATOM     17  F   UNL d   1      -5.967   5.630   0.163  0.00  0.00    -0.166 F 
ATOM     18  F   UNL d   1      -7.117   4.242  -1.055  0.00  0.00    -0.166 F 
ENDBRANCH  12  15
ENDBRANCH   2   9
BRANCH   5  19
ATOM     19  S   UNL d   1      -0.216  -2.743   0.606  0.00  0.00    -0.106 SA
ATOM     20  H   UNL d   1      -1.394  -3.181   1.068  0.00  0.00     0.110 HD
ENDBRANCH   5  19
TORSDOF 3
