REMARK  3 active torsions:
REMARK  status: ('A' for Active; 'I' for Inactive)
REMARK    1  A    between atoms: C_7  and  C_1 
REMARK    2  A    between atoms: C_5  and  C_4 
REMARK       I    between atoms: N_12  and  C_7 
REMARK    3  A    between atoms: N_15  and  N_12 
ROOT
ATOM      1  C   UNL d   1       1.329   0.837  -0.090  0.00  0.00     0.109 A 
ATOM      2  N   UNL d   1       1.462  -0.553  -0.140  0.00  0.00    -0.345 N 
ATOM      3  HN  UNL d   1       2.347  -1.044  -0.266  1.00  0.00     0.167 HD
ATOM      4  C   UNL d   1       0.291  -1.146  -0.004  0.00  0.00     0.086 A 
ATOM      5  S   UNL d   1      -1.037  -0.051   0.171  0.00  0.00    -0.081 SA
ATOM      6  C   UNL d   1       0.028   1.278   0.042  0.00  0.00     0.087 A 
ENDROOT
BRANCH   4   7
ATOM      7  C   UNL d   1       0.074  -2.610   0.008  0.00  0.00     0.021 A 
ATOM      8  C   UNL d   1       0.996  -3.509   0.593  0.00  0.00     0.068 A 
ATOM      9  C   UNL d   1       0.746  -4.896   0.552  0.00  0.00     0.056 A 
ATOM     10 CL   UNL d   1       2.423  -2.934   1.409  0.00  0.00    -0.082 Cl
ATOM     11 CL   UNL d   1       1.830  -6.063   1.234  0.00  0.00    -0.083 Cl
ATOM     12  C   UNL d   1      -0.411  -5.395  -0.051  0.00  0.00     0.026 A 
ATOM     13  C   UNL d   1      -1.326  -4.523  -0.626  0.00  0.00     0.003 A 
ATOM     14  C   UNL d   1      -1.081  -3.149  -0.604  0.00  0.00     0.016 A 
ENDBRANCH   4   7
BRANCH   1  15
ATOM     15  C   UNL d   1       2.489   1.724  -0.177  0.00  0.00     0.282 C 
ATOM     16  O   UNL d   1       2.403   2.951  -0.222  0.00  0.00    -0.265 OA
ATOM     17  N   UNL d   1       3.698   1.041  -0.197  0.00  0.00    -0.288 N 
ATOM     18  H   UNL d   1       3.675   0.030  -0.047  0.00  0.00     0.183 HD
BRANCH  17  19
ATOM     19  N   UNL d   1       4.926   1.742  -0.195  0.00  0.00    -0.247 NA
ATOM     20  H   UNL d   1       4.708   2.735  -0.031  0.00  0.00     0.143 HD
ATOM     21  H   UNL d   1       5.300   1.721  -1.147  0.00  0.00     0.143 HD
ENDBRANCH  17  19
ENDBRANCH   1  15
TORSDOF 3
