REMARK  8 active torsions:
REMARK  status: ('A' for Active; 'I' for Inactive)
REMARK    1  A    between atoms: N_4  and  C_2 
REMARK    2  A    between atoms: S_18  and  C_11 
REMARK    3  A    between atoms: C_13  and  O_21 
REMARK    4  A    between atoms: C_16  and  C_13 
REMARK    5  A    between atoms: C_26  and  S_18 
REMARK    6  A    between atoms: O_21  and  C_27 
REMARK    7  A    between atoms: O_25  and  C_22 
REMARK    8  A    between atoms: C_27  and  C_26 
ROOT
ATOM      1  C   UNL d   1      -2.077  -0.691  -1.068  0.00  0.00     0.119 A 
ATOM      2  C   UNL d   1      -3.231  -1.499  -1.103  0.00  0.00     0.133 A 
ATOM      3  C   UNL d   1      -2.184   0.771  -1.180  0.00  0.00     0.104 A 
ATOM      4  N   UNL d   1      -0.776  -0.987  -0.948  0.00  0.00    -0.237 N 
ATOM      5  HN  UNL d   1      -0.371  -1.917  -0.842  1.00  0.00     0.197 HD
ATOM      6  C   UNL d   1      -4.469  -0.835  -1.262  0.00  0.00     0.040 A 
ATOM      7  N   UNL d   1      -0.944   1.279  -1.136  0.00  0.00    -0.238 N 
ATOM      8  HN  UNL d   1      -0.684   2.264  -1.195  1.00  0.00     0.197 HD
ATOM      9  O   UNL d   1      -0.090   0.207  -0.995  0.00  0.00    -0.156 OA
ATOM     10  C   UNL d   1      -3.434   1.426  -1.320  0.00  0.00     0.031 A 
ATOM     11  C   UNL d   1      -4.558   0.575  -1.371  0.00  0.00     0.023 A 
ENDROOT
BRANCH  10  12
ATOM     12  S   UNL d   1      -3.571   3.171  -1.552  0.00  0.00    -0.125 SA
BRANCH  12  13
ATOM     13  C   UNL d   1      -2.890   3.794   0.034  0.00  0.00     0.106 C 
BRANCH  13  14
ATOM     14  C   UNL d   1      -2.878   5.325   0.049  0.00  0.00     0.189 C 
BRANCH  14  15
ATOM     15  O   UNL d   1      -4.196   5.891  -0.085  0.00  0.00    -0.317 OA
BRANCH  15  16
ATOM     16  C   UNL d   1      -4.954   5.903   1.037  0.00  0.00     0.293 C 
ATOM     17  O   UNL d   1      -4.612   5.486   2.130  0.00  0.00    -0.259 OA
BRANCH  16  18
ATOM     18  C   UNL d   1      -6.301   6.478   0.757  0.00  0.00     0.039 A 
ATOM     19  C   UNL d   1      -7.225   6.544   1.809  0.00  0.00     0.020 A 
ATOM     20  C   UNL d   1      -8.516   7.044   1.596  0.00  0.00     0.038 A 
ATOM     21  C   UNL d   1      -8.893   7.484   0.328  0.00  0.00     0.068 A 
ATOM     22  C   UNL d   1      -7.965   7.452  -0.715  0.00  0.00     0.038 A 
ATOM     23  C   UNL d   1      -6.678   6.943  -0.509  0.00  0.00     0.020 A 
BRANCH  21  24
ATOM     24  O   UNL d   1     -10.116   8.006   0.007  0.00  0.00    -0.356 OA
ATOM     25  C   UNL d   1     -11.218   7.496   0.751  0.00  0.00     0.210 C 
ENDBRANCH  21  24
ENDBRANCH  16  18
ENDBRANCH  15  16
ENDBRANCH  14  15
ENDBRANCH  13  14
ENDBRANCH  12  13
ENDBRANCH  10  12
BRANCH   2  26
ATOM     26  N   UNL d   1      -3.154  -2.943  -0.995  0.00  0.00    -0.113 N 
ATOM     27  O   UNL d   1      -2.050  -3.478  -0.850  0.00  0.00    -0.532 OA
ATOM     28  O   UNL d   1      -4.225  -3.564  -1.050  0.00  0.00    -0.532 OA
ENDBRANCH   2  26
TORSDOF 8
