REMARK  7 active torsions:
REMARK  status: ('A' for Active; 'I' for Inactive)
REMARK    1  A    between atoms: C_4  and  C_1 
REMARK    2  A    between atoms: C_5  and  C_1 
REMARK    3  A    between atoms: N_6  and  N_2 
REMARK    4  A    between atoms: O_10  and  C_4 
REMARK    5  A    between atoms: C_9  and  N_6 
REMARK    6  A    between atoms: C_18  and  O_10 
REMARK    7  A    between atoms: O_16  and  C_11 
ROOT
ATOM      1  C   UNL d   1       0.995  -0.028   0.104  0.00  0.00     0.169 C 
ATOM      2  N   UNL d   1       0.290   0.961  -0.378  0.00  0.00    -0.292 N 
ATOM      3  HN  UNL d   1      -0.728   0.973  -0.308  1.00  0.00     0.187 HD
ENDROOT
BRANCH   2   4
ATOM      4  N   UNL d   1       0.973   1.974  -0.977  0.00  0.00    -0.300 N 
ATOM      5  H   UNL d   1       1.952   2.151  -0.715  0.00  0.00     0.187 HD
BRANCH   4   6
ATOM      6  C   UNL d   1       0.294   3.131  -1.403  0.00  0.00     0.048 A 
ATOM      7  C   UNL d   1      -1.089   3.299  -1.275  0.00  0.00     0.034 A 
ATOM      8  C   UNL d   1      -1.728   4.445  -1.774  0.00  0.00     0.039 A 
ATOM      9  C   UNL d   1      -0.995   5.420  -2.448  0.00  0.00     0.068 A 
ATOM     10  C   UNL d   1       0.379   5.242  -2.611  0.00  0.00     0.039 A 
ATOM     11  C   UNL d   1       1.015   4.109  -2.098  0.00  0.00     0.034 A 
BRANCH   9  12
ATOM     12  O   UNL d   1      -1.488   6.569  -3.000  0.00  0.00    -0.356 OA
ATOM     13  C   UNL d   1      -2.882   6.804  -2.862  0.00  0.00     0.210 C 
ENDBRANCH   9  12
ENDBRANCH   4   6
ENDBRANCH   2   4
BRANCH   1  14
ATOM     14  C   UNL d   1       0.247  -1.211   0.684  0.00  0.00     0.315 C 
ATOM     15  O   UNL d   1       0.728  -1.895   1.571  0.00  0.00    -0.257 OA
BRANCH  14  16
ATOM     16  O   UNL d   1      -0.855  -1.460  -0.051  0.00  0.00    -0.317 OA
BRANCH  16  17
ATOM     17  C   UNL d   1      -1.423  -2.769   0.069  0.00  0.00     0.175 C 
ATOM     18  C   UNL d   1      -0.879  -3.611  -1.071  0.00  0.00     0.034 C 
ENDBRANCH  16  17
ENDBRANCH  14  16
ENDBRANCH   1  14
BRANCH   1  19
ATOM     19  C   UNL d   1       2.516  -0.057   0.060  0.00  0.00     0.179 C 
ATOM     20  O   UNL d   1       3.149   0.987   0.197  0.00  0.00    -0.291 OA
ATOM     21  C   UNL d   1       3.186  -1.381  -0.161  0.00  0.00     0.099 C 
ENDBRANCH   1  19
TORSDOF 7
