REMARK  1 active torsions:
REMARK  status: ('A' for Active; 'I' for Inactive)
REMARK    1  A    between atoms: C_6  and  N_1 
ROOT
ATOM      1  N   UNL d   1      -2.469  -0.660   0.015  0.00  0.00    -0.241 N 
ATOM      2  C   UNL d   1      -1.998   0.447  -0.671  0.00  0.00     0.284 A 
ATOM      3  C   UNL d   1      -1.441  -1.262   0.722  0.00  0.00     0.284 A 
ATOM      4  C   UNL d   1      -0.238  -0.477   0.459  0.00  0.00     0.134 A 
ATOM      5  C   UNL d   1      -0.575   0.552  -0.371  0.00  0.00     0.134 A 
ATOM      6  N   UNL d   1       1.008  -0.696   0.925  0.00  0.00    -0.358 N 
ATOM      7  HN  UNL d   1       1.252  -1.474   1.539  1.00  0.00     0.165 HD
ATOM      8  N   UNL d   1       0.292   1.486  -0.811  0.00  0.00    -0.358 N 
ATOM      9  HN  UNL d   1       0.028   2.255  -1.427  1.00  0.00     0.165 HD
ATOM     10  O   UNL d   1      -2.582   1.251  -1.376  0.00  0.00    -0.265 OA
ATOM     11  O   UNL d   1      -1.432  -2.264   1.413  0.00  0.00    -0.265 OA
ATOM     12  C   UNL d   1       1.905   0.228   0.490  0.00  0.00     0.105 A 
ATOM     13  C   UNL d   1       1.556   1.294  -0.348  0.00  0.00     0.105 A 
ENDROOT
BRANCH   1  14
ATOM     14  C   UNL d   1      -3.816  -1.133  -0.025  0.00  0.00     0.049 A 
ATOM     15  C   UNL d   1      -4.695  -0.732  -1.048  0.00  0.00     0.070 A 
ATOM     16  C   UNL d   1      -5.974  -1.256  -1.075  0.00  0.00     0.107 A 
ATOM     17  O   UNL d   1      -6.915  -0.997  -2.024  0.00  0.00    -0.323 OA
ATOM     18  C   UNL d   1      -6.423  -2.132  -0.121  0.00  0.00     0.105 A 
ATOM     19  C   UNL d   1      -7.995  -1.840  -1.572  0.00  0.00     0.352 A 
ATOM     20  O   UNL d   1      -7.702  -2.532  -0.340  0.00  0.00    -0.323 OA
ATOM     21  C   UNL d   1      -5.616  -2.532   0.915  0.00  0.00     0.042 A 
ATOM     22  C   UNL d   1      -4.305  -2.034   0.954  0.00  0.00     0.033 A 
ENDBRANCH   1  14
TORSDOF 1
