REMARK  1 active torsions:
REMARK  status: ('A' for Active; 'I' for Inactive)
REMARK    1  A    between atoms: C_11  and  C_6 
ROOT
ATOM      1  C   UNL d   1       2.006   1.391   0.053  0.00  0.00     0.026 C 
ATOM      2  N   UNL d   1       0.927   1.438  -0.656  0.00  0.00    -0.357 N 
ATOM      3  HN  UNL d   1       0.900   2.135  -1.400  1.00  0.00     0.166 HD
ATOM      4  C   UNL d   1       2.441   0.385   1.057  0.00  0.00     0.055 C 
ATOM      5  S   UNL d   1       0.758  -1.826   0.744  0.00  0.00    -0.117 SA
ATOM      6  C   UNL d   1       2.353  -1.038   0.536  0.00  0.00     0.095 C 
ATOM      7  C   UNL d   1       2.908   2.553   0.132  0.00  0.00    -0.007 A 
ATOM      8  C   UNL d   1      -0.218   0.626  -0.511  0.00  0.00     0.049 A 
ATOM      9  C   UNL d   1      -0.399  -0.674   0.008  0.00  0.00     0.028 A 
ATOM     10  C   UNL d   1       1.875   0.905   2.375  0.00  0.00     0.017 C 
ATOM     11  C   UNL d   1       3.231   2.934   1.458  0.00  0.00    -0.046 A 
ATOM     12  C   UNL d   1       2.477   2.322   2.642  0.00  0.00     0.040 C 
ATOM     13  C   UNL d   1       3.622   3.000  -0.972  0.00  0.00     0.014 A 
ATOM     14  C   UNL d   1      -1.383   1.323  -0.918  0.00  0.00     0.031 A 
ATOM     15  C   UNL d   1      -1.712  -1.214   0.045  0.00  0.00     0.021 A 
ATOM     16  C   UNL d   1       4.321   3.782   1.655  0.00  0.00     0.008 A 
ATOM     17  C   UNL d   1       4.726   3.822  -0.749  0.00  0.00     0.001 A 
ATOM     18  C   UNL d   1      -2.668   0.791  -0.836  0.00  0.00     0.002 A 
ATOM     19  C   UNL d   1      -2.833  -0.496  -0.366  0.00  0.00     0.002 A 
ATOM     20  C   UNL d   1       5.078   4.203   0.555  0.00  0.00     0.001 A 
ENDROOT
BRANCH   6  21
ATOM     21  C   UNL d   1       3.519  -1.779   1.216  0.00  0.00    -0.043 A 
ATOM     22  C   UNL d   1       4.798  -1.694   0.621  0.00  0.00     0.011 A 
ATOM     23  C   UNL d   1       5.946  -1.991   1.356  0.00  0.00     0.043 A 
ATOM     24  C   UNL d   1       5.823  -2.405   2.675  0.00  0.00     0.116 A 
ATOM     25  C   UNL d   1       4.574  -2.561   3.263  0.00  0.00     0.043 A 
ATOM     26  F   UNL d   1       6.927  -2.620   3.404  0.00  0.00    -0.206 F 
ATOM     27  C   UNL d   1       3.423  -2.252   2.538  0.00  0.00     0.011 A 
ENDBRANCH   6  21
TORSDOF 1
