REMARK  3 active torsions:
REMARK  status: ('A' for Active; 'I' for Inactive)
REMARK    1  A    between atoms: C_12  and  C_3 
REMARK    2  A    between atoms: O_21  and  C_9 
REMARK    3  A    between atoms: C_11  and  C_10 
ROOT
ATOM      1  C   UNL d   1      -0.180  -0.811  -0.005  0.00  0.00     0.072 A 
ATOM      2  C   UNL d   1      -0.155   0.576  -0.081  0.00  0.00     0.136 A 
ATOM      3  C   UNL d   1      -1.572  -1.135  -0.077  0.00  0.00     0.082 A 
ATOM      4  N   UNL d   1      -2.330  -0.034  -0.242  0.00  0.00    -0.297 N 
ATOM      5  HN  UNL d   1      -3.341   0.018  -0.366  1.00  0.00     0.187 HD
ATOM      6  N   UNL d   1       0.909   1.399  -0.056  0.00  0.00    -0.337 N 
ATOM      7  HN  UNL d   1       0.828   2.414  -0.108  1.00  0.00     0.167 HD
ATOM      8  N   UNL d   1      -1.449   0.977  -0.207  0.00  0.00    -0.284 N 
ATOM      9  C   UNL d   1       1.083  -1.426   0.089  0.00  0.00     0.084 A 
ATOM     10  C   UNL d   1       2.107   0.756   0.047  0.00  0.00     0.120 A 
ATOM     11  C   UNL d   1       2.228  -0.632   0.115  0.00  0.00     0.071 A 
ATOM     12  H   UNL d   1      -1.783   1.929  -0.283  0.00  0.00     0.188 HD
ENDROOT
BRANCH   3  13
ATOM     13  C   UNL d   1      -2.250  -2.481   0.003  0.00  0.00     0.034 A 
ATOM     14  S   UNL d   1      -1.534  -3.935   0.534  0.00  0.00    -0.100 SA
ATOM     15  C   UNL d   1      -2.976  -4.822   0.314  0.00  0.00     0.050 A 
ATOM     16  C   UNL d   1      -3.994  -4.030  -0.166  0.00  0.00     0.008 A 
ATOM     17  C   UNL d   1      -3.579  -2.675  -0.328  0.00  0.00     0.021 A 
ENDBRANCH   3  13
BRANCH   9  18
ATOM     18  O   UNL d   1       1.302  -2.784   0.115  0.00  0.00    -0.360 OA
ATOM     19  H   UNL d   1       0.441  -3.236   0.062  0.00  0.00     0.217 HD
ENDBRANCH   9  18
BRANCH  10  20
ATOM     20  C   UNL d   1       3.389   1.581   0.062  0.00  0.00     0.432 C 
ATOM     21  F   UNL d   1       3.187   2.930   0.077  0.00  0.00    -0.165 F 
ATOM     22  F   UNL d   1       4.171   1.313   1.148  0.00  0.00    -0.165 F 
ATOM     23  F   UNL d   1       4.178   1.337  -1.025  0.00  0.00    -0.165 F 
ENDBRANCH  10  20
TORSDOF 3
