REMARK  3 active torsions:
REMARK  status: ('A' for Active; 'I' for Inactive)
REMARK    1  A    between atoms: C_2  and  S_1 
REMARK    2  A    between atoms: C_3  and  S_1 
REMARK    3  A    between atoms: N_5  and  S_1 
ROOT
ATOM      1  S   UNL d   1       1.011  -0.092   0.104  0.00  0.00     0.088 S 
ATOM      2  O   UNL d   1       2.439  -0.151  -0.128  0.00  0.00    -0.239 OA
ENDROOT
BRANCH   1   3
ATOM      3  C   UNL d   1       0.340   0.325  -1.505  0.00  0.00     0.083 A 
ATOM      4  S   UNL d   1      -1.364   0.273  -1.689  0.00  0.00    -0.091 SA
ATOM      5  C   UNL d   1      -1.272   0.783  -3.319  0.00  0.00     0.051 A 
ATOM      6  C   UNL d   1       0.029   0.965  -3.731  0.00  0.00     0.009 A 
ATOM      7  C   UNL d   1       0.960   0.697  -2.683  0.00  0.00     0.030 A 
ENDBRANCH   1   3
BRANCH   1   8
ATOM      8  C   UNL d   1       0.440  -1.736   0.475  0.00  0.00     0.043 A 
ATOM      9  C   UNL d   1       1.225  -2.831   0.100  0.00  0.00     0.024 A 
ATOM     10  C   UNL d   1       0.794  -4.124   0.403  0.00  0.00     0.025 A 
ATOM     11  C   UNL d   1      -0.412  -4.316   1.078  0.00  0.00     0.034 A 
ATOM     12  C   UNL d   1      -1.189  -3.223   1.464  0.00  0.00     0.025 A 
ATOM     13 CL   UNL d   1      -0.942  -5.910   1.445  0.00  0.00    -0.084 Cl
ATOM     14  C   UNL d   1      -0.759  -1.928   1.173  0.00  0.00     0.024 A 
ENDBRANCH   1   8
BRANCH   1  15
ATOM     15  N   UNL d   1       0.269   0.909   1.000  0.00  0.00    -0.352 N 
ATOM     16  H   UNL d   1      -0.634   1.188   0.616  0.00  0.00     0.166 HD
ATOM     17  HN  UNL d   1       0.639   1.259   1.884  1.00  0.00     0.166 HD
ENDBRANCH   1  15
TORSDOF 3
