REMARK  5 active torsions:
REMARK  status: ('A' for Active; 'I' for Inactive)
REMARK    1  A    between atoms: C_5  and  C_1 
REMARK    2  A    between atoms: C_7  and  C_5 
REMARK    3  A    between atoms: C_13  and  C_6 
REMARK    4  A    between atoms: N_14  and  N_9 
REMARK    5  A    between atoms: C_17  and  N_14 
ROOT
ATOM      1  C   UNL d   1       0.892  -3.494   0.075  0.00  0.00     0.181 C 
ATOM      2  N   UNL d   1      -0.098  -2.915  -0.543  0.00  0.00    -0.287 N 
ATOM      3  HN  UNL d   1       0.066  -2.046  -1.051  1.00  0.00     0.188 HD
ATOM      4  C   UNL d   1       0.644  -4.744   0.756  0.00  0.00     0.123 C 
ATOM      5  N   UNL d   1       0.392  -5.736   1.305  0.00  0.00    -0.190 NA
ENDROOT
BRANCH   1   6
ATOM      6  C   UNL d   1       2.272  -2.907   0.038  0.00  0.00     0.238 C 
ATOM      7  O   UNL d   1       3.203  -3.714   0.026  0.00  0.00    -0.283 OA
BRANCH   6   8
ATOM      8  C   UNL d   1       2.514  -1.469   0.035  0.00  0.00     0.110 A 
ATOM      9  N   UNL d   1       1.536  -0.557   0.095  0.00  0.00    -0.257 N 
ATOM     10  O   UNL d   1       2.153   0.678   0.067  0.00  0.00    -0.241 OA
ATOM     11  HN  UNL d   1       0.534  -0.738   0.150  1.00  0.00     0.195 HD
ATOM     12  C   UNL d   1       3.506   0.518   0.020  0.00  0.00     0.086 A 
ATOM     13  C   UNL d   1       3.781  -0.829  -0.005  0.00  0.00     0.071 A 
BRANCH  12  14
ATOM     14  C   UNL d   1       4.340   1.771   0.026  0.00  0.00     0.000 C 
ATOM     15  C   UNL d   1       5.841   1.424   0.013  0.00  0.00     0.021 C 
ATOM     16  C   UNL d   1       4.026   2.625  -1.215  0.00  0.00     0.021 C 
ATOM     17  C   UNL d   1       4.040   2.589   1.295  0.00  0.00     0.021 C 
ENDBRANCH  12  14
ENDBRANCH   6   8
ENDBRANCH   1   6
BRANCH   2  18
ATOM     18  N   UNL d   1      -1.350  -3.454  -0.521  0.00  0.00    -0.300 N 
ATOM     19  H   UNL d   1      -1.665  -4.064   0.237  0.00  0.00     0.187 HD
BRANCH  18  20
ATOM     20  C   UNL d   1      -2.398  -2.708  -1.105  0.00  0.00     0.049 A 
ATOM     21  C   UNL d   1      -2.166  -1.530  -1.830  0.00  0.00     0.054 A 
ATOM     22  C   UNL d   1      -3.216  -0.873  -2.469  0.00  0.00     0.036 A 
ATOM     23 CL   UNL d   1      -2.909   0.576  -3.348  0.00  0.00    -0.084 Cl
ATOM     24  C   UNL d   1      -4.510  -1.384  -2.415  0.00  0.00     0.024 A 
ATOM     25  C   UNL d   1      -4.755  -2.563  -1.714  0.00  0.00     0.004 A 
ATOM     26  C   UNL d   1      -3.703  -3.222  -1.071  0.00  0.00     0.031 A 
ENDBRANCH  18  20
ENDBRANCH   2  18
TORSDOF 5
