REMARK  8 active torsions:
REMARK  status: ('A' for Active; 'I' for Inactive)
REMARK    1  A    between atoms: C_2  and  S_1 
REMARK    2  A    between atoms: N_5  and  S_1 
REMARK    3  A    between atoms: C_8  and  C_4 
REMARK    4  A    between atoms: C_11  and  N_5 
REMARK    5  A    between atoms: C_12  and  N_5 
REMARK    6  A    between atoms: O_15  and  C_8 
REMARK    7  A    between atoms: C_16  and  C_11 
REMARK    8  A    between atoms: C_17  and  C_12 
ROOT
ATOM      1  N   UNL d   1       0.502  -1.438   0.286  0.00  0.00    -0.297 N 
ENDROOT
BRANCH   1   2
ATOM      2  S   UNL d   1       1.198  -0.044  -0.375  0.00  0.00     0.277 S 
ATOM      3  O   UNL d   1       2.477  -0.370  -0.967  0.00  0.00    -0.199 OA
ATOM      4  O   UNL d   1       0.222   0.725  -1.110  0.00  0.00    -0.199 OA
BRANCH   2   5
ATOM      5  C   UNL d   1       1.643   1.017   1.007  0.00  0.00     0.151 C 
ATOM      6  N   UNL d   1       0.876   2.063   1.509  0.00  0.00    -0.336 N 
ATOM      7  C   UNL d   1       1.620   2.820   2.411  0.00  0.00     0.111 C 
ATOM      8  C   UNL d   1      -0.493   2.377   1.149  0.00  0.00     0.157 C 
ATOM      9  C   UNL d   1       2.817   2.142   2.589  0.00  0.00     0.039 C 
ATOM     10  C   UNL d   1       2.822   1.022   1.737  0.00  0.00     0.046 C 
BRANCH   7  11
ATOM     11  C   UNL d   1       1.203   4.076   3.015  0.00  0.00     0.309 C 
ATOM     12  O   UNL d   1       0.128   4.632   2.852  0.00  0.00    -0.258 OA
BRANCH  11  13
ATOM     13  O   UNL d   1       2.207   4.558   3.804  0.00  0.00    -0.321 OA
ATOM     14  C   UNL d   1       1.928   5.807   4.434  0.00  0.00     0.213 C 
ENDBRANCH  11  13
ENDBRANCH   7  11
ENDBRANCH   2   5
ENDBRANCH   1   2
BRANCH   1  15
ATOM     15  C   UNL d   1      -0.973  -1.475   0.441  0.00  0.00     0.174 C 
BRANCH  15  16
ATOM     16  C   UNL d   1      -1.818  -1.404  -0.820  0.00  0.00    -0.040 A 
ATOM     17  C   UNL d   1      -1.714  -2.358  -1.843  0.00  0.00     0.009 A 
ATOM     18  C   UNL d   1      -2.517  -2.279  -2.986  0.00  0.00     0.001 A 
ATOM     19  C   UNL d   1      -3.449  -1.254  -3.118  0.00  0.00     0.000 A 
ATOM     20  C   UNL d   1      -3.574  -0.302  -2.111  0.00  0.00     0.001 A 
ATOM     21  C   UNL d   1      -2.767  -0.378  -0.972  0.00  0.00     0.009 A 
ENDBRANCH  15  16
ENDBRANCH   1  15
BRANCH   1  22
ATOM     22  C   UNL d   1       1.113  -2.740  -0.058  0.00  0.00     0.174 C 
BRANCH  22  23
ATOM     23  C   UNL d   1       2.507  -3.020   0.460  0.00  0.00    -0.040 A 
ATOM     24  C   UNL d   1       2.818  -2.997   1.825  0.00  0.00     0.009 A 
ATOM     25  C   UNL d   1       4.101  -3.347   2.263  0.00  0.00     0.001 A 
ATOM     26  C   UNL d   1       5.082  -3.723   1.345  0.00  0.00     0.000 A 
ATOM     27  C   UNL d   1       4.787  -3.744  -0.014  0.00  0.00     0.001 A 
ATOM     28  C   UNL d   1       3.509  -3.398  -0.452  0.00  0.00     0.009 A 
ENDBRANCH  22  23
ENDBRANCH   1  22
TORSDOF 8
