REMARK  3 active torsions:
REMARK  status: ('A' for Active; 'I' for Inactive)
REMARK    1  A    between atoms: O_6  and  C_1 
REMARK    2  A    between atoms: C_8  and  C_2 
REMARK    3  A    between atoms: C_7  and  O_6 
ROOT
ATOM      1  C   UNL d   1       0.760  -1.736  -0.166  0.00  0.00     0.108 A 
ATOM      2  C   UNL d   1       1.962  -1.065  -0.003  0.00  0.00     0.050 A 
ATOM      3  S   UNL d   1       1.680   0.607   0.257  0.00  0.00    -0.086 SA
ATOM      4  C   UNL d   1      -0.397  -0.869  -0.146  0.00  0.00     0.016 A 
ATOM      5  C   UNL d   1      -0.017   0.456   0.072  0.00  0.00     0.018 A 
ATOM      6  C   UNL d   1      -1.783  -1.128  -0.317  0.00  0.00     0.015 A 
ATOM      7  C   UNL d   1      -0.957   1.506   0.123  0.00  0.00     0.020 A 
ATOM      8  C   UNL d   1      -2.722  -0.093  -0.251  0.00  0.00     0.001 A 
ATOM      9  C   UNL d   1      -2.311   1.213  -0.037  0.00  0.00     0.001 A 
ENDROOT
BRANCH   2  10
ATOM     10  C   UNL d   1       3.353  -1.569   0.020  0.00  0.00    -0.016 A 
ATOM     11  C   UNL d   1       4.407  -0.839  -0.551  0.00  0.00     0.013 A 
ATOM     12  C   UNL d   1       5.726  -1.304  -0.492  0.00  0.00     0.001 A 
ATOM     13  C   UNL d   1       6.010  -2.518   0.125  0.00  0.00     0.000 A 
ATOM     14  C   UNL d   1       4.977  -3.265   0.685  0.00  0.00     0.001 A 
ATOM     15  C   UNL d   1       3.661  -2.792   0.637  0.00  0.00     0.013 A 
ENDBRANCH   2  10
BRANCH   1  16
ATOM     16  O   UNL d   1       0.755  -3.068  -0.434  0.00  0.00    -0.277 OA
BRANCH  16  17
ATOM     17  C   UNL d   1       0.003  -3.893   0.349  0.00  0.00     0.260 C 
ATOM     18  O   UNL d   1      -0.720  -3.577   1.285  0.00  0.00    -0.265 OA
ATOM     19  C   UNL d   1       0.205  -5.312  -0.093  0.00  0.00     0.126 C 
ENDBRANCH  16  17
ENDBRANCH   1  16
TORSDOF 3
