REMARK  4 active torsions:
REMARK  status: ('A' for Active; 'I' for Inactive)
REMARK       I    between atoms: N_2  and  C_1 
REMARK    1  A    between atoms: C_3  and  C_1 
REMARK    2  A    between atoms: C_7  and  N_2 
REMARK    3  A    between atoms: C_4  and  C_7 
REMARK    4  A    between atoms: O_11  and  C_4 
ROOT
ATOM      1  C   UNL d   1       0.950  -0.121   0.034  0.00  0.00     0.252 C 
ATOM      2  N   UNL d   1       0.289  -0.810   1.022  0.00  0.00    -0.347 N 
ATOM      3  O   UNL d   1       2.109  -0.363  -0.280  0.00  0.00    -0.268 OA
ATOM      4  H   UNL d   1      -0.712  -0.709   1.158  0.00  0.00     0.163 HD
ENDROOT
BRANCH   1   5
ATOM      5  C   UNL d   1       0.175   0.936  -0.671  0.00  0.00     0.032 A 
ATOM      6  C   UNL d   1      -0.866   1.633  -0.042  0.00  0.00     0.018 A 
ATOM      7  C   UNL d   1      -1.552   2.638  -0.731  0.00  0.00     0.020 A 
ATOM      8  C   UNL d   1      -1.196   2.947  -2.043  0.00  0.00     0.011 A 
ATOM      9  C   UNL d   1      -0.157   2.264  -2.675  0.00  0.00     0.020 A 
ATOM     10 BR   UNL d   1      -2.117   4.315  -2.966  0.00  0.00    -0.051 Br
ATOM     11  C   UNL d   1       0.532   1.262  -1.986  0.00  0.00     0.018 A 
ENDBRANCH   1   5
BRANCH   2  12
ATOM     12  C   UNL d   1       0.951  -1.863   1.766  0.00  0.00     0.232 C 
BRANCH  12  13
ATOM     13  C   UNL d   1      -0.002  -2.463   2.788  0.00  0.00     0.158 C 
ATOM     14  O   UNL d   1      -1.166  -2.111   2.931  0.00  0.00    -0.649 OA
BRANCH  13  15
ATOM     15  O   UNL d   1       0.558  -3.444   3.535  0.00  0.00    -0.775 OA
ATOM     16  H   UNL d   1       1.492  -3.630   3.314  0.00  0.00     0.167 HD
ENDBRANCH  13  15
ENDBRANCH  12  13
ENDBRANCH   2  12
TORSDOF 4
