REMARK  4 active torsions:
REMARK  status: ('A' for Active; 'I' for Inactive)
REMARK    1  A    between atoms: C_13  and  C_1 
REMARK    2  A    between atoms: N_3  and  C_2 
REMARK    3  A    between atoms: C_4  and  C_8 
REMARK       I    between atoms: C_8  and  N_12 
REMARK    4  A    between atoms: C_18  and  C_13 
ROOT
ATOM      1  C   UNL d   1      -7.025   3.114  -2.183  0.00  0.00     0.277 C 
ATOM      2  N   UNL d   1      -6.064   2.307  -1.525  0.00  0.00    -0.346 N 
ATOM      3  C   UNL d   1      -3.915   0.924  -0.003  0.00  0.00     0.064 C 
ATOM      4  O   UNL d   1      -7.565   4.056  -1.603  0.00  0.00    -0.265 OA
ATOM      5  C   UNL d   1      -5.760   2.725  -0.163  0.00  0.00     0.127 C 
ATOM      6  C   UNL d   1      -4.947   1.704  -2.253  0.00  0.00     0.127 C 
ATOM      7  C   UNL d   1      -4.181   0.623  -1.476  0.00  0.00     0.032 C 
ATOM      8  C   UNL d   1      -5.109   1.632   0.660  0.00  0.00     0.032 C 
ENDROOT
BRANCH   3   9
ATOM      9  C   UNL d   1      -2.524   1.508   0.340  0.00  0.00     0.164 C 
ATOM     10  O   UNL d   1      -2.489   2.597   0.918  0.00  0.00    -0.292 OA
BRANCH   9  11
ATOM     11  C   UNL d   1      -1.171   0.776   0.089  0.00  0.00     0.023 A 
ATOM     12  C   UNL d   1      -0.013   1.597  -0.189  0.00  0.00    -0.041 A 
ATOM     13  C   UNL d   1       1.306   1.032  -0.236  0.00  0.00    -0.049 A 
ATOM     14  C   UNL d   1      -0.101   3.096  -0.416  0.00  0.00     0.050 C 
ATOM     15  C   UNL d   1       2.547   1.878  -0.486  0.00  0.00     0.049 C 
ATOM     16  C   UNL d   1       1.501  -0.350  -0.025  0.00  0.00    -0.049 A 
ATOM     17  C   UNL d   1       0.384  -1.175   0.227  0.00  0.00    -0.049 A 
ATOM     18  C   UNL d   1       2.912  -0.915  -0.053  0.00  0.00     0.049 C 
ATOM     19  C   UNL d   1      -0.955  -0.631   0.261  0.00  0.00    -0.041 A 
ATOM     20  C   UNL d   1       0.654  -2.649   0.504  0.00  0.00     0.049 C 
ATOM     21  C   UNL d   1      -2.009  -1.666   0.562  0.00  0.00     0.050 C 
ENDBRANCH   9  11
ENDBRANCH   3   9
BRANCH   1  22
ATOM     22  C   UNL d   1      -7.375   2.831  -3.572  0.00  0.00     0.145 A 
ATOM     23  O   UNL d   1      -7.358   1.550  -4.056  0.00  0.00    -0.283 OA
ATOM     24  C   UNL d   1      -7.774   1.618  -5.339  0.00  0.00     0.215 A 
ATOM     25  C   UNL d   1      -8.087   2.901  -5.717  0.00  0.00     0.066 A 
ATOM     26  C   UNL d   1      -7.852   3.685  -4.559  0.00  0.00     0.047 A 
BRANCH  24  27
ATOM     27  N   UNL d   1      -7.812   0.384  -6.065  0.00  0.00    -0.090 N 
ATOM     28  O   UNL d   1      -8.217   0.436  -7.229  0.00  0.00    -0.530 OA
ATOM     29  O   UNL d   1      -7.421  -0.636  -5.479  0.00  0.00    -0.530 OA
ENDBRANCH  24  27
ENDBRANCH   1  22
TORSDOF 4
