REMARK  2 active torsions:
REMARK  status: ('A' for Active; 'I' for Inactive)
REMARK    1  A    between atoms: C_14  and  C_5 
REMARK    2  A    between atoms: O_13  and  C_6 
ROOT
ATOM      1  N   UNL d   1       0.008  -0.679   0.012  0.00  0.00    -0.274 N 
ATOM      2  C   UNL d   1       1.205  -1.383   0.033  0.00  0.00     0.263 A 
ATOM      3  N   UNL d   1       1.103   1.428   0.026  0.00  0.00    -0.322 N 
ATOM      4  HN  UNL d   1       1.063   2.447   0.065  1.00  0.00     0.169 HD
ATOM      5  C   UNL d   1       2.441  -0.563  -0.030  0.00  0.00     0.061 A 
ATOM      6  C   UNL d   1       2.289   0.766  -0.019  0.00  0.00     0.153 A 
ATOM      7  C   UNL d   1       0.024   0.709   0.019  0.00  0.00     0.116 A 
ATOM      8  C   UNL d   1      -1.194  -1.380  -0.002  0.00  0.00     0.102 A 
ATOM      9  O   UNL d   1       1.287  -2.611   0.089  0.00  0.00    -0.267 OA
ATOM     10  C   UNL d   1      -1.298   1.401   0.007  0.00  0.00     0.049 A 
ATOM     11  C   UNL d   1      -2.378  -0.753  -0.027  0.00  0.00     0.018 A 
ATOM     12  C   UNL d   1      -2.428   0.685  -0.025  0.00  0.00     0.005 A 
ENDROOT
BRANCH   5  13
ATOM     13  C   UNL d   1       3.758  -1.273  -0.178  0.00  0.00     0.044 C 
ATOM     14  C   UNL d   1       4.369  -1.674   1.155  0.00  0.00     0.010 C 
ENDBRANCH   5  13
BRANCH   6  15
ATOM     15  O   UNL d   1       3.385   1.588  -0.074  0.00  0.00    -0.345 OA
ATOM     16  H   UNL d   1       2.977   2.472  -0.045  0.00  0.00     0.219 HD
ENDBRANCH   6  15
TORSDOF 2
