REMARK  5 active torsions:
REMARK  status: ('A' for Active; 'I' for Inactive)
REMARK    1  A    between atoms: N_7  and  C_1 
REMARK    2  A    between atoms: C_6  and  C_5 
REMARK    3  A    between atoms: C_9  and  C_6 
REMARK    4  A    between atoms: C_13  and  N_7 
REMARK       I    between atoms: N_10  and  C_9 
REMARK    5  A    between atoms: C_14  and  N_10 
ROOT
ATOM      1  C   UNL d   1       1.121   0.824   0.283  0.00  0.00     0.148 C 
ATOM      2  N   UNL d   1       1.347  -0.355   0.914  0.00  0.00    -0.306 N 
ATOM      3  C   UNL d   1       0.287  -1.169   1.157  0.00  0.00     0.238 C 
ATOM      4  S   UNL d   1      -0.591   1.154   0.219  0.00  0.00    -0.079 SA
ATOM      5  C   UNL d   1      -1.021  -0.566   0.685  0.00  0.00     0.156 C 
ATOM      6  O   UNL d   1       0.407  -2.281   1.656  0.00  0.00    -0.272 OA
ATOM      7  H   UNL d   1       2.276  -0.675   1.131  0.00  0.00     0.171 HD
ENDROOT
BRANCH   5   8
ATOM      8  C   UNL d   1      -2.069  -0.668   1.778  0.00  0.00     0.128 C 
BRANCH   8   9
ATOM      9  C   UNL d   1      -3.475  -0.655   1.225  0.00  0.00     0.223 C 
ATOM     10  N   UNL d   1      -3.931   0.613   0.928  0.00  0.00    -0.327 N 
ATOM     11  H   UNL d   1      -3.239   1.351   0.854  0.00  0.00     0.169 HD
ATOM     12  O   UNL d   1      -4.093  -1.705   1.080  0.00  0.00    -0.273 OA
BRANCH  10  13
ATOM     13  C   UNL d   1      -5.265   0.985   0.660  0.00  0.00     0.034 A 
ATOM     14  C   UNL d   1      -6.359   0.145   0.885  0.00  0.00     0.029 A 
ATOM     15  C   UNL d   1      -7.661   0.597   0.650  0.00  0.00     0.002 A 
ATOM     16  C   UNL d   1      -7.879   1.891   0.183  0.00  0.00     0.000 A 
ATOM     17  C   UNL d   1      -6.795   2.735  -0.046  0.00  0.00     0.002 A 
ATOM     18  C   UNL d   1      -5.494   2.286   0.199  0.00  0.00     0.029 A 
ENDBRANCH  10  13
ENDBRANCH   8   9
ENDBRANCH   5   8
BRANCH   1  19
ATOM     19  N   UNL d   1       1.997   1.624  -0.220  0.00  0.00    -0.337 N 
ATOM     20  HN  UNL d   1       1.702   2.511  -0.628  1.00  0.00     0.168 HD
BRANCH  19  21
ATOM     21  C   UNL d   1       3.361   1.277  -0.206  0.00  0.00     0.034 A 
ATOM     22  C   UNL d   1       3.828   0.074  -0.758  0.00  0.00     0.029 A 
ATOM     23  C   UNL d   1       5.178  -0.272  -0.684  0.00  0.00     0.002 A 
ATOM     24  C   UNL d   1       6.088   0.612  -0.111  0.00  0.00     0.000 A 
ATOM     25  C   UNL d   1       5.649   1.841   0.379  0.00  0.00     0.002 A 
ATOM     26  C   UNL d   1       4.290   2.169   0.332  0.00  0.00     0.029 A 
ENDBRANCH  19  21
ENDBRANCH   1  19
TORSDOF 5
