REMARK  4 active torsions:
REMARK  status: ('A' for Active; 'I' for Inactive)
REMARK    1  A    between atoms: N_8  and  C_3 
REMARK    2  A    between atoms: C_13  and  N_4 
REMARK    3  A    between atoms: C_14  and  C_5 
REMARK       I    between atoms: C_7  and  N_8 
REMARK       I    between atoms: N_9  and  C_7 
REMARK    4  A    between atoms: C_10  and  N_9 
ROOT
ATOM      1  N   UNL d   1       1.295  -0.744  -0.070  0.00  0.00    -0.291 N 
ATOM      2  HN  UNL d   1       2.102  -1.314   0.183  1.00  0.00     0.187 HD
ATOM      3  C   UNL d   1      -0.130   1.009  -0.312  0.00  0.00     0.083 C 
ATOM      4  N   UNL d   1       0.084  -1.177  -0.507  0.00  0.00    -0.265 N 
ATOM      5  C   UNL d   1       1.200   0.589  -0.043  0.00  0.00     0.087 C 
ATOM      6  C   UNL d   1      -0.785  -0.129  -0.719  0.00  0.00     0.148 C 
ENDROOT
BRANCH   3   7
ATOM      7  N   UNL d   1      -0.636   2.290  -0.175  0.00  0.00    -0.305 N 
ATOM      8  C   UNL d   1      -1.466   2.897  -1.085  0.00  0.00     0.325 C 
ATOM      9  N   UNL d   1      -1.717   4.223  -0.809  0.00  0.00    -0.306 N 
ATOM     10  O   UNL d   1      -1.813   2.419  -2.163  0.00  0.00    -0.247 OA
ATOM     11  H   UNL d   1      -1.897   4.779  -1.637  0.00  0.00     0.171 HD
ATOM     12  H   UNL d   1      -0.055   2.933   0.347  0.00  0.00     0.171 HD
BRANCH   9  13
ATOM     13  C   UNL d   1      -1.913   4.836   0.445  0.00  0.00     0.075 A 
ATOM     14  C   UNL d   1      -2.417   4.152   1.563  0.00  0.00     0.146 A 
ATOM     15  C   UNL d   1      -2.665   4.816   2.761  0.00  0.00     0.086 A 
ATOM     16  F   UNL d   1      -2.760   2.859   1.481  0.00  0.00    -0.204 F 
ATOM     17  C   UNL d   1      -2.386   6.171   2.852  0.00  0.00     0.119 A 
ATOM     18  C   UNL d   1      -1.884   6.873   1.759  0.00  0.00     0.044 A 
ATOM     19  F   UNL d   1      -2.617   6.818   4.001  0.00  0.00    -0.206 F 
ATOM     20  C   UNL d   1      -1.667   6.209   0.548  0.00  0.00     0.036 A 
ENDBRANCH   9  13
ENDBRANCH   3   7
BRANCH   5  21
ATOM     21  C   UNL d   1       2.384   1.427   0.132  0.00  0.00    -0.006 A 
ATOM     22  C   UNL d   1       3.383   1.084   1.049  0.00  0.00     0.014 A 
ATOM     23  C   UNL d   1       4.545   1.853   1.144  0.00  0.00     0.001 A 
ATOM     24  C   UNL d   1       4.722   2.965   0.319  0.00  0.00     0.000 A 
ATOM     25  C   UNL d   1       3.738   3.312  -0.600  0.00  0.00     0.001 A 
ATOM     26  C   UNL d   1       2.575   2.545  -0.697  0.00  0.00     0.014 A 
ENDBRANCH   5  21
BRANCH   4  27
ATOM     27  C   UNL d   1      -0.158  -2.572  -0.659  0.00  0.00     0.056 A 
ATOM     28  C   UNL d   1       0.770  -3.487  -0.132  0.00  0.00     0.031 A 
ATOM     29  C   UNL d   1       0.539  -4.861  -0.228  0.00  0.00     0.002 A 
ATOM     30  C   UNL d   1      -0.604  -5.326  -0.873  0.00  0.00     0.000 A 
ATOM     31  C   UNL d   1      -1.516  -4.427  -1.417  0.00  0.00     0.002 A 
ATOM     32  C   UNL d   1      -1.304  -3.049  -1.307  0.00  0.00     0.031 A 
ENDBRANCH   4  27
TORSDOF 4
