REMARK  2 active torsions:
REMARK  status: ('A' for Active; 'I' for Inactive)
REMARK    1  A    between atoms: O_5  and  C_2 
REMARK    2  A    between atoms: C_7  and  O_5 
ROOT
ATOM      1  C   UNL d   1       0.142   0.557  -0.729  0.00  0.00     0.100 A 
ATOM      2  C   UNL d   1       1.097   1.428  -0.180  0.00  0.00     0.098 A 
ATOM      3  C   UNL d   1      -0.931   1.050  -1.540  0.00  0.00     0.104 C 
ATOM      4  N   UNL d   1      -1.805   1.447  -2.196  0.00  0.00    -0.191 NA
ATOM      5  C   UNL d   1       0.278  -0.821  -0.500  0.00  0.00     0.057 A 
ATOM      6 CL   UNL d   1      -0.881  -1.970  -1.075  0.00  0.00    -0.083 Cl
ATOM      7  C   UNL d   1       2.208   0.919   0.505  0.00  0.00     0.039 A 
ATOM      8  C   UNL d   1       2.349  -0.453   0.698  0.00  0.00     0.005 A 
ATOM      9  C   UNL d   1       1.376  -1.321   0.210  0.00  0.00     0.025 A 
ENDROOT
BRANCH   2  10
ATOM     10  O   UNL d   1       1.106   2.793  -0.366  0.00  0.00    -0.309 OA
BRANCH  10  11
ATOM     11  C   UNL d   1       0.034   3.553   0.045  0.00  0.00     0.076 A 
ATOM     12  C   UNL d   1      -0.925   3.169   0.987  0.00  0.00     0.039 A 
ATOM     13  C   UNL d   1      -1.997   4.021   1.276  0.00  0.00     0.026 A 
ATOM     14  C   UNL d   1      -2.087   5.266   0.655  0.00  0.00     0.034 A 
ATOM     15  C   UNL d   1      -1.106   5.676  -0.244  0.00  0.00     0.026 A 
ATOM     16 CL   UNL d   1      -3.412   6.305   1.006  0.00  0.00    -0.084 Cl
ATOM     17  C   UNL d   1      -0.046   4.819  -0.547  0.00  0.00     0.039 A 
ENDBRANCH  10  11
ENDBRANCH   2  10
TORSDOF 2
