REMARK  2 active torsions:
REMARK  status: ('A' for Active; 'I' for Inactive)
REMARK    1  A    between atoms: N_4  and  C_1 
REMARK    2  A    between atoms: C_10  and  N_7 
ROOT
ATOM      1  C   UNL d   1      -0.326  -1.125  -0.011  0.00  0.00     0.190 A 
ATOM      2  N   UNL d   1       0.991  -0.714  -0.012  0.00  0.00    -0.326 N 
ATOM      3  HN  UNL d   1       1.821  -1.306  -0.014  1.00  0.00     0.169 HD
ATOM      4  C   UNL d   1       0.951   0.605  -0.010  0.00  0.00     0.081 A 
ATOM      5  C   UNL d   1      -1.177  -0.041  -0.013  0.00  0.00     0.147 A 
ATOM      6  N   UNL d   1      -0.353   1.053  -0.014  0.00  0.00    -0.343 N 
ATOM      7  C   UNL d   1       2.137   1.499  -0.004  0.00  0.00     0.089 C 
ENDROOT
BRANCH   1   8
ATOM      8  N   UNL d   1      -0.680  -2.527  -0.001  0.00  0.00    -0.096 N 
ATOM      9  O   UNL d   1      -1.893  -2.792   0.003  0.00  0.00    -0.530 OA
ATOM     10  O   UNL d   1       0.237  -3.358   0.004  0.00  0.00    -0.530 OA
ENDBRANCH   1   8
BRANCH   6  11
ATOM     11  C   UNL d   1      -0.801   2.433   0.021  0.00  0.00     0.125 C 
ATOM     12  C   UNL d   1      -0.976   3.026  -1.365  0.00  0.00     0.027 C 
ENDBRANCH   6  11
TORSDOF 2
