REMARK  4 active torsions:
REMARK  status: ('A' for Active; 'I' for Inactive)
REMARK    1  A    between atoms: C_5  and  S_1 
REMARK    2  A    between atoms: C_9  and  S_1 
REMARK    3  A    between atoms: C_4  and  C_5 
REMARK    4  A    between atoms: C_12  and  C_6 
ROOT
ATOM      1  N   UNL d   1       0.590  -1.352   2.704  0.00  0.00    -0.352 N 
ATOM      2  HN  UNL d   1       0.156  -1.956   2.006  1.00  0.00     0.166 HD
ATOM      3  C   UNL d   1       0.805  -0.060   2.556  0.00  0.00     0.065 A 
ATOM      4  C   UNL d   1       1.041  -1.772   3.947  0.00  0.00     0.049 A 
ATOM      5  S   UNL d   1       1.524   0.725   3.905  0.00  0.00    -0.085 SA
ATOM      6  C   UNL d   1       1.580  -0.771   4.732  0.00  0.00     0.081 A 
ENDROOT
BRANCH   3   7
ATOM      7  C   UNL d   1       0.422   0.715   1.351  0.00  0.00     0.210 C 
BRANCH   7   8
ATOM      8  S   UNL d   1       1.735   0.615   0.157  0.00  0.00     0.181 S 
ATOM      9  O   UNL d   1       2.969   1.089   0.760  0.00  0.00    -0.222 OA
ATOM     10  O   UNL d   1       1.260   1.224  -1.077  0.00  0.00    -0.222 OA
BRANCH   8  11
ATOM     11  C   UNL d   1       1.918  -1.119  -0.192  0.00  0.00     0.059 A 
ATOM     12  C   UNL d   1       0.844  -1.814  -0.759  0.00  0.00     0.025 A 
ATOM     13  C   UNL d   1       0.949  -3.191  -0.959  0.00  0.00     0.025 A 
ATOM     14  C   UNL d   1       2.127  -3.854  -0.611  0.00  0.00     0.034 A 
ATOM     15  C   UNL d   1       3.208  -3.152  -0.075  0.00  0.00     0.025 A 
ATOM     16 CL   UNL d   1       2.236  -5.558  -0.821  0.00  0.00    -0.084 Cl
ATOM     17  C   UNL d   1       3.107  -1.776   0.136  0.00  0.00     0.025 A 
ENDBRANCH   8  11
ENDBRANCH   7   8
ENDBRANCH   3   7
BRANCH   4  18
ATOM     18  C   UNL d   1       0.989  -3.172   4.351  0.00  0.00    -0.009 A 
ATOM     19  C   UNL d   1       1.081  -4.178   3.381  0.00  0.00     0.014 A 
ATOM     20  C   UNL d   1       1.104  -5.524   3.753  0.00  0.00     0.001 A 
ATOM     21  C   UNL d   1       1.019  -5.877   5.098  0.00  0.00     0.000 A 
ATOM     22  C   UNL d   1       0.896  -4.888   6.071  0.00  0.00     0.001 A 
ATOM     23  C   UNL d   1       0.875  -3.541   5.699  0.00  0.00     0.014 A 
ENDBRANCH   4  18
TORSDOF 4
