REMARK  4 active torsions:
REMARK  status: ('A' for Active; 'I' for Inactive)
REMARK    1  A    between atoms: C_2  and  C_9 
REMARK    2  A    between atoms: C_19  and  C_7 
REMARK    3  A    between atoms: C_9  and  C_16 
REMARK    4  A    between atoms: C_16  and  N_15 
ROOT
ATOM      1  C   UNL d   1       2.921  -0.773   0.267  0.00  0.00     0.148 A 
ATOM      2  N   UNL d   1       1.871  -1.128  -0.445  0.00  0.00    -0.335 N 
ATOM      3  HN  UNL d   1       1.859  -1.924  -1.082  1.00  0.00     0.168 HD
ATOM      4  S   UNL d   1       2.629   0.611   1.264  0.00  0.00    -0.052 SA
ATOM      5  N   UNL d   1       4.121  -1.414   0.176  0.00  0.00    -0.358 N 
ATOM      6  C   UNL d   1       0.794  -0.300  -0.231  0.00  0.00     0.053 A 
ATOM      7  C   UNL d   1       1.019   0.735   0.673  0.00  0.00     0.035 A 
ATOM      8  N   UNL d   1       5.777  -3.817   0.674  0.00  0.00     0.099 N 
ATOM      9  C   UNL d   1      -0.470  -0.416  -0.845  0.00  0.00     0.054 A 
ATOM     10  C   UNL d   1       4.278  -2.450  -0.849  0.00  0.00     0.155 C 
ATOM     11  C   UNL d   1       5.184  -1.344   1.182  0.00  0.00     0.155 C 
ATOM     12  C   UNL d   1       0.024   1.679   0.981  0.00  0.00     0.023 A 
ATOM     13  C   UNL d   1      -1.463   0.515  -0.541  0.00  0.00     0.036 A 
ATOM     14  C   UNL d   1       5.590  -2.757   1.699  0.00  0.00     0.292 C 
ATOM     15  C   UNL d   1       4.560  -3.804  -0.181  0.00  0.00     0.292 C 
ATOM     16  C   UNL d   1      -1.222   1.552   0.356  0.00  0.00     0.025 A 
ATOM     17 CL   UNL d   1      -3.009   0.381  -1.289  0.00  0.00    -0.084 Cl
ENDROOT
BRANCH   8  18
ATOM     18  C   UNL d   1       7.051  -3.652  -0.080  0.00  0.00     0.356 C 
BRANCH  18  19
ATOM     19  C   UNL d   1       7.329  -4.802  -1.077  0.00  0.00     0.192 C 
ATOM     20  O   UNL d   1       6.438  -5.558  -1.464  0.00  0.00    -0.290 OA
BRANCH  19  21
ATOM     21  C   UNL d   1       8.668  -5.000  -1.618  0.00  0.00     0.072 A 
ATOM     22  C   UNL d   1       9.235  -6.245  -2.065  0.00  0.00     0.081 A 
ATOM     23  N   UNL d   1      10.436  -6.033  -2.626  0.00  0.00    -0.259 N 
ATOM     24  O   UNL d   1      10.686  -4.688  -2.518  0.00  0.00    -0.241 OA
ATOM     25  HN  UNL d   1      11.044  -6.734  -3.049  1.00  0.00     0.195 HD
ATOM     26  C   UNL d   1       9.646  -4.066  -1.903  0.00  0.00     0.088 A 
ATOM     27  C   UNL d   1       9.806  -2.605  -1.769  0.00  0.00     0.080 C 
BRANCH  22  28
ATOM     28  C   UNL d   1       8.695  -7.607  -1.962  0.00  0.00    -0.006 A 
ATOM     29  C   UNL d   1       7.989  -8.020  -0.822  0.00  0.00     0.014 A 
ATOM     30  C   UNL d   1       7.464  -9.311  -0.731  0.00  0.00     0.001 A 
ATOM     31  C   UNL d   1       7.658 -10.216  -1.770  0.00  0.00     0.000 A 
ATOM     32  C   UNL d   1       8.377  -9.831  -2.900  0.00  0.00     0.001 A 
ATOM     33  C   UNL d   1       8.893  -8.534  -2.996  0.00  0.00     0.014 A 
ENDBRANCH  22  28
ENDBRANCH  19  21
ENDBRANCH  18  19
ENDBRANCH   8  18
TORSDOF 4
