REMARK  3 active torsions:
REMARK  status: ('A' for Active; 'I' for Inactive)
REMARK    1  A    between atoms: C_7  and  C_1 
REMARK    2  A    between atoms: C_6  and  C_2 
REMARK       I    between atoms: N_13  and  C_7 
REMARK    3  A    between atoms: N_15  and  N_13 
ROOT
ATOM      1  C   UNL d   1      -0.045   1.330  -0.023  0.00  0.00     0.086 A 
ATOM      2  C   UNL d   1      -1.358   0.868  -0.003  0.00  0.00     0.083 A 
ATOM      3  N   UNL d   1      -1.268  -0.496   0.055  0.00  0.00    -0.298 N 
ATOM      4  N   UNL d   1      -0.017  -0.967   0.011  0.00  0.00    -0.304 N 
ATOM      5  HN  UNL d   1       0.287  -1.940  -0.004  1.00  0.00     0.186 HD
ATOM      6  C   UNL d   1       0.744   0.134  -0.011  0.00  0.00     0.040 A 
ATOM      7  C   UNL d   1       2.221  -0.038   0.019  0.00  0.00     0.071 C 
ATOM      8  H   UNL d   1      -2.034  -1.160   0.104  0.00  0.00     0.187 HD
ENDROOT
BRANCH   1   9
ATOM      9  C   UNL d   1       0.360   2.732  -0.012  0.00  0.00     0.270 C 
ATOM     10  O   UNL d   1      -0.317   3.627   0.487  0.00  0.00    -0.266 OA
ATOM     11  N   UNL d   1       1.560   3.024  -0.657  0.00  0.00    -0.290 N 
ATOM     12  H   UNL d   1       2.108   2.303  -1.112  0.00  0.00     0.183 HD
BRANCH  11  13
ATOM     13  N   UNL d   1       1.986   4.372  -0.765  0.00  0.00    -0.247 NA
ATOM     14  H   UNL d   1       1.379   4.923  -0.139  0.00  0.00     0.143 HD
ATOM     15  H   UNL d   1       1.740   4.709  -1.700  0.00  0.00     0.143 HD
ENDBRANCH  11  13
ENDBRANCH   1   9
BRANCH   2  16
ATOM     16  C   UNL d   1      -2.630   1.537  -0.049  0.00  0.00     0.034 A 
ATOM     17  S   UNL d   1      -4.016   0.888   0.732  0.00  0.00    -0.100 SA
ATOM     18  C   UNL d   1      -4.997   2.200   0.246  0.00  0.00     0.050 A 
ATOM     19  C   UNL d   1      -4.300   3.107  -0.517  0.00  0.00     0.008 A 
ATOM     20  C   UNL d   1      -2.941   2.718  -0.698  0.00  0.00     0.021 A 
ENDBRANCH   2  16
TORSDOF 3
