REMARK  4 active torsions:
REMARK  status: ('A' for Active; 'I' for Inactive)
REMARK    1  A    between atoms: S_5  and  C_1 
REMARK    2  A    between atoms: C_7  and  C_2 
REMARK       I    between atoms: N_8  and  C_7 
REMARK       I    between atoms: C_9  and  N_8 
REMARK       I    between atoms: N_12  and  C_9 
REMARK    3  A    between atoms: C_10  and  C_11 
REMARK    4  A    between atoms: C_19  and  N_12 
ROOT
ATOM      1  C   UNL d   1      -3.256  -2.012  -0.056  0.00  0.00     0.267 C 
ATOM      2  N   UNL d   1      -2.647  -3.234  -0.334  0.00  0.00    -0.274 N 
ATOM      3  C   UNL d   1      -3.174  -4.508  -0.406  0.00  0.00     0.327 C 
ATOM      4  N   UNL d   1      -4.374  -4.711   0.225  0.00  0.00    -0.309 N 
ATOM      5  O   UNL d   1      -4.385  -1.959   0.429  0.00  0.00    -0.267 OA
ATOM      6  O   UNL d   1      -2.528  -5.364  -1.007  0.00  0.00    -0.247 OA
ATOM      7  H   UNL d   1      -1.737  -3.188  -0.771  0.00  0.00     0.173 HD
ATOM      8  H   UNL d   1      -4.660  -3.973   0.861  0.00  0.00     0.170 HD
ENDROOT
BRANCH   1   9
ATOM      9  C   UNL d   1      -2.441  -0.814  -0.333  0.00  0.00     0.081 A 
ATOM     10  S   UNL d   1      -0.816  -0.955  -0.889  0.00  0.00    -0.071 SA
ATOM     11  C   UNL d   1      -0.559   0.735  -0.928  0.00  0.00     0.111 A 
ATOM     12  C   UNL d   1      -1.701   1.405  -0.547  0.00  0.00    -0.000 A 
ATOM     13  C   UNL d   1      -2.793   0.531  -0.213  0.00  0.00    -0.023 A 
ATOM     14  C   UNL d   1      -1.835   2.825  -0.460  0.00  0.00     0.010 C 
ATOM     15  C   UNL d   1      -4.138   1.088   0.183  0.00  0.00     0.045 C 
ATOM     16  C   UNL d   1      -4.139   2.603   0.493  0.00  0.00     0.032 C 
ATOM     17  C   UNL d   1      -2.955   3.395   0.009  0.00  0.00    -0.025 C 
BRANCH  11  18
ATOM     18  S   UNL d   1       1.067   1.301  -1.413  0.00  0.00     0.179 S 
ATOM     19  O   UNL d   1       1.409   2.325  -0.451  0.00  0.00    -0.222 OA
ATOM     20  O   UNL d   1       1.897   0.129  -1.613  0.00  0.00    -0.222 OA
ATOM     21  C   UNL d   1       0.792   2.074  -2.986  0.00  0.00     0.167 C 
ENDBRANCH  11  18
ENDBRANCH   1   9
BRANCH   4  22
ATOM     22  C   UNL d   1      -5.115  -5.916   0.252  0.00  0.00     0.037 A 
ATOM     23  C   UNL d   1      -5.050  -6.891  -0.755  0.00  0.00     0.045 A 
ATOM     24  C   UNL d   1      -5.860  -8.043  -0.700  0.00  0.00     0.050 A 
ATOM     25  C   UNL d   1      -6.691  -8.242   0.414  0.00  0.00     0.016 A 
ATOM     26  C   UNL d   1      -6.749  -7.286   1.425  0.00  0.00     0.003 A 
ATOM     27  C   UNL d   1      -5.987  -6.118   1.329  0.00  0.00     0.029 A 
BRANCH  24  28
ATOM     28  C   UNL d   1      -5.883  -9.059  -1.819  0.00  0.00     0.417 C 
ATOM     29  F   UNL d   1      -5.169  -8.689  -2.918  0.00  0.00    -0.166 F 
ATOM     30  F   UNL d   1      -5.391 -10.270  -1.439  0.00  0.00    -0.166 F 
ATOM     31  F   UNL d   1      -7.147  -9.301  -2.268  0.00  0.00    -0.166 F 
ENDBRANCH  24  28
ENDBRANCH   4  22
TORSDOF 4
