REMARK  3 active torsions:
REMARK  status: ('A' for Active; 'I' for Inactive)
REMARK    1  A    between atoms: C_2  and  C_1 
REMARK    2  A    between atoms: O_10  and  C_2 
REMARK    3  A    between atoms: C_8  and  C_4 
ROOT
ATOM      1  C   UNL d   1       0.728   1.284  -0.031  0.00  0.00     0.053 A 
ATOM      2  C   UNL d   1       1.452   0.083  -0.032  0.00  0.00     0.033 A 
ATOM      3  C   UNL d   1       0.785  -1.157  -0.026  0.00  0.00    -0.009 A 
ATOM      4  N   UNL d   1      -1.345   0.052  -0.035  0.00  0.00    -0.373 N 
ATOM      5  HN  UNL d   1      -2.364   0.035  -0.051  1.00  0.00     0.164 HD
ATOM      6  C   UNL d   1      -0.656   1.215  -0.022  0.00  0.00     0.105 A 
ATOM      7  C   UNL d   1      -0.613  -1.090  -0.027  0.00  0.00     0.100 A 
ENDROOT
BRANCH   3   8
ATOM      8  C   UNL d   1       1.506  -2.451   0.013  0.00  0.00    -0.025 A 
ATOM      9  C   UNL d   1       2.744  -2.587   0.669  0.00  0.00     0.012 A 
ATOM     10  C   UNL d   1       3.411  -3.815   0.731  0.00  0.00     0.001 A 
ATOM     11  C   UNL d   1       2.851  -4.945   0.145  0.00  0.00     0.000 A 
ATOM     12  C   UNL d   1       1.631  -4.843  -0.513  0.00  0.00     0.001 A 
ATOM     13  C   UNL d   1       0.973  -3.610  -0.585  0.00  0.00     0.012 A 
ENDBRANCH   3   8
BRANCH   1  14
ATOM     14  C   UNL d   1       1.352   2.622   0.029  0.00  0.00     0.177 C 
ATOM     15  O   UNL d   1       0.794   3.582   0.529  0.00  0.00    -0.646 OA
BRANCH  14  16
ATOM     16  O   UNL d   1       2.578   2.697  -0.531  0.00  0.00    -0.773 OA
ATOM     17  H   UNL d   1       2.855   1.929  -1.061  0.00  0.00     0.167 HD
ENDBRANCH  14  16
ENDBRANCH   1  14
TORSDOF 3
