REMARK  4 active torsions:
REMARK  status: ('A' for Active; 'I' for Inactive)
REMARK    1  A    between atoms: S_20  and  C_3 
REMARK    2  A    between atoms: C_9  and  C_4 
REMARK       I    between atoms: C_11  and  N_6 
REMARK    3  A    between atoms: C_19  and  C_11 
REMARK    4  A    between atoms: O_27  and  N_17 
ROOT
ATOM      1  C   UNL d   1       0.106  -0.771   0.011  0.00  0.00     0.020 A 
ATOM      2  C   UNL d   1       0.462   0.649   0.011  0.00  0.00    -0.024 A 
ATOM      3  C   UNL d   1       1.221  -1.587  -0.061  0.00  0.00     0.054 A 
ATOM      4  C   UNL d   1       1.837   0.831  -0.020  0.00  0.00     0.041 A 
ATOM      5  S   UNL d   1       2.660  -0.675  -0.031  0.00  0.00    -0.080 SA
ATOM      6  C   UNL d   1      -1.298  -1.186   0.061  0.00  0.00     0.045 C 
ATOM      7  C   UNL d   1      -0.605   1.724   0.020  0.00  0.00     0.050 C 
ATOM      8  C   UNL d   1      -2.029   1.196   0.372  0.00  0.00    -0.038 C 
ATOM      9  C   UNL d   1      -2.309  -0.137  -0.358  0.00  0.00     0.069 C 
ATOM     10  N   UNL d   1      -1.587  -2.365   0.518  0.00  0.00    -0.271 N 
ATOM     11  HN  UNL d   1      -0.887  -3.048   0.807  1.00  0.00     0.194 HD
ATOM     12  C   UNL d   1      -3.086   2.219  -0.082  0.00  0.00     0.015 C 
ATOM     13  C   UNL d   1      -2.174   1.011   1.899  0.00  0.00     0.015 C 
ENDROOT
BRANCH   4  14
ATOM     14  C   UNL d   1       2.613   2.138  -0.032  0.00  0.00     0.067 A 
ATOM     15  N   UNL d   1       2.059   3.362  -0.083  0.00  0.00    -0.290 N 
ATOM     16  N   UNL d   1       3.119   4.222   0.026  0.00  0.00    -0.231 N 
ATOM     17  HN  UNL d   1       1.071   3.598  -0.180  1.00  0.00     0.187 HD
ATOM     18  C   UNL d   1       2.955   5.625   0.103  0.00  0.00     0.276 C 
ATOM     19  C   UNL d   1       4.318   3.553   0.080  0.00  0.00     0.122 A 
ATOM     20  O   UNL d   1       3.921   6.279   0.494  0.00  0.00    -0.265 OA
ATOM     21  C   UNL d   1       4.028   2.217   0.009  0.00  0.00     0.051 A 
BRANCH  18  22
ATOM     22  C   UNL d   1       1.739   6.368  -0.296  0.00  0.00     0.034 A 
ATOM     23  C   UNL d   1       1.399   7.538   0.402  0.00  0.00     0.019 A 
ATOM     24  C   UNL d   1       0.337   8.333  -0.039  0.00  0.00     0.025 A 
ATOM     25  C   UNL d   1      -0.367   7.969  -1.186  0.00  0.00     0.034 A 
ATOM     26  C   UNL d   1      -0.027   6.814  -1.890  0.00  0.00     0.025 A 
ATOM     27 CL   UNL d   1      -1.648   8.967  -1.756  0.00  0.00    -0.084 Cl
ATOM     28  C   UNL d   1       1.025   6.008  -1.445  0.00  0.00     0.019 A 
ENDBRANCH  18  22
ENDBRANCH   4  14
BRANCH   3  29
ATOM     29  S   UNL d   1       1.324  -3.334  -0.283  0.00  0.00    -0.126 SA
ATOM     30  C   UNL d   1       1.102  -3.931   1.407  0.00  0.00     0.096 C 
ENDBRANCH   3  29
BRANCH  10  31
ATOM     31  O   UNL d   1      -2.966  -2.598   0.572  0.00  0.00    -0.285 OA
ATOM     32  C   UNL d   1      -3.184  -3.822   1.263  0.00  0.00     0.237 C 
ENDBRANCH  10  31
TORSDOF 4
