REMARK  3 active torsions:
REMARK  status: ('A' for Active; 'I' for Inactive)
REMARK    1  A    between atoms: C_2  and  C_1 
REMARK       I    between atoms: C_4  and  N_3 
REMARK       I    between atoms: N_8  and  C_4 
REMARK    2  A    between atoms: C_15  and  C_7 
REMARK    3  A    between atoms: C_13  and  N_8 
ROOT
ATOM      1  C   UNL d   1       0.372  -2.516  -0.070  0.00  0.00     0.078 C 
ATOM      2  N   UNL d   1      -0.012  -3.475  -0.992  0.00  0.00    -0.205 N 
ATOM      3  C   UNL d   1      -0.635  -3.319  -2.251  0.00  0.00     0.346 C 
ATOM      4  N   UNL d   1      -1.544  -4.335  -2.454  0.00  0.00    -0.306 N 
ATOM      5  N   UNL d   1       0.343  -4.737  -0.586  0.00  0.00    -0.301 N 
ATOM      6  HN  UNL d   1       0.043  -5.631  -0.974  1.00  0.00     0.186 HD
ATOM      7  C   UNL d   1       1.190  -3.173   0.831  0.00  0.00     0.051 C 
ATOM      8  C   UNL d   1       1.172  -4.519   0.434  0.00  0.00     0.110 C 
ATOM      9  O   UNL d   1      -0.402  -2.329  -2.932  0.00  0.00    -0.245 OA
ATOM     10  H   UNL d   1      -1.814  -4.846  -1.615  0.00  0.00     0.171 HD
ENDROOT
BRANCH   1  11
ATOM     11  C   UNL d   1      -0.066  -1.087   0.013  0.00  0.00     0.054 A 
ATOM     12  C   UNL d   1       0.573   0.048   0.621  0.00  0.00     0.080 A 
ATOM     13  N   UNL d   1      -0.226   1.123   0.543  0.00  0.00    -0.259 N 
ATOM     14  O   UNL d   1      -1.370   0.721  -0.093  0.00  0.00    -0.241 OA
ATOM     15  HN  UNL d   1      -0.021   2.060   0.890  1.00  0.00     0.195 HD
ATOM     16  C   UNL d   1      -1.294  -0.598  -0.393  0.00  0.00     0.087 A 
ATOM     17  C   UNL d   1      -2.540  -1.165  -0.945  0.00  0.00     0.080 C 
BRANCH  12  18
ATOM     18  C   UNL d   1       1.880   0.180   1.267  0.00  0.00    -0.006 A 
ATOM     19  C   UNL d   1       2.023   1.031   2.379  0.00  0.00     0.015 A 
ATOM     20  C   UNL d   1       3.256   1.160   3.026  0.00  0.00     0.024 A 
ATOM     21  C   UNL d   1       4.352   0.434   2.573  0.00  0.00     0.034 A 
ATOM     22  C   UNL d   1       4.235  -0.397   1.461  0.00  0.00     0.024 A 
ATOM     23 CL   UNL d   1       5.862   0.565   3.385  0.00  0.00    -0.084 Cl
ATOM     24  C   UNL d   1       3.008  -0.504   0.797  0.00  0.00     0.015 A 
ENDBRANCH  12  18
ENDBRANCH   1  11
BRANCH   4  25
ATOM     25  C   UNL d   1      -2.431  -4.377  -3.550  0.00  0.00     0.048 A 
ATOM     26  C   UNL d   1      -1.932  -4.543  -4.859  0.00  0.00    -0.035 A 
ATOM     27  C   UNL d   1      -2.843  -4.727  -5.912  0.00  0.00     0.009 A 
ATOM     28  C   UNL d   1      -0.471  -4.621  -5.209  0.00  0.00     0.050 C 
ATOM     29  C   UNL d   1      -4.215  -4.747  -5.686  0.00  0.00     0.001 A 
ATOM     30  C   UNL d   1      -4.702  -4.558  -4.397  0.00  0.00     0.009 A 
ATOM     31  C   UNL d   1      -3.824  -4.375  -3.315  0.00  0.00    -0.035 A 
ATOM     32  C   UNL d   1      -4.457  -4.056  -1.987  0.00  0.00     0.050 C 
ENDBRANCH   4  25
TORSDOF 3
