REMARK  3 active torsions:
REMARK  status: ('A' for Active; 'I' for Inactive)
REMARK    1  A    between atoms: C_4  and  C_1 
REMARK    2  A    between atoms: C_13  and  C_7 
REMARK    3  A    between atoms: O_19  and  C_16 
ROOT
ATOM      1  N   UNL d   1      -2.886  -2.433   0.946  0.00  0.00    -0.348 N 
ATOM      2  HN  UNL d   1      -2.249  -2.674   1.705  1.00  0.00     0.166 HD
ATOM      3  C   UNL d   1      -2.627  -1.561  -0.012  0.00  0.00     0.103 A 
ATOM      4  C   UNL d   1      -4.154  -2.976   0.767  0.00  0.00     0.050 A 
ATOM      5  S   UNL d   1      -3.875  -1.360  -1.178  0.00  0.00    -0.080 SA
ATOM      6  C   UNL d   1      -4.827  -2.513  -0.347  0.00  0.00     0.082 A 
ENDROOT
BRANCH   4   7
ATOM      7  C   UNL d   1      -4.741  -3.901   1.732  0.00  0.00    -0.009 A 
ATOM      8  C   UNL d   1      -4.340  -3.854   3.074  0.00  0.00     0.016 A 
ATOM      9  C   UNL d   1      -4.954  -4.667   4.040  0.00  0.00     0.037 A 
ATOM     10  C   UNL d   1      -5.972  -5.544   3.670  0.00  0.00     0.068 A 
ATOM     11  C   UNL d   1      -6.360  -5.613   2.332  0.00  0.00     0.037 A 
ATOM     12  C   UNL d   1      -5.744  -4.809   1.368  0.00  0.00     0.016 A 
BRANCH  10  13
ATOM     13  O   UNL d   1      -6.684  -6.350   4.514  0.00  0.00    -0.356 OA
ATOM     14  C   UNL d   1      -6.090  -6.630   5.775  0.00  0.00     0.210 C 
ENDBRANCH  10  13
ENDBRANCH   4   7
BRANCH   3  15
ATOM     15  C   UNL d   1      -1.337  -0.791  -0.075  0.00  0.00     0.091 A 
ATOM     16  N   UNL d   1      -1.098   0.172  -0.977  0.00  0.00    -0.258 N 
ATOM     17  O   UNL d   1       0.176   0.634  -0.708  0.00  0.00    -0.242 OA
ATOM     18  HN  UNL d   1      -1.728   0.496  -1.710  1.00  0.00     0.195 HD
ATOM     19  C   UNL d   1       0.700  -0.061   0.337  0.00  0.00     0.074 A 
ATOM     20  C   UNL d   1      -0.227  -0.972   0.784  0.00  0.00     0.068 A 
ATOM     21  C   UNL d   1       2.072   0.297   0.732  0.00  0.00     0.079 C 
ENDBRANCH   3  15
TORSDOF 3
