REMARK  4 active torsions:
REMARK  status: ('A' for Active; 'I' for Inactive)
REMARK    1  A    between atoms: C_2  and  C_1 
REMARK       I    between atoms: N_3  and  C_2 
REMARK    2  A    between atoms: C_8  and  C_4 
REMARK    3  A    between atoms: O_16  and  C_9 
REMARK    4  A    between atoms: C_17  and  O_16 
ROOT
ATOM      1  C   UNL d   1       0.879  -0.078  -0.114  0.00  0.00     0.113 C 
ATOM      2  C   UNL d   1       0.204   1.048  -0.432  0.00  0.00     0.039 C 
ATOM      3  C   UNL d   1       0.227  -1.270   0.290  0.00  0.00     0.105 C 
ATOM      4  N   UNL d   1      -0.299  -2.245   0.648  0.00  0.00    -0.191 NA
ENDROOT
BRANCH   1   5
ATOM      5  C   UNL d   1       2.366  -0.018  -0.258  0.00  0.00     0.264 C 
ATOM      6  N   UNL d   1       3.174  -0.703   0.625  0.00  0.00    -0.347 N 
ATOM      7  C   UNL d   1       2.823  -1.474   1.810  0.00  0.00     0.126 C 
ATOM      8  C   UNL d   1       4.622  -0.600   0.500  0.00  0.00     0.126 C 
ATOM      9  C   UNL d   1       4.024  -1.302   2.722  0.00  0.00     0.021 C 
ATOM     10  C   UNL d   1       5.198  -1.248   1.754  0.00  0.00     0.021 C 
ATOM     11  O   UNL d   1       2.853   0.679  -1.150  0.00  0.00    -0.267 OA
ENDBRANCH   1   5
BRANCH   2  12
ATOM     12  C   UNL d   1      -1.253   1.181  -0.354  0.00  0.00    -0.034 A 
ATOM     13  C   UNL d   1      -1.839   1.740   0.786  0.00  0.00     0.014 A 
ATOM     14  C   UNL d   1      -3.232   1.806   0.905  0.00  0.00     0.037 A 
ATOM     15  C   UNL d   1      -4.046   1.315  -0.116  0.00  0.00     0.068 A 
ATOM     16  C   UNL d   1      -3.460   0.797  -1.272  0.00  0.00     0.037 A 
ATOM     17  C   UNL d   1      -2.070   0.721  -1.391  0.00  0.00     0.014 A 
BRANCH  15  18
ATOM     18  O   UNL d   1      -5.415   1.331  -0.105  0.00  0.00    -0.352 OA
BRANCH  18  19
ATOM     19  C   UNL d   1      -6.024   1.250   1.185  0.00  0.00     0.171 C 
ATOM     20  C   UNL d   1      -7.527   1.153   0.995  0.00  0.00     0.034 C 
ENDBRANCH  18  19
ENDBRANCH  15  18
ENDBRANCH   2  12
TORSDOF 4
