REMARK  9 active torsions:
REMARK  status: ('A' for Active; 'I' for Inactive)
REMARK       I    between atoms: N_8  and  C1_1 
REMARK    1  A    between atoms: O1_2  and  C1_1 
REMARK    2  A    between atoms: C5_4  and  O1_2 
REMARK    3  A    between atoms: CA_9  and  N_8 
REMARK    4  A    between atoms: C_10  and  CA_9 
REMARK    5  A    between atoms: CB_11  and  CA_9 
REMARK    6  A    between atoms: OXT_13  and  C_10 
REMARK    7  A    between atoms: CG_14  and  CB_11 
REMARK    8  A    between atoms: C_23  and  N_22 
REMARK    9  A    between atoms: C_24  and  N_22 
ROOT
ATOM      1  N   UNL d   1       1.730   0.723  -0.563  0.00  0.00     0.092 N 
ATOM      2  H   UNL d   1       1.634   1.312   0.264  0.00  0.00     0.316 HD
ENDROOT
BRANCH   1   3
ATOM      3  C   UNL d   1       1.139   1.409  -1.725  0.00  0.00     0.221 C 
ATOM      4  C   UNL d   1       1.716   2.839  -1.816  0.00  0.00     0.035 C 
ATOM      5  C   UNL d   1       1.135   3.807  -0.782  0.00  0.00     0.002 C 
ATOM      6  C   UNL d   1      -0.388   3.840  -0.831  0.00  0.00     0.000 C 
ATOM      7  C   UNL d   1      -0.990   2.444  -0.720  0.00  0.00     0.002 C 
ATOM      8  C   UNL d   1      -0.401   1.490  -1.757  0.00  0.00     0.035 C 
ENDBRANCH   1   3
BRANCH   1   9
ATOM      9  C   UNL d   1       1.219  -0.620  -0.243  0.00  0.00     0.221 C 
ATOM     10  C   UNL d   1       1.959  -1.144   1.007  0.00  0.00     0.035 C 
ATOM     11  C   UNL d   1       3.373  -1.643   0.711  0.00  0.00     0.002 C 
ATOM     12  C   UNL d   1       3.341  -2.744  -0.339  0.00  0.00     0.000 C 
ATOM     13  C   UNL d   1       2.696  -2.241  -1.626  0.00  0.00     0.002 C 
ATOM     14  C   UNL d   1       1.303  -1.659  -1.382  0.00  0.00     0.035 C 
ENDBRANCH   1   9
TORSDOF 9
