REMARK  4 active torsions:
REMARK  status: ('A' for Active; 'I' for Inactive)
REMARK    1  A    between atoms: C_15  and  N_1 
REMARK    2  A    between atoms: C_7  and  C_5 
REMARK    3  A    between atoms: C_8  and  C_9 
REMARK       I    between atoms: C_9  and  N_14 
REMARK    4  A    between atoms: N_14  and  C_28 
ROOT
ATOM      1  C   UNL d   1       2.056  -1.412   0.022  0.00  0.00     0.057 A 
ATOM      2  C   UNL d   1       2.114  -2.543  -0.799  0.00  0.00     0.034 A 
ATOM      3  C   UNL d   1       3.201  -1.012   0.719  0.00  0.00     0.034 A 
ATOM      4  C   UNL d   1       4.434  -2.913  -0.156  0.00  0.00     0.035 A 
ATOM      5  C   UNL d   1       4.374  -1.772   0.647  0.00  0.00     0.032 A 
ATOM      6  C   UNL d   1       3.299  -3.282  -0.889  0.00  0.00     0.032 A 
ENDROOT
BRANCH   1   7
ATOM      7  N   UNL d   1       0.861  -0.649   0.143  0.00  0.00    -0.255 N 
ATOM      8  C   UNL d   1      -0.462  -1.060   0.030  0.00  0.00     0.076 C 
ATOM      9  C   UNL d   1      -1.207   0.100  -0.048  0.00  0.00     0.069 C 
ATOM     10  C   UNL d   1      -0.937  -2.415   0.111  0.00  0.00     0.033 A 
ATOM     11  C   UNL d   1      -0.301   1.160   0.201  0.00  0.00     0.135 C 
ATOM     12  N   UNL d   1       0.943   0.686   0.395  0.00  0.00    -0.289 N 
ATOM     13  HN  UNL d   1       1.770   1.214   0.672  1.00  0.00     0.187 HD
ATOM     14  S   UNL d   1      -2.206  -2.990  -0.887  0.00  0.00    -0.100 SA
ATOM     15  C   UNL d   1      -0.506  -3.395   0.987  0.00  0.00     0.021 A 
ATOM     16  C   UNL d   1      -2.154  -4.543  -0.171  0.00  0.00     0.050 A 
ATOM     17  C   UNL d   1      -1.199  -4.628   0.814  0.00  0.00     0.008 A 
BRANCH  11  18
ATOM     18  C   UNL d   1      -0.658   2.619   0.299  0.00  0.00     0.434 C 
ATOM     19  F   UNL d   1       0.377   3.414   0.675  0.00  0.00    -0.165 F 
ATOM     20  F   UNL d   1      -1.114   3.102  -0.889  0.00  0.00    -0.165 F 
ATOM     21  F   UNL d   1      -1.657   2.826   1.202  0.00  0.00    -0.165 F 
ENDBRANCH  11  18
ENDBRANCH   1   7
BRANCH   4  22
ATOM     22  N   UNL d   1       5.582  -3.715  -0.304  0.00  0.00    -0.321 N 
ATOM     23  C   UNL d   1       6.799  -3.590   0.346  0.00  0.00     0.281 C 
ATOM     24  O   UNL d   1       7.044  -2.787   1.240  0.00  0.00    -0.265 OA
ATOM     25  H   UNL d   1       5.520  -4.472  -0.976  0.00  0.00     0.169 HD
BRANCH  23  26
ATOM     26  C   UNL d   1       7.803  -4.517  -0.128  0.00  0.00     0.167 A 
ATOM     27  O   UNL d   1       7.485  -5.416  -1.105  0.00  0.00    -0.233 OA
ATOM     28  N   UNL d   1       8.598  -6.180  -1.413  0.00  0.00    -0.272 N 
ATOM     29  C   UNL d   1       9.569  -5.727  -0.617  0.00  0.00     0.117 A 
ATOM     30  HN  UNL d   1       8.662  -6.929  -2.102  1.00  0.00     0.194 HD
ATOM     31  C   UNL d   1       9.124  -4.689   0.218  0.00  0.00     0.064 A 
ENDBRANCH  23  26
ENDBRANCH   4  22
TORSDOF 4
