REMARK  6 active torsions:
REMARK  status: ('A' for Active; 'I' for Inactive)
REMARK    1  A    between atoms: C_3  and  N_4 
REMARK       I    between atoms: N_4  and  C_7 
REMARK    2  A    between atoms: C_7  and  C_17 
REMARK    3  A    between atoms: C_25  and  C_11 
REMARK    4  A    between atoms: C_24  and  C_12 
REMARK    5  A    between atoms: O_16  and  C_14 
REMARK    6  A    between atoms: C_17  and  O_16 
ROOT
ATOM      1  N   UNL d   1       5.752  -3.577  -0.150  0.00  0.00    -0.324 N 
ATOM      2  C   UNL d   1       4.693  -4.191  -0.805  0.00  0.00     0.246 C 
ATOM      3  O   UNL d   1       4.741  -5.298  -1.341  0.00  0.00    -0.271 OA
ATOM      4  H   UNL d   1       5.436  -3.006   0.626  0.00  0.00     0.169 HD
ENDROOT
BRANCH   2   5
ATOM      5  C   UNL d   1       3.381  -3.399  -0.802  0.00  0.00     0.278 C 
BRANCH   5   6
ATOM      6  O   UNL d   1       3.422  -2.135  -0.151  0.00  0.00    -0.342 OA
BRANCH   6   7
ATOM      7  C   UNL d   1       2.301  -1.351  -0.322  0.00  0.00     0.072 A 
ATOM      8  C   UNL d   1       1.104  -1.763  -0.912  0.00  0.00     0.074 A 
ATOM      9  C   UNL d   1       0.064  -0.847  -1.097  0.00  0.00     0.083 A 
ATOM     10  O   UNL d   1      -1.056  -1.310  -1.742  0.00  0.00    -0.336 OA
ATOM     11  C   UNL d   1       0.180   0.469  -0.650  0.00  0.00    -0.003 A 
ATOM     12  C   UNL d   1      -1.797  -0.305  -2.475  0.00  0.00     0.078 C 
ATOM     13  C   UNL d   1      -1.135  -0.142  -3.853  0.00  0.00     0.051 C 
ATOM     14  C   UNL d   1      -3.211  -0.868  -2.662  0.00  0.00     0.051 C 
ATOM     15  C   UNL d   1      -1.866   1.023  -1.750  0.00  0.00     0.011 C 
ATOM     16  C   UNL d   1      -0.931   1.393  -0.866  0.00  0.00     0.013 C 
ATOM     17  C   UNL d   1       1.355   0.873  -0.016  0.00  0.00     0.017 A 
ATOM     18  C   UNL d   1       2.416  -0.035   0.134  0.00  0.00     0.038 A 
ENDBRANCH   6   7
ENDBRANCH   5   6
ENDBRANCH   2   5
BRANCH   1  19
ATOM     19  C   UNL d   1       6.957  -4.300   0.035  0.00  0.00     0.047 A 
ATOM     20  C   UNL d   1       7.883  -4.404  -1.030  0.00  0.00    -0.031 A 
ATOM     21  C   UNL d   1       9.048  -5.170  -0.848  0.00  0.00     0.009 A 
ATOM     22  C   UNL d   1       9.308  -5.799   0.366  0.00  0.00     0.001 A 
ATOM     23  C   UNL d   1       8.415  -5.654   1.423  0.00  0.00     0.009 A 
ATOM     24  C   UNL d   1       7.239  -4.892   1.285  0.00  0.00    -0.031 A 
BRANCH  20  25
ATOM     25  C   UNL d   1       7.730  -3.656  -2.337  0.00  0.00     0.036 C 
ATOM     26  C   UNL d   1       7.240  -4.519  -3.489  0.00  0.00     0.010 C 
ENDBRANCH  20  25
BRANCH  24  27
ATOM     27  C   UNL d   1       6.309  -4.821   2.475  0.00  0.00     0.036 C 
ATOM     28  C   UNL d   1       5.369  -6.015   2.558  0.00  0.00     0.010 C 
ENDBRANCH  24  27
ENDBRANCH   1  19
TORSDOF 6
