REMARK  3 active torsions:
REMARK  status: ('A' for Active; 'I' for Inactive)
REMARK    1  A    between atoms: S_6  and  C_1 
REMARK    2  A    between atoms: C_7  and  C_3 
REMARK    3  A    between atoms: C_11  and  S_6 
ROOT
ATOM      1  C   UNL d   1       0.853   0.937  -0.059  0.00  0.00     0.064 A 
ATOM      2  S   UNL d   1       2.483   0.489   0.226  0.00  0.00    -0.079 SA
ATOM      3  C   UNL d   1       2.151  -1.194   0.083  0.00  0.00     0.034 A 
ATOM      4  C   UNL d   1       0.797  -1.395  -0.138  0.00  0.00     0.042 A 
ATOM      5  C   UNL d   1       0.070  -0.180  -0.234  0.00  0.00     0.036 A 
ATOM      6 BR   UNL d   1      -1.784  -0.221  -0.616  0.00  0.00    -0.049 Br
ENDROOT
BRANCH   1   7
ATOM      7  S   UNL d   1       0.384   2.627  -0.213  0.00  0.00    -0.082 SA
BRANCH   7   8
ATOM      8  C   UNL d   1       0.113   3.037   1.503  0.00  0.00     0.006 A 
ATOM      9  C   UNL d   1       0.956   3.960   2.135  0.00  0.00     0.019 A 
ATOM     10  C   UNL d   1       0.700   4.371   3.446  0.00  0.00     0.001 A 
ATOM     11  C   UNL d   1      -0.401   3.867   4.134  0.00  0.00     0.000 A 
ATOM     12  C   UNL d   1      -1.247   2.950   3.512  0.00  0.00     0.001 A 
ATOM     13  C   UNL d   1      -0.993   2.542   2.201  0.00  0.00     0.019 A 
ENDBRANCH   7   8
ENDBRANCH   1   7
BRANCH   3  14
ATOM     14  C   UNL d   1       3.209  -2.219   0.187  0.00  0.00     0.049 A 
ATOM     15  N   UNL d   1       2.753  -3.492   0.059  0.00  0.00    -0.365 N 
ATOM     16  C   UNL d   1       3.653  -4.497   0.143  0.00  0.00     0.088 A 
ATOM     17  HN  UNL d   1       1.763  -3.684  -0.096  1.00  0.00     0.165 HD
ATOM     18  C   UNL d   1       5.007  -4.302   0.351  0.00  0.00     0.017 A 
ATOM     19  C   UNL d   1       5.465  -2.997   0.474  0.00  0.00     0.004 A 
ATOM     20  C   UNL d   1       4.559  -1.940   0.388  0.00  0.00     0.031 A 
ENDBRANCH   3  14
TORSDOF 3
