REMARK  3 active torsions:
REMARK  status: ('A' for Active; 'I' for Inactive)
REMARK    1  A    between atoms: C_2  and  C_1 
REMARK    2  A    between atoms: O_8  and  C_2 
REMARK    3  A    between atoms: O_9  and  C_3 
ROOT
ATOM      1  C   UNL d   1       1.598   0.801  -0.006  0.00  0.00     0.079 A 
ATOM      2  C   UNL d   1       1.522  -0.652  -0.003  0.00  0.00     0.091 A 
ATOM      3  S   UNL d   1      -0.931   0.154  -0.007  0.00  0.00    -0.110 SA
ATOM      4  C   UNL d   1       0.306   1.324  -0.008  0.00  0.00     0.070 A 
ATOM      5  C   UNL d   1       0.213  -1.099  -0.004  0.00  0.00     0.087 A 
ENDROOT
BRANCH   1   6
ATOM      6  C   UNL d   1       2.753   1.712  -0.006  0.00  0.00     0.296 C 
ATOM      7  O   UNL d   1       3.928   1.366  -0.002  0.00  0.00    -0.259 OA
BRANCH   6   8
ATOM      8  O   UNL d   1       2.389   3.035  -0.009  0.00  0.00    -0.322 OA
ATOM      9  C   UNL d   1       3.496   3.939  -0.009  0.00  0.00     0.213 C 
ENDBRANCH   6   8
ENDBRANCH   1   6
BRANCH   2  10
ATOM     10  O   UNL d   1       2.441  -1.654   0.001  0.00  0.00    -0.354 OA
ATOM     11  C   UNL d   1       3.810  -1.313   0.005  0.00  0.00     0.210 C 
ENDBRANCH   2  10
TORSDOF 3
