REMARK  5 active torsions:
REMARK  status: ('A' for Active; 'I' for Inactive)
REMARK       I    between atoms: N_2  and  C_1 
REMARK       I    between atoms: N_4  and  C_1 
REMARK    1  A    between atoms: C_3  and  O_7 
REMARK    2  A    between atoms: C_11  and  N_4 
REMARK    3  A    between atoms: C_10  and  N_5 
REMARK    4  A    between atoms: O_7  and  C_17 
REMARK    5  A    between atoms: C_20  and  C_10 
ROOT
ATOM      1  C   UNL d   1       1.020  -0.086  -0.057  0.00  0.00     0.323 C 
ATOM      2  N   UNL d   1       0.444  -0.492  -1.254  0.00  0.00    -0.331 N 
ATOM      3  N   UNL d   1       0.595   1.130   0.434  0.00  0.00    -0.309 N 
ATOM      4  N   UNL d   1      -0.373  -1.435  -3.939  0.00  0.00     0.095 N 
ATOM      5  O   UNL d   1       1.862  -0.791   0.496  0.00  0.00    -0.247 OA
ATOM      6  C   UNL d   1       0.840  -1.818  -1.749  0.00  0.00     0.158 C 
ATOM      7  C   UNL d   1      -0.741   0.077  -1.911  0.00  0.00     0.158 C 
ATOM      8  C   UNL d   1       0.878  -1.873  -3.283  0.00  0.00     0.292 C 
ATOM      9  C   UNL d   1      -0.697  -0.077  -3.449  0.00  0.00     0.292 C 
ATOM     10  H   UNL d   1      -0.194   1.559  -0.007  0.00  0.00     0.170 HD
ENDROOT
BRANCH   3  11
ATOM     11  C   UNL d   1       1.060   1.777   1.601  0.00  0.00     0.036 A 
ATOM     12  C   UNL d   1       2.162   1.351   2.345  0.00  0.00     0.032 A 
ATOM     13  C   UNL d   1       2.518   1.992   3.536  0.00  0.00     0.039 A 
ATOM     14  C   UNL d   1       1.755   3.052   4.014  0.00  0.00     0.078 A 
ATOM     15  C   UNL d   1       0.711   3.544   3.230  0.00  0.00     0.039 A 
ATOM     16  C   UNL d   1       0.364   2.912   2.031  0.00  0.00     0.032 A 
BRANCH  14  17
ATOM     17  O   UNL d   1       1.976   3.708   5.185  0.00  0.00    -0.255 OA
BRANCH  17  18
ATOM     18  C   UNL d   1       2.371   2.939   6.318  0.00  0.00     0.530 C 
ATOM     19  F   UNL d   1       2.367   1.604   6.118  0.00  0.00    -0.144 F 
ATOM     20  F   UNL d   1       3.610   3.317   6.700  0.00  0.00    -0.144 F 
ATOM     21  F   UNL d   1       1.518   3.204   7.333  0.00  0.00    -0.144 F 
ENDBRANCH  17  18
ENDBRANCH  14  17
ENDBRANCH   3  11
BRANCH   4  22
ATOM     22  C   UNL d   1      -1.502  -2.354  -3.708  0.00  0.00     0.311 C 
BRANCH  22  23
ATOM     23  C   UNL d   1      -1.268  -3.766  -4.198  0.00  0.00    -0.030 A 
ATOM     24  C   UNL d   1      -1.273  -4.839  -3.293  0.00  0.00     0.009 A 
ATOM     25  C   UNL d   1      -1.077  -6.146  -3.742  0.00  0.00     0.001 A 
ATOM     26  C   UNL d   1      -0.874  -6.394  -5.098  0.00  0.00     0.000 A 
ATOM     27  C   UNL d   1      -0.860  -5.336  -6.005  0.00  0.00     0.001 A 
ATOM     28  C   UNL d   1      -1.054  -4.028  -5.558  0.00  0.00     0.009 A 
ENDBRANCH  22  23
ENDBRANCH   4  22
TORSDOF 5
