REMARK  4 active torsions:
REMARK  status: ('A' for Active; 'I' for Inactive)
REMARK    1  A    between atoms: O_4  and  C_1 
REMARK    2  A    between atoms: C_3  and  C_2 
REMARK    3  A    between atoms: O_9  and  C_3 
REMARK    4  A    between atoms: C_8  and  O_4 
ROOT
ATOM      1  C   UNL d   1      -0.560   1.171   0.015  0.00  0.00     0.165 A 
ATOM      2  C   UNL d   1       0.814   1.191   0.226  0.00  0.00     0.089 A 
ATOM      3  N   UNL d   1      -1.260   0.039  -0.272  0.00  0.00    -0.346 N 
ATOM      4  HN  UNL d   1      -2.259   0.075  -0.474  1.00  0.00     0.167 HD
ATOM      5  C   UNL d   1       1.478  -0.047   0.188  0.00  0.00     0.024 A 
ATOM      6  C   UNL d   1      -0.589  -1.129  -0.280  0.00  0.00     0.090 A 
ATOM      7  C   UNL d   1       0.769  -1.222  -0.051  0.00  0.00     0.018 A 
ENDROOT
BRANCH   1   8
ATOM      8  O   UNL d   1      -1.288   2.352   0.099  0.00  0.00    -0.293 OA
BRANCH   8   9
ATOM      9  C   UNL d   1      -2.561   2.272   0.632  0.00  0.00     0.077 A 
ATOM     10  C   UNL d   1      -2.887   1.432   1.705  0.00  0.00     0.039 A 
ATOM     11  C   UNL d   1      -4.186   1.410   2.213  0.00  0.00     0.026 A 
ATOM     12  C   UNL d   1      -5.151   2.259   1.677  0.00  0.00     0.034 A 
ATOM     13  C   UNL d   1      -4.829   3.120   0.627  0.00  0.00     0.026 A 
ATOM     14 CL   UNL d   1      -6.744   2.251   2.326  0.00  0.00    -0.084 Cl
ATOM     15  C   UNL d   1      -3.530   3.128   0.104  0.00  0.00     0.039 A 
ENDBRANCH   8   9
ENDBRANCH   1   8
BRANCH   2  16
ATOM     16  C   UNL d   1       1.640   2.392   0.520  0.00  0.00     0.180 C 
ATOM     17  O   UNL d   1       2.853   2.318   0.635  0.00  0.00    -0.646 OA
BRANCH  16  18
ATOM     18  O   UNL d   1       0.985   3.561   0.668  0.00  0.00    -0.773 OA
ATOM     19  H   UNL d   1       0.017   3.539   0.566  0.00  0.00     0.167 HD
ENDBRANCH  16  18
ENDBRANCH   2  16
TORSDOF 4
