REMARK  4 active torsions:
REMARK  status: ('A' for Active; 'I' for Inactive)
REMARK    1  A    between atoms: S_4  and  C_1 
REMARK       I    between atoms: N_8  and  C_1 
REMARK    2  A    between atoms: C_3  and  C_7 
REMARK    3  A    between atoms: C_12  and  S_4 
REMARK    4  A    between atoms: C_5  and  N_8 
ROOT
ATOM      1  C   UNL d   1       0.900   0.069  -0.044  0.00  0.00     0.288 C 
ATOM      2  N   UNL d   1       0.082   0.785   0.800  0.00  0.00    -0.328 N 
ATOM      3  O   UNL d   1       2.120   0.095  -0.063  0.00  0.00    -0.260 OA
ATOM      4  H   UNL d   1      -0.914   0.666   0.673  0.00  0.00     0.169 HD
ENDROOT
BRANCH   1   5
ATOM      5  S   UNL d   1      -0.056  -0.894  -1.160  0.00  0.00    -0.029 SA
BRANCH   5   6
ATOM      6  C   UNL d   1       0.542  -2.541  -0.821  0.00  0.00     0.010 A 
ATOM      7  C   UNL d   1      -0.383  -3.546  -0.512  0.00  0.00     0.021 A 
ATOM      8  C   UNL d   1       0.051  -4.836  -0.190  0.00  0.00     0.025 A 
ATOM      9  C   UNL d   1       1.413  -5.128  -0.188  0.00  0.00     0.034 A 
ATOM     10  C   UNL d   1       2.341  -4.150  -0.537  0.00  0.00     0.025 A 
ATOM     11 CL   UNL d   1       1.952  -6.700   0.257  0.00  0.00    -0.084 Cl
ATOM     12  C   UNL d   1       1.903  -2.863  -0.866  0.00  0.00     0.021 A 
ENDBRANCH   5   6
ENDBRANCH   1   5
BRANCH   2  13
ATOM     13  C   UNL d   1       0.558   1.635   1.769  0.00  0.00     0.092 C 
ATOM     14  C   UNL d   1      -0.235   2.319   2.607  0.00  0.00     0.029 C 
BRANCH  14  15
ATOM     15  C   UNL d   1       0.239   3.219   3.616  0.00  0.00    -0.028 A 
ATOM     16  C   UNL d   1      -0.469   3.474   4.773  0.00  0.00     0.061 A 
ATOM     17  S   UNL d   1       0.336   4.585   5.800  0.00  0.00    -0.113 SA
ATOM     18  C   UNL d   1       1.631   4.751   4.696  0.00  0.00     0.050 A 
ATOM     19  C   UNL d   1       1.456   3.969   3.574  0.00  0.00     0.019 A 
ENDBRANCH  14  15
ENDBRANCH   2  13
TORSDOF 4
