REMARK  5 active torsions:
REMARK  status: ('A' for Active; 'I' for Inactive)
REMARK    1  A    between atoms: C_2  and  C_1 
REMARK    2  A    between atoms: C_5  and  C_2 
REMARK    3  A    between atoms: S_9  and  C_3 
REMARK    4  A    between atoms: S_10  and  C_3 
REMARK    5  A    between atoms: O_13  and  C_11 
ROOT
ATOM      1  C   UNL d   1       0.934  -0.083  -0.036  0.00  0.00     0.118 C 
ATOM      2  C   UNL d   1       2.272  -0.337  -0.031  0.00  0.00     0.061 C 
ATOM      3  C   UNL d   1       0.156  -0.430  -1.184  0.00  0.00     0.105 C 
ATOM      4  N   UNL d   1      -0.492  -0.701  -2.108  0.00  0.00    -0.191 NA
ENDROOT
BRANCH   1   5
ATOM      5  C   UNL d   1       0.220   0.575   1.127  0.00  0.00     0.204 C 
ATOM      6  O   UNL d   1       0.802   1.322   1.913  0.00  0.00    -0.286 OA
BRANCH   5   7
ATOM      7  C   UNL d   1      -1.237   0.385   1.385  0.00  0.00     0.018 A 
ATOM      8  C   UNL d   1      -2.224   0.536   0.402  0.00  0.00     0.052 A 
ATOM      9  C   UNL d   1      -3.577   0.389   0.725  0.00  0.00     0.069 A 
ATOM     10  C   UNL d   1      -3.950   0.177   2.053  0.00  0.00     0.037 A 
ATOM     11  C   UNL d   1      -2.983   0.086   3.052  0.00  0.00     0.004 A 
ATOM     12  C   UNL d   1      -1.630   0.183   2.717  0.00  0.00     0.015 A 
BRANCH   9  13
ATOM     13  O   UNL d   1      -4.614   0.477  -0.163  0.00  0.00    -0.356 OA
ATOM     14  C   UNL d   1      -4.282   0.334  -1.541  0.00  0.00     0.210 C 
ENDBRANCH   9  13
ENDBRANCH   5   7
ENDBRANCH   1   5
BRANCH   2  15
ATOM     15  S   UNL d   1       3.047  -1.063  -1.456  0.00  0.00    -0.126 SA
ATOM     16  C   UNL d   1       4.585  -0.128  -1.618  0.00  0.00     0.096 C 
ENDBRANCH   2  15
BRANCH   2  17
ATOM     17  S   UNL d   1       3.268  -0.261   1.418  0.00  0.00    -0.126 SA
ATOM     18  C   UNL d   1       3.798   1.469   1.405  0.00  0.00     0.096 C 
ENDBRANCH   2  17
TORSDOF 5
