REMARK  3 active torsions:
REMARK  status: ('A' for Active; 'I' for Inactive)
REMARK    1  A    between atoms: N_2  and  S_1 
REMARK    2  A    between atoms: C_8  and  S_1 
REMARK    3  A    between atoms: C_3  and  N_2 
ROOT
ATOM      1  N   UNL d   1       9.692   3.182   3.969  0.00  0.00    -0.309 N 
ATOM      2  H   UNL d   1       9.275   2.638   3.217  0.00  0.00     0.172 HD
ENDROOT
BRANCH   1   3
ATOM      3  S   UNL d   1       8.527   4.149   4.690  0.00  0.00     0.259 S 
ATOM      4  O   UNL d   1       8.726   4.141   6.119  0.00  0.00    -0.201 OA
ATOM      5  O   UNL d   1       7.272   3.761   4.080  0.00  0.00    -0.201 OA
BRANCH   3   6
ATOM      6  C   UNL d   1       8.908   5.769   4.069  0.00  0.00     0.079 A 
ATOM      7  C   UNL d   1       9.240   5.936   2.720  0.00  0.00     0.026 A 
ATOM      8  C   UNL d   1       9.511   7.212   2.227  0.00  0.00     0.008 A 
ATOM      9  C   UNL d   1       9.426   8.327   3.071  0.00  0.00    -0.062 A 
ATOM     10  C   UNL d   1       9.095   8.145   4.423  0.00  0.00     0.008 A 
ATOM     11  C   UNL d   1       9.713   9.704   2.549  0.00  0.00     0.048 C 
ATOM     12  C   UNL d   1       8.836   6.867   4.925  0.00  0.00     0.026 A 
ENDBRANCH   3   6
ENDBRANCH   1   3
BRANCH   1  13
ATOM     13  C   UNL d   1      10.789   2.567   4.740  0.00  0.00     0.109 C 
ATOM     14  C   UNL d   1      12.162   3.237   4.370  0.00  0.00    -0.022 C 
ATOM     15  C   UNL d   1      13.178   2.092   4.516  0.00  0.00     0.016 C 
ATOM     16  C   UNL d   1      12.269   3.454   2.849  0.00  0.00     0.011 C 
ATOM     17  C   UNL d   1      12.498   4.454   5.211  0.00  0.00     0.017 C 
ATOM     18  C   UNL d   1      12.388   1.148   3.603  0.00  0.00    -0.004 C 
ATOM     19  C   UNL d   1      11.018   1.060   4.346  0.00  0.00    -0.022 C 
ATOM     20  C   UNL d   1      12.300   2.011   2.317  0.00  0.00     0.006 C 
ATOM     21  C   UNL d   1      11.148   0.195   5.630  0.00  0.00     0.017 C 
ATOM     22  C   UNL d   1       9.912   0.379   3.521  0.00  0.00     0.017 C 
ENDBRANCH   1  13
TORSDOF 3
