REMARK  7 active torsions:
REMARK  status: ('A' for Active; 'I' for Inactive)
REMARK    1  A    between atoms: N_6  and  S_1 
REMARK    2  A    between atoms: C_8  and  S_1 
REMARK    3  A    between atoms: C_2  and  C_5 
REMARK       I    between atoms: C_5  and  N_7 
REMARK    4  A    between atoms: N_7  and  N_6 
REMARK    5  A    between atoms: C_27  and  C_10 
REMARK    6  A    between atoms: C_17  and  O_26 
REMARK    7  A    between atoms: O_26  and  C_27 
ROOT
ATOM      1  C   UNL d   1       0.520  -4.000   0.575  0.00  0.00     0.287 C 
ATOM      2  N   UNL d   1       1.103  -5.184   0.153  0.00  0.00    -0.255 N 
ATOM      3  O   UNL d   1       0.641  -2.951  -0.060  0.00  0.00    -0.264 OA
ATOM      4  H   UNL d   1       0.899  -6.081   0.586  0.00  0.00     0.191 HD
ENDROOT
BRANCH   1   5
ATOM      5  C   UNL d   1      -0.323  -4.145   1.772  0.00  0.00     0.109 A 
ATOM      6  N   UNL d   1      -1.417  -3.306   1.990  0.00  0.00    -0.347 N 
ATOM      7  C   UNL d   1      -2.063  -3.655   3.085  0.00  0.00     0.075 A 
ATOM      8  HN  UNL d   1      -1.680  -2.528   1.385  1.00  0.00     0.166 HD
ATOM      9  S   UNL d   1      -1.397  -4.995   3.930  0.00  0.00    -0.084 SA
ATOM     10  C   UNL d   1      -0.166  -5.116   2.747  0.00  0.00     0.086 A 
BRANCH   7  11
ATOM     11  C   UNL d   1      -3.332  -3.023   3.573  0.00  0.00     0.240 C 
BRANCH  11  12
ATOM     12  O   UNL d   1      -2.981  -2.037   4.546  0.00  0.00    -0.345 OA
BRANCH  12  13
ATOM     13  C   UNL d   1      -4.019  -1.401   5.172  0.00  0.00     0.072 A 
ATOM     14  C   UNL d   1      -5.376  -1.599   4.909  0.00  0.00     0.060 A 
ATOM     15  C   UNL d   1      -6.336  -0.896   5.640  0.00  0.00     0.038 A 
ATOM     16 CL   UNL d   1      -8.006  -1.163   5.316  0.00  0.00    -0.084 Cl
ATOM     17  C   UNL d   1      -5.961   0.010   6.627  0.00  0.00     0.048 A 
ATOM     18  C   UNL d   1      -4.609   0.212   6.878  0.00  0.00     0.038 A 
ATOM     19  C   UNL d   1      -3.639  -0.486   6.158  0.00  0.00     0.060 A 
ATOM     20 CL   UNL d   1      -4.128   1.329   8.097  0.00  0.00    -0.084 Cl
ENDBRANCH  12  13
ENDBRANCH  11  12
ENDBRANCH   7  11
ENDBRANCH   1   5
BRANCH   2  21
ATOM     21  N   UNL d   1       1.803  -5.219  -1.111  0.00  0.00    -0.220 N 
ATOM     22  H   UNL d   1       2.013  -4.346  -1.608  0.00  0.00     0.200 HD
BRANCH  21  23
ATOM     23  S   UNL d   1       1.890  -6.674  -1.956  0.00  0.00     0.276 S 
ATOM     24  O   UNL d   1       2.121  -7.715  -0.978  0.00  0.00    -0.199 OA
ATOM     25  O   UNL d   1       2.727  -6.481  -3.117  0.00  0.00    -0.199 OA
BRANCH  23  26
ATOM     26  C   UNL d   1       0.212  -6.848  -2.530  0.00  0.00     0.082 A 
ATOM     27  C   UNL d   1      -0.548  -7.960  -2.153  0.00  0.00     0.050 A 
ATOM     28  C   UNL d   1      -1.859  -8.090  -2.625  0.00  0.00     0.057 A 
ATOM     29 CL   UNL d   1      -2.753  -9.486  -2.137  0.00  0.00    -0.083 Cl
ATOM     30  C   UNL d   1      -2.405  -7.109  -3.465  0.00  0.00     0.055 A 
ATOM     31  C   UNL d   1      -1.636  -5.999  -3.831  0.00  0.00     0.027 A 
ATOM     32 CL   UNL d   1      -4.013  -7.212  -4.089  0.00  0.00    -0.083 Cl
ATOM     33  C   UNL d   1      -0.326  -5.866  -3.367  0.00  0.00     0.027 A 
ENDBRANCH  23  26
ENDBRANCH  21  23
ENDBRANCH   2  21
TORSDOF 7
