REMARK  4 active torsions:
REMARK  status: ('A' for Active; 'I' for Inactive)
REMARK    1  A    between atoms: C_7  and  C_1 
REMARK    2  A    between atoms: S_8  and  C_2 
REMARK    3  A    between atoms: C_6  and  C_4 
REMARK    4  A    between atoms: O_12  and  C_6 
ROOT
ATOM      1  C   UNL d   1       1.317   0.002  -0.066  0.00  0.00     0.040 C 
ATOM      2  C   UNL d   1       0.371  -1.006   0.078  0.00  0.00     0.056 C 
ATOM      3  C   UNL d   1       0.669   1.323  -0.070  0.00  0.00    -0.022 C 
ATOM      4  C   UNL d   1      -0.719   1.234  -0.074  0.00  0.00     0.086 C 
ATOM      5  S   UNL d   1      -1.229  -0.388  -0.016  0.00  0.00    -0.075 SA
ATOM      6  C   UNL d   1       1.393   2.644  -0.043  0.00  0.00     0.051 C 
ENDROOT
BRANCH   4   7
ATOM      7  C   UNL d   1      -1.685   2.333  -0.099  0.00  0.00     0.183 C 
ATOM      8  O   UNL d   1      -1.414   3.526  -0.131  0.00  0.00    -0.646 OA
BRANCH   7   9
ATOM      9  O   UNL d   1      -2.978   1.910  -0.084  0.00  0.00    -0.772 OA
ATOM     10  H   UNL d   1      -3.042   0.936  -0.060  0.00  0.00     0.167 HD
ENDBRANCH   7   9
ENDBRANCH   4   7
BRANCH   1  11
ATOM     11  C   UNL d   1       2.777  -0.161  -0.196  0.00  0.00     0.158 C 
ATOM     12  O   UNL d   1       3.405   0.556  -0.973  0.00  0.00    -0.293 OA
ATOM     13  C   UNL d   1       3.551  -1.149   0.634  0.00  0.00     0.097 C 
ENDBRANCH   1  11
BRANCH   2  14
ATOM     14  S   UNL d   1       0.506  -2.737   0.397  0.00  0.00    -0.126 SA
ATOM     15  C   UNL d   1       1.496  -3.403  -0.947  0.00  0.00     0.096 C 
ENDBRANCH   2  14
TORSDOF 4
