REMARK  3 active torsions:
REMARK  status: ('A' for Active; 'I' for Inactive)
REMARK    1  A    between atoms: C_7  and  C_1 
REMARK    2  A    between atoms: N_5  and  C_2 
REMARK    3  A    between atoms: O_12  and  C_7 
ROOT
ATOM      1  C   UNL d   1      -0.240   1.086   0.007  0.00  0.00     0.108 A 
ATOM      2  C   UNL d   1       0.756  -1.173   0.004  0.00  0.00     0.146 A 
ATOM      3  S   UNL d   1       1.351   0.416   0.009  0.00  0.00    -0.058 SA
ATOM      4  C   UNL d   1      -0.619  -1.227  -0.002  0.00  0.00     0.074 A 
ATOM      5  C   UNL d   1      -1.188   0.074  -0.000  0.00  0.00     0.052 A 
ATOM      6  N   UNL d   1      -2.519   0.261  -0.005  0.00  0.00    -0.398 N 
ATOM      7  H   UNL d   1      -3.200  -0.493  -0.012  0.00  0.00     0.156 HD
ATOM      8  H   UNL d   1      -2.930   1.195  -0.007  0.00  0.00     0.156 HD
ENDROOT
BRANCH   1   9
ATOM      9  C   UNL d   1      -0.388   2.534   0.011  0.00  0.00     0.302 C 
ATOM     10  O   UNL d   1       0.520   3.359   0.016  0.00  0.00    -0.259 OA
BRANCH   9  11
ATOM     11  O   UNL d   1      -1.715   2.872   0.009  0.00  0.00    -0.322 OA
ATOM     12  C   UNL d   1      -1.982   4.275   0.015  0.00  0.00     0.213 C 
ENDBRANCH   9  11
ENDBRANCH   1   9
BRANCH   2  13
ATOM     13  N   UNL d   1       1.648  -2.303   0.004  0.00  0.00    -0.108 N 
ATOM     14  O   UNL d   1       1.115  -3.421   0.001  0.00  0.00    -0.531 OA
ATOM     15  O   UNL d   1       2.867  -2.091   0.007  0.00  0.00    -0.531 OA
ENDBRANCH   2  13
TORSDOF 3
