REMARK  8 active torsions:
REMARK  status: ('A' for Active; 'I' for Inactive)
REMARK    1  A    between atoms: C_3  and  C_1 
REMARK    2  A    between atoms: C_4  and  C_1 
REMARK    3  A    between atoms: N_5  and  C_2 
REMARK    4  A    between atoms: O_14  and  C_3 
REMARK    5  A    between atoms: O_13  and  C_4 
REMARK    6  A    between atoms: C_6  and  N_5 
REMARK    7  A    between atoms: C_18  and  O_13 
REMARK    8  A    between atoms: C_19  and  O_14 
ROOT
ATOM      1  C   UNL d   1       1.130  -0.055   0.018  0.00  0.00     0.129 C 
ATOM      2  C   UNL d   1       0.452  -0.876   0.849  0.00  0.00     0.112 C 
ENDROOT
BRANCH   1   3
ATOM      3  C   UNL d   1       0.372   0.926  -0.806  0.00  0.00     0.300 C 
ATOM      4  O   UNL d   1       0.830   1.970  -1.244  0.00  0.00    -0.259 OA
BRANCH   3   5
ATOM      5  O   UNL d   1      -0.933   0.555  -0.928  0.00  0.00    -0.318 OA
BRANCH   5   6
ATOM      6  C   UNL d   1      -1.834   1.588  -1.353  0.00  0.00     0.174 C 
ATOM      7  C   UNL d   1      -2.297   2.358  -0.128  0.00  0.00     0.034 C 
ENDBRANCH   5   6
ENDBRANCH   3   5
ENDBRANCH   1   3
BRANCH   1   8
ATOM      8  C   UNL d   1       2.611  -0.046   0.102  0.00  0.00     0.300 C 
ATOM      9  O   UNL d   1       3.255  -0.727   0.893  0.00  0.00    -0.259 OA
BRANCH   8  10
ATOM     10  O   UNL d   1       3.149   0.855  -0.751  0.00  0.00    -0.318 OA
BRANCH  10  11
ATOM     11  C   UNL d   1       4.473   1.303  -0.432  0.00  0.00     0.174 C 
ATOM     12  C   UNL d   1       4.359   2.464   0.540  0.00  0.00     0.034 C 
ENDBRANCH  10  11
ENDBRANCH   8  10
ENDBRANCH   1   8
BRANCH   2  13
ATOM     13  N   UNL d   1       0.933  -1.802   1.745  0.00  0.00    -0.362 N 
ATOM     14  H   UNL d   1       1.952  -1.934   1.756  0.00  0.00     0.165 HD
BRANCH  13  15
ATOM     15  C   UNL d   1       0.229  -2.547   2.706  0.00  0.00     0.073 A 
ATOM     16  C   UNL d   1      -1.066  -2.228   3.127  0.00  0.00     0.074 A 
ATOM     17  C   UNL d   1      -1.744  -3.059   4.016  0.00  0.00     0.118 A 
ATOM     18  F   UNL d   1      -2.977  -2.730   4.414  0.00  0.00    -0.206 F 
ATOM     19  C   UNL d   1      -1.163  -4.232   4.494  0.00  0.00     0.045 A 
ATOM     20  C   UNL d   1       0.122  -4.569   4.087  0.00  0.00     0.047 A 
ATOM     21  C   UNL d   1       0.802  -3.730   3.206  0.00  0.00     0.143 A 
ATOM     22  F   UNL d   1       2.038  -4.080   2.814  0.00  0.00    -0.204 F 
ENDBRANCH  13  15
ENDBRANCH   2  13
TORSDOF 8
