REMARK  3 active torsions:
REMARK  status: ('A' for Active; 'I' for Inactive)
REMARK    1  A    between atoms: C_2  and  S_1 
REMARK    2  A    between atoms: N_5  and  S_1 
REMARK    3  A    between atoms: N_11  and  N_5 
ROOT
ATOM      1  C   UNL d   1       0.585  -1.052  -1.432  0.00  0.00     0.082 A 
ATOM      2  C   UNL d   1       0.709  -2.442  -1.247  0.00  0.00     0.033 A 
ATOM      3  C   UNL d   1       0.248  -0.532  -2.696  0.00  0.00    -0.037 A 
ATOM      4  C   UNL d   1       0.128  -2.828  -3.551  0.00  0.00     0.040 A 
ATOM      5  C   UNL d   1       0.488  -3.343  -2.302  0.00  0.00    -0.039 A 
ATOM      6  C   UNL d   1       0.004  -1.447  -3.740  0.00  0.00     0.032 A 
ATOM      7 CL   UNL d   1      -0.161  -3.856  -4.908  0.00  0.00    -0.084 Cl
ATOM      8  C   UNL d   1       0.113   0.923  -3.042  0.00  0.00     0.050 C 
ATOM      9  C   UNL d   1       0.682  -4.816  -2.073  0.00  0.00     0.050 C 
ENDROOT
BRANCH   1  10
ATOM     10  S   UNL d   1       0.937  -0.011  -0.025  0.00  0.00     0.254 S 
ATOM     11  O   UNL d   1       1.889   1.001  -0.431  0.00  0.00    -0.205 OA
ATOM     12  O   UNL d   1       1.192  -0.843   1.132  0.00  0.00    -0.205 OA
BRANCH  10  13
ATOM     13  N   UNL d   1      -0.590   0.770   0.254  0.00  0.00    -0.150 NA
ATOM     14  H   UNL d   1      -0.851   1.342  -0.556  0.00  0.00     0.159 HD
BRANCH  13  15
ATOM     15  N   UNL d   1      -0.527   1.585   1.426  0.00  0.00    -0.257 NA
ATOM     16  H   UNL d   1       0.436   1.588   1.792  0.00  0.00     0.138 HD
ATOM     17  H   UNL d   1      -1.067   1.109   2.155  0.00  0.00     0.138 HD
ENDBRANCH  13  15
ENDBRANCH  10  13
ENDBRANCH   1  10
TORSDOF 3
