REMARK  4 active torsions:
REMARK  status: ('A' for Active; 'I' for Inactive)
REMARK    1  A    between atoms: C_2  and  C_1 
REMARK       I    between atoms: N_3  and  C_1 
REMARK       I    between atoms: C_4  and  N_3 
REMARK       I    between atoms: N_8  and  C_4 
REMARK    2  A    between atoms: O_16  and  C_5 
REMARK    3  A    between atoms: O_17  and  C_6 
REMARK    4  A    between atoms: C_7  and  N_8 
ROOT
ATOM      1  C   UNL d   1       0.535  -0.727   0.319  0.00  0.00     0.244 C 
ATOM      2  N   UNL d   1      -0.189  -0.365   1.440  0.00  0.00    -0.175 NA
ATOM      3  C   UNL d   1      -0.996  -1.275   2.061  0.00  0.00     0.305 C 
ATOM      4  N   UNL d   1      -0.376  -2.406   2.525  0.00  0.00    -0.308 N 
ATOM      5  O   UNL d   1       1.350  -1.646   0.383  0.00  0.00    -0.273 OA
ATOM      6  O   UNL d   1      -2.195  -1.024   2.141  0.00  0.00    -0.253 OA
ATOM      7  H   UNL d   1      -0.786   0.436   1.271  0.00  0.00     0.141 HD
ATOM      8  H   UNL d   1       0.414  -2.727   1.972  0.00  0.00     0.170 HD
ENDROOT
BRANCH   1   9
ATOM      9  C   UNL d   1       0.282   0.087  -0.949  0.00  0.00     0.093 A 
ATOM     10  C   UNL d   1      -0.502   1.276  -0.935  0.00  0.00     0.087 A 
ATOM     11  C   UNL d   1      -0.898   1.872  -2.134  0.00  0.00     0.061 A 
ATOM     12  C   UNL d   1      -0.480   1.339  -3.347  0.00  0.00     0.039 A 
ATOM     13  C   UNL d   1       0.352   0.225  -3.384  0.00  0.00     0.061 A 
ATOM     14 CL   UNL d   1      -1.011   2.059  -4.817  0.00  0.00    -0.084 Cl
ATOM     15  C   UNL d   1       0.755  -0.402  -2.196  0.00  0.00     0.087 A 
BRANCH  10  16
ATOM     16  O   UNL d   1      -0.955   1.746   0.272  0.00  0.00    -0.355 OA
ATOM     17  C   UNL d   1      -1.079   3.154   0.473  0.00  0.00     0.210 C 
ENDBRANCH  10  16
BRANCH  15  18
ATOM     18  O   UNL d   1       1.620  -1.460  -2.179  0.00  0.00    -0.355 OA
ATOM     19  C   UNL d   1       1.930  -2.153  -3.379  0.00  0.00     0.210 C 
ENDBRANCH  15  18
ENDBRANCH   1   9
BRANCH   4  20
ATOM     20  C   UNL d   1      -1.024  -3.330   3.381  0.00  0.00     0.113 A 
ATOM     21  C   UNL d   1      -0.707  -4.687   3.282  0.00  0.00     0.146 A 
ATOM     22  F   UNL d   1       0.217  -5.097   2.403  0.00  0.00    -0.204 F 
ATOM     23  C   UNL d   1      -1.367  -5.641   4.060  0.00  0.00     0.045 A 
ATOM     24  C   UNL d   1      -2.343  -5.245   4.975  0.00  0.00     0.006 A 
ATOM     25  C   UNL d   1      -2.627  -3.891   5.129  0.00  0.00     0.045 A 
ATOM     26  C   UNL d   1      -1.964  -2.946   4.345  0.00  0.00     0.146 A 
ATOM     27  F   UNL d   1      -2.199  -1.652   4.609  0.00  0.00    -0.204 F 
ENDBRANCH   4  20
TORSDOF 4
