REMARK  5 active torsions:
REMARK  status: ('A' for Active; 'I' for Inactive)
REMARK    1  A    between atoms: C_10  and  C_1 
REMARK    2  A    between atoms: C_6  and  C_2 
REMARK    3  A    between atoms: C_16  and  N_3 
REMARK    4  A    between atoms: C_17  and  C_9 
REMARK    5  A    between atoms: C_15  and  C_18 
ROOT
ATOM      1  C   UNL d   1       1.010  -0.938  -0.007  0.00  0.00     0.156 A 
ATOM      2  C   UNL d   1      -0.321  -1.317  -0.016  0.00  0.00     0.068 A 
ATOM      3  N   UNL d   1       1.014   0.451  -0.071  0.00  0.00    -0.251 N 
ATOM      4  N   UNL d   1      -0.255   0.926  -0.251  0.00  0.00    -0.303 N 
ATOM      5  HN  UNL d   1      -0.533   1.893  -0.417  1.00  0.00     0.186 HD
ATOM      6  C   UNL d   1      -1.048  -0.134  -0.165  0.00  0.00     0.126 A 
ENDROOT
BRANCH   2   7
ATOM      7  C   UNL d   1      -0.894  -2.683   0.073  0.00  0.00     0.186 A 
ATOM      8  N   UNL d   1      -0.195  -3.765   0.322  0.00  0.00    -0.318 N 
ATOM      9  C   UNL d   1      -1.138  -4.768   0.306  0.00  0.00     0.138 A 
ATOM     10  HN  UNL d   1       0.808  -3.845   0.487  1.00  0.00     0.169 HD
ATOM     11  N   UNL d   1      -2.383  -4.330   0.061  0.00  0.00    -0.242 N 
ATOM     12  O   UNL d   1      -2.228  -2.954  -0.083  0.00  0.00    -0.217 OA
ATOM     13  HN  UNL d   1      -3.242  -4.877  -0.004  1.00  0.00     0.196 HD
BRANCH   9  14
ATOM     14  C   UNL d   1      -0.796  -6.157   0.589  0.00  0.00     0.010 A 
ATOM     15  C   UNL d   1       0.542  -6.531   0.785  0.00  0.00     0.016 A 
ATOM     16  C   UNL d   1       0.876  -7.848   1.124  0.00  0.00     0.017 A 
ATOM     17  C   UNL d   1      -0.124  -8.821   1.269  0.00  0.00     0.048 A 
ATOM     18  C   UNL d   1      -1.459  -8.453   1.046  0.00  0.00     0.017 A 
ATOM     19  C   UNL d   1      -1.791  -7.137   0.707  0.00  0.00     0.016 A 
BRANCH  17  20
ATOM     20  C   UNL d   1       0.208 -10.236   1.672  0.00  0.00     0.417 C 
ATOM     21  F   UNL d   1       1.541 -10.459   1.844  0.00  0.00    -0.166 F 
ATOM     22  F   UNL d   1      -0.381 -10.590   2.849  0.00  0.00    -0.166 F 
ATOM     23  F   UNL d   1      -0.209 -11.153   0.756  0.00  0.00    -0.166 F 
ENDBRANCH  17  20
ENDBRANCH   9  14
ENDBRANCH   2   7
BRANCH   1  24
ATOM     24  C   UNL d   1       2.237  -1.749  -0.026  0.00  0.00     0.435 C 
ATOM     25  F   UNL d   1       2.054  -3.012  -0.479  0.00  0.00    -0.165 F 
ATOM     26  F   UNL d   1       3.188  -1.223  -0.838  0.00  0.00    -0.165 F 
ATOM     27  F   UNL d   1       2.780  -1.857   1.212  0.00  0.00    -0.165 F 
ENDBRANCH   1  24
BRANCH   3  28
ATOM     28  C   UNL d   1       2.076   1.411   0.010  0.00  0.00     0.057 A 
ATOM     29  C   UNL d   1       1.856   2.702  -0.510  0.00  0.00     0.033 A 
ATOM     30  C   UNL d   1       2.868   3.668  -0.486  0.00  0.00     0.026 A 
ATOM     31  C   UNL d   1       4.103   3.361   0.073  0.00  0.00     0.034 A 
ATOM     32  C   UNL d   1       4.326   2.103   0.624  0.00  0.00     0.026 A 
ATOM     33 CL   UNL d   1       5.355   4.539   0.098  0.00  0.00    -0.084 Cl
ATOM     34  C   UNL d   1       3.313   1.134   0.603  0.00  0.00     0.033 A 
ENDBRANCH   3  28
TORSDOF 5
