REMARK  1 active torsions:
REMARK  status: ('A' for Active; 'I' for Inactive)
REMARK    1  A    between atoms: C_2  and  C_1 
ROOT
ATOM      1  C   UNL d   1      -0.698   2.309  -0.751  0.00  0.00     0.057 C 
ATOM      2  C   UNL d   1      -2.205   3.701   0.779  0.00  0.00     0.134 C 
ATOM      3  C   UNL d   1      -3.194   2.107  -0.880  0.00  0.00     0.134 C 
ATOM      4  C   UNL d   1      -3.418   3.312  -0.016  0.00  0.00     0.156 C 
ATOM      5  C   UNL d   1      -0.845   3.551   0.132  0.00  0.00     0.090 C 
ATOM      6  C   UNL d   1      -1.901   2.064  -1.657  0.00  0.00     0.090 C 
ATOM      7  O   UNL d   1      -4.087   1.285  -1.078  0.00  0.00    -0.298 OA
ATOM      8  O   UNL d   1      -2.324   4.317   1.840  0.00  0.00    -0.298 OA
ENDROOT
BRANCH   1   9
ATOM      9  C   UNL d   1      -0.352   1.078   0.021  0.00  0.00     0.057 A 
ATOM     10  O   UNL d   1      -1.133   0.765   1.090  0.00  0.00    -0.327 OA
ATOM     11  C   UNL d   1      -0.661  -0.404   1.592  0.00  0.00     0.142 A 
ATOM     12  C   UNL d   1       0.415  -0.849   0.859  0.00  0.00     0.027 A 
ATOM     13  C   UNL d   1       0.620   0.114  -0.155  0.00  0.00     0.035 A 
ENDBRANCH   1   9
TORSDOF 1
