REMARK  2 active torsions:
REMARK  status: ('A' for Active; 'I' for Inactive)
REMARK    1  A    between atoms: C_14  and  C_6 
REMARK    2  A    between atoms: S_15  and  C_7 
ROOT
ATOM      1  N   UNL d   1      -0.230  -0.594   0.015  0.00  0.00    -0.237 N 
ATOM      2  C   UNL d   1      -0.203   0.804   0.007  0.00  0.00     0.130 A 
ATOM      3  N   UNL d   1       0.960   1.512  -0.000  0.00  0.00    -0.334 N 
ATOM      4  HN  UNL d   1       0.966   2.532  -0.002  1.00  0.00     0.168 HD
ATOM      5  C   UNL d   1       2.184  -0.709  -0.002  0.00  0.00     0.107 A 
ATOM      6  C   UNL d   1       0.972  -1.338   0.013  0.00  0.00     0.092 A 
ATOM      7  C   UNL d   1       2.064   0.820  -0.004  0.00  0.00     0.094 A 
ATOM      8  N   UNL d   1      -1.514  -1.053   0.022  0.00  0.00    -0.296 N 
ATOM      9  HN  UNL d   1      -1.824  -2.025   0.033  1.00  0.00     0.187 HD
ATOM     10  C   UNL d   1      -1.513   1.220   0.005  0.00  0.00     0.076 A 
ATOM     11  C   UNL d   1      -2.280   0.042   0.013  0.00  0.00     0.026 A 
ATOM     12  C   UNL d   1       3.476  -1.423  -0.010  0.00  0.00     0.104 C 
ATOM     13  N   UNL d   1       4.485  -1.997  -0.016  0.00  0.00    -0.191 NA
ATOM     14  C   UNL d   1      -3.759  -0.066   0.009  0.00  0.00     0.070 C 
ENDROOT
BRANCH   6  15
ATOM     15  C   UNL d   1       0.919  -2.816   0.021  0.00  0.00    -0.006 A 
ATOM     16  C   UNL d   1       0.936  -3.520   1.234  0.00  0.00     0.014 A 
ATOM     17  C   UNL d   1       0.958  -4.917   1.237  0.00  0.00     0.001 A 
ATOM     18  C   UNL d   1       0.962  -5.618   0.032  0.00  0.00     0.000 A 
ATOM     19  C   UNL d   1       0.939  -4.926  -1.177  0.00  0.00     0.001 A 
ATOM     20  C   UNL d   1       0.916  -3.530  -1.185  0.00  0.00     0.014 A 
ENDBRANCH   6  15
BRANCH   7  21
ATOM     21  S   UNL d   1       3.588   1.697  -0.008  0.00  0.00    -0.115 SA
ATOM     22  C   UNL d   1       3.035   3.424   0.008  0.00  0.00     0.097 C 
ENDBRANCH   7  21
TORSDOF 2
