REMARK  8 active torsions:
REMARK  status: ('A' for Active; 'I' for Inactive)
REMARK    1  A    between atoms: C_15  and  N_1 
REMARK    2  A    between atoms: S_10  and  C_2 
REMARK    3  A    between atoms: C_16  and  C_3 
REMARK    4  A    between atoms: N_9  and  C_8 
REMARK    5  A    between atoms: C_12  and  S_10 
REMARK    6  A    between atoms: C_11  and  C_14 
REMARK    7  A    between atoms: C_19  and  C_20 
REMARK    8  A    between atoms: C_35  and  C_22 
ROOT
ATOM      1  N   UNL d   1      -0.359  -1.287   0.132  0.00  0.00    -0.275 N 
ATOM      2  C   UNL d   1       0.898  -0.691   0.212  0.00  0.00     0.172 A 
ATOM      3  C   UNL d   1      -1.241  -0.191   0.062  0.00  0.00     0.139 A 
ATOM      4  N   UNL d   1      -0.529   0.922  -0.010  0.00  0.00    -0.282 N 
ATOM      5  HN  UNL d   1      -0.910   1.862  -0.121  1.00  0.00     0.188 HD
ATOM      6  N   UNL d   1       0.793   0.611   0.087  0.00  0.00    -0.277 N 
ATOM      7  HN  UNL d   1       1.567   1.275   0.067  1.00  0.00     0.189 HD
ENDROOT
BRANCH   2   8
ATOM      8  S   UNL d   1       2.449  -1.481   0.223  0.00  0.00    -0.050 SA
BRANCH   8   9
ATOM      9  C   UNL d   1       2.864  -1.451   1.974  0.00  0.00     0.041 A 
ATOM     10  C   UNL d   1       3.716  -2.402   2.570  0.00  0.00     0.120 A 
ATOM     11  C   UNL d   1       4.008  -2.401   3.949  0.00  0.00     0.053 A 
ATOM     12  C   UNL d   1       3.451  -1.427   4.780  0.00  0.00     0.050 A 
ATOM     13  C   UNL d   1       2.639  -0.444   4.197  0.00  0.00     0.017 A 
ATOM     14  C   UNL d   1       2.363  -0.450   2.822  0.00  0.00     0.022 A 
BRANCH  10  15
ATOM     15  N   UNL d   1       4.339  -3.453   1.784  0.00  0.00    -0.114 N 
ATOM     16  O   UNL d   1       3.594  -4.304   1.284  0.00  0.00    -0.532 OA
ATOM     17  O   UNL d   1       5.577  -3.458   1.745  0.00  0.00    -0.532 OA
ENDBRANCH  10  15
BRANCH  12  18
ATOM     18  C   UNL d   1       3.694  -1.411   6.272  0.00  0.00     0.417 C 
ATOM     19  F   UNL d   1       4.512  -2.413   6.695  0.00  0.00    -0.166 F 
ATOM     20  F   UNL d   1       4.263  -0.252   6.696  0.00  0.00    -0.166 F 
ATOM     21  F   UNL d   1       2.539  -1.547   6.980  0.00  0.00    -0.166 F 
ENDBRANCH  12  18
ENDBRANCH   8   9
ENDBRANCH   2   8
BRANCH   1  22
ATOM     22  C   UNL d   1      -0.695  -2.674   0.098  0.00  0.00     0.043 A 
ATOM     23  C   UNL d   1       0.016  -3.609   0.854  0.00  0.00     0.031 A 
ATOM     24  C   UNL d   1      -0.312  -4.967   0.799  0.00  0.00     0.010 A 
ATOM     25  C   UNL d   1      -1.372  -5.421   0.004  0.00  0.00    -0.055 A 
ATOM     26  C   UNL d   1      -2.107  -4.478  -0.722  0.00  0.00     0.010 A 
ATOM     27  C   UNL d   1      -1.762  -3.123  -0.693  0.00  0.00     0.031 A 
BRANCH  25  28
ATOM     28  C   UNL d   1      -1.702  -6.898  -0.113  0.00  0.00     0.010 C 
ATOM     29  C   UNL d   1      -0.523  -7.679  -0.701  0.00  0.00     0.015 C 
ATOM     30  C   UNL d   1      -2.159  -7.494   1.220  0.00  0.00     0.015 C 
ENDBRANCH  25  28
ENDBRANCH   1  22
BRANCH   3  31
ATOM     31  C   UNL d   1      -2.713  -0.185   0.126  0.00  0.00     0.010 A 
ATOM     32  C   UNL d   1      -3.441  -1.054   0.943  0.00  0.00     0.016 A 
ATOM     33  C   UNL d   1      -4.843  -1.038   0.944  0.00  0.00     0.009 A 
ATOM     34  C   UNL d   1      -5.575  -0.119   0.171  0.00  0.00    -0.051 A 
ATOM     35  C   UNL d   1      -4.835   0.790  -0.600  0.00  0.00     0.009 A 
ATOM     36  C   UNL d   1      -3.431   0.756  -0.622  0.00  0.00     0.016 A 
BRANCH  34  37
ATOM     37  C   UNL d   1      -7.115  -0.142   0.191  0.00  0.00    -0.024 C 
ATOM     38  C   UNL d   1      -7.766   0.968  -0.663  0.00  0.00     0.019 C 
ATOM     39  C   UNL d   1      -7.619  -1.496  -0.356  0.00  0.00     0.019 C 
ATOM     40  C   UNL d   1      -7.633   0.034   1.636  0.00  0.00     0.019 C 
ENDBRANCH  34  37
ENDBRANCH   3  31
TORSDOF 8
