REMARK  6 active torsions:
REMARK  status: ('A' for Active; 'I' for Inactive)
REMARK    1  A    between atoms: C_7  and  N_1 
REMARK    2  A    between atoms: C_9  and  C_5 
REMARK    3  A    between atoms: C_10  and  C_7 
REMARK    4  A    between atoms: C_11  and  C_9 
REMARK    5  A    between atoms: O_16  and  C_11 
REMARK    6  A    between atoms: C_19  and  O_16 
ROOT
ATOM      1  N   UNL d   1       2.467  -0.566  -0.093  0.00  0.00    -0.250 N 
ATOM      2  N   UNL d   1       2.427   0.807  -0.033  0.00  0.00    -0.298 N 
ATOM      3  HN  UNL d   1       3.292   1.346  -0.011  1.00  0.00     0.187 HD
ATOM      4  C   UNL d   1       1.338  -1.379  -0.084  0.00  0.00     0.273 A 
ATOM      5  C   UNL d   1       1.278   1.412  -0.002  0.00  0.00     0.046 A 
ATOM      6  C   UNL d   1       0.031  -0.697  -0.047  0.00  0.00     0.046 A 
ATOM      7  C   UNL d   1      -0.017   0.692  -0.063  0.00  0.00     0.004 A 
ATOM      8  O   UNL d   1       1.382  -2.606  -0.134  0.00  0.00    -0.266 OA
ATOM      9  C   UNL d   1      -1.156  -1.445  -0.025  0.00  0.00     0.018 A 
ATOM     10  C   UNL d   1      -1.261   1.337  -0.120  0.00  0.00     0.014 A 
ATOM     11  C   UNL d   1      -2.392  -0.798  -0.048  0.00  0.00     0.001 A 
ATOM     12  C   UNL d   1      -2.444   0.592  -0.107  0.00  0.00     0.001 A 
ENDROOT
BRANCH   1  13
ATOM     13  C   UNL d   1       3.795  -1.177  -0.016  0.00  0.00     0.221 C 
BRANCH  13  14
ATOM     14  C   UNL d   1       4.392  -1.469  -1.389  0.00  0.00     0.091 C 
ATOM     15  S   UNL d   1       5.875  -0.869  -1.875  0.00  0.00    -0.064 SA
ATOM     16  N   UNL d   1       3.716  -2.329  -2.207  0.00  0.00    -0.392 N 
ATOM     17  H   UNL d   1       2.843  -2.764  -1.920  0.00  0.00     0.156 HD
ATOM     18  H   UNL d   1       4.112  -2.588  -3.103  0.00  0.00     0.156 HD
ENDBRANCH  13  14
ENDBRANCH   1  13
BRANCH   5  19
ATOM     19  C   UNL d   1       1.300   2.925   0.102  0.00  0.00     0.170 C 
BRANCH  19  20
ATOM     20  C   UNL d   1       0.621   3.467   1.328  0.00  0.00     0.264 C 
ATOM     21  O   UNL d   1       0.247   2.798   2.286  0.00  0.00    -0.265 OA
BRANCH  20  22
ATOM     22  O   UNL d   1       0.379   4.797   1.160  0.00  0.00    -0.322 OA
BRANCH  22  23
ATOM     23  C   UNL d   1      -0.631   5.362   2.010  0.00  0.00     0.174 C 
ATOM     24  C   UNL d   1      -1.937   5.360   1.233  0.00  0.00     0.034 C 
ENDBRANCH  22  23
ENDBRANCH  20  22
ENDBRANCH  19  20
ENDBRANCH   5  19
TORSDOF 6
