REMARK  6 active torsions:
REMARK  status: ('A' for Active; 'I' for Inactive)
REMARK    1  A    between atoms: C_3  and  S_1 
REMARK    2  A    between atoms: C_9  and  S_1 
REMARK    3  A    between atoms: S_2  and  N_6 
REMARK    4  A    between atoms: C_4  and  S_2 
REMARK    5  A    between atoms: C_5  and  C_10 
REMARK    6  A    between atoms: N_6  and  C_8 
ROOT
ATOM      1  C   UNL d   1       0.386   0.512  -1.484  0.00  0.00     0.161 C 
ATOM      2  C   UNL d   1      -0.425  -0.184  -2.290  0.00  0.00     0.132 C 
ATOM      3  C   UNL d   1       0.808   0.084  -0.208  0.00  0.00     0.113 C 
ATOM      4  N   UNL d   1       1.183  -0.218   0.848  0.00  0.00    -0.191 NA
ENDROOT
BRANCH   1   5
ATOM      5  S   UNL d   1       0.827   2.090  -2.008  0.00  0.00     0.233 S 
ATOM      6  O   UNL d   1      -0.143   3.029  -1.464  0.00  0.00    -0.215 OA
ATOM      7  O   UNL d   1       1.081   2.098  -3.438  0.00  0.00    -0.215 OA
BRANCH   5   8
ATOM      8  C   UNL d   1       2.387   2.435  -1.200  0.00  0.00     0.134 A 
ATOM      9  N   UNL d   1       3.373   1.549  -1.497  0.00  0.00    -0.356 N 
ATOM     10  C   UNL d   1       4.577   1.786  -0.922  0.00  0.00     0.105 A 
ATOM     11  HN  UNL d   1       3.218   0.754  -2.117  1.00  0.00     0.166 HD
ATOM     12  C   UNL d   1       4.831   2.850  -0.063  0.00  0.00     0.063 A 
ATOM     13  C   UNL d   1       3.773   3.723   0.230  0.00  0.00     0.020 A 
ATOM     14  C   UNL d   1       2.524   3.520  -0.349  0.00  0.00     0.043 A 
BRANCH  12  15
ATOM     15  C   UNL d   1       6.197   3.058   0.522  0.00  0.00     0.418 C 
ATOM     16  F   UNL d   1       7.115   2.144   0.105  0.00  0.00    -0.166 F 
ATOM     17  F   UNL d   1       6.714   4.277   0.203  0.00  0.00    -0.166 F 
ATOM     18  F   UNL d   1       6.197   2.998   1.881  0.00  0.00    -0.166 F 
ENDBRANCH  12  15
ENDBRANCH   5   8
ENDBRANCH   1   5
BRANCH   2  19
ATOM     19  N   UNL d   1      -0.940  -1.460  -1.869  0.00  0.00    -0.321 N 
ATOM     20  HN  UNL d   1      -0.767  -1.780  -0.916  1.00  0.00     0.175 HD
BRANCH  19  21
ATOM     21  S   UNL d   1      -1.751  -2.355  -2.831  0.00  0.00     0.052 S 
ATOM     22  O   UNL d   1      -1.473  -2.571  -4.234  0.00  0.00    -0.245 OA
ATOM     23  C   UNL d   1      -2.062  -3.914  -2.050  0.00  0.00     0.142 C 
BRANCH  21  24
ATOM     24  C   UNL d   1      -3.294  -1.551  -2.811  0.00  0.00     0.045 A 
ATOM     25  C   UNL d   1      -3.954  -1.074  -3.986  0.00  0.00     0.029 A 
ATOM     26  C   UNL d   1      -5.159  -0.473  -3.693  0.00  0.00     0.051 A 
ATOM     27  S   UNL d   1      -5.492  -0.485  -2.015  0.00  0.00    -0.112 SA
ATOM     28  C   UNL d   1      -4.022  -1.292  -1.668  0.00  0.00     0.071 A 
ENDBRANCH  21  24
ENDBRANCH  19  21
ENDBRANCH   2  19
TORSDOF 6
