REMARK  2 active torsions:
REMARK  status: ('A' for Active; 'I' for Inactive)
REMARK    1  A    between atoms: C_2  and  S_1 
REMARK    2  A    between atoms: C_10  and  S_1 
ROOT
ATOM      1  C   UNL d   1       0.361  -0.785  -1.345  0.00  0.00     0.167 C 
ATOM      2  C   UNL d   1      -0.613  -1.720  -1.272  0.00  0.00     0.069 C 
ATOM      3  C   UNL d   1       0.968  -0.402  -2.574  0.00  0.00     0.114 C 
ATOM      4  N   UNL d   1       1.457  -0.118  -3.585  0.00  0.00    -0.191 NA
ATOM      5  S   UNL d   1      -1.194  -2.553  -2.715  0.00  0.00    -0.121 SA
ATOM      6  S   UNL d   1      -1.482  -2.120   0.188  0.00  0.00    -0.121 SA
ATOM      7  C   UNL d   1      -0.922  -3.830   0.460  0.00  0.00     0.080 C 
ATOM      8  C   UNL d   1      -0.372  -4.161  -2.518  0.00  0.00     0.080 C 
ATOM      9  C   UNL d   1      -1.747  -4.812  -0.361  0.00  0.00     0.011 C 
ATOM     10  C   UNL d   1      -1.163  -5.200  -1.724  0.00  0.00     0.011 C 
ENDROOT
BRANCH   1  11
ATOM     11  S   UNL d   1       0.935   0.118   0.023  0.00  0.00     0.218 S 
ATOM     12  O   UNL d   1      -0.157   0.907   0.571  0.00  0.00    -0.216 OA
ATOM     13  O   UNL d   1       2.184   0.778  -0.309  0.00  0.00    -0.216 OA
BRANCH  11  14
ATOM     14  C   UNL d   1       1.410  -1.077   1.269  0.00  0.00     0.065 A 
ATOM     15  C   UNL d   1       2.362  -2.056   0.966  0.00  0.00     0.024 A 
ATOM     16  C   UNL d   1       2.755  -2.957   1.958  0.00  0.00     0.002 A 
ATOM     17  C   UNL d   1       2.211  -2.871   3.241  0.00  0.00     0.000 A 
ATOM     18  C   UNL d   1       1.265  -1.889   3.539  0.00  0.00     0.002 A 
ATOM     19  C   UNL d   1       0.863  -0.987   2.555  0.00  0.00     0.024 A 
ENDBRANCH  11  14
ENDBRANCH   1  11
TORSDOF 2
