REMARK  2 active torsions:
REMARK  status: ('A' for Active; 'I' for Inactive)
REMARK    1  A    between atoms: C_9  and  C_4 
REMARK    2  A    between atoms: S_15  and  C_6 
REMARK       I    between atoms: N_11  and  C_9 
ROOT
ATOM      1  S   UNL d   1      -1.127  -2.341   0.250  0.00  0.00     0.267 S 
ATOM      2  C   UNL d   1      -1.840  -0.773   0.318  0.00  0.00     0.116 C 
ATOM      3  C   UNL d   1      -0.934   0.354   0.287  0.00  0.00     0.024 C 
ATOM      4  C   UNL d   1      -1.634   1.529   0.020  0.00  0.00     0.086 C 
ATOM      5  N   UNL d   1       0.285  -2.087  -0.666  0.00  0.00    -0.275 N 
ATOM      6  C   UNL d   1      -3.171  -0.432   0.317  0.00  0.00     0.066 C 
ATOM      7  S   UNL d   1      -3.321   1.276   0.321  0.00  0.00    -0.075 SA
ATOM      8  C   UNL d   1       0.536   0.174   0.343  0.00  0.00     0.005 A 
ATOM      9  C   UNL d   1       1.128  -1.029  -0.139  0.00  0.00     0.056 A 
ATOM     10  O   UNL d   1      -2.035  -3.165  -0.520  0.00  0.00    -0.200 OA
ATOM     11  O   UNL d   1      -0.788  -2.646   1.627  0.00  0.00    -0.200 OA
ATOM     12  C   UNL d   1       0.853  -3.286  -1.294  0.00  0.00     0.170 C 
ATOM     13  C   UNL d   1       1.356   1.093   1.009  0.00  0.00     0.014 A 
ATOM     14  C   UNL d   1       2.520  -1.184  -0.091  0.00  0.00     0.031 A 
ATOM     15  C   UNL d   1       2.738   0.901   1.093  0.00  0.00     0.001 A 
ATOM     16  C   UNL d   1       3.322  -0.222   0.522  0.00  0.00     0.002 A 
ENDROOT
BRANCH   4  17
ATOM     17  C   UNL d   1      -1.198   2.897  -0.288  0.00  0.00     0.261 C 
ATOM     18  N   UNL d   1      -1.877   3.632  -1.271  0.00  0.00    -0.344 N 
ATOM     19  C   UNL d   1      -1.579   5.059  -1.436  0.00  0.00     0.152 C 
ATOM     20  C   UNL d   1      -2.687   3.091  -2.370  0.00  0.00     0.152 C 
ATOM     21  C   UNL d   1      -2.858   5.863  -1.722  0.00  0.00     0.187 C 
ATOM     22  O   UNL d   1      -3.627   5.295  -2.795  0.00  0.00    -0.388 OA
ATOM     23  C   UNL d   1      -3.962   3.925  -2.521  0.00  0.00     0.187 C 
ATOM     24  O   UNL d   1      -0.278   3.437   0.326  0.00  0.00    -0.267 OA
ENDBRANCH   4  17
BRANCH   6  25
ATOM     25  S   UNL d   1      -4.639  -1.394   0.243  0.00  0.00    -0.126 SA
ATOM     26  C   UNL d   1      -4.436  -2.580   1.585  0.00  0.00     0.096 C 
ENDBRANCH   6  25
TORSDOF 2
