REMARK  4 active torsions:
REMARK  status: ('A' for Active; 'I' for Inactive)
REMARK    1  A    between atoms: C_4  and  C_1 
REMARK    2  A    between atoms: C_9  and  C_1 
REMARK    3  A    between atoms: C_3  and  C_2 
REMARK    4  A    between atoms: N_5  and  C_4 
ROOT
ATOM      1  C   UNL d   1       1.073   0.053   0.043  0.00  0.00     0.037 C 
ATOM      2  C   UNL d   1       0.441   1.246  -0.045  0.00  0.00     0.035 C 
ENDROOT
BRANCH   1   3
ATOM      3  C   UNL d   1       2.593   0.053   0.043  0.00  0.00    -0.036 C 
BRANCH   3   4
ATOM      4  N   UNL d   1       3.854   0.053   0.043  0.00  0.00    -0.365 N 
ATOM      5  HN2 UNL d   1       2.834   0.053   0.043  1.00  0.00     0.165 HD
ATOM      6  HN1 UNL d   1       4.874   0.053   0.043  1.00  0.00     0.165 HD
ENDBRANCH   3   4
ENDBRANCH   1   3
BRANCH   1   7
ATOM      7  C   UNL d   1       0.328  -1.231   0.072  0.00  0.00    -0.015 A 
ATOM      8  C   UNL d   1      -0.968  -1.316   0.614  0.00  0.00     0.036 A 
ATOM      9  C   UNL d   1      -1.661  -2.529   0.631  0.00  0.00     0.034 A 
ATOM     10 CL   UNL d   1      -3.253  -2.590   1.282  0.00  0.00    -0.084 Cl
ATOM     11  C   UNL d   1      -1.076  -3.684   0.127  0.00  0.00     0.024 A 
ATOM     12  C   UNL d   1       0.212  -3.626  -0.399  0.00  0.00     0.003 A 
ATOM     13  C   UNL d   1       0.907  -2.411  -0.426  0.00  0.00     0.013 A 
ENDBRANCH   1   7
BRANCH   2  14
ATOM     14  C   UNL d   1       1.137   2.546  -0.065  0.00  0.00    -0.013 A 
ATOM     15  C   UNL d   1       1.579   3.162  -1.250  0.00  0.00     0.045 A 
ATOM     16  C   UNL d   1       2.289   4.364  -1.204  0.00  0.00     0.048 A 
ATOM     17 CL   UNL d   1       1.268   2.463  -2.801  0.00  0.00    -0.083 Cl
ATOM     18  C   UNL d   1       2.558   4.959   0.026  0.00  0.00     0.035 A 
ATOM     19  C   UNL d   1       2.115   4.370   1.209  0.00  0.00     0.024 A 
ATOM     20 CL   UNL d   1       3.444   6.432   0.089  0.00  0.00    -0.084 Cl
ATOM     21  C   UNL d   1       1.408   3.166   1.164  0.00  0.00     0.015 A 
ENDBRANCH   2  14
TORSDOF 4
