REMARK  6 active torsions:
REMARK  status: ('A' for Active; 'I' for Inactive)
REMARK    1  A    between atoms: C_2  and  N_1 
REMARK    2  A    between atoms: N_3  and  C_8 
REMARK    3  A    between atoms: C_5  and  C_6 
REMARK    4  A    between atoms: O_15  and  C_7 
REMARK    5  A    between atoms: C_20  and  O_15 
REMARK    6  A    between atoms: C_21  and  C_20 
ROOT
ATOM      1  C   UNL d   1       0.281  -1.088   0.234  0.00  0.00     0.136 A 
ATOM      2  C   UNL d   1       0.716  -1.931   1.271  0.00  0.00     0.048 A 
ATOM      3  C   UNL d   1       0.016  -3.114   1.559  0.00  0.00    -0.032 A 
ATOM      4  C   UNL d   1      -0.837  -1.397  -0.549  0.00  0.00     0.102 A 
ATOM      5  C   UNL d   1      -1.080  -3.446   0.749  0.00  0.00     0.012 A 
ATOM      6  C   UNL d   1      -1.488  -2.610  -0.297  0.00  0.00     0.040 A 
ENDROOT
BRANCH   4   7
ATOM      7  O   UNL d   1      -1.228  -0.521  -1.529  0.00  0.00    -0.344 OA
BRANCH   7   8
ATOM      8  C   UNL d   1      -2.587  -0.651  -1.957  0.00  0.00     0.214 C 
BRANCH   8   9
ATOM      9  C   UNL d   1      -3.140   0.606  -2.592  0.00  0.00    -0.034 A 
ATOM     10  C   UNL d   1      -2.338   1.691  -2.968  0.00  0.00     0.012 A 
ATOM     11  C   UNL d   1      -2.915   2.843  -3.513  0.00  0.00     0.037 A 
ATOM     12  C   UNL d   1      -4.304   2.906  -3.689  0.00  0.00     0.102 A 
ATOM     13  C   UNL d   1      -5.115   1.820  -3.347  0.00  0.00     0.037 A 
ATOM     14  C   UNL d   1      -4.529   0.675  -2.807  0.00  0.00     0.012 A 
BRANCH  12  15
ATOM     15  N   UNL d   1      -4.921   4.125  -4.225  0.00  0.00    -0.116 N 
ATOM     16  O   UNL d   1      -4.175   5.070  -4.516  0.00  0.00    -0.532 OA
ATOM     17  O   UNL d   1      -6.154   4.139  -4.354  0.00  0.00    -0.532 OA
ENDBRANCH  12  15
ENDBRANCH   8   9
ENDBRANCH   7   8
ENDBRANCH   4   7
BRANCH   1  18
ATOM     18  N   UNL d   1       1.021   0.142   0.015  0.00  0.00    -0.113 N 
ATOM     19  O   UNL d   1       2.244   0.038  -0.149  0.00  0.00    -0.532 OA
ATOM     20  O   UNL d   1       0.393   1.211   0.064  0.00  0.00    -0.532 OA
ENDBRANCH   1  18
BRANCH   3  21
ATOM     21  C   UNL d   1       0.395  -4.029   2.706  0.00  0.00     0.141 C 
ATOM     22  S   UNL d   1       0.339  -3.162   4.308  0.00  0.00    -0.148 SA
ATOM     23  C   UNL d   1       1.888  -3.829   4.964  0.00  0.00     0.085 C 
ATOM     24  C   UNL d   1       2.866  -3.957   3.814  0.00  0.00     0.085 C 
ATOM     25  S   UNL d   1       2.019  -4.806   2.458  0.00  0.00    -0.148 SA
ENDBRANCH   3  21
TORSDOF 6
