REMARK  4 active torsions:
REMARK  status: ('A' for Active; 'I' for Inactive)
REMARK    1  A    between atoms: C_4  and  C_1 
REMARK    2  A    between atoms: O_10  and  N_5 
REMARK    3  A    between atoms: C_20  and  O_10 
REMARK    4  A    between atoms: C_14  and  C_20 
ROOT
ATOM      1  C   UNL d   1      -3.362  -1.385  -0.040  0.00  0.00     0.038 C 
ATOM      2  N   UNL d   1      -4.498  -0.748  -0.093  0.00  0.00    -0.270 N 
ATOM      3  HN  UNL d   1      -5.414  -1.196  -0.126  1.00  0.00     0.194 HD
ATOM      4  C   UNL d   1      -2.028  -0.661  -0.008  0.00  0.00     0.071 C 
ENDROOT
BRANCH   2   5
ATOM      5  O   UNL d   1      -4.287   0.642  -0.100  0.00  0.00    -0.276 OA
BRANCH   5   6
ATOM      6  C   UNL d   1      -5.544   1.319  -0.127  0.00  0.00     0.239 C 
BRANCH   6   7
ATOM      7  C   UNL d   1      -5.285   2.806  -0.147  0.00  0.00    -0.032 A 
ATOM      8  C   UNL d   1      -5.740   3.602  -1.208  0.00  0.00     0.011 A 
ATOM      9  C   UNL d   1      -5.488   4.977  -1.224  0.00  0.00     0.019 A 
ATOM     10  C   UNL d   1      -4.780   5.563  -0.177  0.00  0.00     0.011 A 
ATOM     11  C   UNL d   1      -4.325   4.788   0.889  0.00  0.00     0.019 A 
ATOM     12 BR   UNL d   1      -4.429   7.420  -0.204  0.00  0.00    -0.051 Br
ATOM     13  C   UNL d   1      -4.580   3.416   0.903  0.00  0.00     0.011 A 
ENDBRANCH   6   7
ENDBRANCH   5   6
ENDBRANCH   2   5
BRANCH   1  14
ATOM     14  C   UNL d   1      -3.372  -2.880  -0.034  0.00  0.00    -0.009 A 
ATOM     15  C   UNL d   1      -2.361  -3.620   0.591  0.00  0.00     0.059 A 
ATOM     16  C   UNL d   1      -2.411  -5.012   0.562  0.00  0.00     0.155 A 
ATOM     17  F   UNL d   1      -1.436  -5.712   1.159  0.00  0.00    -0.203 F 
ATOM     18  C   UNL d   1      -3.457  -5.674  -0.071  0.00  0.00     0.154 A 
ATOM     19  C   UNL d   1      -4.473  -4.952  -0.683  0.00  0.00     0.046 A 
ATOM     20  F   UNL d   1      -3.493  -7.013  -0.093  0.00  0.00    -0.203 F 
ATOM     21  C   UNL d   1      -4.434  -3.554  -0.661  0.00  0.00     0.017 A 
ENDBRANCH   1  14
TORSDOF 4
