REMARK  7 active torsions:
REMARK  status: ('A' for Active; 'I' for Inactive)
REMARK    1  A    between atoms: C_4  and  C_1 
REMARK       I    between atoms: C_2  and  N_5 
REMARK    2  A    between atoms: C_6  and  C_2 
REMARK    3  A    between atoms: O_9  and  C_3 
REMARK    4  A    between atoms: O_25  and  C_4 
REMARK    5  A    between atoms: N_5  and  C_13 
REMARK    6  A    between atoms: C_16  and  O_9 
REMARK    7  A    between atoms: C_30  and  O_25 
ROOT
ATOM      1  C   UNL d   1       1.639  -0.155  -0.059  0.00  0.00     0.075 A 
ATOM      2  C   UNL d   1       0.795  -1.212  -0.425  0.00  0.00     0.092 A 
ATOM      3  C   UNL d   1       1.066   1.111   0.175  0.00  0.00     0.050 A 
ATOM      4  C   UNL d   1      -0.304   1.335  -0.005  0.00  0.00     0.036 A 
ATOM      5  C   UNL d   1      -0.561  -0.978  -0.680  0.00  0.00     0.040 A 
ATOM      6  C   UNL d   1      -1.105   0.292  -0.482  0.00  0.00     0.032 A 
ENDROOT
BRANCH   4   7
ATOM      7  N   UNL d   1      -0.948   2.559   0.278  0.00  0.00    -0.323 N 
ATOM      8  C   UNL d   1      -0.395   3.652   0.924  0.00  0.00     0.256 C 
ATOM      9  O   UNL d   1       0.762   3.766   1.305  0.00  0.00    -0.267 OA
ATOM     10  H   UNL d   1      -1.919   2.615   0.005  0.00  0.00     0.169 HD
BRANCH   8  11
ATOM     11  C   UNL d   1      -1.315   4.800   1.163  0.00  0.00     0.034 A 
ATOM     12  C   UNL d   1      -2.682   4.629   1.417  0.00  0.00     0.044 A 
ATOM     13  C   UNL d   1      -3.487   5.751   1.635  0.00  0.00     0.073 A 
ATOM     14 CL   UNL d   1      -5.168   5.534   1.933  0.00  0.00    -0.081 Cl
ATOM     15  C   UNL d   1      -2.930   7.030   1.615  0.00  0.00     0.138 A 
ATOM     16  C   UNL d   1      -1.568   7.205   1.392  0.00  0.00     0.045 A 
ATOM     17  F   UNL d   1      -3.693   8.113   1.820  0.00  0.00    -0.204 F 
ATOM     18  C   UNL d   1      -0.759   6.090   1.170  0.00  0.00     0.020 A 
ENDBRANCH   8  11
ENDBRANCH   4   7
BRANCH   1  19
ATOM     19  C   UNL d   1       3.116  -0.362   0.089  0.00  0.00     0.296 C 
ATOM     20  O   UNL d   1       3.715  -1.361  -0.263  0.00  0.00    -0.259 OA
BRANCH  19  21
ATOM     21  O   UNL d   1       3.676   0.721   0.686  0.00  0.00    -0.318 OA
BRANCH  21  22
ATOM     22  C   UNL d   1       5.085   0.658   0.955  0.00  0.00     0.174 C 
ATOM     23  C   UNL d   1       5.870   1.253  -0.199  0.00  0.00     0.034 C 
ENDBRANCH  21  22
ENDBRANCH  19  21
ENDBRANCH   1  19
BRANCH   2  24
ATOM     24  O   UNL d   1       1.231  -2.500  -0.613  0.00  0.00    -0.308 OA
BRANCH  24  25
ATOM     25  C   UNL d   1       1.347  -3.313   0.494  0.00  0.00     0.093 A 
ATOM     26  C   UNL d   1       1.527  -4.671   0.231  0.00  0.00     0.064 A 
ATOM     27  C   UNL d   1       1.730  -5.553   1.287  0.00  0.00     0.052 A 
ATOM     28 CL   UNL d   1       1.966  -7.228   0.994  0.00  0.00    -0.083 Cl
ATOM     29  C   UNL d   1       1.742  -5.050   2.579  0.00  0.00     0.111 A 
ATOM     30  N   UNL d   1       1.540  -3.745   2.878  0.00  0.00    -0.371 N 
ATOM     31  C   UNL d   1       1.349  -2.907   1.827  0.00  0.00     0.124 A 
ATOM     32  HN  UNL d   1       1.532  -3.410   3.841  1.00  0.00     0.164 HD
ENDBRANCH  24  25
ENDBRANCH   2  24
TORSDOF 7
