REMARK  4 active torsions:
REMARK  status: ('A' for Active; 'I' for Inactive)
REMARK    1  A    between atoms: C_8  and  N_2 
REMARK    2  A    between atoms: C_7  and  C_5 
REMARK    3  A    between atoms: C_10  and  C_7 
REMARK    4  A    between atoms: O_18  and  C_15 
ROOT
ATOM      1  C   UNL d   1      -0.618  -0.802  -0.299  0.00  0.00     0.091 C 
ATOM      2  N   UNL d   1      -1.133   0.371   0.224  0.00  0.00    -0.269 N 
ATOM      3  S   UNL d   1       1.060  -0.903   0.070  0.00  0.00    -0.024 SA
ATOM      4  C   UNL d   1      -0.279   1.005   1.133  0.00  0.00     0.310 C 
ATOM      5  C   UNL d   1      -1.349  -1.761  -0.891  0.00  0.00     0.093 C 
ATOM      6  C   UNL d   1       1.016   0.234   1.362  0.00  0.00     0.283 C 
ATOM      7  O   UNL d   1      -0.461   2.067   1.717  0.00  0.00    -0.263 OA
ATOM      8  O   UNL d   1       1.821   0.372   2.260  0.00  0.00    -0.274 OA
ENDROOT
BRANCH   2   9
ATOM      9  C   UNL d   1      -2.376   0.982  -0.115  0.00  0.00     0.043 A 
ATOM     10  C   UNL d   1      -2.743   1.151  -1.459  0.00  0.00     0.030 A 
ATOM     11  C   UNL d   1      -3.922   1.826  -1.791  0.00  0.00     0.002 A 
ATOM     12  C   UNL d   1      -4.760   2.307  -0.786  0.00  0.00     0.000 A 
ATOM     13  C   UNL d   1      -4.413   2.130   0.551  0.00  0.00     0.002 A 
ATOM     14  C   UNL d   1      -3.219   1.486   0.884  0.00  0.00     0.030 A 
ENDBRANCH   2   9
BRANCH   5  15
ATOM     15  C   UNL d   1      -0.856  -3.114  -1.299  0.00  0.00     0.184 C 
ATOM     16  O   UNL d   1       0.227  -3.567  -0.954  0.00  0.00    -0.287 OA
BRANCH  15  17
ATOM     17  C   UNL d   1      -1.787  -3.976  -2.070  0.00  0.00     0.014 A 
ATOM     18  C   UNL d   1      -2.718  -3.446  -2.966  0.00  0.00     0.018 A 
ATOM     19  C   UNL d   1      -3.607  -4.294  -3.635  0.00  0.00     0.037 A 
ATOM     20  C   UNL d   1      -3.564  -5.671  -3.413  0.00  0.00     0.068 A 
ATOM     21  C   UNL d   1      -2.594  -6.207  -2.567  0.00  0.00     0.037 A 
ATOM     22  C   UNL d   1      -1.708  -5.365  -1.892  0.00  0.00     0.018 A 
BRANCH  20  23
ATOM     23  O   UNL d   1      -4.398  -6.577  -4.009  0.00  0.00    -0.356 OA
ATOM     24  C   UNL d   1      -5.721  -6.104  -4.244  0.00  0.00     0.210 C 
ENDBRANCH  20  23
ENDBRANCH  15  17
ENDBRANCH   5  15
TORSDOF 4
