REMARK  8 active torsions:
REMARK  status: ('A' for Active; 'I' for Inactive)
REMARK    1  A    between atoms: C_3  and  S_1 
REMARK    2  A    between atoms: C_12  and  S_1 
REMARK    3  A    between atoms: C_2  and  O_8 
REMARK    4  A    between atoms: C_4  and  C_2 
REMARK    5  A    between atoms: C_5  and  C_3 
REMARK    6  A    between atoms: N_17  and  C_5 
REMARK    7  A    between atoms: O_8  and  N_6 
REMARK    8  A    between atoms: C_18  and  C_12 
ROOT
ATOM      1  C   UNL d   1       0.924  -0.844   2.581  0.00  0.00     0.110 C 
ATOM      2  N   UNL d   1       2.042  -0.420   2.076  0.00  0.00    -0.245 N 
ATOM      3  HN  UNL d   1       2.747   0.106   2.593  1.00  0.00     0.196 HD
ENDROOT
BRANCH   1   4
ATOM      4  C   UNL d   1       0.664  -0.521   4.030  0.00  0.00     0.218 C 
BRANCH   4   5
ATOM      5  S   UNL d   1       1.363  -1.744   5.111  0.00  0.00     0.155 S 
ATOM      6  O   UNL d   1       0.786  -3.028   4.749  0.00  0.00    -0.227 OA
ATOM      7  O   UNL d   1       1.192  -1.227   6.460  0.00  0.00    -0.227 OA
BRANCH   5   8
ATOM      8  C   UNL d   1       3.112  -1.743   4.717  0.00  0.00     0.179 C 
BRANCH   8   9
ATOM      9  C   UNL d   1       3.855  -2.684   5.635  0.00  0.00    -0.044 A 
ATOM     10  C   UNL d   1       4.120  -4.003   5.229  0.00  0.00     0.011 A 
ATOM     11  C   UNL d   1       4.870  -4.856   6.040  0.00  0.00     0.043 A 
ATOM     12  C   UNL d   1       5.346  -4.399   7.261  0.00  0.00     0.116 A 
ATOM     13  C   UNL d   1       5.074  -3.107   7.695  0.00  0.00     0.043 A 
ATOM     14  F   UNL d   1       6.082  -5.213   8.030  0.00  0.00    -0.206 F 
ATOM     15  C   UNL d   1       4.327  -2.250   6.885  0.00  0.00     0.011 A 
ENDBRANCH   8   9
ENDBRANCH   5   8
ENDBRANCH   4   5
ENDBRANCH   1   4
BRANCH   1  16
ATOM     16  N   UNL d   1      -0.023  -1.539   1.879  0.00  0.00    -0.387 N 
ATOM     17  H   UNL d   1      -0.949  -1.705   2.257  0.00  0.00     0.157 HD
ATOM     18  H   UNL d   1       0.063  -1.564   0.869  0.00  0.00     0.157 HD
ENDBRANCH   1  16
BRANCH   2  19
ATOM     19  O   UNL d   1       2.154  -0.784   0.714  0.00  0.00    -0.193 OA
BRANCH  19  20
ATOM     20  C   UNL d   1       3.474  -0.763   0.314  0.00  0.00     0.322 C 
ATOM     21  O   UNL d   1       4.427  -0.525   1.053  0.00  0.00    -0.257 OA
BRANCH  20  22
ATOM     22  C   UNL d   1       3.606  -1.095  -1.097  0.00  0.00     0.082 A 
ATOM     23  S   UNL d   1       2.256  -1.361  -2.124  0.00  0.00    -0.096 SA
ATOM     24  C   UNL d   1       3.252  -1.659  -3.482  0.00  0.00     0.050 A 
ATOM     25  C   UNL d   1       4.590  -1.565  -3.171  0.00  0.00     0.009 A 
ATOM     26  C   UNL d   1       4.792  -1.240  -1.799  0.00  0.00     0.026 A 
ENDBRANCH  20  22
ENDBRANCH  19  20
ENDBRANCH   2  19
TORSDOF 8
