REMARK  5 active torsions:
REMARK  status: ('A' for Active; 'I' for Inactive)
REMARK       I    between atoms: N_2  and  C_1 
REMARK    1  A    between atoms: C_3  and  C_1 
REMARK    2  A    between atoms: C_9  and  N_2 
REMARK    3  A    between atoms: N_6  and  C_4 
REMARK    4  A    between atoms: C_18  and  N_6 
REMARK    5  A    between atoms: C_19  and  N_6 
ROOT
ATOM      1  C   UNL d   1       2.181  -4.212  -2.597  0.00  0.00     0.030 A 
ATOM      2  C   UNL d   1       0.890  -2.058  -1.222  0.00  0.00     0.035 A 
ATOM      3  C   UNL d   1       2.690  -3.683  -1.400  0.00  0.00     0.031 A 
ATOM      4  C   UNL d   1       1.005  -3.627  -3.077  0.00  0.00     0.031 A 
ATOM      5  C   UNL d   1       0.379  -2.565  -2.414  0.00  0.00     0.032 A 
ATOM      6  C   UNL d   1       2.063  -2.622  -0.722  0.00  0.00     0.032 A 
ENDROOT
BRANCH   2   7
ATOM      7  N   UNL d   1       0.290  -0.990  -0.513  0.00  0.00    -0.323 N 
ATOM      8  C   UNL d   1      -0.988  -0.512  -0.739  0.00  0.00     0.256 C 
ATOM      9  O   UNL d   1      -1.825  -1.012  -1.486  0.00  0.00    -0.267 OA
ATOM     10  H   UNL d   1       0.798  -0.637   0.286  0.00  0.00     0.169 HD
BRANCH   8  11
ATOM     11  C   UNL d   1      -1.415   0.698   0.022  0.00  0.00     0.032 A 
ATOM     12  C   UNL d   1      -0.524   1.694   0.439  0.00  0.00     0.018 A 
ATOM     13  C   UNL d   1      -1.019   2.857   1.046  0.00  0.00     0.025 A 
ATOM     14  C   UNL d   1      -2.394   3.023   1.231  0.00  0.00     0.034 A 
ATOM     15  C   UNL d   1      -3.284   2.033   0.829  0.00  0.00     0.025 A 
ATOM     16 CL   UNL d   1      -2.996   4.473   1.934  0.00  0.00    -0.084 Cl
ATOM     17  C   UNL d   1      -2.793   0.875   0.227  0.00  0.00     0.018 A 
ENDBRANCH   8  11
ENDBRANCH   2   7
BRANCH   1  18
ATOM     18  N   UNL d   1       2.815  -5.229  -3.300  0.00  0.00    -0.382 N 
BRANCH  18  19
ATOM     19  C   UNL d   1       2.022  -6.272  -3.962  0.00  0.00     0.118 C 
ATOM     20  C   UNL d   1       1.972  -6.070  -5.469  0.00  0.00     0.026 C 
ENDBRANCH  18  19
BRANCH  18  21
ATOM     21  C   UNL d   1       4.263  -5.427  -3.214  0.00  0.00     0.118 C 
ATOM     22  C   UNL d   1       5.015  -4.253  -3.830  0.00  0.00     0.026 C 
ENDBRANCH  18  21
ENDBRANCH   1  18
TORSDOF 5
