REMARK  2 active torsions:
REMARK  status: ('A' for Active; 'I' for Inactive)
REMARK    1  A    between atoms: C_2  and  C_1 
REMARK       I    between atoms: N_3  and  C_1 
REMARK    2  A    between atoms: C_7  and  N_3 
ROOT
ATOM      1  C   UNL d   1       0.952  -0.385  -0.158  0.00  0.00     0.261 C 
ATOM      2  N   UNL d   1       0.158  -0.239   0.968  0.00  0.00    -0.323 N 
ATOM      3  O   UNL d   1       0.565  -0.668  -1.287  0.00  0.00    -0.267 OA
ATOM      4  H   UNL d   1       0.606   0.058   1.826  0.00  0.00     0.169 HD
ENDROOT
BRANCH   2   5
ATOM      5  C   UNL d   1      -1.246  -0.399   1.020  0.00  0.00     0.037 A 
ATOM      6  C   UNL d   1      -1.996  -0.955  -0.019  0.00  0.00     0.069 A 
ATOM      7  C   UNL d   1      -3.388  -1.007   0.059  0.00  0.00     0.104 A 
ATOM      8  O   UNL d   1      -4.042  -1.530  -1.027  0.00  0.00    -0.346 OA
ATOM      9  C   UNL d   1      -4.047  -0.535   1.194  0.00  0.00     0.102 A 
ATOM     10  C   UNL d   1      -5.407  -1.109  -1.048  0.00  0.00     0.202 C 
ATOM     11  C   UNL d   1      -6.051  -1.317   0.313  0.00  0.00     0.202 C 
ATOM     12  O   UNL d   1      -5.411  -0.529   1.325  0.00  0.00    -0.346 OA
ATOM     13  C   UNL d   1      -3.308  -0.018   2.255  0.00  0.00     0.042 A 
ATOM     14  C   UNL d   1      -1.911   0.038   2.174  0.00  0.00     0.032 A 
ENDBRANCH   2   5
BRANCH   1  15
ATOM     15  C   UNL d   1       2.408  -0.183   0.031  0.00  0.00     0.092 A 
ATOM     16  C   UNL d   1       3.195   0.483  -0.921  0.00  0.00     0.052 A 
ATOM     17 CL   UNL d   1       2.533   1.361  -2.257  0.00  0.00    -0.083 Cl
ATOM     18  C   UNL d   1       4.590   0.509  -0.787  0.00  0.00     0.025 A 
ATOM     19  C   UNL d   1       5.208  -0.112   0.299  0.00  0.00     0.005 A 
ATOM     20  C   UNL d   1       4.429  -0.738   1.267  0.00  0.00     0.043 A 
ATOM     21  C   UNL d   1       3.042  -0.770   1.129  0.00  0.00     0.133 A 
ATOM     22  F   UNL d   1       2.331  -1.393   2.081  0.00  0.00    -0.205 F 
ENDBRANCH   1  15
TORSDOF 2
