REMARK  3 active torsions:
REMARK  status: ('A' for Active; 'I' for Inactive)
REMARK    1  A    between atoms: C_8  and  N_2 
REMARK    2  A    between atoms: C_7  and  C_5 
REMARK    3  A    between atoms: C_10  and  C_7 
ROOT
ATOM      1  C   UNL d   1      -0.605  -0.808  -0.245  0.00  0.00     0.091 C 
ATOM      2  N   UNL d   1      -1.119   0.373   0.261  0.00  0.00    -0.269 N 
ATOM      3  S   UNL d   1       1.054  -0.952   0.196  0.00  0.00    -0.024 SA
ATOM      4  C   UNL d   1      -0.273   1.023   1.169  0.00  0.00     0.310 C 
ATOM      5  C   UNL d   1      -1.325  -1.745  -0.886  0.00  0.00     0.093 C 
ATOM      6  C   UNL d   1       1.039   0.281   1.401  0.00  0.00     0.283 C 
ATOM      7  O   UNL d   1      -0.471   2.084   1.746  0.00  0.00    -0.263 OA
ATOM      8  O   UNL d   1       1.884   0.508   2.241  0.00  0.00    -0.274 OA
ENDROOT
BRANCH   2   9
ATOM      9  C   UNL d   1      -2.361   0.981  -0.092  0.00  0.00     0.043 A 
ATOM     10  C   UNL d   1      -2.738   1.105  -1.439  0.00  0.00     0.030 A 
ATOM     11  C   UNL d   1      -3.925   1.759  -1.787  0.00  0.00     0.002 A 
ATOM     12  C   UNL d   1      -4.756   2.274  -0.795  0.00  0.00     0.000 A 
ATOM     13  C   UNL d   1      -4.398   2.146   0.545  0.00  0.00     0.002 A 
ATOM     14  C   UNL d   1      -3.201   1.517   0.893  0.00  0.00     0.030 A 
ENDBRANCH   2   9
BRANCH   5  15
ATOM     15  C   UNL d   1      -0.844  -3.094  -1.323  0.00  0.00     0.184 C 
ATOM     16  O   UNL d   1       0.262  -3.537  -1.046  0.00  0.00    -0.287 OA
BRANCH  15  17
ATOM     17  C   UNL d   1      -1.806  -3.965  -2.049  0.00  0.00     0.014 A 
ATOM     18  C   UNL d   1      -2.758  -3.456  -2.936  0.00  0.00     0.016 A 
ATOM     19  C   UNL d   1      -3.656  -4.322  -3.569  0.00  0.00     0.007 A 
ATOM     20  C   UNL d   1      -3.601  -5.702  -3.333  0.00  0.00    -0.062 A 
ATOM     21  C   UNL d   1      -2.630  -6.210  -2.464  0.00  0.00     0.007 A 
ATOM     22  C   UNL d   1      -4.599  -6.614  -3.986  0.00  0.00     0.048 C 
ATOM     23  C   UNL d   1      -1.732  -5.347  -1.831  0.00  0.00     0.016 A 
ENDBRANCH  15  17
ENDBRANCH   5  15
TORSDOF 3
