REMARK  2 active torsions:
REMARK  status: ('A' for Active; 'I' for Inactive)
REMARK    1  A    between atoms: C_3  and  C_1 
REMARK    2  A    between atoms: C_12  and  N_2 
ROOT
ATOM      1  C   UNL d   1      -0.174  -1.403  -0.057  0.00  0.00     0.167 C 
ATOM      2  N   UNL d   1       1.059  -0.804   0.152  0.00  0.00    -0.223 N 
ATOM      3  N   UNL d   1       0.834   0.509   0.420  0.00  0.00     0.001 NA
ATOM      4  N   UNL d   1      -0.448   0.719   0.170  0.00  0.00    -0.007 NA
ATOM      5  N   UNL d   1      -1.085  -0.450  -0.141  0.00  0.00    -0.268 N 
ATOM      6  HN  UNL d   1      -2.068  -0.563  -0.390  1.00  0.00     0.185 HD
ENDROOT
BRANCH   1   7
ATOM      7  C   UNL d   1      -0.520  -2.849  -0.046  0.00  0.00     0.103 A 
ATOM      8  N   UNL d   1       0.339  -3.815   0.300  0.00  0.00    -0.257 N 
ATOM      9  O   UNL d   1      -0.367  -4.998   0.232  0.00  0.00    -0.242 OA
ATOM     10  HN  UNL d   1       1.318  -3.699   0.561  1.00  0.00     0.195 HD
ATOM     11  C   UNL d   1      -1.648  -4.739  -0.134  0.00  0.00     0.074 A 
ATOM     12  C   UNL d   1      -1.801  -3.386  -0.318  0.00  0.00     0.070 A 
ATOM     13  C   UNL d   1      -2.543  -5.905  -0.231  0.00  0.00     0.079 C 
ENDBRANCH   1   7
BRANCH   2  14
ATOM     14  C   UNL d   1       2.385  -1.297   0.059  0.00  0.00     0.056 A 
ATOM     15  C   UNL d   1       2.705  -2.365  -0.791  0.00  0.00     0.034 A 
ATOM     16  C   UNL d   1       4.019  -2.834  -0.861  0.00  0.00     0.044 A 
ATOM     17  C   UNL d   1       5.007  -2.231  -0.093  0.00  0.00     0.116 A 
ATOM     18  C   UNL d   1       4.712  -1.151   0.730  0.00  0.00     0.044 A 
ATOM     19  F   UNL d   1       6.263  -2.692  -0.154  0.00  0.00    -0.206 F 
ATOM     20  C   UNL d   1       3.403  -0.668   0.796  0.00  0.00     0.034 A 
ENDBRANCH   2  14
TORSDOF 2
