REMARK  3 active torsions:
REMARK  status: ('A' for Active; 'I' for Inactive)
REMARK    1  A    between atoms: C_6  and  C_1 
REMARK    2  A    between atoms: N_7  and  C_2 
REMARK       I    between atoms: C_5  and  N_7 
REMARK       I    between atoms: N_10  and  C_5 
REMARK    3  A    between atoms: C_14  and  N_10 
ROOT
ATOM      1  C   UNL d   1      -0.798  -0.339  -1.357  0.00  0.00     0.097 A 
ATOM      2  C   UNL d   1      -0.055  -0.995  -0.316  0.00  0.00     0.097 A 
ATOM      3  N   UNL d   1      -1.196   0.874  -0.948  0.00  0.00    -0.258 N 
ATOM      4  HN  UNL d   1      -1.786   1.530  -1.461  1.00  0.00     0.195 HD
ATOM      5  C   UNL d   1       0.047  -0.053   0.682  0.00  0.00     0.101 A 
ATOM      6  O   UNL d   1      -0.647   1.059   0.302  0.00  0.00    -0.240 OA
ATOM      7  C   UNL d   1       0.623   0.008   2.034  0.00  0.00     0.081 C 
ENDROOT
BRANCH   2   8
ATOM      8  N   UNL d   1       0.387  -2.311  -0.336  0.00  0.00    -0.304 N 
ATOM      9  C   UNL d   1       1.651  -2.750   0.029  0.00  0.00     0.327 C 
ATOM     10  N   UNL d   1       1.765  -4.153  -0.162  0.00  0.00    -0.304 N 
ATOM     11  O   UNL d   1       2.559  -1.989   0.342  0.00  0.00    -0.246 OA
ATOM     12  C   UNL d   1       0.582  -5.011  -0.029  0.00  0.00     0.161 C 
ATOM     13  H   UNL d   1      -0.007  -2.864  -1.081  0.00  0.00     0.171 HD
BRANCH  10  14
ATOM     14  C   UNL d   1       3.004  -4.798  -0.477  0.00  0.00     0.038 A 
ATOM     15  C   UNL d   1       4.239  -4.322  -0.029  0.00  0.00     0.031 A 
ATOM     16  C   UNL d   1       5.425  -5.002  -0.334  0.00  0.00     0.026 A 
ATOM     17  C   UNL d   1       5.392  -6.152  -1.118  0.00  0.00     0.034 A 
ATOM     18  C   UNL d   1       4.179  -6.626  -1.605  0.00  0.00     0.026 A 
ATOM     19 CL   UNL d   1       6.845  -6.992  -1.484  0.00  0.00    -0.084 Cl
ATOM     20  C   UNL d   1       2.996  -5.956  -1.279  0.00  0.00     0.031 A 
ENDBRANCH  10  14
ENDBRANCH   2   8
BRANCH   1  21
ATOM     21  C   UNL d   1      -1.037  -0.807  -2.729  0.00  0.00     0.038 A 
ATOM     22  C   UNL d   1      -1.640  -2.054  -2.998  0.00  0.00     0.048 A 
ATOM     23 CL   UNL d   1      -2.326  -3.056  -1.762  0.00  0.00    -0.083 Cl
ATOM     24  C   UNL d   1      -1.715  -2.556  -4.305  0.00  0.00     0.025 A 
ATOM     25  C   UNL d   1      -1.239  -1.809  -5.377  0.00  0.00     0.003 A 
ATOM     26  C   UNL d   1      -0.691  -0.554  -5.142  0.00  0.00     0.025 A 
ATOM     27  C   UNL d   1      -0.578  -0.058  -3.835  0.00  0.00     0.048 A 
ATOM     28 CL   UNL d   1       0.207   1.482  -3.684  0.00  0.00    -0.083 Cl
ENDBRANCH   1  21
TORSDOF 3
