REMARK  8 active torsions:
REMARK  status: ('A' for Active; 'I' for Inactive)
REMARK    1  A    between atoms: C_2  and  C_1 
REMARK    2  A    between atoms: C_3  and  C_1 
REMARK    3  A    between atoms: C_8  and  C_1 
REMARK    4  A    between atoms: C_9  and  C_1 
REMARK    5  A    between atoms: O_7  and  C_2 
REMARK    6  A    between atoms: O_6  and  C_3 
REMARK    7  A    between atoms: C_10  and  C_8 
REMARK    8  A    between atoms: C_11  and  C_9 
ROOT
ATOM      1  C   UNL d   1       0.971  -0.101   0.182  0.00  0.00     0.130 C 
ENDROOT
BRANCH   1   2
ATOM      2  C   UNL d   1       0.496  -1.352  -0.565  0.00  0.00     0.159 C 
ATOM      3  O   UNL d   1       0.844  -1.589  -1.719  0.00  0.00    -0.649 OA
BRANCH   2   4
ATOM      4  O   UNL d   1      -0.344  -2.188   0.075  0.00  0.00    -0.775 OA
ATOM      5  H   UNL d   1      -0.561  -1.944   1.009  0.00  0.00     0.167 HD
ENDBRANCH   2   4
ENDBRANCH   1   2
BRANCH   1   6
ATOM      6  C   UNL d   1       0.501  -0.004   1.624  0.00  0.00     0.159 C 
ATOM      7  O   UNL d   1      -0.205  -0.855   2.155  0.00  0.00    -0.649 OA
BRANCH   6   8
ATOM      8  O   UNL d   1       0.893   1.093   2.305  0.00  0.00    -0.775 OA
ATOM      9  H   UNL d   1       1.445   1.737   1.823  0.00  0.00     0.167 HD
ENDBRANCH   6   8
ENDBRANCH   1   6
BRANCH   1  10
ATOM     10  C   UNL d   1       0.442   1.131  -0.611  0.00  0.00     0.031 C 
BRANCH  10  11
ATOM     11  C   UNL d   1      -1.089   1.223  -0.687  0.00  0.00    -0.003 C 
ATOM     12  C   UNL d   1      -1.532   2.470  -1.438  0.00  0.00     0.005 C 
ENDBRANCH  10  11
ENDBRANCH   1  10
BRANCH   1  13
ATOM     13  C   UNL d   1       2.529  -0.100   0.149  0.00  0.00     0.031 C 
BRANCH  13  14
ATOM     14  C   UNL d   1       3.179  -1.290   0.871  0.00  0.00    -0.003 C 
ATOM     15  C   UNL d   1       4.698  -1.202   0.828  0.00  0.00     0.005 C 
ENDBRANCH  13  14
ENDBRANCH   1  13
TORSDOF 8
