REMARK  3 active torsions:
REMARK  status: ('A' for Active; 'I' for Inactive)
REMARK    1  A    between atoms: S_5  and  C_1 
REMARK    2  A    between atoms: C_9  and  C_2 
REMARK    3  A    between atoms: C_13  and  S_5 
ROOT
ATOM      1  C   UNL d   1       1.913   0.058   0.009  0.00  0.00     0.048 A 
ATOM      2  C   UNL d   1       1.220  -1.152   0.020  0.00  0.00     0.062 A 
ATOM      3  N   UNL d   1      -0.146  -1.186   0.034  0.00  0.00    -0.344 N 
ATOM      4  HN  UNL d   1      -0.644  -2.076   0.061  1.00  0.00     0.167 HD
ATOM      5  N   UNL d   1      -0.240   1.181  -0.021  0.00  0.00    -0.355 N 
ATOM      6  HN  UNL d   1      -0.786   2.043  -0.042  1.00  0.00     0.166 HD
ATOM      7  C   UNL d   1      -0.820  -0.025   0.013  0.00  0.00     0.077 A 
ATOM      8  C   UNL d   1       1.108   1.188  -0.026  0.00  0.00     0.110 A 
ATOM      9  C   UNL d   1      -2.315  -0.087   0.014  0.00  0.00     0.089 C 
ENDROOT
BRANCH   1  10
ATOM     10  S   UNL d   1       3.674   0.311  -0.014  0.00  0.00    -0.087 SA
BRANCH  10  11
ATOM     11  C   UNL d   1       4.104   0.170   1.707  0.00  0.00     0.005 A 
ATOM     12  C   UNL d   1       4.907  -0.896   2.131  0.00  0.00     0.020 A 
ATOM     13  C   UNL d   1       5.346  -0.968   3.457  0.00  0.00     0.025 A 
ATOM     14  C   UNL d   1       4.987   0.031   4.359  0.00  0.00     0.034 A 
ATOM     15  C   UNL d   1       4.183   1.093   3.950  0.00  0.00     0.025 A 
ATOM     16 CL   UNL d   1       5.554  -0.036   5.981  0.00  0.00    -0.084 Cl
ATOM     17  C   UNL d   1       3.745   1.164   2.624  0.00  0.00     0.020 A 
ENDBRANCH  10  11
ENDBRANCH   1  10
BRANCH   2  18
ATOM     18  C   UNL d   1       1.822  -2.514   0.006  0.00  0.00    -0.008 A 
ATOM     19  C   UNL d   1       1.201  -3.568   0.713  0.00  0.00     0.015 A 
ATOM     20  C   UNL d   1       1.715  -4.871   0.701  0.00  0.00     0.024 A 
ATOM     21  C   UNL d   1       2.874  -5.146  -0.012  0.00  0.00     0.034 A 
ATOM     22  C   UNL d   1       3.505  -4.137  -0.730  0.00  0.00     0.024 A 
ATOM     23 CL   UNL d   1       3.520  -6.740  -0.025  0.00  0.00    -0.084 Cl
ATOM     24  C   UNL d   1       2.969  -2.844  -0.737  0.00  0.00     0.015 A 
ENDBRANCH   2  18
TORSDOF 3
