REMARK  5 active torsions:
REMARK  status: ('A' for Active; 'I' for Inactive)
REMARK    1  A    between atoms: N_2  and  C_1 
REMARK    2  A    between atoms: C_4  and  N_3 
REMARK    3  A    between atoms: C_13  and  C_4 
REMARK    4  A    between atoms: C_14  and  C_4 
REMARK    5  A    between atoms: C_15  and  C_4 
ROOT
ATOM      1  C   UNL d   1      -7.982   0.289   0.774  0.00  0.00     0.111 C 
ENDROOT
BRANCH   1   2
ATOM      2  N   UNL d   1      -7.162  -0.802   0.105  0.00  0.00    -0.390 N 
ATOM      3  C   UNL d   1      -6.030  -1.429   0.804  0.00  0.00     0.133 C 
ATOM      4  C   UNL d   1      -6.329  -2.747   1.557  0.00  0.00     0.118 C 
ATOM      5  N   UNL d   1      -6.955  -3.733   0.666  0.00  0.00    -0.252 NA
ATOM      6  C   UNL d   1      -8.083  -3.229  -0.116  0.00  0.00     0.118 C 
ATOM      7  C   UNL d   1      -7.818  -1.835  -0.728  0.00  0.00     0.133 C 
BRANCH   5   8
ATOM      8  C   UNL d   1      -7.261  -4.927   1.332  0.00  0.00     0.159 A 
ATOM      9  N   UNL d   1      -8.441  -5.534   1.094  0.00  0.00    -0.341 N 
ATOM     10  C   UNL d   1      -8.730  -6.660   1.778  0.00  0.00     0.111 A 
ATOM     11  HN  UNL d   1      -9.098  -5.152   0.414  1.00  0.00     0.167 HD
ATOM     12  C   UNL d   1      -7.868  -7.237   2.670  0.00  0.00     0.041 A 
ATOM     13  C   UNL d   1      -6.676  -6.585   2.828  0.00  0.00     0.111 A 
ATOM     14 BR   UNL d   1      -8.297  -8.806   3.604  0.00  0.00    -0.048 Br
ATOM     15  N   UNL d   1      -6.358  -5.433   2.195  0.00  0.00    -0.341 N 
ATOM     16  HN  UNL d   1      -5.468  -4.964   2.365  1.00  0.00     0.167 HD
ENDBRANCH   5   8
ENDBRANCH   1   2
BRANCH   1  17
ATOM     17  C   UNL d   1      -6.988   1.487   1.188  0.00  0.00    -0.021 A 
ATOM     18  C   UNL d   1      -6.850   2.657   0.408  0.00  0.00     0.010 A 
ATOM     19  C   UNL d   1      -6.033   3.730   0.795  0.00  0.00     0.001 A 
ATOM     20  C   UNL d   1      -5.315   3.671   1.980  0.00  0.00     0.000 A 
ATOM     21  C   UNL d   1      -5.371   2.518   2.748  0.00  0.00     0.001 A 
ATOM     22  C   UNL d   1      -6.165   1.438   2.338  0.00  0.00     0.010 A 
ENDBRANCH   1  17
BRANCH   1  23
ATOM     23  C   UNL d   1      -9.018   0.901  -0.290  0.00  0.00    -0.021 A 
ATOM     24  C   UNL d   1     -10.250   1.459   0.112  0.00  0.00     0.010 A 
ATOM     25  C   UNL d   1     -11.175   1.925  -0.827  0.00  0.00     0.001 A 
ATOM     26  C   UNL d   1     -10.876   1.893  -2.186  0.00  0.00     0.000 A 
ATOM     27  C   UNL d   1      -9.637   1.424  -2.608  0.00  0.00     0.001 A 
ATOM     28  C   UNL d   1      -8.715   0.949  -1.671  0.00  0.00     0.010 A 
ENDBRANCH   1  23
BRANCH   1  29
ATOM     29  C   UNL d   1      -8.832  -0.284   1.994  0.00  0.00    -0.021 C 
ATOM     30  C   UNL d   1      -8.734   0.152   3.330  0.00  0.00     0.010 C 
ATOM     31  C   UNL d   1      -9.470  -0.436   4.370  0.00  0.00     0.001 C 
ATOM     32  C   UNL d   1     -10.390  -1.435   4.103  0.00  0.00     0.000 C 
ATOM     33  C   UNL d   1     -10.611  -1.806   2.787  0.00  0.00     0.001 C 
ATOM     34  C   UNL d   1      -9.859  -1.225   1.759  0.00  0.00     0.010 C 
ENDBRANCH   1  29
TORSDOF 5
