REMARK  6 active torsions:
REMARK  status: ('A' for Active; 'I' for Inactive)
REMARK    1  A    between atoms: C_2  and  C_1 
REMARK    2  A    between atoms: O_6  and  C_1 
REMARK    3  A    between atoms: C_11  and  C_3 
REMARK    4  A    between atoms: N_15  and  C_3 
REMARK    5  A    between atoms: N_4  and  O_6 
REMARK    6  A    between atoms: N_8  and  C_11 
ROOT
ATOM      1  C   UNL d   1      -1.651   0.955   1.944  0.00  0.00     0.124 C 
ATOM      2  N   UNL d   1      -1.901   1.582   0.836  0.00  0.00    -0.244 N 
ATOM      3  HN  UNL d   1      -1.679   2.564   0.674  1.00  0.00     0.196 HD
ENDROOT
BRANCH   1   4
ATOM      4  C   UNL d   1      -0.923   1.741   3.058  0.00  0.00     0.349 C 
BRANCH   4   5
ATOM      5  N   UNL d   1       0.553   1.641   2.983  0.00  0.00     0.097 N 
ATOM      6  C   UNL d   1       1.067   2.219   1.724  0.00  0.00     0.283 C 
ATOM      7  C   UNL d   1       2.596   2.324   1.657  0.00  0.00     0.104 C 
ATOM      8  S   UNL d   1       3.404   0.699   1.791  0.00  0.00    -0.166 SA
ATOM      9  C   UNL d   1       2.565   0.162   3.312  0.00  0.00     0.104 C 
ATOM     10  C   UNL d   1       1.038   0.267   3.196  0.00  0.00     0.283 C 
ENDBRANCH   4   5
ENDBRANCH   1   4
BRANCH   1  11
ATOM     11  N   UNL d   1      -1.986  -0.357   2.188  0.00  0.00    -0.386 N 
ATOM     12  H   UNL d   1      -2.678  -0.734   1.552  0.00  0.00     0.157 HD
ATOM     13  H   UNL d   1      -2.111  -0.630   3.156  0.00  0.00     0.157 HD
ENDBRANCH   1  11
BRANCH   2  14
ATOM     14  O   UNL d   1      -2.518   0.743  -0.122  0.00  0.00    -0.193 OA
BRANCH  14  15
ATOM     15  C   UNL d   1      -2.751   1.452  -1.284  0.00  0.00     0.322 C 
ATOM     16  O   UNL d   1      -2.497   2.642  -1.448  0.00  0.00    -0.257 OA
BRANCH  15  17
ATOM     17  C   UNL d   1      -3.374   0.624  -2.308  0.00  0.00     0.082 A 
ATOM     18  S   UNL d   1      -3.586  -1.070  -2.158  0.00  0.00    -0.096 SA
ATOM     19  C   UNL d   1      -4.316  -1.190  -3.702  0.00  0.00     0.050 A 
ATOM     20  C   UNL d   1      -4.405   0.033  -4.327  0.00  0.00     0.009 A 
ATOM     21  C   UNL d   1      -3.855   1.073  -3.528  0.00  0.00     0.026 A 
ENDBRANCH  15  17
ENDBRANCH  14  15
ENDBRANCH   2  14
TORSDOF 6
