REMARK  6 active torsions:
REMARK  status: ('A' for Active; 'I' for Inactive)
REMARK    1  A    between atoms: C_6  and  C_4 
REMARK    2  A    between atoms: C_5  and  C_10 
REMARK    3  A    between atoms: C_11  and  C_6 
REMARK    4  A    between atoms: C_7  and  O_14 
REMARK    5  A    between atoms: C_12  and  C_7 
REMARK       I    between atoms: N_15  and  C_11 
REMARK    6  A    between atoms: O_14  and  N_15 
ROOT
ATOM      1  C   UNL d   1       2.418   0.406   2.952  0.00  0.00     0.243 C 
ATOM      2  N   UNL d   1       3.578   0.831   2.358  0.00  0.00    -0.225 N 
ATOM      3  O   UNL d   1       2.120   0.600   4.126  0.00  0.00    -0.271 OA
ATOM      4  H   UNL d   1       3.671   0.975   1.354  0.00  0.00     0.198 HD
ENDROOT
BRANCH   1   5
ATOM      5  C   UNL d   1       1.523  -0.386   2.027  0.00  0.00     0.130 C 
BRANCH   5   6
ATOM      6  C   UNL d   1       1.715  -1.888   2.249  0.00  0.00     0.153 C 
ATOM      7  C   UNL d   1       3.132  -2.329   1.895  0.00  0.00     0.236 C 
ATOM      8  N   UNL d   1       3.491  -2.370   0.575  0.00  0.00    -0.325 N 
ATOM      9  O   UNL d   1       3.992  -2.511   2.758  0.00  0.00    -0.272 OA
ATOM     10  C   UNL d   1       2.610  -2.361  -0.517  0.00  0.00     0.051 A 
ATOM     11  H   UNL d   1       4.482  -2.501   0.407  0.00  0.00     0.169 HD
ATOM     12  C   UNL d   1       1.228  -2.553  -0.358  0.00  0.00     0.028 A 
ATOM     13  C   UNL d   1       3.149  -2.179  -1.793  0.00  0.00     0.031 A 
ATOM     14  S   UNL d   1       0.500  -2.821   1.248  0.00  0.00    -0.113 SA
ATOM     15  C   UNL d   1       0.400  -2.563  -1.485  0.00  0.00     0.021 A 
ATOM     16  C   UNL d   1       0.939  -2.354  -2.755  0.00  0.00     0.002 A 
ATOM     17  C   UNL d   1       2.311  -2.157  -2.908  0.00  0.00     0.002 A 
ENDBRANCH   5   6
ENDBRANCH   1   5
BRANCH   2  18
ATOM     18  O   UNL d   1       4.393   1.671   3.159  0.00  0.00    -0.192 OA
BRANCH  18  19
ATOM     19  C   UNL d   1       5.132   2.519   2.391  0.00  0.00     0.315 C 
ATOM     20  O   UNL d   1       5.066   2.580   1.171  0.00  0.00    -0.257 OA
BRANCH  19  21
ATOM     21  C   UNL d   1       6.087   3.301   3.219  0.00  0.00     0.042 A 
ATOM     22  C   UNL d   1       7.119   3.990   2.564  0.00  0.00     0.034 A 
ATOM     23  C   UNL d   1       8.083   4.702   3.293  0.00  0.00     0.048 A 
ATOM     24  C   UNL d   1       7.987   4.732   4.694  0.00  0.00     0.016 A 
ATOM     25  C   UNL d   1       6.951   4.063   5.350  0.00  0.00     0.002 A 
ATOM     26  C   UNL d   1       6.004   3.346   4.617  0.00  0.00     0.018 A 
BRANCH  23  27
ATOM     27  C   UNL d   1       9.226   5.408   2.603  0.00  0.00     0.417 C 
ATOM     28  F   UNL d   1       9.184   5.311   1.245  0.00  0.00    -0.166 F 
ATOM     29  F   UNL d   1       9.263   6.739   2.882  0.00  0.00    -0.166 F 
ATOM     30  F   UNL d   1      10.439   4.913   2.974  0.00  0.00    -0.166 F 
ENDBRANCH  23  27
ENDBRANCH  19  21
ENDBRANCH  18  19
ENDBRANCH   2  18
TORSDOF 6
