REMARK  5 active torsions:
REMARK  status: ('A' for Active; 'I' for Inactive)
REMARK    1  A    between atoms: C_12  and  C_3 
REMARK    2  A    between atoms: C_11  and  C_4 
REMARK    3  A    between atoms: C_5  and  C_7 
REMARK    4  A    between atoms: C_13  and  O_16 
REMARK    5  A    between atoms: O_16  and  C_22 
ROOT
ATOM      1  C   UNL d   1      -0.095  -2.573  -0.076  0.00  0.00    -0.002 A 
ATOM      2  C   UNL d   1       0.459  -3.332   0.965  0.00  0.00     0.017 A 
ATOM      3  C   UNL d   1      -0.828  -3.243  -1.070  0.00  0.00     0.017 A 
ATOM      4  C   UNL d   1      -0.411  -5.377   0.000  0.00  0.00     0.077 A 
ATOM      5  C   UNL d   1       0.281  -4.716   1.019  0.00  0.00     0.038 A 
ATOM      6  C   UNL d   1      -0.987  -4.634  -1.029  0.00  0.00     0.038 A 
ENDROOT
BRANCH   4   7
ATOM      7  O   UNL d   1      -0.623  -6.739  -0.032  0.00  0.00    -0.294 OA
BRANCH   7   8
ATOM      8  C   UNL d   1       0.361  -7.560   0.500  0.00  0.00     0.147 A 
ATOM      9  N   UNL d   1       1.660  -7.203   0.386  0.00  0.00    -0.346 N 
ATOM     10  C   UNL d   1       2.571  -7.980   1.010  0.00  0.00     0.106 A 
ATOM     11  HN  UNL d   1       1.940  -6.381  -0.149  1.00  0.00     0.167 HD
ATOM     12  C   UNL d   1       2.248  -9.123   1.726  0.00  0.00     0.063 A 
ATOM     13  C   UNL d   1       0.903  -9.509   1.759  0.00  0.00     0.022 A 
ATOM     14  C   UNL d   1      -0.060  -8.718   1.133  0.00  0.00     0.057 A 
BRANCH  12  15
ATOM     15  C   UNL d   1       3.309  -9.888   2.455  0.00  0.00     0.418 C 
ATOM     16  F   UNL d   1       4.547  -9.329   2.361  0.00  0.00    -0.166 F 
ATOM     17  F   UNL d   1       3.047  -9.986   3.788  0.00  0.00    -0.166 F 
ATOM     18  F   UNL d   1       3.438 -11.164   2.004  0.00  0.00    -0.166 F 
ENDBRANCH  12  15
ENDBRANCH   7   8
ENDBRANCH   4   7
BRANCH   1  19
ATOM     19  C   UNL d   1       0.135  -1.121  -0.091  0.00  0.00     0.084 A 
ATOM     20  N   UNL d   1       1.225  -0.541   0.371  0.00  0.00    -0.352 N 
ATOM     21  C   UNL d   1       1.156   0.840   0.237  0.00  0.00     0.024 A 
ATOM     22  HN  UNL d   1       2.017  -1.041   0.776  1.00  0.00     0.166 HD
ATOM     23  C   UNL d   1      -0.039   1.287  -0.297  0.00  0.00     0.077 A 
ATOM     24  S   UNL d   1      -1.065  -0.029  -0.666  0.00  0.00    -0.081 SA
BRANCH  21  25
ATOM     25  C   UNL d   1       2.340   1.697   0.663  0.00  0.00    -0.008 C 
ATOM     26  C   UNL d   1       3.506   0.835   1.188  0.00  0.00     0.021 C 
ATOM     27  C   UNL d   1       2.857   2.514  -0.539  0.00  0.00     0.021 C 
ATOM     28  C   UNL d   1       1.920   2.665   1.786  0.00  0.00     0.021 C 
ENDBRANCH  21  25
ENDBRANCH   1  19
TORSDOF 5
