REMARK  3 active torsions:
REMARK  status: ('A' for Active; 'I' for Inactive)
REMARK    1  A    between atoms: S_6  and  C_1 
REMARK    2  A    between atoms: C_9  and  S_6 
REMARK    3  A    between atoms: N_13  and  C_10 
ROOT
ATOM      1  C   UNL d   1       2.756  -1.277  -0.029  0.00  0.00     0.118 A 
ATOM      2  N   UNL d   1       2.155  -0.928   1.085  0.00  0.00    -0.344 N 
ATOM      3  HN  UNL d   1       2.504  -1.117   2.024  1.00  0.00     0.167 HD
ATOM      4  S   UNL d   1       1.960  -0.849  -1.482  0.00  0.00    -0.063 SA
ATOM      5  C   UNL d   1       0.975  -0.264   0.792  0.00  0.00     0.052 A 
ATOM      6  C   UNL d   1       0.694  -0.119  -0.569  0.00  0.00     0.034 A 
ATOM      7  C   UNL d   1       0.071   0.265   1.735  0.00  0.00     0.054 A 
ATOM      8  C   UNL d   1      -0.461   0.539  -1.024  0.00  0.00     0.023 A 
ATOM      9  C   UNL d   1      -1.078   0.919   1.289  0.00  0.00     0.036 A 
ATOM     10  C   UNL d   1      -1.344   1.057  -0.070  0.00  0.00     0.025 A 
ATOM     11 CL   UNL d   1      -2.184   1.569   2.438  0.00  0.00    -0.084 Cl
ENDROOT
BRANCH   1  12
ATOM     12  S   UNL d   1       4.320  -2.067  -0.004  0.00  0.00    -0.063 SA
BRANCH  12  13
ATOM     13  C   UNL d   1       3.757  -3.773  -0.003  0.00  0.00     0.028 A 
ATOM     14  C   UNL d   1       4.068  -4.637  -1.075  0.00  0.00     0.023 A 
ATOM     15  C   UNL d   1       3.699  -5.986  -0.982  0.00  0.00     0.024 A 
ATOM     16  C   UNL d   1       2.966  -6.458   0.109  0.00  0.00     0.002 A 
ATOM     17  C   UNL d   1       2.627  -5.593   1.145  0.00  0.00     0.001 A 
ATOM     18  C   UNL d   1       3.030  -4.259   1.095  0.00  0.00     0.021 A 
BRANCH  14  19
ATOM     19  N   UNL d   1       4.927  -4.248  -2.120  0.00  0.00    -0.302 NA
ATOM     20  H   UNL d   1       4.946  -3.243  -2.267  0.00  0.00     0.124 HD
ATOM     21  H   UNL d   1       4.807  -4.775  -2.979  0.00  0.00     0.124 HD
ENDBRANCH  14  19
ENDBRANCH  12  13
ENDBRANCH   1  12
TORSDOF 3
