REMARK  2 active torsions:
REMARK  status: ('A' for Active; 'I' for Inactive)
REMARK    1  A    between atoms: C_2  and  S_1 
REMARK    2  A    between atoms: C_3  and  S_1 
ROOT
ATOM      1  S   UNL d   1       1.005  -0.077  -0.042  0.00  0.00     0.219 S 
ATOM      2  O   UNL d   1       0.221   1.046   0.433  0.00  0.00    -0.216 OA
ATOM      3  O   UNL d   1       2.451  -0.045  -0.115  0.00  0.00    -0.216 OA
ENDROOT
BRANCH   1   4
ATOM      4  C   UNL d   1       0.436  -0.500  -1.670  0.00  0.00     0.105 A 
ATOM      5  S   UNL d   1      -1.192  -0.131  -2.043  0.00  0.00    -0.090 SA
ATOM      6  C   UNL d   1      -1.040  -0.753  -3.629  0.00  0.00     0.051 A 
ATOM      7  C   UNL d   1       0.217  -1.260  -3.867  0.00  0.00     0.009 A 
ATOM      8  C   UNL d   1       1.072  -1.111  -2.737  0.00  0.00     0.032 A 
ENDBRANCH   1   4
BRANCH   1   9
ATOM      9  C   UNL d   1       0.574  -1.450   0.997  0.00  0.00     0.105 A 
ATOM     10  S   UNL d   1       1.302  -2.953   0.618  0.00  0.00    -0.090 SA
ATOM     11  C   UNL d   1       0.526  -3.735   1.926  0.00  0.00     0.051 A 
ATOM     12  C   UNL d   1      -0.276  -2.872   2.641  0.00  0.00     0.009 A 
ATOM     13  C   UNL d   1      -0.254  -1.554   2.100  0.00  0.00     0.032 A 
ENDBRANCH   1   9
TORSDOF 2
