REMARK  5 active torsions:
REMARK  status: ('A' for Active; 'I' for Inactive)
REMARK    1  A    between atoms: S_13  and  C_1 
REMARK    2  A    between atoms: C_5  and  C_3 
REMARK       I    between atoms: N_8  and  C_11 
REMARK    3  A    between atoms: C_9  and  N_8 
REMARK    4  A    between atoms: C_11  and  C_19 
REMARK    5  A    between atoms: C_19  and  S_13 
ROOT
ATOM      1  C   UNL d   1      -1.350  -0.667   0.701  0.00  0.00     0.041 C 
ATOM      2  S   UNL d   1      -1.206   1.050   0.563  0.00  0.00    -0.113 SA
ATOM      3  C   UNL d   1       0.494   1.355   0.013  0.00  0.00     0.095 C 
ATOM      4  C   UNL d   1      -0.372  -1.531   0.414  0.00  0.00     0.075 C 
ATOM      5  C   UNL d   1       0.991  -1.173  -0.011  0.00  0.00     0.152 C 
ATOM      6  C   UNL d   1       1.506   0.228   0.174  0.00  0.00     0.103 C 
ATOM      7  O   UNL d   1       1.741  -2.076  -0.386  0.00  0.00    -0.293 OA
ENDROOT
BRANCH   1   8
ATOM      8  S   UNL d   1      -2.845  -1.327   1.357  0.00  0.00    -0.114 SA
BRANCH   8   9
ATOM      9  C   UNL d   1      -4.070  -0.679   0.184  0.00  0.00     0.183 C 
BRANCH   9  10
ATOM     10  C   UNL d   1      -5.511  -1.081   0.467  0.00  0.00     0.231 C 
ATOM     11  N   UNL d   1      -5.730  -2.025   1.449  0.00  0.00    -0.325 N 
ATOM     12  H   UNL d   1      -4.996  -2.129   2.147  0.00  0.00     0.169 HD
ATOM     13  O   UNL d   1      -6.417  -0.556  -0.190  0.00  0.00    -0.272 OA
BRANCH  11  14
ATOM     14  C   UNL d   1      -6.979  -2.623   1.744  0.00  0.00     0.056 A 
ATOM     15  C   UNL d   1      -7.245  -3.085   3.044  0.00  0.00     0.062 A 
ATOM     16  C   UNL d   1      -8.473  -3.676   3.360  0.00  0.00     0.050 A 
ATOM     17 CL   UNL d   1      -6.086  -2.885   4.313  0.00  0.00    -0.082 Cl
ATOM     18  C   UNL d   1      -9.430  -3.843   2.363  0.00  0.00     0.035 A 
ATOM     19  C   UNL d   1      -9.174  -3.421   1.061  0.00  0.00     0.026 A 
ATOM     20 CL   UNL d   1     -10.938  -4.582   2.737  0.00  0.00    -0.084 Cl
ATOM     21  C   UNL d   1      -7.955  -2.807   0.756  0.00  0.00     0.033 A 
ENDBRANCH  11  14
ENDBRANCH   9  10
ENDBRANCH   8   9
ENDBRANCH   1   8
BRANCH   3  22
ATOM     22  C   UNL d   1       0.540   2.147  -1.294  0.00  0.00    -0.022 A 
ATOM     23  C   UNL d   1       0.497   1.600  -2.587  0.00  0.00     0.041 A 
ATOM     24 CL   UNL d   1       0.292  -0.083  -2.891  0.00  0.00    -0.084 Cl
ATOM     25  C   UNL d   1       0.589   2.425  -3.719  0.00  0.00     0.024 A 
ATOM     26  C   UNL d   1       0.690   3.808  -3.588  0.00  0.00     0.002 A 
ATOM     27  C   UNL d   1       0.693   4.376  -2.322  0.00  0.00     0.001 A 
ATOM     28  C   UNL d   1       0.620   3.557  -1.192  0.00  0.00     0.010 A 
ENDBRANCH   3  22
TORSDOF 5
