REMARK  2 active torsions:
REMARK  status: ('A' for Active; 'I' for Inactive)
REMARK    1  A    between atoms: C_13  and  C_3 
REMARK    2  A    between atoms: N_14  and  C_5 
ROOT
ATOM      1  C   UNL d   1       0.108   0.517   0.004  0.00  0.00     0.029 A 
ATOM      2  C   UNL d   1      -0.144  -0.803   0.024  0.00  0.00     0.061 A 
ATOM      3  C   UNL d   1      -1.062   1.335   0.054  0.00  0.00     0.016 A 
ATOM      4  C   UNL d   1      -2.182   0.487   0.126  0.00  0.00     0.098 A 
ATOM      5  C   UNL d   1       1.494   0.808  -0.053  0.00  0.00     0.067 A 
ATOM      6  C   UNL d   1       2.229  -0.377  -0.018  0.00  0.00     0.113 A 
ATOM      7  S   UNL d   1      -1.761  -1.192   0.071  0.00  0.00    -0.070 SA
ATOM      8  S   UNL d   1       1.212  -1.774   0.009  0.00  0.00    -0.069 SA
ATOM      9  C   UNL d   1      -3.560   0.867   0.248  0.00  0.00     0.108 C 
ATOM     10  C   UNL d   1       3.654  -0.493  -0.020  0.00  0.00     0.109 C 
ATOM     11  N   UNL d   1      -4.675   1.175   0.322  0.00  0.00    -0.191 NA
ATOM     12  N   UNL d   1       4.810  -0.573  -0.022  0.00  0.00    -0.191 NA
ENDROOT
BRANCH   3  13
ATOM     13  C   UNL d   1      -1.208   2.796   0.124  0.00  0.00    -0.023 A 
ATOM     14  C   UNL d   1      -2.146   3.470  -0.678  0.00  0.00     0.014 A 
ATOM     15  C   UNL d   1      -2.364   4.845  -0.531  0.00  0.00     0.024 A 
ATOM     16  C   UNL d   1      -1.608   5.570   0.384  0.00  0.00     0.034 A 
ATOM     17  C   UNL d   1      -0.644   4.930   1.158  0.00  0.00     0.024 A 
ATOM     18 CL   UNL d   1      -1.873   7.259   0.566  0.00  0.00    -0.084 Cl
ATOM     19  C   UNL d   1      -0.461   3.546   1.044  0.00  0.00     0.014 A 
ENDBRANCH   3  13
BRANCH   5  20
ATOM     20  N   UNL d   1       2.056   2.036  -0.128  0.00  0.00    -0.397 N 
ATOM     21  H   UNL d   1       1.524   2.850  -0.428  0.00  0.00     0.156 HD
ATOM     22  H   UNL d   1       3.059   2.172  -0.254  0.00  0.00     0.156 HD
ENDBRANCH   5  20
TORSDOF 2
