REMARK  5 active torsions:
REMARK  status: ('A' for Active; 'I' for Inactive)
REMARK    1  A    between atoms: C_10  and  C_3 
REMARK    2  A    between atoms: N_14  and  C_10 
REMARK    3  A    between atoms: C_12  and  C_13 
REMARK    4  A    between atoms: C_13  and  O_17 
REMARK    5  A    between atoms: O_17  and  N_14 
ROOT
ATOM      1  C   UNL d   1       2.016  -2.561   0.012  0.00  0.00     0.135 C 
ATOM      2  N   UNL d   1       1.628  -1.280   0.276  0.00  0.00    -0.383 N 
ATOM      3  H   UNL d   1       2.327  -0.559   0.097  0.00  0.00     0.157 HD
ATOM      4  H   UNL d   1       0.689  -1.053  -0.021  0.00  0.00     0.157 HD
ENDROOT
BRANCH   1   5
ATOM      5  C   UNL d   1       3.454  -2.756  -0.062  0.00  0.00     0.072 A 
ATOM      6  C   UNL d   1       4.461  -1.810   0.064  0.00  0.00     0.142 A 
ATOM      7  N   UNL d   1       5.679  -2.497  -0.065  0.00  0.00    -0.244 N 
ATOM      8  N   UNL d   1       4.409  -0.455   0.281  0.00  0.00    -0.344 N 
ATOM      9  N   UNL d   1       5.478  -3.819  -0.295  0.00  0.00    -0.302 N 
ATOM     10  C   UNL d   1       6.902  -1.814   0.044  0.00  0.00     0.034 A 
ATOM     11  C   UNL d   1       4.152  -3.962  -0.285  0.00  0.00     0.127 A 
ATOM     12  HN  UNL d   1       6.183  -4.541  -0.442  1.00  0.00     0.186 HD
ATOM     13  C   UNL d   1       8.191  -2.563  -0.102  0.00  0.00     0.070 C 
ATOM     14  C   UNL d   1       6.891  -0.490   0.282  0.00  0.00     0.051 A 
ATOM     15  C   UNL d   1       5.551   0.160   0.399  0.00  0.00     0.009 A 
ATOM     16  C   UNL d   1       5.529   1.644   0.664  0.00  0.00     0.068 C 
ATOM     17  HN  UNL d   1       3.522   0.044   0.347  1.00  0.00     0.167 HD
ENDBRANCH   1   5
BRANCH   1  18
ATOM     18  N   UNL d   1       1.252  -3.585  -0.185  0.00  0.00    -0.241 N 
ATOM     19  HN  UNL d   1       1.588  -4.523  -0.405  1.00  0.00     0.196 HD
BRANCH  18  20
ATOM     20  O   UNL d   1      -0.114  -3.234  -0.055  0.00  0.00    -0.193 OA
BRANCH  20  21
ATOM     21  C   UNL d   1      -0.893  -4.339  -0.254  0.00  0.00     0.318 C 
ATOM     22  O   UNL d   1      -0.510  -5.463  -0.554  0.00  0.00    -0.257 OA
BRANCH  21  23
ATOM     23  C   UNL d   1      -2.338  -4.046  -0.064  0.00  0.00     0.080 A 
ATOM     24  C   UNL d   1      -2.844  -2.796   0.293  0.00  0.00     0.132 A 
ATOM     25  F   UNL d   1      -2.040  -1.738   0.479  0.00  0.00    -0.205 F 
ATOM     26  C   UNL d   1      -4.218  -2.603   0.466  0.00  0.00     0.043 A 
ATOM     27  C   UNL d   1      -5.106  -3.663   0.279  0.00  0.00     0.003 A 
ATOM     28  C   UNL d   1      -4.619  -4.916  -0.081  0.00  0.00     0.001 A 
ATOM     29  C   UNL d   1      -3.245  -5.107  -0.250  0.00  0.00     0.021 A 
ENDBRANCH  21  23
ENDBRANCH  20  21
ENDBRANCH  18  20
ENDBRANCH   1  18
TORSDOF 5
