REMARK  4 active torsions:
REMARK  status: ('A' for Active; 'I' for Inactive)
REMARK    1  A    between atoms: C_9  and  C_5 
REMARK    2  A    between atoms: C_6  and  O_10 
REMARK    3  A    between atoms: C_12  and  C_9 
REMARK    4  A    between atoms: O_10  and  C_13 
ROOT
ATOM      1  C   UNL d   1       0.667   3.394   1.358  0.00  0.00    -0.056 A 
ATOM      2  C   UNL d   1      -0.509   5.930   1.503  0.00  0.00     0.079 A 
ATOM      3  C   UNL d   1      -0.721   3.529   1.516  0.00  0.00     0.010 A 
ATOM      4  C   UNL d   1       1.463   4.548   1.341  0.00  0.00     0.010 A 
ATOM      5  C   UNL d   1       0.878   5.814   1.415  0.00  0.00     0.038 A 
ATOM      6  C   UNL d   1      -1.308   4.793   1.591  0.00  0.00     0.038 A 
ENDROOT
BRANCH   1   7
ATOM      7  C   UNL d   1       1.294   2.030   1.183  0.00  0.00     0.063 C 
BRANCH   7   8
ATOM      8  C   UNL d   1       0.767   1.269  -0.038  0.00  0.00     0.153 A 
ATOM      9  C   UNL d   1       1.138   1.933  -1.352  0.00  0.00     0.239 A 
ATOM     10  N   UNL d   1       1.996   1.175  -2.089  0.00  0.00    -0.287 N 
ATOM     11  O   UNL d   1       0.723   3.014  -1.747  0.00  0.00    -0.272 OA
ATOM     12  C   UNL d   1       2.318  -0.060  -1.651  0.00  0.00     0.287 A 
ATOM     13  H   UNL d   1       2.309   1.493  -2.993  0.00  0.00     0.172 HD
ATOM     14  S   UNL d   1       1.554  -0.383  -0.118  0.00  0.00    -0.054 SA
ATOM     15  O   UNL d   1       3.033  -0.855  -2.236  0.00  0.00    -0.260 OA
ENDBRANCH   7   8
ENDBRANCH   1   7
BRANCH   2  16
ATOM     16  O   UNL d   1      -1.024   7.240   1.559  0.00  0.00    -0.279 OA
BRANCH  16  17
ATOM     17  C   UNL d   1      -2.231   7.556   0.936  0.00  0.00     0.260 C 
ATOM     18  O   UNL d   1      -2.969   6.796   0.324  0.00  0.00    -0.265 OA
ATOM     19  C   UNL d   1      -2.530   9.013   1.135  0.00  0.00     0.126 C 
ENDBRANCH  16  17
ENDBRANCH   2  16
TORSDOF 4
