REMARK  7 active torsions:
REMARK  status: ('A' for Active; 'I' for Inactive)
REMARK    1  A    between atoms: S_6  and  C_1 
REMARK       I    between atoms: C_2  and  N_4 
REMARK    2  A    between atoms: C_7  and  C_2 
REMARK    3  A    between atoms: C_3  and  C_15 
REMARK       I    between atoms: N_5  and  C_3 
REMARK    4  A    between atoms: N_4  and  N_5 
REMARK    5  A    between atoms: C_17  and  S_6 
REMARK    6  A    between atoms: C_15  and  O_16 
REMARK    7  A    between atoms: O_16  and  C_18 
ROOT
ATOM      1  C   UNL d   1       2.423  -2.422   8.708  0.00  0.00     0.260 C 
ATOM      2  N   UNL d   1       2.297  -3.771   8.440  0.00  0.00    -0.265 N 
ATOM      3  O   UNL d   1       2.780  -2.004   9.810  0.00  0.00    -0.269 OA
ATOM      4  H   UNL d   1       2.034  -4.157   7.534  0.00  0.00     0.190 HD
ENDROOT
BRANCH   1   5
ATOM      5  C   UNL d   1       2.121  -1.504   7.528  0.00  0.00     0.280 C 
BRANCH   5   6
ATOM      6  O   UNL d   1       0.728  -1.231   7.466  0.00  0.00    -0.342 OA
BRANCH   6   7
ATOM      7  C   UNL d   1       0.326  -0.271   6.576  0.00  0.00     0.069 A 
ATOM      8  C   UNL d   1      -1.022   0.086   6.661  0.00  0.00     0.038 A 
ATOM      9  C   UNL d   1      -1.562   1.065   5.818  0.00  0.00     0.021 A 
ATOM     10  C   UNL d   1      -0.758   1.692   4.863  0.00  0.00     0.009 A 
ATOM     11  C   UNL d   1       0.592   1.336   4.780  0.00  0.00     0.021 A 
ATOM     12  C   UNL d   1       1.130   0.357   5.625  0.00  0.00     0.038 A 
BRANCH  10  13
ATOM     13  S   UNL d   1      -1.371   3.004   3.828  0.00  0.00    -0.016 SA
BRANCH  13  14
ATOM     14  C   UNL d   1      -2.604   2.147   2.837  0.00  0.00     0.448 C 
ATOM     15  F   UNL d   1      -2.718   0.829   3.121  0.00  0.00    -0.160 F 
ATOM     16  F   UNL d   1      -2.309   2.246   1.518  0.00  0.00    -0.160 F 
ATOM     17  F   UNL d   1      -3.829   2.701   3.012  0.00  0.00    -0.160 F 
ENDBRANCH  13  14
ENDBRANCH  10  13
ENDBRANCH   6   7
ENDBRANCH   5   6
ENDBRANCH   1   5
BRANCH   2  18
ATOM     18  N   UNL d   1       2.703  -4.683   9.422  0.00  0.00    -0.263 N 
ATOM     19  C   UNL d   1       2.663  -6.030   9.127  0.00  0.00     0.270 C 
ATOM     20  O   UNL d   1       2.274  -6.463   8.045  0.00  0.00    -0.266 OA
ATOM     21  H   UNL d   1       2.882  -4.299  10.349  0.00  0.00     0.190 HD
BRANCH  19  22
ATOM     22  C   UNL d   1       3.109  -6.957  10.202  0.00  0.00     0.033 A 
ATOM     23  C   UNL d   1       2.547  -8.242  10.253  0.00  0.00     0.019 A 
ATOM     24  C   UNL d   1       2.967  -9.155  11.223  0.00  0.00     0.025 A 
ATOM     25  C   UNL d   1       3.956  -8.793  12.134  0.00  0.00     0.034 A 
ATOM     26  C   UNL d   1       4.528  -7.521  12.087  0.00  0.00     0.025 A 
ATOM     27 CL   UNL d   1       4.490  -9.925  13.315  0.00  0.00    -0.084 Cl
ATOM     28  C   UNL d   1       4.106  -6.601  11.121  0.00  0.00     0.019 A 
ENDBRANCH  19  22
ENDBRANCH   2  18
TORSDOF 7
