REMARK  9 active torsions:
REMARK  status: ('A' for Active; 'I' for Inactive)
REMARK    1  A    between atoms: S_4  and  C_1 
REMARK    2  A    between atoms: N_7  and  C_2 
REMARK    3  A    between atoms: C_11  and  C_3 
REMARK    4  A    between atoms: C_17  and  S_4 
REMARK    5  A    between atoms: S_18  and  C_5 
REMARK    6  A    between atoms: N_9  and  N_7 
REMARK    7  A    between atoms: C_12  and  C_8 
REMARK    8  A    between atoms: O_22  and  C_11 
REMARK    9  A    between atoms: C_21  and  C_12 
ROOT
ATOM      1  C   UNL d   1       2.645   5.139   0.964  0.00  0.00     0.179 C 
ATOM      2  N   UNL d   1       1.543   4.728   0.400  0.00  0.00    -0.287 N 
ATOM      3  HN  UNL d   1       0.900   5.411  -0.001  1.00  0.00     0.188 HD
ATOM      4  C   UNL d   1       3.536   4.164   1.542  0.00  0.00     0.123 C 
ATOM      5  N   UNL d   1       4.238   3.356   2.001  0.00  0.00    -0.190 NA
ENDROOT
BRANCH   1   6
ATOM      6  C   UNL d   1       2.979   6.605   0.974  0.00  0.00     0.220 C 
ATOM      7  O   UNL d   1       2.881   7.238  -0.071  0.00  0.00    -0.284 OA
BRANCH   6   8
ATOM      8  C   UNL d   1       3.538   7.222   2.201  0.00  0.00     0.017 A 
ATOM      9  C   UNL d   1       4.477   8.252   2.055  0.00  0.00     0.015 A 
ATOM     10  C   UNL d   1       5.094   8.800   3.180  0.00  0.00     0.001 A 
ATOM     11  C   UNL d   1       4.767   8.331   4.451  0.00  0.00     0.000 A 
ATOM     12  C   UNL d   1       3.808   7.328   4.601  0.00  0.00     0.001 A 
ATOM     13  C   UNL d   1       3.186   6.775   3.479  0.00  0.00     0.015 A 
ENDBRANCH   6   8
ENDBRANCH   1   6
BRANCH   2  14
ATOM     14  N   UNL d   1       1.235   3.409   0.338  0.00  0.00    -0.297 N 
ATOM     15  H   UNL d   1       2.004   2.723   0.388  0.00  0.00     0.187 HD
BRANCH  14  16
ATOM     16  C   UNL d   1      -0.021   2.897   0.154  0.00  0.00     0.094 A 
ATOM     17  C   UNL d   1      -1.288   3.615   0.032  0.00  0.00     0.112 A 
ATOM     18  C   UNL d   1      -2.349   2.729  -0.117  0.00  0.00     0.065 A 
ATOM     19  S   UNL d   1      -1.828   1.102  -0.142  0.00  0.00    -0.073 SA
ATOM     20  C   UNL d   1      -0.194   1.515   0.103  0.00  0.00     0.111 A 
BRANCH  17  21
ATOM     21  S   UNL d   1      -1.460   5.358   0.119  0.00  0.00     0.183 S 
ATOM     22  O   UNL d   1      -2.874   5.646  -0.019  0.00  0.00    -0.222 OA
ATOM     23  O   UNL d   1      -0.789   5.734   1.350  0.00  0.00    -0.222 OA
BRANCH  21  24
ATOM     24  C   UNL d   1      -0.648   6.076  -1.315  0.00  0.00     0.105 C 
ATOM     25  C   UNL d   1      -1.187   5.508  -2.624  0.00  0.00     0.026 C 
ATOM     26  C   UNL d   1      -0.841   7.594  -1.278  0.00  0.00     0.026 C 
ENDBRANCH  21  24
ENDBRANCH  17  21
BRANCH  18  27
ATOM     27  S   UNL d   1      -4.086   2.980  -0.312  0.00  0.00    -0.126 SA
ATOM     28  C   UNL d   1      -4.564   3.387   1.386  0.00  0.00     0.096 C 
ENDBRANCH  18  27
BRANCH  20  29
ATOM     29  C   UNL d   1       0.745   0.405   0.237  0.00  0.00     0.302 C 
ATOM     30  O   UNL d   1       0.461  -0.787   0.215  0.00  0.00    -0.259 OA
BRANCH  29  31
ATOM     31  O   UNL d   1       2.020   0.870   0.425  0.00  0.00    -0.322 OA
ATOM     32  C   UNL d   1       3.007  -0.142   0.668  0.00  0.00     0.213 C 
ENDBRANCH  29  31
ENDBRANCH  20  29
ENDBRANCH  14  16
ENDBRANCH   2  14
TORSDOF 9
