REMARK  4 active torsions:
REMARK  status: ('A' for Active; 'I' for Inactive)
REMARK    1  A    between atoms: C_6  and  C_1 
REMARK    2  A    between atoms: C_9  and  N_2 
REMARK       I    between atoms: N_8  and  C_6 
REMARK    3  A    between atoms: C_10  and  C_14 
REMARK    4  A    between atoms: O_25  and  C_15 
ROOT
ATOM      1  C   UNL d   1      -1.041   2.446  -0.278  0.00  0.00     0.257 C 
ATOM      2  N   UNL d   1      -0.358   3.680  -0.290  0.00  0.00    -0.348 N 
ATOM      3  O   UNL d   1      -1.963   2.263   0.517  0.00  0.00    -0.267 OA
ATOM      4  C   UNL d   1      -0.530   4.464   0.939  0.00  0.00     0.127 C 
ATOM      5  C   UNL d   1       0.868   3.927  -1.028  0.00  0.00     0.127 C 
ATOM      6  C   UNL d   1       1.145   6.229   0.007  0.00  0.00     0.024 C 
ATOM      7  C   UNL d   1      -0.071   5.921   0.890  0.00  0.00     0.029 C 
ATOM      8  C   UNL d   1       1.075   5.413  -1.289  0.00  0.00     0.029 C 
ENDROOT
BRANCH   1   9
ATOM      9  C   UNL d   1      -0.607   1.306  -1.089  0.00  0.00     0.073 C 
ATOM     10  C   UNL d   1      -0.281   1.137  -2.433  0.00  0.00     0.048 C 
ATOM     11  N   UNL d   1      -0.008  -0.225  -2.601  0.00  0.00    -0.260 N 
ATOM     12  C   UNL d   1      -0.381   2.073  -3.588  0.00  0.00     0.071 C 
ATOM     13  N   UNL d   1      -0.327  -0.937  -1.500  0.00  0.00    -0.304 N 
ATOM     14  C   UNL d   1      -0.651  -0.019  -0.593  0.00  0.00     0.126 C 
ATOM     15  HN  UNL d   1      -0.322  -1.950  -1.388  1.00  0.00     0.186 HD
BRANCH  11  16
ATOM     16  C   UNL d   1       0.466  -0.911  -3.753  0.00  0.00     0.056 A 
ATOM     17  C   UNL d   1       1.369  -0.310  -4.641  0.00  0.00     0.034 A 
ATOM     18  C   UNL d   1       1.777  -0.996  -5.787  0.00  0.00     0.044 A 
ATOM     19  C   UNL d   1       1.280  -2.270  -6.043  0.00  0.00     0.116 A 
ATOM     20  C   UNL d   1       0.411  -2.891  -5.155  0.00  0.00     0.044 A 
ATOM     21  F   UNL d   1       1.649  -2.908  -7.162  0.00  0.00    -0.206 F 
ATOM     22  C   UNL d   1       0.020  -2.221  -3.995  0.00  0.00     0.034 A 
ENDBRANCH  11  16
ENDBRANCH   1   9
BRANCH   6  23
ATOM     23  C   UNL d   1       2.522   6.125   0.652  0.00  0.00    -0.021 A 
ATOM     24  C   UNL d   1       3.511   7.105   0.428  0.00  0.00     0.074 A 
ATOM     25  C   UNL d   1       4.785   6.990   0.996  0.00  0.00     0.037 A 
ATOM     26  C   UNL d   1       5.110   5.884   1.777  0.00  0.00     0.003 A 
ATOM     27  C   UNL d   1       4.152   4.906   2.012  0.00  0.00     0.001 A 
ATOM     28  C   UNL d   1       2.873   5.029   1.461  0.00  0.00     0.010 A 
BRANCH  24  29
ATOM     29  O   UNL d   1       3.258   8.283  -0.230  0.00  0.00    -0.355 OA
ATOM     30  C   UNL d   1       3.178   8.136  -1.646  0.00  0.00     0.210 C 
ENDBRANCH  24  29
ENDBRANCH   6  23
TORSDOF 4
