REMARK  4 active torsions:
REMARK  status: ('A' for Active; 'I' for Inactive)
REMARK    1  A    between atoms: C_2  and  C_1 
REMARK       I    between atoms: N_6  and  C_2 
REMARK    2  A    between atoms: S_4  and  C_3 
REMARK    3  A    between atoms: C_7  and  S_4 
REMARK    4  A    between atoms: C_9  and  C_7 
ROOT
ATOM      1  C   UNL d   1       1.027  -0.419   0.846  0.00  0.00     0.048 A 
ATOM      2  C   UNL d   1       0.640  -1.384  -0.103  0.00  0.00     0.016 A 
ATOM      3  C   UNL d   1       0.678   0.931   0.647  0.00  0.00     0.018 A 
ATOM      4  C   UNL d   1      -0.129  -0.973  -1.208  0.00  0.00     0.019 A 
ATOM      5  C   UNL d   1      -0.075   1.321  -0.459  0.00  0.00     0.001 A 
ATOM      6  C   UNL d   1      -0.484   0.368  -1.383  0.00  0.00     0.001 A 
ENDROOT
BRANCH   2   7
ATOM      7  S   UNL d   1       1.041  -3.133  -0.050  0.00  0.00    -0.124 SA
BRANCH   7   8
ATOM      8  C   UNL d   1       2.851  -3.044  -0.280  0.00  0.00     0.117 C 
BRANCH   8   9
ATOM      9  C   UNL d   1       3.451  -4.413  -0.493  0.00  0.00    -0.049 A 
ATOM     10  C   UNL d   1       3.581  -4.938  -1.788  0.00  0.00     0.008 A 
ATOM     11  C   UNL d   1       4.156  -6.195  -1.989  0.00  0.00     0.001 A 
ATOM     12  C   UNL d   1       4.598  -6.943  -0.900  0.00  0.00     0.000 A 
ATOM     13  C   UNL d   1       4.458  -6.440   0.393  0.00  0.00     0.001 A 
ATOM     14  C   UNL d   1       3.884  -5.184   0.596  0.00  0.00     0.008 A 
ENDBRANCH   8   9
ENDBRANCH   7   8
ENDBRANCH   2   7
BRANCH   1  15
ATOM     15  C   UNL d   1       1.783  -0.702   2.095  0.00  0.00     0.250 C 
ATOM     16  O   UNL d   1       2.584   0.105   2.553  0.00  0.00    -0.268 OA
ATOM     17  N   UNL d   1       1.521  -1.871   2.744  0.00  0.00    -0.366 N 
ATOM     18  H   UNL d   1       0.891  -2.572   2.372  0.00  0.00     0.159 HD
ATOM     19  H   UNL d   1       2.023  -2.067   3.600  0.00  0.00     0.159 HD
ENDBRANCH   1  15
TORSDOF 4
