REMARK  4 active torsions:
REMARK  status: ('A' for Active; 'I' for Inactive)
REMARK    1  A    between atoms: S_10  and  C_1 
REMARK       I    between atoms: N_6  and  C_7 
REMARK    2  A    between atoms: C_8  and  N_6 
REMARK    3  A    between atoms: C_7  and  C_14 
REMARK    4  A    between atoms: C_14  and  S_10 
ROOT
ATOM      1  N   UNL d   1      -5.648  -2.773   1.040  0.00  0.00    -0.325 N 
ATOM      2  C   UNL d   1      -4.434  -3.421   0.894  0.00  0.00     0.231 C 
ATOM      3  O   UNL d   1      -4.197  -4.581   1.228  0.00  0.00    -0.272 OA
ATOM      4  H   UNL d   1      -5.760  -1.877   0.572  0.00  0.00     0.169 HD
ENDROOT
BRANCH   2   5
ATOM      5  C   UNL d   1      -3.375  -2.595   0.186  0.00  0.00     0.183 C 
BRANCH   5   6
ATOM      6  S   UNL d   1      -2.927  -1.153   1.200  0.00  0.00    -0.114 SA
BRANCH   6   7
ATOM      7  C   UNL d   1      -1.416  -0.688   0.464  0.00  0.00     0.041 C 
ATOM      8  C   UNL d   1      -0.325  -0.651   1.233  0.00  0.00     0.075 C 
ATOM      9  C   UNL d   1       1.001  -0.255   0.735  0.00  0.00     0.152 C 
ATOM     10  O   UNL d   1       1.995  -0.648   1.350  0.00  0.00    -0.293 OA
ATOM     11  C   UNL d   1       1.148   0.679  -0.444  0.00  0.00     0.103 C 
ATOM     12  C   UNL d   1      -0.090   0.969  -1.305  0.00  0.00     0.013 C 
ATOM     13  S   UNL d   1      -1.364  -0.340  -1.229  0.00  0.00    -0.113 SA
ATOM     14  C   UNL d   1      -0.734   2.310  -0.920  0.00  0.00     0.027 C 
ATOM     15  C   UNL d   1       0.340   1.041  -2.783  0.00  0.00     0.027 C 
ENDBRANCH   6   7
ENDBRANCH   5   6
ENDBRANCH   2   5
BRANCH   1  16
ATOM     16  C   UNL d   1      -6.801  -3.261   1.697  0.00  0.00     0.056 A 
ATOM     17  C   UNL d   1      -8.030  -2.603   1.502  0.00  0.00     0.060 A 
ATOM     18 CL   UNL d   1      -8.143  -1.224   0.459  0.00  0.00    -0.082 Cl
ATOM     19  C   UNL d   1      -9.195  -3.061   2.116  0.00  0.00     0.026 A 
ATOM     20  C   UNL d   1      -9.148  -4.167   2.963  0.00  0.00     0.002 A 
ATOM     21  C   UNL d   1      -7.933  -4.809   3.192  0.00  0.00     0.002 A 
ATOM     22  C   UNL d   1      -6.769  -4.361   2.562  0.00  0.00     0.031 A 
ENDBRANCH   1  16
TORSDOF 4
