REMARK  6 active torsions:
REMARK  status: ('A' for Active; 'I' for Inactive)
REMARK    1  A    between atoms: C_3  and  S_1 
REMARK    2  A    between atoms: C_4  and  S_1 
REMARK    3  A    between atoms: S_2  and  C_5 
REMARK    4  A    between atoms: N_7  and  S_2 
REMARK    5  A    between atoms: C_8  and  N_7 
REMARK    6  A    between atoms: C_11  and  C_12 
ROOT
ATOM      1  C   UNL d   1       0.560  -1.741   0.708  0.00  0.00     0.107 A 
ATOM      2  C   UNL d   1      -0.413  -3.641   1.963  0.00  0.00     0.116 A 
ATOM      3  S   UNL d   1      -0.725  -1.963   1.818  0.00  0.00    -0.065 SA
ATOM      4  C   UNL d   1       1.220  -2.931   0.460  0.00  0.00     0.033 A 
ATOM      5  C   UNL d   1       0.650  -4.024   1.170  0.00  0.00     0.034 A 
ENDROOT
BRANCH   1   6
ATOM      6  S   UNL d   1       0.818  -0.093   0.057  0.00  0.00     0.230 S 
ATOM      7  O   UNL d   1       1.510  -0.342  -1.197  0.00  0.00    -0.215 OA
ATOM      8  O   UNL d   1      -0.475   0.563   0.098  0.00  0.00    -0.215 OA
BRANCH   6   9
ATOM      9  C   UNL d   1       1.935   0.773   1.125  0.00  0.00     0.155 A 
ATOM     10  N   UNL d   1       2.336   0.068   2.224  0.00  0.00    -0.354 N 
ATOM     11  C   UNL d   1       3.222   0.681   3.043  0.00  0.00     0.105 A 
ATOM     12  HN  UNL d   1       1.986  -0.870   2.417  1.00  0.00     0.166 HD
ATOM     13  C   UNL d   1       3.737   1.952   2.814  0.00  0.00     0.065 A 
ATOM     14  C   UNL d   1       3.301   2.638   1.671  0.00  0.00     0.044 A 
ATOM     15  C   UNL d   1       2.381   2.046   0.803  0.00  0.00     0.073 A 
ATOM     16 CL   UNL d   1       1.885   2.933  -0.583  0.00  0.00    -0.081 Cl
BRANCH  13  17
ATOM     17  C   UNL d   1       4.730   2.534   3.776  0.00  0.00     0.418 C 
ATOM     18  F   UNL d   1       5.151   3.781   3.428  0.00  0.00    -0.166 F 
ATOM     19  F   UNL d   1       4.229   2.643   5.035  0.00  0.00    -0.166 F 
ATOM     20  F   UNL d   1       5.853   1.774   3.880  0.00  0.00    -0.166 F 
ENDBRANCH  13  17
ENDBRANCH   6   9
ENDBRANCH   1   6
BRANCH   2  21
ATOM     21  S   UNL d   1      -1.422  -4.573   3.100  0.00  0.00     0.253 S 
ATOM     22  O   UNL d   1      -0.599  -5.722   3.425  0.00  0.00    -0.205 OA
ATOM     23  O   UNL d   1      -1.844  -3.662   4.138  0.00  0.00    -0.205 OA
BRANCH  21  24
ATOM     24  N   UNL d   1      -2.788  -5.195   2.313  0.00  0.00    -0.164 NA
ATOM     25  H   UNL d   1      -3.260  -5.747   3.031  0.00  0.00     0.147 HD
BRANCH  24  26
ATOM     26  C   UNL d   1      -3.696  -4.291   1.774  0.00  0.00     0.117 A 
ATOM     27  N   UNL d   1      -4.774  -3.904   2.454  0.00  0.00    -0.249 N 
ATOM     28  O   UNL d   1      -5.479  -3.078   1.596  0.00  0.00    -0.241 OA
ATOM     29  HN  UNL d   1      -5.027  -4.163   3.408  1.00  0.00     0.196 HD
ATOM     30  C   UNL d   1      -4.851  -3.044   0.389  0.00  0.00     0.075 A 
ATOM     31  C   UNL d   1      -3.713  -3.811   0.451  0.00  0.00     0.079 A 
ATOM     32  C   UNL d   1      -5.510  -2.255  -0.666  0.00  0.00     0.079 C 
ENDBRANCH  24  26
ENDBRANCH  21  24
ENDBRANCH   2  21
TORSDOF 6
