REMARK  4 active torsions:
REMARK  status: ('A' for Active; 'I' for Inactive)
REMARK    1  A    between atoms: C_12  and  C_3 
REMARK    2  A    between atoms: C_11  and  C_4 
REMARK    3  A    between atoms: C_17  and  C_10 
REMARK       I    between atoms: N_13  and  C_11 
REMARK    4  A    between atoms: S_15  and  N_13 
ROOT
ATOM      1  C   UNL d   1       0.114  -0.704  -0.230  0.00  0.00     0.145 A 
ATOM      2  N   UNL d   1       0.181   0.700  -0.331  0.00  0.00    -0.234 N 
ATOM      3  C   UNL d   1      -0.952   1.476  -0.116  0.00  0.00     0.144 A 
ATOM      4  C   UNL d   1       1.421  -1.157  -0.297  0.00  0.00     0.095 C 
ATOM      5  N   UNL d   1      -1.077  -1.356  -0.044  0.00  0.00    -0.336 N 
ATOM      6  HN  UNL d   1      -1.121  -2.375  -0.016  1.00  0.00     0.167 HD
ATOM      7  C   UNL d   1      -2.133   0.872   0.118  0.00  0.00     0.071 A 
ATOM      8  N   UNL d   1       1.434   1.105  -0.627  0.00  0.00    -0.302 N 
ATOM      9  HN  UNL d   1       1.746   2.052  -0.842  1.00  0.00     0.186 HD
ATOM     10  C   UNL d   1      -2.154  -0.630   0.097  0.00  0.00     0.120 A 
ATOM     11  C   UNL d   1       2.171   0.001  -0.577  0.00  0.00     0.128 C 
ENDROOT
BRANCH   4  12
ATOM     12  C   UNL d   1       1.948  -2.503  -0.105  0.00  0.00     0.267 C 
ATOM     13  N   UNL d   1       3.337  -2.578   0.102  0.00  0.00    -0.283 N 
ATOM     14  HN  UNL d   1       3.819  -1.771   0.500  1.00  0.00     0.178 HD
ATOM     15  O   UNL d   1       1.218  -3.480   0.001  0.00  0.00    -0.267 OA
BRANCH  13  16
ATOM     16  S   UNL d   1       4.156  -3.827  -0.247  0.00  0.00     0.020 S 
ATOM     17  O   UNL d   1       4.144  -4.480  -1.539  0.00  0.00    -0.250 OA
ATOM     18  C   UNL d   1       3.864  -5.070   0.992  0.00  0.00     0.136 C 
ATOM     19  C   UNL d   1       5.851  -3.384   0.076  0.00  0.00     0.136 C 
ENDBRANCH  13  16
ENDBRANCH   4  12
BRANCH   3  20
ATOM     20  C   UNL d   1      -0.822   2.956  -0.094  0.00  0.00     0.434 C 
ATOM     21  F   UNL d   1       0.431   3.460  -0.137  0.00  0.00    -0.165 F 
ATOM     22  F   UNL d   1      -1.509   3.515  -1.126  0.00  0.00    -0.165 F 
ATOM     23  F   UNL d   1      -1.387   3.456   1.041  0.00  0.00    -0.165 F 
ENDBRANCH   3  20
BRANCH  10  24
ATOM     24  C   UNL d   1      -3.527  -1.300   0.257  0.00  0.00     0.432 C 
ATOM     25  F   UNL d   1      -4.545  -0.393   0.288  0.00  0.00    -0.165 F 
ATOM     26  F   UNL d   1      -3.813  -2.151  -0.763  0.00  0.00    -0.165 F 
ATOM     27  F   UNL d   1      -3.622  -2.013   1.411  0.00  0.00    -0.165 F 
ENDBRANCH  10  24
TORSDOF 4
