REMARK  3 active torsions:
REMARK  status: ('A' for Active; 'I' for Inactive)
REMARK    1  A    between atoms: O_5  and  C_3 
REMARK    2  A    between atoms: N_11  and  C_4 
REMARK    3  A    between atoms: C_9  and  O_5 
ROOT
ATOM      1  N   UNL d   1       1.185   0.994  -0.087  0.00  0.00    -0.313 N 
ATOM      2  HN  UNL d   1       2.105   1.435  -0.104  1.00  0.00     0.170 HD
ATOM      3  C   UNL d   1       0.061   1.722   0.010  0.00  0.00     0.151 A 
ATOM      4  C   UNL d   1       1.045  -0.329  -0.160  0.00  0.00     0.157 A 
ATOM      5  N   UNL d   1      -0.122  -0.973  -0.118  0.00  0.00    -0.337 N 
ATOM      6  HN  UNL d   1      -0.170  -1.991  -0.168  1.00  0.00     0.168 HD
ATOM      7  C   UNL d   1      -1.191   1.153   0.070  0.00  0.00     0.081 A 
ATOM      8  C   UNL d   1      -1.235  -0.224  -0.006  0.00  0.00     0.012 A 
ATOM      9  C   UNL d   1      -2.547  -0.948   0.033  0.00  0.00     0.068 C 
ENDROOT
BRANCH   3  10
ATOM     10  O   UNL d   1       0.310   3.060   0.097  0.00  0.00    -0.274 OA
BRANCH  10  11
ATOM     11  C   UNL d   1      -0.673   3.873  -0.505  0.00  0.00     0.506 C 
ATOM     12  F   UNL d   1      -1.658   4.099   0.402  0.00  0.00    -0.184 F 
ATOM     13  F   UNL d   1      -0.107   5.077  -0.769  0.00  0.00    -0.184 F 
ENDBRANCH  10  11
ENDBRANCH   3  10
BRANCH   4  14
ATOM     14  N   UNL d   1       2.192  -1.089  -0.233  0.00  0.00    -0.274 NA
ATOM     15  H   UNL d   1       2.964  -0.568   0.158  0.00  0.00     0.127 HD
ATOM     16  H   UNL d   1       2.014  -2.008   0.152  0.00  0.00     0.127 HD
ENDBRANCH   4  14
TORSDOF 3
