REMARK  5 active torsions:
REMARK  status: ('A' for Active; 'I' for Inactive)
REMARK    1  A    between atoms: C_2  and  C_1 
REMARK       I    between atoms: N_3  and  C_1 
REMARK    2  A    between atoms: C_5  and  C_4 
REMARK    3  A    between atoms: O_22  and  C_5 
REMARK    4  A    between atoms: C_18  and  N_6 
REMARK    5  A    between atoms: C_17  and  C_18 
ROOT
ATOM      1  C   UNL d   1       0.750  -0.190  -0.237  0.00  0.00     0.255 C 
ATOM      2  N   UNL d   1       0.434   1.077  -0.737  0.00  0.00    -0.345 N 
ATOM      3  N   UNL d   1      -0.326   3.602  -2.105  0.00  0.00     0.095 N 
ATOM      4  O   UNL d   1       1.384  -1.032  -0.873  0.00  0.00    -0.267 OA
ATOM      5  C   UNL d   1       0.856   1.354  -2.116  0.00  0.00     0.156 C 
ATOM      6  C   UNL d   1      -0.636   1.933  -0.200  0.00  0.00     0.156 C 
ATOM      7  C   UNL d   1      -0.587   3.401  -0.667  0.00  0.00     0.292 C 
ATOM      8  C   UNL d   1       0.909   2.857  -2.445  0.00  0.00     0.292 C 
ENDROOT
BRANCH   1   9
ATOM      9  C   UNL d   1       0.369  -0.581   1.132  0.00  0.00     0.049 A 
ATOM     10  C   UNL d   1       1.337  -0.959   2.078  0.00  0.00     0.053 A 
ATOM     11  C   UNL d   1       0.916  -1.280   3.382  0.00  0.00     0.019 A 
ATOM     12  C   UNL d   1      -0.435  -1.260   3.730  0.00  0.00     0.001 A 
ATOM     13  C   UNL d   1      -1.392  -0.947   2.771  0.00  0.00     0.001 A 
ATOM     14  C   UNL d   1      -0.995  -0.635   1.472  0.00  0.00     0.018 A 
BRANCH  10  15
ATOM     15  C   UNL d   1       2.809  -1.002   1.859  0.00  0.00     0.177 C 
ATOM     16  O   UNL d   1       3.583  -0.705   2.754  0.00  0.00    -0.646 OA
BRANCH  15  17
ATOM     17  O   UNL d   1       3.240  -1.510   0.689  0.00  0.00    -0.773 OA
ATOM     18  H   UNL d   1       2.559  -1.640  -0.015  0.00  0.00     0.167 HD
ENDBRANCH  15  17
ENDBRANCH  10  15
ENDBRANCH   1   9
BRANCH   3  19
ATOM     19  C   UNL d   1      -1.435   3.160  -2.964  0.00  0.00     0.311 C 
BRANCH  19  20
ATOM     20  C   UNL d   1      -2.661   4.052  -3.019  0.00  0.00    -0.027 A 
ATOM     21  C   UNL d   1      -3.818   3.515  -3.616  0.00  0.00     0.048 A 
ATOM     22  C   UNL d   1      -4.854   4.369  -3.919  0.00  0.00     0.105 A 
ATOM     23  O   UNL d   1      -5.976   4.038  -4.614  0.00  0.00    -0.323 OA
ATOM     24  C   UNL d   1      -4.808   5.705  -3.604  0.00  0.00     0.105 A 
ATOM     25  C   UNL d   1      -6.494   5.354  -4.893  0.00  0.00     0.352 C 
ATOM     26  O   UNL d   1      -5.896   6.378  -4.070  0.00  0.00    -0.323 OA
ATOM     27  C   UNL d   1      -3.730   6.257  -2.948  0.00  0.00     0.040 A 
ATOM     28  C   UNL d   1      -2.637   5.423  -2.675  0.00  0.00     0.012 A 
ENDBRANCH  19  20
ENDBRANCH   3  19
TORSDOF 5
