REMARK  4 active torsions:
REMARK  status: ('A' for Active; 'I' for Inactive)
REMARK    1  A    between atoms: O_13  and  C_2 
REMARK    2  A    between atoms: C_6  and  C_7 
REMARK    3  A    between atoms: C_9  and  C_8 
REMARK    4  A    between atoms: C_12  and  O_13 
ROOT
ATOM      1  C   UNL d   1      -0.020   0.780   0.090  0.00  0.00     0.046 A 
ATOM      2  C   UNL d   1       1.257   1.413   0.133  0.00  0.00     0.092 A 
ATOM      3  N   UNL d   1       1.147  -1.348   0.062  0.00  0.00    -0.351 N 
ATOM      4  HN  UNL d   1       1.106  -2.367   0.069  1.00  0.00     0.166 HD
ATOM      5  C   UNL d   1       0.014  -0.631   0.059  0.00  0.00     0.049 A 
ATOM      6  C   UNL d   1       2.351  -0.716   0.055  0.00  0.00     0.119 A 
ATOM      7  C   UNL d   1      -1.306   1.405   0.073  0.00  0.00     0.051 A 
ATOM      8  C   UNL d   1       2.437   0.666   0.071  0.00  0.00     0.072 A 
ATOM      9  C   UNL d   1      -2.483   0.652   0.018  0.00  0.00     0.048 A 
ATOM     10  C   UNL d   1      -1.166  -1.357   0.014  0.00  0.00     0.054 A 
ATOM     11  C   UNL d   1      -2.403  -0.728  -0.011  0.00  0.00     0.037 A 
ATOM     12 CL   UNL d   1      -1.531   3.123   0.116  0.00  0.00    -0.083 Cl
ATOM     13 CL   UNL d   1      -3.842  -1.668  -0.081  0.00  0.00    -0.084 Cl
ENDROOT
BRANCH   2  14
ATOM     14  O   UNL d   1       1.311   2.793   0.138  0.00  0.00    -0.309 OA
BRANCH  14  15
ATOM     15  C   UNL d   1       2.218   3.455   0.936  0.00  0.00     0.091 A 
ATOM     16  C   UNL d   1       2.688   4.700   0.491  0.00  0.00     0.081 A 
ATOM     17  C   UNL d   1       3.628   5.392   1.283  0.00  0.00     0.019 A 
ATOM     18  C   UNL d   1       4.069   4.868   2.497  0.00  0.00     0.001 A 
ATOM     19  C   UNL d   1       3.555   3.659   2.954  0.00  0.00     0.003 A 
ATOM     20  C   UNL d   1       2.621   2.963   2.187  0.00  0.00     0.038 A 
BRANCH  16  21
ATOM     21  C   UNL d   1       2.219   5.357  -0.785  0.00  0.00     0.420 C 
ATOM     22  F   UNL d   1       1.352   4.636  -1.544  0.00  0.00    -0.166 F 
ATOM     23  F   UNL d   1       1.597   6.548  -0.544  0.00  0.00    -0.166 F 
ATOM     24  F   UNL d   1       3.263   5.657  -1.612  0.00  0.00    -0.166 F 
ENDBRANCH  16  21
ENDBRANCH  14  15
ENDBRANCH   2  14
BRANCH   6  25
ATOM     25  C   UNL d   1       3.633  -1.538   0.057  0.00  0.00     0.432 C 
ATOM     26  F   UNL d   1       3.442  -2.879  -0.083  0.00  0.00    -0.165 F 
ATOM     27  F   UNL d   1       4.485  -1.176  -0.947  0.00  0.00    -0.165 F 
ATOM     28  F   UNL d   1       4.344  -1.381   1.212  0.00  0.00    -0.165 F 
ENDBRANCH   6  25
TORSDOF 4
