REMARK  3 active torsions:
REMARK  status: ('A' for Active; 'I' for Inactive)
REMARK       I    between atoms: N_2  and  C_1 
REMARK    1  A    between atoms: C_6  and  C_1 
REMARK    2  A    between atoms: N_3  and  N_2 
REMARK    3  A    between atoms: C_5  and  N_3 
ROOT
ATOM      1  N   UNL d   1       0.754  -1.182  -2.052  0.00  0.00    -0.203 NA
ATOM      2  H   UNL d   1       1.724  -0.922  -2.285  0.00  0.00     0.153 HD
ENDROOT
BRANCH   1   3
ATOM      3  N   UNL d   1       0.185  -0.190  -1.223  0.00  0.00    -0.287 N 
ATOM      4  C   UNL d   1       1.088   0.656  -0.599  0.00  0.00     0.231 C 
ATOM      5  O   UNL d   1       2.269   0.731  -0.938  0.00  0.00    -0.272 OA
ATOM      6  H   UNL d   1      -0.643  -0.500  -0.725  0.00  0.00     0.184 HD
BRANCH   4   7
ATOM      7  C   UNL d   1       0.546   1.417   0.595  0.00  0.00     0.100 C 
ATOM      8  C   UNL d   1      -0.825   2.031   0.381  0.00  0.00     0.014 C 
ENDBRANCH   4   7
ENDBRANCH   1   3
BRANCH   1   9
ATOM      9  C   UNL d   1       0.046  -1.432  -3.255  0.00  0.00     0.027 A 
ATOM     10  C   UNL d   1      -0.883  -0.551  -3.820  0.00  0.00     0.025 A 
ATOM     11  C   UNL d   1      -1.503  -0.854  -5.037  0.00  0.00     0.002 A 
ATOM     12  C   UNL d   1      -1.194  -2.036  -5.709  0.00  0.00     0.000 A 
ATOM     13  C   UNL d   1      -0.256  -2.911  -5.171  0.00  0.00     0.002 A 
ATOM     14  C   UNL d   1       0.366  -2.604  -3.959  0.00  0.00     0.025 A 
ENDBRANCH   1   9
TORSDOF 3
