REMARK  2 active torsions:
REMARK  status: ('A' for Active; 'I' for Inactive)
REMARK    1  A    between atoms: S_9  and  C_5 
REMARK    2  A    between atoms: S_10  and  C_6 
ROOT
ATOM      1  N   UNL d   1       1.286  -1.380  -0.001  0.00  0.00    -0.347 N 
ATOM      2  HN  UNL d   1       1.314  -2.399   0.005  1.00  0.00     0.167 HD
ATOM      3  N   UNL d   1       1.217   1.437  -0.006  0.00  0.00    -0.347 N 
ATOM      4  HN  UNL d   1       1.191   2.457  -0.003  1.00  0.00     0.167 HD
ATOM      5  C   UNL d   1       2.423  -0.638  -0.014  0.00  0.00     0.101 A 
ATOM      6  C   UNL d   1       2.392   0.761  -0.014  0.00  0.00     0.101 A 
ATOM      7  C   UNL d   1       0.120  -0.706   0.003  0.00  0.00     0.060 A 
ATOM      8  C   UNL d   1       0.086   0.709  -0.004  0.00  0.00     0.060 A 
ATOM      9  C   UNL d   1      -1.078  -1.410   0.005  0.00  0.00     0.032 A 
ATOM     10  C   UNL d   1      -1.144   1.355  -0.014  0.00  0.00     0.032 A 
ATOM     11  C   UNL d   1      -2.308  -0.751  -0.009  0.00  0.00     0.002 A 
ATOM     12  C   UNL d   1      -2.341   0.637  -0.021  0.00  0.00     0.002 A 
ENDROOT
BRANCH   5  13
ATOM     13  S   UNL d   1       3.914  -1.605  -0.047  0.00  0.00    -0.123 SA
ATOM     14  H   UNL d   1       3.264  -2.775  -0.111  0.00  0.00     0.108 HD
ENDBRANCH   5  13
BRANCH   6  15
ATOM     15  S   UNL d   1       3.842   1.794  -0.033  0.00  0.00    -0.123 SA
ATOM     16  H   UNL d   1       4.725   0.793  -0.169  0.00  0.00     0.108 HD
ENDBRANCH   6  15
TORSDOF 2
