REMARK  9 active torsions:
REMARK  status: ('A' for Active; 'I' for Inactive)
REMARK    1  A    between atoms: S_17  and  C_3 
REMARK    2  A    between atoms: C_8  and  C_4 
REMARK    3  A    between atoms: C_7  and  C_11 
REMARK    4  A    between atoms: O_23  and  C_8 
REMARK    5  A    between atoms: C_9  and  O_24 
REMARK    6  A    between atoms: C_13  and  C_9 
REMARK    7  A    between atoms: C_30  and  S_17 
REMARK    8  A    between atoms: O_24  and  C_31 
REMARK    9  A    between atoms: C_31  and  C_30 
ROOT
ATOM      1  C   UNL d   1       0.103  -0.737   0.046  0.00  0.00     0.041 A 
ATOM      2  C   UNL d   1       0.442   0.676  -0.005  0.00  0.00    -0.018 A 
ATOM      3  C   UNL d   1       1.217  -1.552   0.012  0.00  0.00     0.056 A 
ATOM      4  C   UNL d   1       1.823   0.870  -0.051  0.00  0.00     0.088 A 
ATOM      5  S   UNL d   1       2.650  -0.631  -0.026  0.00  0.00    -0.076 SA
ATOM      6  C   UNL d   1      -1.292  -1.175   0.106  0.00  0.00     0.162 C 
ATOM      7  C   UNL d   1      -0.636   1.751  -0.028  0.00  0.00     0.050 C 
ATOM      8  C   UNL d   1      -2.050   1.207   0.346  0.00  0.00    -0.037 C 
ATOM      9  C   UNL d   1      -2.292  -0.140  -0.371  0.00  0.00     0.093 C 
ATOM     10  O   UNL d   1      -1.653  -2.261   0.552  0.00  0.00    -0.292 OA
ATOM     11  C   UNL d   1      -3.147   2.192  -0.096  0.00  0.00     0.015 C 
ATOM     12  C   UNL d   1      -2.170   1.034   1.877  0.00  0.00     0.015 C 
ENDROOT
BRANCH   3  13
ATOM     13  S   UNL d   1       1.290  -3.311  -0.080  0.00  0.00    -0.119 SA
BRANCH  13  14
ATOM     14  C   UNL d   1       1.417  -3.727   1.685  0.00  0.00     0.107 C 
BRANCH  14  15
ATOM     15  C   UNL d   1       1.588  -5.232   1.892  0.00  0.00     0.189 C 
BRANCH  15  16
ATOM     16  O   UNL d   1       1.530  -5.550   3.299  0.00  0.00    -0.317 OA
BRANCH  16  17
ATOM     17  C   UNL d   1       2.669  -5.327   3.999  0.00  0.00     0.293 C 
ATOM     18  O   UNL d   1       3.713  -4.890   3.541  0.00  0.00    -0.259 OA
BRANCH  17  19
ATOM     19  C   UNL d   1       2.499  -5.694   5.433  0.00  0.00     0.040 A 
ATOM     20  C   UNL d   1       3.611  -5.570   6.280  0.00  0.00     0.033 A 
ATOM     21  C   UNL d   1       3.548  -5.992   7.618  0.00  0.00     0.048 A 
ATOM     22  C   UNL d   1       2.332  -6.489   8.114  0.00  0.00     0.016 A 
ATOM     23  C   UNL d   1       1.212  -6.581   7.286  0.00  0.00     0.002 A 
ATOM     24  C   UNL d   1       1.297  -6.195   5.947  0.00  0.00     0.017 A 
BRANCH  21  25
ATOM     25  C   UNL d   1       4.774  -5.977   8.499  0.00  0.00     0.417 C 
ATOM     26  F   UNL d   1       5.881  -5.473   7.888  0.00  0.00    -0.166 F 
ATOM     27  F   UNL d   1       4.602  -5.241   9.631  0.00  0.00    -0.166 F 
ATOM     28  F   UNL d   1       5.117  -7.229   8.916  0.00  0.00    -0.166 F 
ENDBRANCH  21  25
ENDBRANCH  17  19
ENDBRANCH  16  17
ENDBRANCH  15  16
ENDBRANCH  14  15
ENDBRANCH  13  14
ENDBRANCH   3  13
BRANCH   4  29
ATOM     29  C   UNL d   1       2.556   2.132  -0.123  0.00  0.00     0.300 C 
ATOM     30  O   UNL d   1       2.049   3.244  -0.175  0.00  0.00    -0.259 OA
BRANCH  29  31
ATOM     31  O   UNL d   1       3.911   1.911  -0.128  0.00  0.00    -0.322 OA
ATOM     32  C   UNL d   1       4.713   3.090  -0.197  0.00  0.00     0.213 C 
ENDBRANCH  29  31
ENDBRANCH   4  29
TORSDOF 9
