REMARK  4 active torsions:
REMARK  status: ('A' for Active; 'I' for Inactive)
REMARK    1  A    between atoms: C_12  and  C_3 
REMARK    2  A    between atoms: C_4  and  N_5 
REMARK    3  A    between atoms: N_5  and  C_12 
REMARK    4  A    between atoms: O_11  and  C_6 
ROOT
ATOM      1  N   UNL d   1       1.074  -0.743  -0.381  0.00  0.00    -0.197 NA
ATOM      2  C   UNL d   1       2.228  -0.853  -0.364  0.00  0.00     0.060 C 
ATOM      3  C   UNL d   1       3.690  -0.991  -0.342  0.00  0.00     0.138 C 
ENDROOT
BRANCH   3   4
ATOM      4  C   UNL d   1       4.328  -0.157  -1.455  0.00  0.00     0.106 C 
BRANCH   4   5
ATOM      5  N   UNL d   1       5.781  -0.361  -1.457  0.00  0.00    -0.292 NA
ATOM      6  H   UNL d   1       6.252   0.164  -0.718  0.00  0.00     0.127 HD
BRANCH   5   7
ATOM      7  C   UNL d   1       6.486  -0.187  -2.656  0.00  0.00     0.008 A 
ATOM      8  C   UNL d   1       6.064   0.634  -3.707  0.00  0.00     0.026 A 
ATOM      9  C   UNL d   1       6.824   0.755  -4.881  0.00  0.00     0.038 A 
ATOM     10  C   UNL d   1       8.027   0.065  -5.012  0.00  0.00     0.068 A 
ATOM     11  C   UNL d   1       8.492  -0.697  -3.944  0.00  0.00     0.038 A 
ATOM     12  C   UNL d   1       7.731  -0.815  -2.776  0.00  0.00     0.026 A 
BRANCH  10  13
ATOM     13  O   UNL d   1       8.841   0.097  -6.110  0.00  0.00    -0.356 OA
ATOM     14  C   UNL d   1       8.178   0.293  -7.355  0.00  0.00     0.210 C 
ENDBRANCH  10  13
ENDBRANCH   5   7
ENDBRANCH   4   5
ENDBRANCH   3   4
TORSDOF 4
