REMARK  5 active torsions:
REMARK  status: ('A' for Active; 'I' for Inactive)
REMARK    1  A    between atoms: C_2  and  N_6 
REMARK    2  A    between atoms: C_19  and  N_3 
REMARK       I    between atoms: N_6  and  C_7 
REMARK       I    between atoms: C_7  and  N_14 
REMARK    3  A    between atoms: C_17  and  C_8 
REMARK    4  A    between atoms: N_14  and  C_21 
REMARK    5  A    between atoms: C_21  and  C_19 
ROOT
ATOM      1  N   UNL d   1      -4.493  -2.889  -1.236  0.00  0.00    -0.306 N 
ATOM      2  C   UNL d   1      -3.501  -3.814  -1.454  0.00  0.00     0.320 C 
ATOM      3  O   UNL d   1      -2.313  -3.573  -1.606  0.00  0.00    -0.247 OA
ATOM      4  N   UNL d   1      -4.004  -5.096  -1.477  0.00  0.00    -0.341 N 
ATOM      5  H   UNL d   1      -5.198  -3.196  -0.579  0.00  0.00     0.170 HD
ATOM      6  H   UNL d   1      -4.953  -5.276  -1.187  0.00  0.00     0.164 HD
ENDROOT
BRANCH   1   7
ATOM      7  C   UNL d   1      -4.351  -1.475  -1.346  0.00  0.00     0.071 A 
ATOM      8  C   UNL d   1      -3.726  -0.813  -2.417  0.00  0.00     0.039 A 
ATOM      9  C   UNL d   1      -3.786   0.591  -2.516  0.00  0.00     0.029 A 
ATOM     10 BR   UNL d   1      -2.963  -1.682  -3.931  0.00  0.00    -0.049 Br
ATOM     11  C   UNL d   1      -4.482   1.368  -1.579  0.00  0.00    -0.052 A 
ATOM     12  C   UNL d   1      -5.056   0.714  -0.484  0.00  0.00     0.029 A 
ATOM     13  C   UNL d   1      -4.995  -0.682  -0.374  0.00  0.00     0.039 A 
ATOM     14 BR   UNL d   1      -5.807  -1.468   1.162  0.00  0.00    -0.049 Br
BRANCH  11  15
ATOM     15  C   UNL d   1      -4.708   2.858  -1.783  0.00  0.00     0.010 C 
ATOM     16  C   UNL d   1      -3.407   3.651  -1.915  0.00  0.00     0.015 C 
ATOM     17  C   UNL d   1      -5.614   3.104  -2.996  0.00  0.00     0.015 C 
ENDBRANCH  11  15
ENDBRANCH   1   7
BRANCH   4  18
ATOM     18  C   UNL d   1      -3.174  -6.239  -1.820  0.00  0.00     0.144 C 
BRANCH  18  19
ATOM     19  C   UNL d   1      -2.177  -6.628  -0.718  0.00  0.00     0.147 C 
BRANCH  19  20
ATOM     20  N   UNL d   1      -2.826  -6.902   0.553  0.00  0.00    -0.331 N 
ATOM     21  C   UNL d   1      -3.755  -7.917   0.761  0.00  0.00     0.318 C 
ATOM     22  N   UNL d   1      -4.012  -7.962   2.128  0.00  0.00    -0.341 N 
ATOM     23  O   UNL d   1      -4.282  -8.630  -0.072  0.00  0.00    -0.247 OA
ATOM     24  C   UNL d   1      -3.387  -6.846   2.787  0.00  0.00     0.144 C 
ATOM     25  H   UNL d   1      -4.793  -8.505   2.471  0.00  0.00     0.164 HD
ATOM     26  C   UNL d   1      -2.281  -6.460   1.816  0.00  0.00     0.147 C 
ENDBRANCH  19  20
ENDBRANCH  18  19
ENDBRANCH   4  18
TORSDOF 5
