REMARK  6 active torsions:
REMARK  status: ('A' for Active; 'I' for Inactive)
REMARK    1  A    between atoms: C_13  and  C_5 
REMARK    2  A    between atoms: N_7  and  C_9 
REMARK    3  A    between atoms: N_8  and  C_14 
REMARK    4  A    between atoms: O_18  and  C_13 
REMARK    5  A    between atoms: C_24  and  O_18 
REMARK    6  A    between atoms: C_19  and  C_24 
ROOT
ATOM      1  C   UNL d   1      -0.661   0.706  -0.259  0.00  0.00     0.006 C 
ATOM      2  C   UNL d   1      -1.162  -0.604  -0.070  0.00  0.00     0.029 C 
ATOM      3  C   UNL d   1       1.193  -0.729  -0.207  0.00  0.00     0.028 C 
ATOM      4  C   UNL d   1       0.783   0.593  -0.471  0.00  0.00    -0.010 C 
ATOM      5  C   UNL d   1      -1.565   1.767  -0.153  0.00  0.00     0.053 C 
ATOM      6  C   UNL d   1      -0.017  -1.530   0.030  0.00  0.00     0.194 C 
ATOM      7  C   UNL d   1      -3.403   0.118  -0.017  0.00  0.00     0.104 C 
ATOM      8  C   UNL d   1      -2.500  -0.938   0.042  0.00  0.00     0.052 C 
ATOM      9  C   UNL d   1      -2.948   1.454  -0.091  0.00  0.00     0.054 C 
ATOM     10  C   UNL d   1       2.503  -1.172  -0.260  0.00  0.00     0.052 C 
ATOM     11  C   UNL d   1       3.457  -0.238  -0.667  0.00  0.00     0.103 C 
ATOM     12  C   UNL d   1       1.732   1.470  -0.971  0.00  0.00     0.016 C 
ATOM     13  O   UNL d   1      -0.069  -2.718   0.251  0.00  0.00    -0.287 OA
ATOM     14  C   UNL d   1       3.074   1.060  -1.062  0.00  0.00     0.037 C 
ENDROOT
BRANCH   5  15
ATOM     15  C   UNL d   1      -1.133   3.193   0.023  0.00  0.00     0.294 C 
ATOM     16  O   UNL d   1      -0.002   3.611  -0.128  0.00  0.00    -0.259 OA
BRANCH  15  17
ATOM     17  O   UNL d   1      -2.186   3.937   0.441  0.00  0.00    -0.313 OA
BRANCH  17  18
ATOM     18  C   UNL d   1      -1.978   5.338   0.661  0.00  0.00     0.219 C 
BRANCH  18  19
ATOM     19  C   UNL d   1      -2.141   5.812   2.095  0.00  0.00    -0.017 A 
ATOM     20  C   UNL d   1      -2.971   5.241   3.075  0.00  0.00     0.019 A 
ATOM     21 BR   UNL d   1      -3.997   3.662   2.821  0.00  0.00    -0.050 Br
ATOM     22  C   UNL d   1      -3.114   5.850   4.333  0.00  0.00     0.020 A 
ATOM     23  C   UNL d   1      -2.453   7.039   4.630  0.00  0.00     0.001 A 
ATOM     24  C   UNL d   1      -1.633   7.623   3.676  0.00  0.00     0.001 A 
ATOM     25  C   UNL d   1      -1.479   7.016   2.427  0.00  0.00     0.011 A 
ENDBRANCH  18  19
ENDBRANCH  17  18
ENDBRANCH  15  17
ENDBRANCH   5  15
BRANCH   7  26
ATOM     26  N   UNL d   1      -4.844  -0.154   0.028  0.00  0.00    -0.116 N 
ATOM     27  O   UNL d   1      -5.204  -1.340   0.075  0.00  0.00    -0.532 OA
ATOM     28  O   UNL d   1      -5.615   0.815  -0.005  0.00  0.00    -0.532 OA
ENDBRANCH   7  26
BRANCH  11  29
ATOM     29  N   UNL d   1       4.876  -0.612  -0.696  0.00  0.00    -0.116 N 
ATOM     30  O   UNL d   1       5.191  -1.705  -0.205  0.00  0.00    -0.532 OA
ATOM     31  O   UNL d   1       5.673   0.192  -1.198  0.00  0.00    -0.532 OA
ENDBRANCH  11  29
TORSDOF 6
