REMARK  4 active torsions:
REMARK  status: ('A' for Active; 'I' for Inactive)
REMARK       I    between atoms: N_2  and  C_1 
REMARK       I    between atoms: N_5  and  C_1 
REMARK    1  A    between atoms: C_3  and  N_2 
REMARK    2  A    between atoms: C_4  and  C_6 
REMARK    3  A    between atoms: O_13  and  C_4 
REMARK    4  A    between atoms: C_10  and  N_5 
ROOT
ATOM      1  C   UNL d   1       1.037   0.254   0.075  0.00  0.00     0.325 C 
ATOM      2  N   UNL d   1       0.408  -0.417   1.113  0.00  0.00    -0.308 N 
ATOM      3  N   UNL d   1       0.194   0.344  -1.020  0.00  0.00    -0.309 N 
ATOM      4  O   UNL d   1       2.189   0.675   0.100  0.00  0.00    -0.247 OA
ATOM      5  H   UNL d   1      -0.271  -1.086   0.790  0.00  0.00     0.170 HD
ATOM      6  H   UNL d   1      -0.790   0.426  -0.801  0.00  0.00     0.170 HD
ENDROOT
BRANCH   2   7
ATOM      7  C   UNL d   1       1.063  -0.713   2.336  0.00  0.00     0.047 A 
ATOM      8  C   UNL d   1       0.947  -2.008   2.918  0.00  0.00     0.001 A 
ATOM      9  C   UNL d   1       1.665  -2.268   4.114  0.00  0.00    -0.024 A 
ATOM     10  C   UNL d   1       0.207  -3.081   2.358  0.00  0.00     0.014 A 
ATOM     11  C   UNL d   1       1.638  -3.551   4.687  0.00  0.00     0.012 A 
ATOM     12  C   UNL d   1       2.423  -1.253   4.715  0.00  0.00     0.012 A 
ATOM     13  C   UNL d   1       0.911  -4.586   4.102  0.00  0.00     0.001 A 
ATOM     14  C   UNL d   1       0.191  -4.350   2.941  0.00  0.00     0.001 A 
ATOM     15  C   UNL d   1       2.499   0.016   4.148  0.00  0.00     0.003 A 
ATOM     16  C   UNL d   1       1.828   0.281   2.960  0.00  0.00     0.030 A 
ENDBRANCH   2   7
BRANCH   3  17
ATOM     17  C   UNL d   1       0.600   0.701  -2.321  0.00  0.00     0.037 A 
ATOM     18  C   UNL d   1       1.922   0.553  -2.756  0.00  0.00     0.048 A 
ATOM     19  C   UNL d   1       2.294   0.965  -4.040  0.00  0.00     0.039 A 
ATOM     20  C   UNL d   1       1.326   1.468  -4.913  0.00  0.00     0.018 A 
ATOM     21  C   UNL d   1      -0.003   1.572  -4.502  0.00  0.00     0.003 A 
ATOM     22  C   UNL d   1      -0.364   1.186  -3.208  0.00  0.00     0.029 A 
BRANCH  19  23
ATOM     23  C   UNL d   1       3.690   0.850  -4.522  0.00  0.00     0.176 C 
ATOM     24  O   UNL d   1       3.968   0.677  -5.696  0.00  0.00    -0.646 OA
BRANCH  23  25
ATOM     25  O   UNL d   1       4.625   1.004  -3.558  0.00  0.00    -0.773 OA
ATOM     26  H   UNL d   1       4.290   1.273  -2.681  0.00  0.00     0.167 HD
ENDBRANCH  23  25
ENDBRANCH  19  23
ENDBRANCH   3  17
TORSDOF 4
