REMARK  5 active torsions:
REMARK  status: ('A' for Active; 'I' for Inactive)
REMARK       I    between atoms: N_3  and  C_1 
REMARK    1  A    between atoms: O_5  and  C_1 
REMARK    2  A    between atoms: C_4  and  C_2 
REMARK    3  A    between atoms: C_11  and  C_2 
REMARK    4  A    between atoms: O_14  and  C_4 
REMARK    5  A    between atoms: C_13  and  O_5 
ROOT
ATOM      1  C   UNL d   1       0.984  -0.060   0.035  0.00  0.00     0.363 C 
ATOM      2  C   UNL d   1      -1.656  -1.058  -3.140  0.00  0.00     0.075 C 
ATOM      3  N   UNL d   1       0.330  -0.098  -1.187  0.00  0.00    -0.328 N 
ATOM      4  C   UNL d   1      -1.976  -0.029  -2.007  0.00  0.00     0.045 C 
ATOM      5  C   UNL d   1      -0.434  -1.904  -2.643  0.00  0.00     0.045 C 
ATOM      6  C   UNL d   1       0.752  -1.052  -2.204  0.00  0.00     0.129 C 
ATOM      7  C   UNL d   1      -0.757   0.785  -1.576  0.00  0.00     0.129 C 
ATOM      8  O   UNL d   1       1.977  -0.730   0.273  0.00  0.00    -0.238 OA
ENDROOT
BRANCH   2   9
ATOM      9  C   UNL d   1      -2.872  -2.018  -3.181  0.00  0.00     0.153 C 
ATOM     10  O   UNL d   1      -3.018  -2.964  -2.416  0.00  0.00    -0.649 OA
BRANCH   9  11
ATOM     11  O   UNL d   1      -3.846  -1.718  -4.071  0.00  0.00    -0.776 OA
ATOM     12  H   UNL d   1      -3.655  -0.977  -4.672  0.00  0.00     0.167 HD
ENDBRANCH   9  11
ENDBRANCH   2   9
BRANCH   2  13
ATOM     13  C   UNL d   1      -1.397  -0.399  -4.524  0.00  0.00    -0.039 A 
ATOM     14  C   UNL d   1      -0.629  -1.047  -5.511  0.00  0.00     0.008 A 
ATOM     15  C   UNL d   1      -0.403  -0.466  -6.765  0.00  0.00     0.001 A 
ATOM     16  C   UNL d   1      -0.968   0.762  -7.080  0.00  0.00     0.000 A 
ATOM     17  C   UNL d   1      -1.766   1.407  -6.145  0.00  0.00     0.001 A 
ATOM     18  C   UNL d   1      -1.976   0.836  -4.884  0.00  0.00     0.008 A 
ENDBRANCH   2  13
BRANCH   1  19
ATOM     19  O   UNL d   1       0.394   0.782   0.930  0.00  0.00    -0.294 OA
BRANCH  19  20
ATOM     20  C   UNL d   1       0.963   0.948   2.261  0.00  0.00     0.061 C 
ATOM     21  C   UNL d   1       2.320   1.658   2.185  0.00  0.00     0.046 C 
ATOM     22  C   UNL d   1      -0.019   1.861   3.020  0.00  0.00     0.046 C 
ATOM     23  C   UNL d   1       1.050  -0.377   3.033  0.00  0.00     0.046 C 
ENDBRANCH  19  20
ENDBRANCH   1  19
TORSDOF 5
