REMARK  2 active torsions:
REMARK  status: ('A' for Active; 'I' for Inactive)
REMARK    1  A    between atoms: N_13  and  C_7 
REMARK    2  A    between atoms: C_15  and  N_13 
ROOT
ATOM      1  S   UNL d   1       0.982  -1.684  -0.049  0.00  0.00     0.270 S 
ATOM      2  C   UNL d   1       2.131  -0.476  -0.493  0.00  0.00     0.146 C 
ATOM      3  N   UNL d   1       1.372  -2.004   1.587  0.00  0.00    -0.275 N 
ATOM      4  C   UNL d   1       1.686  -0.891   2.395  0.00  0.00     0.066 A 
ATOM      5  C   UNL d   1       2.095   0.321   1.876  0.00  0.00     0.084 A 
ATOM      6  C   UNL d   1       2.342   0.627   0.476  0.00  0.00     0.215 C 
ATOM      7  C   UNL d   1       2.866  -0.639  -1.606  0.00  0.00     0.119 C 
ATOM      8  S   UNL d   1       2.368   1.490   3.089  0.00  0.00    -0.096 SA
ATOM      9  O   UNL d   1      -0.348  -1.107  -0.061  0.00  0.00    -0.200 OA
ATOM     10  O   UNL d   1       1.244  -2.907  -0.789  0.00  0.00    -0.200 OA
ATOM     11  C   UNL d   1       1.662  -0.865   3.822  0.00  0.00     0.039 A 
ATOM     12  C   UNL d   1       2.003   0.372   4.326  0.00  0.00     0.053 A 
ATOM     13  O   UNL d   1       2.773   1.708   0.079  0.00  0.00    -0.285 OA
ATOM     14  C   UNL d   1       0.977  -3.308   2.133  0.00  0.00     0.170 C 
ENDROOT
BRANCH   7  15
ATOM     15  N   UNL d   1       3.946   0.093  -2.042  0.00  0.00    -0.351 N 
ATOM     16  H   UNL d   1       4.372   0.730  -1.369  0.00  0.00     0.166 HD
BRANCH  15  17
ATOM     17  C   UNL d   1       4.868  -0.270  -3.029  0.00  0.00     0.104 A 
ATOM     18  N   UNL d   1       6.140   0.135  -2.830  0.00  0.00    -0.352 N 
ATOM     19  C   UNL d   1       7.064  -0.207  -3.756  0.00  0.00     0.089 A 
ATOM     20  HN  UNL d   1       6.396   0.682  -2.007  1.00  0.00     0.166 HD
ATOM     21  C   UNL d   1       6.780  -0.925  -4.904  0.00  0.00     0.017 A 
ATOM     22  C   UNL d   1       5.468  -1.324  -5.108  0.00  0.00     0.005 A 
ATOM     23  C   UNL d   1       4.504  -1.002  -4.156  0.00  0.00     0.048 A 
ENDBRANCH  15  17
ENDBRANCH   7  15
TORSDOF 2
