REMARK  6 active torsions:
REMARK  status: ('A' for Active; 'I' for Inactive)
REMARK    1  A    between atoms: C_5  and  C_1 
REMARK    2  A    between atoms: C_10  and  C_2 
REMARK    3  A    between atoms: N_8  and  C_6 
REMARK    4  A    between atoms: C_7  and  C_18 
REMARK    5  A    between atoms: O_15  and  C_10 
REMARK    6  A    between atoms: C_18  and  O_15 
ROOT
ATOM      1  C   UNL d   1      -1.377  -0.651   0.193  0.00  0.00     0.088 A 
ATOM      2  C   UNL d   1      -0.088  -1.254  -0.029  0.00  0.00     0.100 A 
ATOM      3  N   UNL d   1      -1.231   0.682   0.306  0.00  0.00    -0.259 N 
ATOM      4  HN  UNL d   1      -1.966   1.353   0.529  1.00  0.00     0.195 HD
ATOM      5  O   UNL d   1       0.082   0.974   0.068  0.00  0.00    -0.241 OA
ATOM      6  C   UNL d   1       0.765  -0.172  -0.130  0.00  0.00     0.091 A 
ATOM      7  C   UNL d   1       2.207   0.004  -0.418  0.00  0.00     0.080 C 
ENDROOT
BRANCH   2   8
ATOM      8  C   UNL d   1       0.391  -2.619  -0.109  0.00  0.00     0.298 C 
ATOM      9  O   UNL d   1       1.473  -2.945   0.369  0.00  0.00    -0.259 OA
BRANCH   8  10
ATOM     10  O   UNL d   1      -0.411  -3.479  -0.800  0.00  0.00    -0.312 OA
BRANCH  10  11
ATOM     11  C   UNL d   1       0.131  -4.818  -0.914  0.00  0.00     0.227 C 
BRANCH  11  12
ATOM     12  C   UNL d   1       0.934  -5.000  -2.192  0.00  0.00     0.034 A 
ATOM     13  C   UNL d   1       1.754  -6.051  -2.614  0.00  0.00     0.054 A 
ATOM     14  C   UNL d   1       2.120  -5.914  -3.999  0.00  0.00     0.038 A 
ATOM     15  C   UNL d   1       1.683  -4.736  -4.553  0.00  0.00     0.052 A 
ATOM     16  S   UNL d   1       0.769  -3.823  -3.453  0.00  0.00    -0.102 SA
BRANCH  13  17
ATOM     17  N   UNL d   1       2.229  -7.175  -1.848  0.00  0.00    -0.332 N 
ATOM     18  C   UNL d   1       2.412  -7.256  -0.484  0.00  0.00     0.096 A 
ATOM     19  C   UNL d   1       3.021  -8.453  -0.170  0.00  0.00     0.019 A 
ATOM     20  C   UNL d   1       3.191  -9.165  -1.372  0.00  0.00     0.019 A 
ATOM     21  C   UNL d   1       2.695  -8.369  -2.380  0.00  0.00     0.096 A 
ENDBRANCH  13  17
ENDBRANCH  11  12
ENDBRANCH  10  11
ENDBRANCH   8  10
ENDBRANCH   2   8
BRANCH   1  22
ATOM     22  C   UNL d   1      -2.717  -1.226   0.386  0.00  0.00     0.054 A 
ATOM     23  C   UNL d   1      -2.871  -2.431   1.083  0.00  0.00     0.130 A 
ATOM     24  F   UNL d   1      -1.807  -3.065   1.597  0.00  0.00    -0.205 F 
ATOM     25  C   UNL d   1      -4.126  -3.008   1.304  0.00  0.00     0.043 A 
ATOM     26  C   UNL d   1      -5.276  -2.372   0.854  0.00  0.00     0.005 A 
ATOM     27  C   UNL d   1      -5.163  -1.157   0.188  0.00  0.00     0.025 A 
ATOM     28  C   UNL d   1      -3.901  -0.588  -0.053  0.00  0.00     0.049 A 
ATOM     29 CL   UNL d   1      -3.934   0.906  -0.937  0.00  0.00    -0.083 Cl
ENDBRANCH   1  22
TORSDOF 6
