REMARK  3 active torsions:
REMARK  status: ('A' for Active; 'I' for Inactive)
REMARK    1  A    between atoms: O_14  and  C_6 
REMARK    2  A    between atoms: C_12  and  C_7 
REMARK    3  A    between atoms: O_15  and  C_12 
ROOT
ATOM      1  C   UNL d   1       0.166  -0.771   0.013  0.00  0.00     0.068 A 
ATOM      2  C   UNL d   1       0.090   0.612   0.027  0.00  0.00     0.137 A 
ATOM      3  N   UNL d   1       2.303   0.075   0.027  0.00  0.00    -0.301 N 
ATOM      4  HN  UNL d   1       3.319   0.161   0.032  1.00  0.00     0.187 HD
ATOM      5  N   UNL d   1       1.383   1.063   0.026  0.00  0.00    -0.280 N 
ATOM      6  C   UNL d   1      -1.024  -1.542  -0.004  0.00  0.00     0.101 A 
ATOM      7  C   UNL d   1      -2.221  -0.802  -0.011  0.00  0.00     0.089 A 
ATOM      8  C   UNL d   1       1.565  -1.044   0.018  0.00  0.00     0.039 A 
ATOM      9  N   UNL d   1      -1.029   1.361   0.032  0.00  0.00    -0.349 N 
ATOM     10  HN  UNL d   1      -1.032   2.380   0.052  1.00  0.00     0.167 HD
ATOM     11  C   UNL d   1      -2.151   0.600   0.007  0.00  0.00     0.110 A 
ATOM     12  C   UNL d   1       1.827   2.434   0.012  0.00  0.00     0.179 C 
ATOM     13  C   UNL d   1       2.226  -2.374   0.007  0.00  0.00     0.071 C 
ENDROOT
BRANCH   7  14
ATOM     14  C   UNL d   1      -3.583  -1.359  -0.130  0.00  0.00     0.297 C 
ATOM     15  O   UNL d   1      -3.911  -2.237  -0.910  0.00  0.00    -0.259 OA
BRANCH  14  16
ATOM     16  O   UNL d   1      -4.421  -0.717   0.727  0.00  0.00    -0.322 OA
ATOM     17  C   UNL d   1      -5.786  -1.138   0.640  0.00  0.00     0.213 C 
ENDBRANCH  14  16
ENDBRANCH   7  14
BRANCH   6  18
ATOM     18  O   UNL d   1      -0.794  -2.878   0.006  0.00  0.00    -0.354 OA
ATOM     19  C   UNL d   1      -1.827  -3.840   0.029  0.00  0.00     0.210 C 
ENDBRANCH   6  18
TORSDOF 3
