REMARK  6 active torsions:
REMARK  status: ('A' for Active; 'I' for Inactive)
REMARK    1  A    between atoms: C_2  and  S_1 
REMARK    2  A    between atoms: C_8  and  S_1 
REMARK    3  A    between atoms: C_4  and  C_3 
REMARK    4  A    between atoms: C_19  and  C_9 
REMARK    5  A    between atoms: C_14  and  O_16 
REMARK    6  A    between atoms: O_16  and  C_19 
ROOT
ATOM      1  C   UNL d   1       0.435   0.367  -1.505  0.00  0.00     0.146 C 
ATOM      2  C   UNL d   1      -0.421  -0.417  -2.188  0.00  0.00     0.072 C 
ATOM      3  C   UNL d   1       0.941   0.079  -0.203  0.00  0.00     0.112 C 
ATOM      4  N   UNL d   1       1.344  -0.175   0.851  0.00  0.00    -0.191 NA
ENDROOT
BRANCH   1   5
ATOM      5  S   UNL d   1       0.842   1.916  -2.173  0.00  0.00     0.216 S 
ATOM      6  O   UNL d   1       0.425   2.962  -1.256  0.00  0.00    -0.216 OA
ATOM      7  O   UNL d   1       0.428   1.986  -3.564  0.00  0.00    -0.216 OA
BRANCH   5   8
ATOM      8  C   UNL d   1       2.627   1.942  -2.198  0.00  0.00     0.065 A 
ATOM      9  C   UNL d   1       3.309   1.499  -3.338  0.00  0.00     0.025 A 
ATOM     10  C   UNL d   1       4.701   1.603  -3.391  0.00  0.00     0.025 A 
ATOM     11  C   UNL d   1       5.398   2.158  -2.317  0.00  0.00     0.034 A 
ATOM     12  C   UNL d   1       4.715   2.612  -1.188  0.00  0.00     0.025 A 
ATOM     13 CL   UNL d   1       7.110   2.303  -2.396  0.00  0.00    -0.084 Cl
ATOM     14  C   UNL d   1       3.324   2.515  -1.129  0.00  0.00     0.025 A 
ENDBRANCH   5   8
ENDBRANCH   1   5
BRANCH   2  15
ATOM     15  C   UNL d   1      -0.895  -1.653  -1.670  0.00  0.00     0.077 A 
ATOM     16  O   UNL d   1      -0.259  -2.353  -0.672  0.00  0.00    -0.313 OA
ATOM     17  C   UNL d   1      -1.006  -3.436  -0.340  0.00  0.00     0.078 A 
ATOM     18  C   UNL d   1      -2.120  -3.489  -1.143  0.00  0.00     0.038 A 
ATOM     19  C   UNL d   1      -2.038  -2.369  -2.008  0.00  0.00     0.040 A 
BRANCH  17  20
ATOM     20  C   UNL d   1      -0.501  -4.283   0.768  0.00  0.00     0.243 C 
BRANCH  20  21
ATOM     21  O   UNL d   1       0.763  -4.836   0.379  0.00  0.00    -0.315 OA
BRANCH  21  22
ATOM     22  C   UNL d   1       0.696  -5.955  -0.386  0.00  0.00     0.255 C 
ATOM     23  O   UNL d   1      -0.332  -6.513  -0.745  0.00  0.00    -0.266 OA
ATOM     24  C   UNL d   1       2.070  -6.424  -0.756  0.00  0.00     0.126 C 
ENDBRANCH  21  22
ENDBRANCH  20  21
ENDBRANCH  17  20
ENDBRANCH   2  15
TORSDOF 6
