REMARK  5 active torsions:
REMARK  status: ('A' for Active; 'I' for Inactive)
REMARK    1  A    between atoms: C_9  and  N_1 
REMARK    2  A    between atoms: N_6  and  C_10 
REMARK    3  A    between atoms: C_7  and  C_8 
REMARK       I    between atoms: N_11  and  C_7 
REMARK    4  A    between atoms: C_8  and  C_9 
REMARK    5  A    between atoms: C_15  and  N_11 
ROOT
ATOM      1  C   UNL d   1       1.571   4.899  -0.089  0.00  0.00     0.223 C 
ATOM      2  N   UNL d   1       2.923   5.178  -0.128  0.00  0.00    -0.327 N 
ATOM      3  O   UNL d   1       1.098   3.765   0.007  0.00  0.00    -0.273 OA
ATOM      4  H   UNL d   1       3.226   6.138  -0.066  0.00  0.00     0.169 HD
ENDROOT
BRANCH   1   5
ATOM      5  C   UNL d   1       0.578   6.048  -0.082  0.00  0.00     0.123 C 
BRANCH   5   6
ATOM      6  C   UNL d   1       1.027   7.494  -0.187  0.00  0.00     0.138 C 
BRANCH   6   7
ATOM      7  N   UNL d   1       1.679   7.834  -1.437  0.00  0.00    -0.355 N 
ATOM      8  C   UNL d   1       1.071   7.753  -2.662  0.00  0.00     0.099 A 
ATOM      9  C   UNL d   1       1.996   8.082  -3.631  0.00  0.00    -0.034 A 
ATOM     10  C   UNL d   1       1.778   8.065  -5.101  0.00  0.00     0.050 C 
ATOM     11  C   UNL d   1       3.199   8.443  -2.947  0.00  0.00    -0.002 A 
ATOM     12  C   UNL d   1       2.971   8.300  -1.575  0.00  0.00     0.045 A 
ATOM     13  C   UNL d   1       4.467   8.882  -3.380  0.00  0.00     0.014 A 
ATOM     14  C   UNL d   1       3.962   8.594  -0.622  0.00  0.00     0.030 A 
ATOM     15  C   UNL d   1       5.214   9.012  -1.080  0.00  0.00     0.002 A 
ATOM     16  C   UNL d   1       5.466   9.155  -2.439  0.00  0.00     0.001 A 
ENDBRANCH   6   7
ENDBRANCH   5   6
ENDBRANCH   1   5
BRANCH   2  17
ATOM     17  C   UNL d   1       3.963   4.214  -0.070  0.00  0.00     0.034 A 
ATOM     18  C   UNL d   1       3.761   2.852  -0.291  0.00  0.00     0.032 A 
ATOM     19  C   UNL d   1       4.782   1.925  -0.046  0.00  0.00     0.031 A 
ATOM     20  C   UNL d   1       6.036   2.322   0.429  0.00  0.00     0.030 A 
ATOM     21  C   UNL d   1       6.261   3.702   0.526  0.00  0.00     0.031 A 
ATOM     22  C   UNL d   1       5.246   4.639   0.266  0.00  0.00     0.032 A 
BRANCH  20  23
ATOM     23  N   UNL d   1       6.951   1.378   0.862  0.00  0.00    -0.381 N 
ATOM     24  C   UNL d   1       7.882   1.687   1.944  0.00  0.00     0.123 C 
ATOM     25  C   UNL d   1       7.995   0.463   2.854  0.00  0.00     0.020 C 
ATOM     26  C   UNL d   1       8.401  -0.780   2.066  0.00  0.00     0.003 C 
ATOM     27  C   UNL d   1       7.473  -1.012   0.873  0.00  0.00     0.020 C 
ATOM     28  C   UNL d   1       7.310   0.243   0.011  0.00  0.00     0.123 C 
ENDBRANCH  20  23
ENDBRANCH   2  17
TORSDOF 5
