REMARK  3 active torsions:
REMARK  status: ('A' for Active; 'I' for Inactive)
REMARK    1  A    between atoms: C_6  and  C_1 
REMARK    2  A    between atoms: C_3  and  C_2 
REMARK       I    between atoms: N_7  and  C_3 
REMARK    3  A    between atoms: S_9  and  N_7 
ROOT
ATOM      1  C   UNL d   1      -1.390  -0.521   0.184  0.00  0.00     0.088 A 
ATOM      2  C   UNL d   1      -0.142  -1.219   0.052  0.00  0.00     0.093 A 
ATOM      3  N   UNL d   1      -1.176   0.804   0.081  0.00  0.00    -0.259 N 
ATOM      4  HN  UNL d   1      -1.889   1.534   0.077  1.00  0.00     0.195 HD
ATOM      5  O   UNL d   1       0.175   0.989  -0.017  0.00  0.00    -0.241 OA
ATOM      6  C   UNL d   1       0.800  -0.210  -0.030  0.00  0.00     0.090 A 
ATOM      7  C   UNL d   1       2.273  -0.136  -0.088  0.00  0.00     0.080 C 
ENDROOT
BRANCH   1   8
ATOM      8  C   UNL d   1      -2.772  -1.005   0.308  0.00  0.00     0.054 A 
ATOM      9  C   UNL d   1      -3.748  -0.346   1.087  0.00  0.00     0.049 A 
ATOM     10 CL   UNL d   1      -3.396   0.982   2.147  0.00  0.00    -0.083 Cl
ATOM     11  C   UNL d   1      -5.090  -0.761   1.066  0.00  0.00     0.025 A 
ATOM     12  C   UNL d   1      -5.480  -1.859   0.305  0.00  0.00     0.005 A 
ATOM     13  C   UNL d   1      -4.524  -2.545  -0.437  0.00  0.00     0.043 A 
ATOM     14  C   UNL d   1      -3.197  -2.110  -0.442  0.00  0.00     0.130 A 
ATOM     15  F   UNL d   1      -2.337  -2.764  -1.237  0.00  0.00    -0.205 F 
ENDBRANCH   1   8
BRANCH   2  16
ATOM     16  C   UNL d   1       0.142  -2.648   0.039  0.00  0.00     0.267 C 
ATOM     17  N   UNL d   1       1.168  -3.085  -0.823  0.00  0.00    -0.283 N 
ATOM     18  HN  UNL d   1       1.843  -2.400  -1.162  1.00  0.00     0.178 HD
ATOM     19  O   UNL d   1      -0.427  -3.390   0.827  0.00  0.00    -0.267 OA
BRANCH  17  20
ATOM     20  S   UNL d   1       1.316  -4.544  -1.274  0.00  0.00     0.020 S 
ATOM     21  O   UNL d   1       0.258  -5.531  -1.295  0.00  0.00    -0.250 OA
ATOM     22  C   UNL d   1       2.678  -5.244  -0.362  0.00  0.00     0.136 C 
ATOM     23  C   UNL d   1       1.988  -4.503  -2.924  0.00  0.00     0.136 C 
ENDBRANCH  17  20
ENDBRANCH   2  16
TORSDOF 3
