REMARK  2 active torsions:
REMARK  status: ('A' for Active; 'I' for Inactive)
REMARK    1  A    between atoms: N_4  and  C_1 
REMARK    2  A    between atoms: N_11  and  C_8 
ROOT
ATOM      1  C   UNL d   1       1.223   3.862   0.382  0.00  0.00     0.047 A 
ATOM      2  N   UNL d   1       3.907   4.604   0.049  0.00  0.00    -0.359 N 
ATOM      3  HN  UNL d   1       4.874   4.884  -0.113  1.00  0.00     0.166 HD
ATOM      4  C   UNL d   1       2.216   2.878   0.151  0.00  0.00     0.017 A 
ATOM      5  C   UNL d   1       3.550   3.309   0.006  0.00  0.00     0.044 A 
ATOM      6  C   UNL d   1       1.629   5.186   0.529  0.00  0.00     0.055 A 
ATOM      7  C   UNL d   1       2.954   5.524   0.311  0.00  0.00     0.007 A 
ATOM      8  C   UNL d   1       1.935   1.492   0.081  0.00  0.00     0.016 A 
ATOM      9  C   UNL d   1       4.546   2.360  -0.184  0.00  0.00     0.030 A 
ATOM     10  C   UNL d   1       3.359   6.966   0.282  0.00  0.00     0.068 C 
ATOM     11  C   UNL d   1       2.952   0.557  -0.105  0.00  0.00     0.001 A 
ATOM     12  C   UNL d   1       4.263   0.991  -0.234  0.00  0.00     0.002 A 
ENDROOT
BRANCH   1  13
ATOM     13  N   UNL d   1      -0.122   3.462   0.539  0.00  0.00    -0.352 N 
ATOM     14  C   UNL d   1      -1.147   4.198   0.270  0.00  0.00     0.178 C 
ATOM     15  HN  UNL d   1      -0.296   2.521   0.891  1.00  0.00     0.166 HD
BRANCH  14  16
ATOM     16  N   UNL d   1      -1.334   5.459  -0.271  0.00  0.00    -0.386 N 
ATOM     17  C   UNL d   1      -2.595   6.146  -0.003  0.00  0.00     0.149 C 
ATOM     18  C   UNL d   1      -0.738   5.810  -1.558  0.00  0.00     0.149 C 
ENDBRANCH  14  16
ENDBRANCH   1  13
TORSDOF 2
