REMARK  4 active torsions:
REMARK  status: ('A' for Active; 'I' for Inactive)
REMARK    1  A    between atoms: C_6  and  C_1 
REMARK    2  A    between atoms: O_16  and  C_4 
REMARK       I    between atoms: N_9  and  C_6 
REMARK    3  A    between atoms: C_8  and  C_10 
REMARK    4  A    between atoms: C_14  and  N_9 
ROOT
ATOM      1  C   UNL d   1      -1.406   2.365  -0.233  0.00  0.00     0.134 C 
ATOM      2  C   UNL d   1       0.050   2.417   0.096  0.00  0.00     0.266 C 
ATOM      3  N   UNL d   1       0.781   1.235   0.028  0.00  0.00    -0.312 N 
ATOM      4  C   UNL d   1      -1.979   1.181  -0.535  0.00  0.00     0.099 C 
ATOM      5  C   UNL d   1      -1.218  -0.070  -0.447  0.00  0.00     0.026 A 
ATOM      6  C   UNL d   1       0.153  -0.026  -0.166  0.00  0.00     0.056 A 
ATOM      7  O   UNL d   1       0.562   3.498   0.402  0.00  0.00    -0.267 OA
ATOM      8  C   UNL d   1       0.884  -1.223  -0.055  0.00  0.00    -0.030 A 
ATOM      9  C   UNL d   1       2.205   1.286   0.340  0.00  0.00     0.133 C 
ATOM     10  C   UNL d   1      -1.852  -1.313  -0.604  0.00  0.00     0.016 A 
ATOM     11  C   UNL d   1       3.000   0.082  -0.146  0.00  0.00     0.025 C 
ATOM     12  C   UNL d   1      -1.135  -2.500  -0.474  0.00  0.00     0.002 A 
ATOM     13  C   UNL d   1       2.345  -1.213   0.298  0.00  0.00     0.042 C 
ATOM     14  C   UNL d   1       0.227  -2.455  -0.197  0.00  0.00     0.009 A 
ENDROOT
BRANCH   1  15
ATOM     15  C   UNL d   1      -2.284   3.579  -0.227  0.00  0.00     0.264 C 
ATOM     16  N   UNL d   1      -1.759   4.724   0.328  0.00  0.00    -0.323 N 
ATOM     17  H   UNL d   1      -0.762   4.708   0.552  0.00  0.00     0.169 HD
ATOM     18  O   UNL d   1      -3.417   3.496  -0.718  0.00  0.00    -0.267 OA
BRANCH  16  19
ATOM     19  C   UNL d   1      -2.430   5.957   0.479  0.00  0.00     0.035 A 
ATOM     20  C   UNL d   1      -3.819   6.092   0.377  0.00  0.00     0.045 A 
ATOM     21  C   UNL d   1      -4.438   7.350   0.459  0.00  0.00     0.050 A 
ATOM     22  C   UNL d   1      -3.640   8.484   0.653  0.00  0.00     0.016 A 
ATOM     23  C   UNL d   1      -2.259   8.355   0.803  0.00  0.00     0.003 A 
ATOM     24  C   UNL d   1      -1.659   7.094   0.732  0.00  0.00     0.029 A 
BRANCH  21  25
ATOM     25  C   UNL d   1      -5.933   7.482   0.303  0.00  0.00     0.417 C 
ATOM     26  F   UNL d   1      -6.604   6.300   0.393  0.00  0.00    -0.166 F 
ATOM     27  F   UNL d   1      -6.488   8.293   1.247  0.00  0.00    -0.166 F 
ATOM     28  F   UNL d   1      -6.282   8.020  -0.899  0.00  0.00    -0.166 F 
ENDBRANCH  21  25
ENDBRANCH  16  19
ENDBRANCH   1  15
BRANCH   4  29
ATOM     29  O   UNL d   1      -3.304   1.017  -0.912  0.00  0.00    -0.359 OA
ATOM     30  H   UNL d   1      -3.717   1.906  -1.004  0.00  0.00     0.217 HD
ENDBRANCH   4  29
TORSDOF 4
