REMARK  11 active torsions:
REMARK  status: ('A' for Active; 'I' for Inactive)
REMARK    1  A    between atoms: N_3  and  S_1 
REMARK    2  A    between atoms: C_6  and  S_1 
REMARK    3  A    between atoms: C_2  and  N_3 
REMARK    4  A    between atoms: N_5  and  C_4 
REMARK    5  A    between atoms: C_8  and  C_9 
REMARK    6  A    between atoms: O_18  and  C_8 
REMARK    7  A    between atoms: C_26  and  O_18 
REMARK    8  A    between atoms: C_27  and  C_21 
REMARK    9  A    between atoms: C_28  and  C_27 
REMARK   10  A    between atoms: C_30  and  C_28 
REMARK   11  A    between atoms: C_29  and  C_30 
ROOT
ATOM      1  C   UNL d   1       0.976  -1.331   2.469  0.00  0.00     0.050 A 
ATOM      2  C   UNL d   1       2.250  -1.898   2.213  0.00  0.00     0.052 A 
ATOM      3  C   UNL d   1       0.087  -1.904   3.385  0.00  0.00     0.044 A 
ATOM      4  C   UNL d   1       0.464  -3.025   4.125  0.00  0.00     0.041 A 
ATOM      5  C   UNL d   1       2.602  -3.017   2.990  0.00  0.00     0.032 A 
ATOM      6  C   UNL d   1       1.733  -3.572   3.939  0.00  0.00     0.020 A 
ENDROOT
BRANCH   1   7
ATOM      7  N   UNL d   1       0.534  -0.168   1.751  0.00  0.00    -0.179 NA
ATOM      8  H   UNL d   1      -0.049   0.446   2.318  0.00  0.00     0.146 HD
BRANCH   7   9
ATOM      9  S   UNL d   1      -0.170  -0.418   0.228  0.00  0.00     0.245 S 
ATOM     10  O   UNL d   1       0.154  -1.716  -0.310  0.00  0.00    -0.206 OA
ATOM     11  O   UNL d   1       0.049   0.802  -0.530  0.00  0.00    -0.206 OA
BRANCH   9  12
ATOM     12  C   UNL d   1      -1.891  -0.428   0.685  0.00  0.00     0.074 A 
ATOM     13  C   UNL d   1      -2.583   0.784   0.762  0.00  0.00     0.025 A 
ATOM     14  C   UNL d   1      -3.916   0.787   1.169  0.00  0.00     0.009 A 
ATOM     15  C   UNL d   1      -4.561  -0.413   1.499  0.00  0.00    -0.058 A 
ATOM     16  C   UNL d   1      -3.857  -1.623   1.391  0.00  0.00     0.009 A 
ATOM     17  C   UNL d   1      -2.524  -1.635   0.981  0.00  0.00     0.025 A 
BRANCH  15  18
ATOM     18  C   UNL d   1      -6.002  -0.389   1.950  0.00  0.00     0.038 C 
BRANCH  18  19
ATOM     19  C   UNL d   1      -6.241  -0.985   3.341  0.00  0.00     0.005 C 
BRANCH  19  20
ATOM     20  C   UNL d   1      -5.503  -0.246   4.463  0.00  0.00    -0.000 C 
BRANCH  20  21
ATOM     21  C   UNL d   1      -5.795  -0.902   5.813  0.00  0.00    -0.005 C 
ATOM     22  C   UNL d   1      -5.066  -0.209   6.952  0.00  0.00     0.005 C 
ENDBRANCH  20  21
ENDBRANCH  19  20
ENDBRANCH  18  19
ENDBRANCH  15  18
ENDBRANCH   9  12
ENDBRANCH   7   9
ENDBRANCH   1   7
BRANCH   2  23
ATOM     23  N   UNL d   1       3.096  -1.414   1.221  0.00  0.00    -0.375 N 
ATOM     24  C   UNL d   1       4.108  -2.288   0.604  0.00  0.00     0.149 C 
ATOM     25  C   UNL d   1       4.375  -1.809  -0.832  0.00  0.00     0.187 C 
ATOM     26  O   UNL d   1       4.810  -0.440  -0.851  0.00  0.00    -0.388 OA
ATOM     27  C   UNL d   1       3.792   0.406  -0.284  0.00  0.00     0.187 C 
ATOM     28  C   UNL d   1       3.473   0.014   1.171  0.00  0.00     0.149 C 
ENDBRANCH   2  23
BRANCH   4  29
ATOM     29  C   UNL d   1      -0.486  -3.514   5.156  0.00  0.00     0.293 C 
ATOM     30  O   UNL d   1      -1.597  -3.037   5.321  0.00  0.00    -0.259 OA
BRANCH  29  31
ATOM     31  O   UNL d   1       0.122  -4.425   5.954  0.00  0.00    -0.318 OA
BRANCH  31  32
ATOM     32  C   UNL d   1      -0.420  -4.525   7.277  0.00  0.00     0.174 C 
ATOM     33  C   UNL d   1       0.306  -3.510   8.142  0.00  0.00     0.034 C 
ENDBRANCH  31  32
ENDBRANCH  29  31
ENDBRANCH   4  29
TORSDOF 11
