REMARK  2 active torsions:
REMARK  status: ('A' for Active; 'I' for Inactive)
REMARK    1  A    between atoms: C_2  and  C_1 
REMARK    2  A    between atoms: O_10  and  C_1 
ROOT
ATOM      1  C   UNL d   1       0.168   0.718  -1.159  0.00  0.00     0.040 A 
ATOM      2  C   UNL d   1      -1.000   1.431  -0.842  0.00  0.00     0.027 A 
ATOM      3  C   UNL d   1      -1.722   2.007  -1.872  0.00  0.00    -0.022 A 
ATOM      4  C   UNL d   1      -1.293   1.904  -3.186  0.00  0.00     0.075 A 
ATOM      5  O   UNL d   1      -2.109   2.544  -4.082  0.00  0.00    -0.350 OA
ATOM      6  C   UNL d   1       0.594   0.623  -2.502  0.00  0.00     0.020 A 
ATOM      7  C   UNL d   1      -0.141   1.228  -3.529  0.00  0.00     0.038 A 
ATOM      8  C   UNL d   1      -3.300   2.831  -3.310  0.00  0.00     0.180 C 
ATOM      9  C   UNL d   1      -2.941   2.844  -1.823  0.00  0.00     0.068 C 
ENDROOT
BRANCH   1  10
ATOM     10  C   UNL d   1       0.924   0.091  -0.039  0.00  0.00     0.292 C 
ATOM     11  O   UNL d   1       0.626   0.239   1.136  0.00  0.00    -0.259 OA
BRANCH  10  12
ATOM     12  O   UNL d   1       1.954  -0.653  -0.512  0.00  0.00    -0.323 OA
ATOM     13  C   UNL d   1       2.725  -1.318   0.492  0.00  0.00     0.213 C 
ENDBRANCH  10  12
ENDBRANCH   1  10
TORSDOF 2
