REMARK  5 active torsions:
REMARK  status: ('A' for Active; 'I' for Inactive)
REMARK    1  A    between atoms: N_2  and  C_1 
REMARK    2  A    between atoms: C_3  and  C_6 
REMARK    3  A    between atoms: O_7  and  C_4 
REMARK    4  A    between atoms: C_8  and  O_7 
REMARK    5  A    between atoms: C_14  and  C_9 
ROOT
ATOM      1  C   UNL d   1      -0.839  -2.993  -1.699  0.00  0.00     0.137 A 
ATOM      2  C   UNL d   1       0.172  -3.466  -0.860  0.00  0.00     0.109 A 
ATOM      3  C   UNL d   1      -1.660  -3.865  -2.430  0.00  0.00     0.055 A 
ATOM      4  C   UNL d   1      -1.483  -5.252  -2.304  0.00  0.00     0.050 A 
ATOM      5  C   UNL d   1       0.309  -4.849  -0.699  0.00  0.00     0.040 A 
ATOM      6  C   UNL d   1      -0.493  -5.731  -1.430  0.00  0.00     0.019 A 
ENDROOT
BRANCH   2   7
ATOM      7  O   UNL d   1       0.990  -2.576  -0.202  0.00  0.00    -0.307 OA
BRANCH   7   8
ATOM      8  C   UNL d   1       2.337  -2.869  -0.128  0.00  0.00     0.098 A 
ATOM      9  C   UNL d   1       3.024  -2.592   1.055  0.00  0.00     0.068 A 
ATOM     10  C   UNL d   1       4.394  -2.871   1.159  0.00  0.00     0.034 A 
ATOM     11 CL   UNL d   1       2.219  -1.902   2.418  0.00  0.00    -0.081 Cl
ATOM     12  C   UNL d   1       5.113  -3.429   0.084  0.00  0.00    -0.049 A 
ATOM     13  C   UNL d   1       4.404  -3.669  -1.107  0.00  0.00     0.011 A 
ATOM     14  C   UNL d   1       3.042  -3.378  -1.220  0.00  0.00     0.039 A 
BRANCH  12  15
ATOM     15  C   UNL d   1       6.633  -3.666   0.153  0.00  0.00    -0.024 C 
ATOM     16  C   UNL d   1       7.317  -2.416  -0.435  0.00  0.00     0.019 C 
ATOM     17  C   UNL d   1       7.156  -3.882   1.591  0.00  0.00     0.019 C 
ATOM     18  C   UNL d   1       7.074  -4.905  -0.661  0.00  0.00     0.019 C 
ENDBRANCH  12  15
ENDBRANCH   7   8
ENDBRANCH   2   7
BRANCH   1  19
ATOM     19  N   UNL d   1      -1.041  -1.563  -1.862  0.00  0.00    -0.113 N 
ATOM     20  O   UNL d   1      -1.273  -0.898  -0.846  0.00  0.00    -0.532 OA
ATOM     21  O   UNL d   1      -1.018  -1.131  -3.022  0.00  0.00    -0.532 OA
ENDBRANCH   1  19
BRANCH   4  22
ATOM     22  C   UNL d   1      -2.321  -6.231  -3.093  0.00  0.00     0.417 C 
ATOM     23  F   UNL d   1      -3.346  -5.644  -3.768  0.00  0.00    -0.166 F 
ATOM     24  F   UNL d   1      -1.588  -6.899  -4.024  0.00  0.00    -0.166 F 
ATOM     25  F   UNL d   1      -2.886  -7.184  -2.303  0.00  0.00    -0.166 F 
ENDBRANCH   4  22
TORSDOF 5
