REMARK  2 active torsions:
REMARK  status: ('A' for Active; 'I' for Inactive)
REMARK    1  A    between atoms: N_5  and  C_1 
REMARK    2  A    between atoms: N_10  and  C_8 
ROOT
ATOM      1  C   UNL d   1      -1.276  -0.924   0.000  0.00  0.00     0.172 A 
ATOM      2  C   UNL d   1      -0.894   0.305   0.500  0.00  0.00     0.085 A 
ATOM      3  N   UNL d   1       0.920  -0.629  -0.481  0.00  0.00    -0.264 N 
ATOM      4  HN  UNL d   1       1.867  -0.791  -0.825  1.00  0.00     0.194 HD
ATOM      5  O   UNL d   1      -0.169  -1.468  -0.609  0.00  0.00    -0.220 OA
ATOM      6  C   UNL d   1       0.474   0.438   0.186  0.00  0.00     0.033 A 
ATOM      7  C   UNL d   1       1.393   1.554   0.500  0.00  0.00     0.070 C 
ENDROOT
BRANCH   1   8
ATOM      8  N   UNL d   1      -2.494  -1.524   0.031  0.00  0.00    -0.331 N 
ATOM      9  C   UNL d   1      -2.481  -2.815  -0.008  0.00  0.00     0.179 C 
ATOM     10  HN  UNL d   1      -3.362  -0.990   0.081  1.00  0.00     0.168 HD
BRANCH   9  11
ATOM     11  N   UNL d   1      -3.582  -3.642  -0.009  0.00  0.00    -0.386 N 
ATOM     12  C   UNL d   1      -4.936  -3.116  -0.025  0.00  0.00     0.149 C 
ATOM     13  C   UNL d   1      -3.460  -5.090  -0.036  0.00  0.00     0.149 C 
ENDBRANCH   9  11
ENDBRANCH   1   8
TORSDOF 2
