REMARK  5 active torsions:
REMARK  status: ('A' for Active; 'I' for Inactive)
REMARK    1  A    between atoms: C_2  and  C_1 
REMARK    2  A    between atoms: O_7  and  C_2 
REMARK    3  A    between atoms: S_4  and  C_3 
REMARK    4  A    between atoms: C_6  and  S_4 
REMARK    5  A    between atoms: C_9  and  C_6 
ROOT
ATOM      1  C   UNL d   1       1.001  -0.352   0.771  0.00  0.00     0.054 A 
ATOM      2  C   UNL d   1       0.597  -1.385  -0.093  0.00  0.00     0.017 A 
ATOM      3  C   UNL d   1       0.565   0.966   0.540  0.00  0.00     0.020 A 
ATOM      4  C   UNL d   1      -0.274  -1.075  -1.152  0.00  0.00     0.019 A 
ATOM      5  C   UNL d   1      -0.294   1.256  -0.518  0.00  0.00     0.001 A 
ATOM      6  C   UNL d   1      -0.717   0.234  -1.362  0.00  0.00     0.001 A 
ENDROOT
BRANCH   2   7
ATOM      7  S   UNL d   1       1.049  -3.111   0.073  0.00  0.00    -0.124 SA
BRANCH   7   8
ATOM      8  C   UNL d   1       2.848  -3.022  -0.259  0.00  0.00     0.117 C 
BRANCH   8   9
ATOM      9  C   UNL d   1       3.445  -4.403  -0.379  0.00  0.00    -0.049 A 
ATOM     10  C   UNL d   1       3.531  -5.036  -1.628  0.00  0.00     0.008 A 
ATOM     11  C   UNL d   1       4.080  -6.315  -1.738  0.00  0.00     0.001 A 
ATOM     12  C   UNL d   1       4.542  -6.978  -0.603  0.00  0.00     0.000 A 
ATOM     13  C   UNL d   1       4.452  -6.365   0.644  0.00  0.00     0.001 A 
ATOM     14  C   UNL d   1       3.904  -5.086   0.759  0.00  0.00     0.008 A 
ENDBRANCH   8   9
ENDBRANCH   7   8
ENDBRANCH   2   7
BRANCH   1  15
ATOM     15  C   UNL d   1       1.878  -0.538   1.954  0.00  0.00     0.177 C 
ATOM     16  O   UNL d   1       2.708   0.291   2.289  0.00  0.00    -0.646 OA
BRANCH  15  17
ATOM     17  O   UNL d   1       1.626  -1.654   2.667  0.00  0.00    -0.773 OA
ATOM     18  H   UNL d   1       0.957  -2.247   2.265  0.00  0.00     0.167 HD
ENDBRANCH  15  17
ENDBRANCH   1  15
TORSDOF 5
