REMARK  5 active torsions:
REMARK  status: ('A' for Active; 'I' for Inactive)
REMARK    1  A    between atoms: N_5  and  C_1 
REMARK    2  A    between atoms: C_9  and  C_2 
REMARK       I    between atoms: C_7  and  N_5 
REMARK    3  A    between atoms: C_8  and  C_7 
REMARK    4  A    between atoms: O_15  and  C_9 
REMARK    5  A    between atoms: C_18  and  O_15 
ROOT
ATOM      1  C   UNL d   1      -2.059  -0.787  -0.092  0.00  0.00     0.094 A 
ATOM      2  C   UNL d   1      -0.979  -1.668  -0.087  0.00  0.00     0.080 A 
ATOM      3  S   UNL d   1      -1.567   0.836  -0.133  0.00  0.00    -0.075 SA
ATOM      4  C   UNL d   1       0.281  -0.939  -0.074  0.00  0.00    -0.026 A 
ATOM      5  C   UNL d   1       0.071   0.426  -0.096  0.00  0.00    -0.008 A 
ATOM      6  C   UNL d   1       1.681  -1.498  -0.036  0.00  0.00     0.041 C 
ATOM      7  C   UNL d   1       1.132   1.481  -0.035  0.00  0.00     0.047 C 
ATOM      8  C   UNL d   1       2.717  -0.448   0.396  0.00  0.00     0.005 C 
ATOM      9  C   UNL d   1       2.512   0.884  -0.331  0.00  0.00     0.005 C 
ENDROOT
BRANCH   1  10
ATOM     10  N   UNL d   1      -3.411  -1.119  -0.045  0.00  0.00    -0.313 N 
ATOM     11  C   UNL d   1      -4.500  -0.237  -0.029  0.00  0.00     0.330 C 
ATOM     12  O   UNL d   1      -4.440   0.993  -0.110  0.00  0.00    -0.263 OA
ATOM     13  H   UNL d   1      -3.616  -2.121   0.010  0.00  0.00     0.169 HD
BRANCH  11  14
ATOM     14  C   UNL d   1      -5.851  -0.956   0.114  0.00  0.00     0.472 C 
ATOM     15  F   UNL d   1      -5.717  -2.314   0.130  0.00  0.00    -0.162 F 
ATOM     16  F   UNL d   1      -6.496  -0.625   1.267  0.00  0.00    -0.162 F 
ATOM     17  F   UNL d   1      -6.707  -0.670  -0.906  0.00  0.00    -0.162 F 
ENDBRANCH  11  14
ENDBRANCH   1  10
BRANCH   2  18
ATOM     18  C   UNL d   1      -1.160  -3.122  -0.035  0.00  0.00     0.296 C 
ATOM     19  O   UNL d   1      -2.261  -3.648   0.097  0.00  0.00    -0.259 OA
BRANCH  18  20
ATOM     20  O   UNL d   1       0.017  -3.805  -0.068  0.00  0.00    -0.318 OA
BRANCH  20  21
ATOM     21  C   UNL d   1      -0.004  -5.140   0.456  0.00  0.00     0.174 C 
ATOM     22  C   UNL d   1       0.177  -5.062   1.962  0.00  0.00     0.034 C 
ENDBRANCH  20  21
ENDBRANCH  18  20
ENDBRANCH   2  18
TORSDOF 5
