REMARK  5 active torsions:
REMARK  status: ('A' for Active; 'I' for Inactive)
REMARK    1  A    between atoms: C_6  and  N_1 
REMARK    2  A    between atoms: C_2  and  S_7 
REMARK    3  A    between atoms: S_7  and  C_15 
REMARK    4  A    between atoms: C_12  and  C_10 
REMARK    5  A    between atoms: C_15  and  C_12 
ROOT
ATOM      1  C   UNL d   1      -0.060   4.429   1.852  0.00  0.00     0.169 C 
ATOM      2  O   UNL d   1       1.021   4.334   2.438  0.00  0.00    -0.291 OA
ENDROOT
BRANCH   1   3
ATOM      3  C   UNL d   1      -0.344   3.433   0.773  0.00  0.00     0.013 A 
ATOM      4  C   UNL d   1       0.341   2.207   0.827  0.00  0.00     0.051 A 
ATOM      5  C   UNL d   1       0.133   1.246  -0.174  0.00  0.00     0.103 A 
ATOM      6  C   UNL d   1      -0.747   1.500  -1.229  0.00  0.00     0.036 A 
ATOM      7  C   UNL d   1      -1.420   2.721  -1.286  0.00  0.00     0.003 A 
ATOM      8  C   UNL d   1      -1.215   3.689  -0.292  0.00  0.00     0.015 A 
BRANCH   5   9
ATOM      9  N   UNL d   1       0.852  -0.035  -0.116  0.00  0.00    -0.116 N 
ATOM     10  O   UNL d   1       1.593  -0.237   0.857  0.00  0.00    -0.532 OA
ATOM     11  O   UNL d   1       0.670  -0.837  -1.042  0.00  0.00    -0.532 OA
ENDBRANCH   5   9
ENDBRANCH   1   3
BRANCH   1  12
ATOM     12  C   UNL d   1      -1.012   5.567   2.168  0.00  0.00     0.166 C 
BRANCH  12  13
ATOM     13  S   UNL d   1      -2.705   4.999   2.492  0.00  0.00    -0.086 SA
BRANCH  13  14
ATOM     14  C   UNL d   1      -3.480   6.513   2.830  0.00  0.00     0.146 A 
ATOM     15  N   UNL d   1      -4.822   6.642   3.074  0.00  0.00    -0.341 N 
ATOM     16  C   UNL d   1      -5.070   7.978   3.283  0.00  0.00     0.109 A 
ATOM     17  C   UNL d   1      -5.841   5.624   3.118  0.00  0.00     0.158 C 
ATOM     18  C   UNL d   1      -3.845   8.591   3.173  0.00  0.00     0.107 A 
ATOM     19  N   UNL d   1      -2.868   7.675   2.879  0.00  0.00    -0.345 N 
ATOM     20  HN  UNL d   1      -1.876   7.858   2.729  1.00  0.00     0.167 HD
ENDBRANCH  13  14
ENDBRANCH  12  13
ENDBRANCH   1  12
TORSDOF 5
