REMARK  8 active torsions:
REMARK  status: ('A' for Active; 'I' for Inactive)
REMARK    1  A    between atoms: S_8  and  C_2 
REMARK    2  A    between atoms: S_9  and  C_3 
REMARK    3  A    between atoms: C_17  and  S_8 
REMARK    4  A    between atoms: C_16  and  S_9 
REMARK    5  A    between atoms: C_10  and  C_17 
REMARK       I    between atoms: N_12  and  C_10 
REMARK    6  A    between atoms: C_11  and  C_16 
REMARK       I    between atoms: N_13  and  C_11 
REMARK    7  A    between atoms: C_19  and  N_12 
REMARK    8  A    between atoms: C_20  and  N_13 
ROOT
ATOM      1  N   UNL d   1       1.180   0.012   0.022  0.00  0.00    -0.310 N 
ATOM      2  C   UNL d   1       0.316   0.903  -0.556  0.00  0.00     0.163 A 
ATOM      3  C   UNL d   1       0.369  -0.992   0.489  0.00  0.00     0.163 A 
ATOM      4  N   UNL d   1      -0.916   0.469  -0.441  0.00  0.00    -0.278 N 
ATOM      5  HN  UNL d   1      -1.755   0.950  -0.767  1.00  0.00     0.189 HD
ATOM      6  N   UNL d   1      -0.879  -0.733   0.187  0.00  0.00    -0.278 N 
ATOM      7  HN  UNL d   1      -1.681  -1.330   0.389  1.00  0.00     0.189 HD
ATOM      8  C   UNL d   1       2.616   0.084   0.081  0.00  0.00     0.160 C 
ENDROOT
BRANCH   2   9
ATOM      9  S   UNL d   1       0.757   2.286  -1.492  0.00  0.00    -0.083 SA
BRANCH   9  10
ATOM     10  C   UNL d   1      -0.419   3.544  -0.914  0.00  0.00     0.185 C 
BRANCH  10  11
ATOM     11  C   UNL d   1      -1.880   3.449  -1.357  0.00  0.00     0.231 C 
ATOM     12  N   UNL d   1      -2.299   2.252  -1.890  0.00  0.00    -0.327 N 
ATOM     13  H   UNL d   1      -1.626   1.494  -1.850  0.00  0.00     0.169 HD
ATOM     14  O   UNL d   1      -2.611   4.422  -1.157  0.00  0.00    -0.272 OA
BRANCH  12  15
ATOM     15  C   UNL d   1      -3.616   1.849  -2.188  0.00  0.00     0.034 A 
ATOM     16  C   UNL d   1      -4.701   2.719  -2.272  0.00  0.00     0.029 A 
ATOM     17  C   UNL d   1      -5.986   2.222  -2.512  0.00  0.00     0.002 A 
ATOM     18  C   UNL d   1      -6.194   0.853  -2.670  0.00  0.00     0.000 A 
ATOM     19  C   UNL d   1      -5.115  -0.021  -2.608  0.00  0.00     0.002 A 
ATOM     20  C   UNL d   1      -3.830   0.476  -2.378  0.00  0.00     0.029 A 
ENDBRANCH  12  15
ENDBRANCH  10  11
ENDBRANCH   9  10
ENDBRANCH   2   9
BRANCH   3  21
ATOM     21  S   UNL d   1       0.913  -2.400   1.329  0.00  0.00    -0.083 SA
BRANCH  21  22
ATOM     22  C   UNL d   1      -0.646  -3.329   1.484  0.00  0.00     0.185 C 
BRANCH  22  23
ATOM     23  C   UNL d   1      -1.508  -2.801   2.625  0.00  0.00     0.231 C 
ATOM     24  N   UNL d   1      -2.309  -1.732   2.265  0.00  0.00    -0.327 N 
ATOM     25  H   UNL d   1      -2.170  -1.356   1.327  0.00  0.00     0.169 HD
ATOM     26  O   UNL d   1      -1.476  -3.346   3.727  0.00  0.00    -0.272 OA
BRANCH  24  27
ATOM     27  C   UNL d   1      -3.273  -1.062   3.042  0.00  0.00     0.034 A 
ATOM     28  C   UNL d   1      -3.525  -1.346   4.384  0.00  0.00     0.029 A 
ATOM     29  C   UNL d   1      -4.536  -0.668   5.073  0.00  0.00     0.002 A 
ATOM     30  C   UNL d   1      -5.303   0.297   4.424  0.00  0.00     0.000 A 
ATOM     31  C   UNL d   1      -5.044   0.603   3.090  0.00  0.00     0.002 A 
ATOM     32  C   UNL d   1      -4.027  -0.066   2.406  0.00  0.00     0.029 A 
ENDBRANCH  24  27
ENDBRANCH  22  23
ENDBRANCH  21  22
ENDBRANCH   3  21
TORSDOF 8
