REMARK  9 active torsions:
REMARK  status: ('A' for Active; 'I' for Inactive)
REMARK    1  A    between atoms: N_2  and  C_1 
REMARK    2  A    between atoms: C_3  and  C_1 
REMARK    3  A    between atoms: N_4  and  C_1 
REMARK    4  A    between atoms: C_5  and  C_1 
REMARK       I    between atoms: C_6  and  N_2 
REMARK    5  A    between atoms: C_7  and  N_4 
REMARK    6  A    between atoms: O_15  and  C_5 
REMARK    7  A    between atoms: O_14  and  C_6 
REMARK    8  A    between atoms: C_19  and  O_14 
REMARK    9  A    between atoms: C_20  and  O_15 
ROOT
ATOM      1  C   UNL d   1       1.117  -0.021  -0.186  0.00  0.00     0.298 C 
ENDROOT
BRANCH   1   2
ATOM      2  N   UNL d   1       0.551   0.716  -1.304  0.00  0.00    -0.294 N 
ATOM      3  C   UNL d   1       0.297   0.247  -2.547  0.00  0.00     0.363 C 
ATOM      4  O   UNL d   1      -0.592   0.746  -3.215  0.00  0.00    -0.238 OA
ATOM      5  H   UNL d   1      -0.060   1.473  -1.039  0.00  0.00     0.168 HD
BRANCH   3   6
ATOM      6  O   UNL d   1       1.062  -0.804  -2.904  0.00  0.00    -0.304 OA
BRANCH   6   7
ATOM      7  C   UNL d   1       0.656  -1.476  -4.109  0.00  0.00     0.176 C 
ATOM      8  C   UNL d   1       0.868  -0.652  -5.370  0.00  0.00     0.034 C 
ENDBRANCH   6   7
ENDBRANCH   3   6
ENDBRANCH   1   2
BRANCH   1   9
ATOM      9  C   UNL d   1       0.997  -1.591  -0.124  0.00  0.00     0.442 C 
ATOM     10  F   UNL d   1      -0.043  -2.071  -0.854  0.00  0.00    -0.166 F 
ATOM     11  F   UNL d   1       2.103  -2.241  -0.559  0.00  0.00    -0.166 F 
ATOM     12  F   UNL d   1       0.792  -2.025   1.150  0.00  0.00    -0.166 F 
ENDBRANCH   1   9
BRANCH   1  13
ATOM     13  N   UNL d   1       0.466   0.678   0.965  0.00  0.00    -0.347 N 
ATOM     14  H   UNL d   1       1.089   1.284   1.487  0.00  0.00     0.163 HD
BRANCH  13  15
ATOM     15  C   UNL d   1      -0.893   0.713   1.256  0.00  0.00     0.036 A 
ATOM     16  C   UNL d   1      -1.388   1.394   2.389  0.00  0.00    -0.036 A 
ATOM     17  C   UNL d   1      -0.514   2.077   3.410  0.00  0.00     0.050 C 
ATOM     18  C   UNL d   1      -2.776   1.412   2.656  0.00  0.00     0.009 A 
ATOM     19  C   UNL d   1      -3.684   0.774   1.818  0.00  0.00     0.001 A 
ATOM     20  C   UNL d   1      -3.216   0.092   0.712  0.00  0.00     0.002 A 
ATOM     21  C   UNL d   1      -1.843   0.056   0.451  0.00  0.00     0.030 A 
ENDBRANCH  13  15
ENDBRANCH   1  13
BRANCH   1  22
ATOM     22  C   UNL d   1       2.652   0.204  -0.188  0.00  0.00     0.318 C 
ATOM     23  O   UNL d   1       3.355   0.260  -1.192  0.00  0.00    -0.260 OA
BRANCH  22  24
ATOM     24  O   UNL d   1       3.148   0.321   1.085  0.00  0.00    -0.318 OA
BRANCH  24  25
ATOM     25  C   UNL d   1       4.583   0.394   1.180  0.00  0.00     0.174 C 
ATOM     26  C   UNL d   1       5.074   1.810   0.943  0.00  0.00     0.034 C 
ENDBRANCH  24  25
ENDBRANCH  22  24
ENDBRANCH   1  22
TORSDOF 9
