REMARK  3 active torsions:
REMARK  status: ('A' for Active; 'I' for Inactive)
REMARK    1  A    between atoms: C_3  and  S_1 
REMARK    2  A    between atoms: N_11  and  S_1 
REMARK    3  A    between atoms: S_18  and  C_10 
ROOT
ATOM      1  C   UNL d   1      -0.810  -0.102  -5.085  0.00  0.00     0.139 A 
ATOM      2  C   UNL d   1       0.529  -0.660  -1.500  0.00  0.00     0.116 A 
ATOM      3  C   UNL d   1      -1.454  -0.754  -6.119  0.00  0.00     0.117 A 
ATOM      4  C   UNL d   1      -0.372  -0.572  -3.799  0.00  0.00     0.043 A 
ATOM      5  S   UNL d   1      -0.240   0.509  -2.477  0.00  0.00    -0.074 SA
ATOM      6  O   UNL d   1      -0.556   1.180  -5.508  0.00  0.00    -0.234 OA
ATOM      7  N   UNL d   1      -0.971   1.347  -6.814  0.00  0.00    -0.253 N 
ATOM      8  HN  UNL d   1      -0.889   2.188  -7.385  1.00  0.00     0.195 HD
ATOM      9  C   UNL d   1      -1.501   0.177  -7.172  0.00  0.00     0.114 A 
ATOM     10  C   UNL d   1       0.597  -1.884  -2.139  0.00  0.00     0.034 A 
ATOM     11  C   UNL d   1      -1.942  -2.085  -6.094  0.00  0.00     0.105 C 
ATOM     12  C   UNL d   1       0.045  -1.842  -3.452  0.00  0.00     0.024 A 
ATOM     13  N   UNL d   1      -2.325  -3.181  -6.025  0.00  0.00    -0.191 NA
ENDROOT
BRANCH   9  14
ATOM     14  S   UNL d   1      -2.143  -0.110  -8.772  0.00  0.00    -0.113 SA
ATOM     15  C   UNL d   1      -1.834   1.476  -9.581  0.00  0.00     0.097 C 
ENDBRANCH   9  14
BRANCH   2  16
ATOM     16  S   UNL d   1       1.087  -0.144   0.119  0.00  0.00     0.250 S 
ATOM     17  O   UNL d   1       1.249   1.292   0.068  0.00  0.00    -0.205 OA
ATOM     18  O   UNL d   1       2.206  -1.022   0.387  0.00  0.00    -0.205 OA
BRANCH  16  19
ATOM     19  N   UNL d   1      -0.163  -0.525   1.221  0.00  0.00    -0.206 NA
ATOM     20  C   UNL d   1      -1.379   0.321   1.115  0.00  0.00     0.107 C 
ATOM     21  C   UNL d   1      -2.298   0.074   2.309  0.00  0.00     0.015 C 
ATOM     22  C   UNL d   1      -2.630  -1.407   2.460  0.00  0.00     0.002 C 
ATOM     23  C   UNL d   1      -1.349  -2.229   2.547  0.00  0.00     0.015 C 
ATOM     24  C   UNL d   1      -0.462  -1.974   1.336  0.00  0.00     0.107 C 
ENDBRANCH  16  19
ENDBRANCH   2  16
TORSDOF 3
