REMARK  5 active torsions:
REMARK  status: ('A' for Active; 'I' for Inactive)
REMARK    1  A    between atoms: C_5  and  C_1 
REMARK    2  A    between atoms: C_8  and  C_2 
REMARK    3  A    between atoms: C_7  and  C_10 
REMARK    4  A    between atoms: O_11  and  C_8 
REMARK    5  A    between atoms: C_10  and  O_11 
ROOT
ATOM      1  C   UNL d   1      -1.186  -0.797   0.233  0.00  0.00     0.088 A 
ATOM      2  C   UNL d   1       0.110  -1.326  -0.072  0.00  0.00     0.100 A 
ATOM      3  N   UNL d   1      -1.086   0.459   0.699  0.00  0.00    -0.259 N 
ATOM      4  HN  UNL d   1      -1.852   1.060   1.001  1.00  0.00     0.195 HD
ATOM      5  O   UNL d   1       0.248   0.776   0.687  0.00  0.00    -0.241 OA
ATOM      6  C   UNL d   1       0.964  -0.282   0.238  0.00  0.00     0.091 A 
ATOM      7  C   UNL d   1       2.423  -0.060   0.160  0.00  0.00     0.080 C 
ENDROOT
BRANCH   2   8
ATOM      8  C   UNL d   1       0.544  -2.596  -0.622  0.00  0.00     0.298 C 
ATOM      9  O   UNL d   1       1.726  -2.873  -0.791  0.00  0.00    -0.259 OA
BRANCH   8  10
ATOM     10  O   UNL d   1      -0.476  -3.414  -1.003  0.00  0.00    -0.313 OA
BRANCH  10  11
ATOM     11  C   UNL d   1      -0.094  -4.494  -1.875  0.00  0.00     0.222 C 
BRANCH  11  12
ATOM     12  C   UNL d   1       0.567  -5.677  -1.213  0.00  0.00     0.026 A 
ATOM     13  C   UNL d   1       1.821  -6.102  -1.685  0.00  0.00     0.126 A 
ATOM     14  F   UNL d   1       2.408  -5.446  -2.696  0.00  0.00    -0.205 F 
ATOM     15  C   UNL d   1       2.471  -7.215  -1.159  0.00  0.00     0.043 A 
ATOM     16  C   UNL d   1       1.874  -7.941  -0.136  0.00  0.00     0.005 A 
ATOM     17  C   UNL d   1       0.626  -7.547   0.348  0.00  0.00     0.024 A 
ATOM     18  C   UNL d   1      -0.025  -6.427  -0.190  0.00  0.00     0.045 A 
ATOM     19 CL   UNL d   1      -1.595  -6.053   0.420  0.00  0.00    -0.084 Cl
ENDBRANCH  11  12
ENDBRANCH  10  11
ENDBRANCH   8  10
ENDBRANCH   2   8
BRANCH   1  20
ATOM     20  C   UNL d   1      -2.508  -1.403   0.151  0.00  0.00     0.054 A 
ATOM     21  C   UNL d   1      -2.808  -2.491   0.975  0.00  0.00     0.130 A 
ATOM     22  F   UNL d   1      -1.864  -3.013   1.772  0.00  0.00    -0.205 F 
ATOM     23  C   UNL d   1      -4.087  -3.047   1.018  0.00  0.00     0.043 A 
ATOM     24  C   UNL d   1      -5.104  -2.501   0.239  0.00  0.00     0.005 A 
ATOM     25  C   UNL d   1      -4.828  -1.415  -0.594  0.00  0.00     0.025 A 
ATOM     26  C   UNL d   1      -3.536  -0.872  -0.645  0.00  0.00     0.049 A 
ATOM     27 CL   UNL d   1      -3.285   0.448  -1.736  0.00  0.00    -0.083 Cl
ENDBRANCH   1  20
TORSDOF 5
