REMARK  5 active torsions:
REMARK  status: ('A' for Active; 'I' for Inactive)
REMARK    1  A    between atoms: C_3  and  C_1 
REMARK    2  A    between atoms: C_2  and  O_6 
REMARK    3  A    between atoms: S_7  and  C_3 
REMARK    4  A    between atoms: O_6  and  C_12 
REMARK    5  A    between atoms: C_11  and  S_7 
ROOT
ATOM      1  C   UNL d   1      -1.671   4.598   0.040  0.00  0.00     0.001 A 
ATOM      2  C   UNL d   1      -1.587   7.411  -0.282  0.00  0.00     0.078 A 
ATOM      3  C   UNL d   1      -0.613   5.350   0.561  0.00  0.00     0.021 A 
ATOM      4  C   UNL d   1      -2.697   5.279  -0.622  0.00  0.00     0.021 A 
ATOM      5  C   UNL d   1      -0.578   6.749   0.418  0.00  0.00     0.038 A 
ATOM      6  C   UNL d   1      -2.658   6.668  -0.773  0.00  0.00     0.038 A 
ENDROOT
BRANCH   1   7
ATOM      7  S   UNL d   1      -1.831   2.819   0.132  0.00  0.00    -0.125 SA
BRANCH   7   8
ATOM      8  C   UNL d   1      -0.428   2.309   1.177  0.00  0.00     0.121 C 
BRANCH   8   9
ATOM      9  C   UNL d   1      -0.516   0.848   1.556  0.00  0.00    -0.005 A 
ATOM     10  C   UNL d   1       0.074  -0.157   0.763  0.00  0.00     0.042 A 
ATOM     11 CL   UNL d   1       0.930   0.206  -0.697  0.00  0.00    -0.084 Cl
ATOM     12  C   UNL d   1      -0.002  -1.508   1.127  0.00  0.00     0.024 A 
ATOM     13  C   UNL d   1      -0.677  -1.888   2.283  0.00  0.00     0.003 A 
ATOM     14  C   UNL d   1      -1.286  -0.916   3.069  0.00  0.00     0.024 A 
ATOM     15  C   UNL d   1      -1.213   0.435   2.709  0.00  0.00     0.042 A 
ATOM     16 CL   UNL d   1      -2.015   1.559   3.753  0.00  0.00    -0.084 Cl
ENDBRANCH   8   9
ENDBRANCH   7   8
ENDBRANCH   1   7
BRANCH   2  17
ATOM     17  O   UNL d   1      -1.656   8.745  -0.551  0.00  0.00    -0.255 OA
BRANCH  17  18
ATOM     18  C   UNL d   1      -0.486   9.531  -0.415  0.00  0.00     0.530 C 
ATOM     19  F   UNL d   1       0.632   8.877  -0.799  0.00  0.00    -0.144 F 
ATOM     20  F   UNL d   1      -0.613  10.622  -1.203  0.00  0.00    -0.144 F 
ATOM     21  F   UNL d   1      -0.345   9.945   0.862  0.00  0.00    -0.144 F 
ENDBRANCH  17  18
ENDBRANCH   2  17
TORSDOF 5
