REMARK  7 active torsions:
REMARK  status: ('A' for Active; 'I' for Inactive)
REMARK    1  A    between atoms: C_11  and  C_3 
REMARK    2  A    between atoms: C_4  and  C_16 
REMARK    3  A    between atoms: C_9  and  C_6 
REMARK    4  A    between atoms: N_7  and  C_12 
REMARK       I    between atoms: C_8  and  N_14 
REMARK    5  A    between atoms: C_18  and  C_8 
REMARK    6  A    between atoms: C_13  and  C_9 
REMARK       I    between atoms: N_17  and  C_13 
REMARK    7  A    between atoms: N_14  and  N_17 
ROOT
ATOM      1  C   UNL d   1       2.356   1.637   0.092  0.00  0.00     0.162 C 
ENDROOT
BRANCH   1   2
ATOM      2  C   UNL d   1       1.095   0.835   0.143  0.00  0.00     0.025 A 
ATOM      3  N   UNL d   1       0.911  -0.243  -0.714  0.00  0.00    -0.352 N 
ATOM      4  C   UNL d   1      -0.350  -0.644  -0.685  0.00  0.00     0.084 A 
ATOM      5  HN  UNL d   1       1.644  -0.665  -1.284  1.00  0.00     0.166 HD
ATOM      6  S   UNL d   1      -1.331   0.135   0.496  0.00  0.00    -0.081 SA
ATOM      7  C   UNL d   1      -0.020   1.159   0.895  0.00  0.00     0.077 A 
BRANCH   4   8
ATOM      8  C   UNL d   1      -0.914  -1.667  -1.578  0.00  0.00    -0.000 A 
ATOM      9  C   UNL d   1      -0.149  -2.806  -1.876  0.00  0.00     0.044 A 
ATOM     10  C   UNL d   1      -0.600  -3.763  -2.801  0.00  0.00     0.039 A 
ATOM     11  C   UNL d   1      -1.835  -3.565  -3.432  0.00  0.00     0.030 A 
ATOM     12  C   UNL d   1      -2.611  -2.443  -3.130  0.00  0.00     0.003 A 
ATOM     13  C   UNL d   1      -2.155  -1.502  -2.207  0.00  0.00     0.014 A 
BRANCH  10  14
ATOM     14  N   UNL d   1       0.198  -4.914  -3.096  0.00  0.00    -0.333 N 
ATOM     15  C   UNL d   1       1.380  -5.280  -2.478  0.00  0.00     0.096 A 
ATOM     16  C   UNL d   1       1.841  -6.456  -3.027  0.00  0.00     0.019 A 
ATOM     17  C   UNL d   1       0.927  -6.834  -4.026  0.00  0.00     0.019 A 
ATOM     18  C   UNL d   1      -0.066  -5.878  -4.053  0.00  0.00     0.096 A 
ENDBRANCH  10  14
ENDBRANCH   4   8
ENDBRANCH   1   2
BRANCH   1  19
ATOM     19  C   UNL d   1       3.692   0.932   0.019  0.00  0.00     0.241 C 
ATOM     20  N   UNL d   1       3.737  -0.440   0.009  0.00  0.00    -0.267 N 
ATOM     21  H   UNL d   1       2.902  -1.009  -0.143  0.00  0.00     0.190 HD
ATOM     22  O   UNL d   1       4.736   1.594  -0.033  0.00  0.00    -0.271 OA
BRANCH  20  23
ATOM     23  N   UNL d   1       4.997  -1.038  -0.228  0.00  0.00    -0.263 N 
ATOM     24  C   UNL d   1       5.265  -2.269   0.342  0.00  0.00     0.270 C 
ATOM     25  O   UNL d   1       4.429  -2.938   0.936  0.00  0.00    -0.266 OA
ATOM     26  H   UNL d   1       5.752  -0.376  -0.415  0.00  0.00     0.190 HD
BRANCH  24  27
ATOM     27  C   UNL d   1       6.660  -2.782   0.188  0.00  0.00     0.033 A 
ATOM     28  C   UNL d   1       7.159  -3.667   1.153  0.00  0.00     0.018 A 
ATOM     29  C   UNL d   1       8.403  -4.283   0.982  0.00  0.00     0.017 A 
ATOM     30  C   UNL d   1       9.167  -4.035  -0.166  0.00  0.00     0.048 A 
ATOM     31  C   UNL d   1       8.686  -3.114  -1.112  0.00  0.00     0.017 A 
ATOM     32  C   UNL d   1       7.442  -2.489  -0.939  0.00  0.00     0.018 A 
BRANCH  30  33
ATOM     33  C   UNL d   1      10.461  -4.778  -0.421  0.00  0.00     0.417 C 
ATOM     34  F   UNL d   1      10.799  -5.645   0.575  0.00  0.00    -0.166 F 
ATOM     35  F   UNL d   1      10.410  -5.525  -1.561  0.00  0.00    -0.166 F 
ATOM     36  F   UNL d   1      11.527  -3.945  -0.570  0.00  0.00    -0.166 F 
ENDBRANCH  30  33
ENDBRANCH  24  27
ENDBRANCH  20  23
ENDBRANCH   1  19
TORSDOF 7
