REMARK  6 active torsions:
REMARK  status: ('A' for Active; 'I' for Inactive)
REMARK    1  A    between atoms: C_2  and  C_1 
REMARK       I    between atoms: N_4  and  C_1 
REMARK    2  A    between atoms: O_12  and  C_3 
REMARK    3  A    between atoms: C_9  and  N_4 
REMARK    4  A    between atoms: O_14  and  C_5 
REMARK    5  A    between atoms: O_13  and  C_6 
REMARK    6  A    between atoms: C_11  and  C_9 
ROOT
ATOM      1  C   UNL d   1       0.407   1.035   0.955  0.00  0.00     0.037 A 
ATOM      2  C   UNL d   1      -1.175   3.217   1.743  0.00  0.00     0.135 A 
ATOM      3  C   UNL d   1      -1.588   1.892   2.018  0.00  0.00     0.105 A 
ATOM      4  C   UNL d   1       0.052   3.446   1.084  0.00  0.00     0.105 A 
ATOM      5  C   UNL d   1       0.833   2.345   0.701  0.00  0.00     0.057 A 
ATOM      6  C   UNL d   1      -0.806   0.810   1.615  0.00  0.00     0.057 A 
ENDROOT
BRANCH   1   7
ATOM      7  C   UNL d   1       1.173  -0.096   0.361  0.00  0.00     0.252 C 
ATOM      8  N   UNL d   1       1.192  -1.278   1.070  0.00  0.00    -0.349 N 
ATOM      9  H   UNL d   1       0.820  -1.313   2.007  0.00  0.00     0.163 HD
ATOM     10  O   UNL d   1       1.717   0.063  -0.726  0.00  0.00    -0.268 OA
BRANCH   8  11
ATOM     11  C   UNL d   1       1.628  -2.523   0.451  0.00  0.00     0.114 C 
ATOM     12  C   UNL d   1       0.425  -3.442   0.217  0.00  0.00     0.037 C 
BRANCH  11  13
ATOM     13  C   UNL d   1       2.681  -3.256   1.263  0.00  0.00    -0.036 A 
ATOM     14  C   UNL d   1       2.497  -3.573   2.618  0.00  0.00     0.009 A 
ATOM     15  C   UNL d   1       3.429  -4.362   3.297  0.00  0.00     0.001 A 
ATOM     16  C   UNL d   1       4.555  -4.845   2.633  0.00  0.00     0.000 A 
ATOM     17  C   UNL d   1       4.763  -4.522   1.295  0.00  0.00     0.001 A 
ATOM     18  C   UNL d   1       3.835  -3.729   0.616  0.00  0.00     0.009 A 
ENDBRANCH  11  13
ENDBRANCH   8  11
ENDBRANCH   1   7
BRANCH   4  19
ATOM     19  O   UNL d   1       0.399   4.740   0.801  0.00  0.00    -0.353 OA
ATOM     20  C   UNL d   1       1.646   4.988   0.165  0.00  0.00     0.210 C 
ENDBRANCH   4  19
BRANCH   3  21
ATOM     21  O   UNL d   1      -2.810   1.743   2.634  0.00  0.00    -0.353 OA
ATOM     22  C   UNL d   1      -3.032   0.524   3.330  0.00  0.00     0.210 C 
ENDBRANCH   3  21
BRANCH   2  23
ATOM     23  O   UNL d   1      -2.096   4.176   2.101  0.00  0.00    -0.351 OA
ATOM     24  C   UNL d   1      -1.633   5.480   2.415  0.00  0.00     0.210 C 
ENDBRANCH   2  23
TORSDOF 6
