REMARK  5 active torsions:
REMARK  status: ('A' for Active; 'I' for Inactive)
REMARK    1  A    between atoms: C_4  and  C_1 
REMARK       I    between atoms: C_2  and  N_3 
REMARK    2  A    between atoms: C_7  and  C_2 
REMARK    3  A    between atoms: N_3  and  C_5 
REMARK       I    between atoms: N_6  and  C_4 
REMARK    4  A    between atoms: C_15  and  N_6 
REMARK    5  A    between atoms: C_14  and  C_15 
ROOT
ATOM      1  C   UNL d   1       1.002   0.069  -0.165  0.00  0.00     0.058 A 
ATOM      2  C   UNL d   1       0.481  -1.227  -0.023  0.00  0.00     0.050 A 
ATOM      3  C   UNL d   1       0.161   1.185  -0.273  0.00  0.00     0.019 A 
ATOM      4  C   UNL d   1      -0.907  -1.382   0.039  0.00  0.00     0.030 A 
ATOM      5  C   UNL d   1      -1.220   1.012  -0.217  0.00  0.00     0.001 A 
ATOM      6  C   UNL d   1      -1.752  -0.268  -0.056  0.00  0.00     0.002 A 
ENDROOT
BRANCH   1   7
ATOM      7  C   UNL d   1       2.454   0.310  -0.101  0.00  0.00     0.254 C 
ATOM      8  N   UNL d   1       3.065  -0.143   1.052  0.00  0.00    -0.353 N 
ATOM      9  H   UNL d   1       2.475  -0.339   1.854  0.00  0.00     0.163 HD
ATOM     10  O   UNL d   1       3.038   0.867  -1.020  0.00  0.00    -0.268 OA
BRANCH   8  11
ATOM     11  C   UNL d   1       4.470   0.110   1.268  0.00  0.00     0.162 C 
BRANCH  11  12
ATOM     12  C   UNL d   1       5.067  -0.655   2.415  0.00  0.00    -0.025 A 
ATOM     13  C   UNL d   1       6.218  -0.159   3.026  0.00  0.00     0.096 A 
ATOM     14  N   UNL d   1       6.900  -0.792   4.006  0.00  0.00    -0.375 N 
ATOM     15  C   UNL d   1       6.423  -1.991   4.399  0.00  0.00     0.087 A 
ATOM     16  HN  UNL d   1       7.735  -0.384   4.427  1.00  0.00     0.164 HD
ATOM     17  C   UNL d   1       5.291  -2.578   3.862  0.00  0.00     0.018 A 
ATOM     18  C   UNL d   1       4.608  -1.901   2.853  0.00  0.00     0.011 A 
ENDBRANCH  11  12
ENDBRANCH   8  11
ENDBRANCH   1   7
BRANCH   2  19
ATOM     19  N   UNL d   1       1.354  -2.344  -0.002  0.00  0.00    -0.322 N 
ATOM     20  C   UNL d   1       1.127  -3.498   0.720  0.00  0.00     0.256 C 
ATOM     21  O   UNL d   1       0.200  -3.661   1.509  0.00  0.00    -0.267 OA
ATOM     22  H   UNL d   1       2.302  -2.183  -0.329  0.00  0.00     0.169 HD
BRANCH  20  23
ATOM     23  C   UNL d   1       2.149  -4.576   0.590  0.00  0.00     0.032 A 
ATOM     24  C   UNL d   1       2.898  -4.763  -0.581  0.00  0.00     0.018 A 
ATOM     25  C   UNL d   1       3.796  -5.835  -0.668  0.00  0.00     0.025 A 
ATOM     26  C   UNL d   1       3.945  -6.711   0.407  0.00  0.00     0.034 A 
ATOM     27  C   UNL d   1       3.212  -6.524   1.576  0.00  0.00     0.025 A 
ATOM     28 CL   UNL d   1       5.023  -8.046   0.282  0.00  0.00    -0.084 Cl
ATOM     29  C   UNL d   1       2.314  -5.459   1.665  0.00  0.00     0.018 A 
ENDBRANCH  20  23
ENDBRANCH   2  19
TORSDOF 5
