REMARK  8 active torsions:
REMARK  status: ('A' for Active; 'I' for Inactive)
REMARK    1  A    between atoms: C_2  and  C_1 
REMARK    2  A    between atoms: S_9  and  C_3 
REMARK    3  A    between atoms: C_4  and  O_8 
REMARK    4  A    between atoms: C_12  and  C_4 
REMARK    5  A    between atoms: C_5  and  C_14 
REMARK    6  A    between atoms: N_20  and  C_5 
REMARK    7  A    between atoms: O_8  and  N_6 
REMARK    8  A    between atoms: C_14  and  S_9 
ROOT
ATOM      1  C   UNL d   1       2.156   3.462   1.796  0.00  0.00     0.085 C 
ATOM      2  N   UNL d   1       1.996   4.709   1.461  0.00  0.00    -0.250 N 
ATOM      3  HN  UNL d   1       2.160   5.496   2.088  1.00  0.00     0.196 HD
ENDROOT
BRANCH   1   4
ATOM      4  C   UNL d   1       2.615   3.071   3.208  0.00  0.00     0.152 C 
BRANCH   4   5
ATOM      5  S   UNL d   1       2.972   4.466   4.321  0.00  0.00    -0.104 SA
BRANCH   5   6
ATOM      6  C   UNL d   1       3.472   3.607   5.809  0.00  0.00     0.085 A 
ATOM      7  C   UNL d   1       3.868   4.250   6.983  0.00  0.00     0.081 A 
ATOM      8  C   UNL d   1       4.252   3.439   8.075  0.00  0.00     0.020 A 
ATOM      9  C   UNL d   1       4.229   2.056   7.979  0.00  0.00     0.018 A 
ATOM     10  C   UNL d   1       3.818   1.511   6.785  0.00  0.00     0.089 A 
ATOM     11  N   UNL d   1       3.446   2.249   5.718  0.00  0.00    -0.360 N 
ATOM     12  HN  UNL d   1       3.150   1.795   4.853  1.00  0.00     0.166 HD
BRANCH   7  13
ATOM     13  C   UNL d   1       3.922   5.735   7.199  0.00  0.00     0.420 C 
ATOM     14  F   UNL d   1       3.560   6.536   6.169  0.00  0.00    -0.166 F 
ATOM     15  F   UNL d   1       5.180   6.140   7.551  0.00  0.00    -0.166 F 
ATOM     16  F   UNL d   1       3.130   6.112   8.249  0.00  0.00    -0.166 F 
ENDBRANCH   7  13
ENDBRANCH   5   6
ENDBRANCH   4   5
ENDBRANCH   1   4
BRANCH   1  17
ATOM     17  N   UNL d   1       1.895   2.417   0.931  0.00  0.00    -0.290 NA
ATOM     18  H   UNL d   1       1.608   1.540   1.352  0.00  0.00     0.125 HD
ATOM     19  H   UNL d   1       1.322   2.692   0.141  0.00  0.00     0.125 HD
ENDBRANCH   1  17
BRANCH   2  20
ATOM     20  O   UNL d   1       1.569   4.837   0.117  0.00  0.00    -0.194 OA
BRANCH  20  21
ATOM     21  C   UNL d   1       0.959   6.047  -0.064  0.00  0.00     0.315 C 
ATOM     22  O   UNL d   1       0.693   6.883   0.790  0.00  0.00    -0.257 OA
BRANCH  21  23
ATOM     23  C   UNL d   1       0.560   6.224  -1.490  0.00  0.00     0.041 A 
ATOM     24  C   UNL d   1      -0.312   7.278  -1.800  0.00  0.00     0.018 A 
ATOM     25  C   UNL d   1      -0.721   7.502  -3.118  0.00  0.00     0.007 A 
ATOM     26  C   UNL d   1      -0.260   6.678  -4.150  0.00  0.00    -0.062 A 
ATOM     27  C   UNL d   1       0.614   5.628  -3.844  0.00  0.00     0.007 A 
ATOM     28  C   UNL d   1      -0.700   6.936  -5.563  0.00  0.00     0.048 C 
ATOM     29  C   UNL d   1       1.024   5.401  -2.524  0.00  0.00     0.018 A 
ENDBRANCH  21  23
ENDBRANCH  20  21
ENDBRANCH   2  20
TORSDOF 8
