REMARK  6 active torsions:
REMARK  status: ('A' for Active; 'I' for Inactive)
REMARK    1  A    between atoms: S_3  and  C_1 
REMARK    2  A    between atoms: C_7  and  C_2 
REMARK    3  A    between atoms: N_8  and  S_3 
REMARK    4  A    between atoms: O_13  and  C_7 
REMARK    5  A    between atoms: C_12  and  N_8 
REMARK    6  A    between atoms: C_17  and  C_12 
ROOT
ATOM      1  S   UNL d   1       1.718   2.758  -0.012  0.00  0.00     0.245 S 
ATOM      2  O   UNL d   1       3.086   2.282   0.008  0.00  0.00    -0.206 OA
ATOM      3  O   UNL d   1       1.175   3.476  -1.145  0.00  0.00    -0.206 OA
ENDROOT
BRANCH   1   4
ATOM      4  C   UNL d   1       0.729   1.348   0.058  0.00  0.00     0.122 A 
ATOM      5  C   UNL d   1      -0.709   1.359   0.038  0.00  0.00     0.094 A 
ATOM      6  C   UNL d   1      -1.087   0.026   0.015  0.00  0.00     0.067 A 
ATOM      7  C   UNL d   1      -2.377  -0.700   0.016  0.00  0.00     0.078 C 
ATOM      8  O   UNL d   1       0.013  -0.772   0.033  0.00  0.00    -0.318 OA
ATOM      9  C   UNL d   1       1.118   0.025   0.049  0.00  0.00     0.073 A 
ATOM     10  C   UNL d   1       2.397  -0.717   0.044  0.00  0.00     0.078 C 
BRANCH   5  11
ATOM     11  C   UNL d   1      -1.597   2.509   0.062  0.00  0.00     0.297 C 
ATOM     12  O   UNL d   1      -1.305   3.547   0.642  0.00  0.00    -0.259 OA
BRANCH  11  13
ATOM     13  O   UNL d   1      -2.779   2.269  -0.569  0.00  0.00    -0.322 OA
ATOM     14  C   UNL d   1      -3.732   3.331  -0.527  0.00  0.00     0.213 C 
ENDBRANCH  11  13
ENDBRANCH   5  11
ENDBRANCH   1   4
BRANCH   1  15
ATOM     15  N   UNL d   1       1.458   3.680   1.364  0.00  0.00    -0.211 NA
ATOM     16  H   UNL d   1       0.457   3.850   1.518  0.00  0.00     0.140 HD
BRANCH  15  17
ATOM     17  C   UNL d   1       2.240   3.321   2.551  0.00  0.00     0.143 C 
BRANCH  17  18
ATOM     18  C   UNL d   1       1.891   4.193   3.736  0.00  0.00    -0.044 A 
ATOM     19  C   UNL d   1       1.459   3.620   4.941  0.00  0.00     0.010 A 
ATOM     20  C   UNL d   1       1.125   4.428   6.030  0.00  0.00     0.024 A 
ATOM     21  C   UNL d   1       1.227   5.814   5.925  0.00  0.00     0.034 A 
ATOM     22  C   UNL d   1       1.676   6.399   4.744  0.00  0.00     0.024 A 
ATOM     23 CL   UNL d   1       0.792   6.806   7.261  0.00  0.00    -0.084 Cl
ATOM     24  C   UNL d   1       2.011   5.591   3.654  0.00  0.00     0.010 A 
ENDBRANCH  17  18
ENDBRANCH  15  17
ENDBRANCH   1  15
TORSDOF 6
