REMARK  8 active torsions:
REMARK  status: ('A' for Active; 'I' for Inactive)
REMARK    1  A    between atoms: C_3  and  C_1 
REMARK    2  A    between atoms: C_4  and  C_1 
REMARK    3  A    between atoms: N_8  and  C_2 
REMARK    4  A    between atoms: O_16  and  C_3 
REMARK    5  A    between atoms: N_5  and  C_4 
REMARK    6  A    between atoms: C_11  and  N_8 
REMARK    7  A    between atoms: O_18  and  C_14 
REMARK    8  A    between atoms: C_19  and  O_16 
ROOT
ATOM      1  C   UNL d   1       0.927  -0.068  -0.001  0.00  0.00     0.117 C 
ATOM      2  C   UNL d   1       0.249  -0.876   0.834  0.00  0.00     0.116 C 
ENDROOT
BRANCH   2   3
ATOM      3  N   UNL d   1       0.757  -1.753   1.765  0.00  0.00    -0.362 N 
ATOM      4  H   UNL d   1       1.774  -1.821   1.853  0.00  0.00     0.165 HD
BRANCH   3   5
ATOM      5  C   UNL d   1       0.080  -2.639   2.627  0.00  0.00     0.071 A 
ATOM      6  C   UNL d   1       0.842  -3.438   3.502  0.00  0.00     0.145 A 
ATOM      7  C   UNL d   1       0.256  -4.328   4.394  0.00  0.00     0.081 A 
ATOM      8  F   UNL d   1       2.182  -3.340   3.474  0.00  0.00    -0.204 F 
ATOM      9  C   UNL d   1      -1.127  -4.429   4.424  0.00  0.00     0.068 A 
ATOM     10  C   UNL d   1      -1.916  -3.661   3.572  0.00  0.00     0.039 A 
ATOM     11  C   UNL d   1      -1.312  -2.770   2.676  0.00  0.00     0.035 A 
BRANCH   9  12
ATOM     12  O   UNL d   1      -1.683  -5.300   5.311  0.00  0.00    -0.361 OA
ATOM     13  H   UNL d   1      -2.651  -5.255   5.236  0.00  0.00     0.217 HD
ENDBRANCH   9  12
ENDBRANCH   3   5
ENDBRANCH   2   3
BRANCH   1  14
ATOM     14  C   UNL d   1       0.202   0.757  -0.987  0.00  0.00     0.304 C 
ATOM     15  O   UNL d   1      -1.010   0.740  -1.143  0.00  0.00    -0.258 OA
BRANCH  14  16
ATOM     16  O   UNL d   1       1.092   1.452  -1.737  0.00  0.00    -0.317 OA
BRANCH  16  17
ATOM     17  C   UNL d   1       0.600   1.953  -2.986  0.00  0.00     0.174 C 
ATOM     18  C   UNL d   1       0.773   0.859  -4.024  0.00  0.00     0.034 C 
ENDBRANCH  16  17
ENDBRANCH  14  16
ENDBRANCH   1  14
BRANCH   1  19
ATOM     19  C   UNL d   1       2.447  -0.068  -0.001  0.00  0.00    -0.029 C 
BRANCH  19  20
ATOM     20  N   UNL d   1       3.708  -0.068  -0.001  0.00  0.00    -0.365 N 
ATOM     21  HN2 UNL d   1       2.688  -0.068  -0.001  1.00  0.00     0.165 HD
ATOM     22  HN1 UNL d   1       4.728  -0.068  -0.001  1.00  0.00     0.165 HD
ENDBRANCH  19  20
ENDBRANCH   1  19
TORSDOF 8
