REMARK  4 active torsions:
REMARK  status: ('A' for Active; 'I' for Inactive)
REMARK    1  A    between atoms: N_6  and  C_1 
REMARK    2  A    between atoms: C_14  and  C_4 
REMARK       I    between atoms: C_12  and  N_9 
REMARK    3  A    between atoms: C_13  and  N_10 
REMARK    4  A    between atoms: S_22  and  C_18 
ROOT
ATOM      1  C   UNL d   1      -0.423   1.047   0.457  0.00  0.00     0.240 A 
ATOM      2  N   UNL d   1      -1.823  -0.796  -0.016  0.00  0.00    -0.303 N 
ATOM      3  HN  UNL d   1      -2.634  -1.372  -0.241  1.00  0.00     0.186 HD
ATOM      4  C   UNL d   1      -1.774   0.506   0.043  0.00  0.00     0.041 A 
ATOM      5  C   UNL d   1       0.374  -0.229   0.534  0.00  0.00     0.266 A 
ATOM      6  N   UNL d   1      -0.555  -1.232   0.289  0.00  0.00    -0.268 N 
ATOM      7  O   UNL d   1       1.569  -0.361   0.754  0.00  0.00    -0.269 OA
ATOM      8  H   UNL d   1      -0.325  -2.220   0.300  0.00  0.00     0.190 HD
ENDROOT
BRANCH   1   9
ATOM      9  N   UNL d   1      -0.490   1.710   1.769  0.00  0.00    -0.316 N 
ATOM     10  N   UNL d   1      -0.865   0.959   2.696  0.00  0.00    -0.303 N 
ATOM     11  HN  UNL d   1      -1.185   0.005   2.533  1.00  0.00     0.186 HD
ATOM     12  HN  UNL d   1      -0.253   2.692   1.910  1.00  0.00     0.181 HD
BRANCH  10  13
ATOM     13  C   UNL d   1      -0.811   1.534   3.988  0.00  0.00     0.064 A 
ATOM     14  C   UNL d   1      -1.169   0.746   5.107  0.00  0.00     0.028 A 
ATOM     15  C   UNL d   1      -1.072   1.280   6.403  0.00  0.00     0.021 A 
ATOM     16  C   UNL d   1      -0.622   2.583   6.606  0.00  0.00     0.002 A 
ATOM     17  C   UNL d   1      -0.269   3.369   5.517  0.00  0.00     0.002 A 
ATOM     18  C   UNL d   1      -0.370   2.852   4.222  0.00  0.00     0.032 A 
BRANCH  14  19
ATOM     19  S   UNL d   1      -1.637  -0.991   5.014  0.00  0.00    -0.132 SA
ATOM     20  C   UNL d   1      -3.179  -0.877   4.076  0.00  0.00     0.095 C 
ENDBRANCH  14  19
ENDBRANCH  10  13
ENDBRANCH   1   9
BRANCH   4  21
ATOM     21  C   UNL d   1      -2.916   1.428  -0.321  0.00  0.00     0.038 C 
ATOM     22  C   UNL d   1      -3.843   1.736   0.850  0.00  0.00     0.030 C 
ATOM     23  C   UNL d   1      -4.869   0.644   1.104  0.00  0.00     0.126 C 
ATOM     24  N   UNL d   1      -5.611   0.272  -0.091  0.00  0.00    -0.352 N 
ATOM     25  C   UNL d   1      -4.803  -0.066  -1.259  0.00  0.00     0.126 C 
ATOM     26  C   UNL d   1      -6.892  -0.239   0.127  0.00  0.00     0.215 C 
ATOM     27  C   UNL d   1      -3.693   0.946  -1.550  0.00  0.00     0.030 C 
ATOM     28  O   UNL d   1      -7.514  -0.041   1.172  0.00  0.00    -0.274 OA
ATOM     29  C   UNL d   1      -7.531  -1.055  -0.970  0.00  0.00     0.117 C 
ENDBRANCH   4  21
TORSDOF 4
