REMARK  6 active torsions:
REMARK  status: ('A' for Active; 'I' for Inactive)
REMARK    1  A    between atoms: C_6  and  C_3 
REMARK    2  A    between atoms: N_10  and  C_4 
REMARK    3  A    between atoms: C_9  and  C_5 
REMARK    4  A    between atoms: O_12  and  C_9 
REMARK    5  A    between atoms: C_18  and  O_12 
REMARK    6  A    between atoms: C_20  and  C_18 
ROOT
ATOM      1  N   UNL d   1       1.341   0.552  -0.025  0.00  0.00    -0.185 N 
ATOM      2  HN  UNL d   1       2.268   0.977   0.003  1.00  0.00     0.184 HD
ATOM      3  C   UNL d   1       1.225  -0.811  -0.030  0.00  0.00     0.150 A 
ATOM      4  C   UNL d   1       0.256   1.336  -0.057  0.00  0.00     0.680 A 
ATOM      5  C   UNL d   1      -0.009  -1.425  -0.071  0.00  0.00     0.087 A 
ATOM      6  N   UNL d   1      -0.967   0.808  -0.112  0.00  0.00    -0.201 N 
ATOM      7  HN  UNL d   1      -1.795   1.402  -0.153  1.00  0.00     0.183 HD
ATOM      8  C   UNL d   1      -1.076  -0.544  -0.113  0.00  0.00     0.126 A 
ENDROOT
BRANCH   5   9
ATOM      9  C   UNL d   1      -0.336  -2.868  -0.039  0.00  0.00     0.297 C 
ATOM     10  O   UNL d   1      -1.493  -3.249   0.050  0.00  0.00    -0.259 OA
BRANCH   9  11
ATOM     11  O   UNL d   1       0.747  -3.665  -0.090  0.00  0.00    -0.313 OA
BRANCH  11  12
ATOM     12  C   UNL d   1       0.510  -5.083   0.049  0.00  0.00     0.217 C 
BRANCH  12  13
ATOM     13  C   UNL d   1       1.085  -5.868  -1.110  0.00  0.00    -0.034 A 
ATOM     14  C   UNL d   1       2.256  -5.466  -1.765  0.00  0.00     0.011 A 
ATOM     15  C   UNL d   1       2.785  -6.217  -2.818  0.00  0.00     0.024 A 
ATOM     16  C   UNL d   1       2.159  -7.396  -3.210  0.00  0.00     0.034 A 
ATOM     17  C   UNL d   1       1.014  -7.834  -2.551  0.00  0.00     0.024 A 
ATOM     18 CL   UNL d   1       2.811  -8.321  -4.506  0.00  0.00    -0.084 Cl
ATOM     19  C   UNL d   1       0.481  -7.075  -1.504  0.00  0.00     0.011 A 
ENDBRANCH  12  13
ENDBRANCH  11  12
ENDBRANCH   9  11
ENDBRANCH   5   9
BRANCH   3  20
ATOM     20  C   UNL d   1       2.532  -1.567   0.039  0.00  0.00     0.434 C 
ATOM     21  F   UNL d   1       3.625  -0.747   0.105  0.00  0.00    -0.165 F 
ATOM     22  F   UNL d   1       2.633  -2.373   1.132  0.00  0.00    -0.165 F 
ATOM     23  F   UNL d   1       2.756  -2.347  -1.054  0.00  0.00    -0.165 F 
ENDBRANCH   3  20
BRANCH   4  24
ATOM     24  N   UNL d   1       0.421   2.709   0.065  0.00  0.00    -0.216 N 
ATOM     25  C   UNL d   1      -0.664   3.535  -0.486  0.00  0.00     0.151 C 
ATOM     26  C   UNL d   1      -0.690   4.920   0.172  0.00  0.00     0.094 C 
ATOM     27  S   UNL d   1       0.863   5.848  -0.075  0.00  0.00    -0.166 SA
ATOM     28  C   UNL d   1       2.006   4.561   0.523  0.00  0.00     0.094 C 
ATOM     29  C   UNL d   1       1.785   3.212  -0.167  0.00  0.00     0.151 C 
ENDBRANCH   4  24
TORSDOF 6
