REMARK  8 active torsions:
REMARK  status: ('A' for Active; 'I' for Inactive)
REMARK    1  A    between atoms: N_4  and  S_1 
REMARK    2  A    between atoms: C_6  and  S_1 
REMARK    3  A    between atoms: C_12  and  N_2 
REMARK    4  A    between atoms: C_13  and  N_3 
REMARK    5  A    between atoms: C_14  and  N_4 
REMARK    6  A    between atoms: C_7  and  C_14 
REMARK    7  A    between atoms: C_21  and  C_12 
REMARK    8  A    between atoms: C_22  and  C_13 
ROOT
ATOM      1  N   UNL d   1       0.809  -5.375  -1.447  0.00  0.00     0.121 N 
ATOM      2  N   UNL d   1      -1.138  -3.924  -1.694  0.00  0.00     0.121 N 
ATOM      3  C   UNL d   1      -0.548  -5.225  -1.995  0.00  0.00     0.543 C 
ATOM      4  C   UNL d   1       0.216  -3.852   0.454  0.00  0.00     0.056 C 
ATOM      5  C   UNL d   1       0.798  -5.209   0.018  0.00  0.00     0.282 C 
ATOM      6  C   UNL d   1      -1.133  -3.670  -0.255  0.00  0.00     0.282 C 
ENDROOT
BRANCH   4   7
ATOM      7  C   UNL d   1       1.232  -2.710   0.266  0.00  0.00     0.112 C 
BRANCH   7   8
ATOM      8  N   UNL d   1       0.662  -1.410   0.688  0.00  0.00    -0.215 NA
ATOM      9  H   UNL d   1      -0.281  -1.193   0.357  0.00  0.00     0.139 HD
BRANCH   8  10
ATOM     10  S   UNL d   1       1.604  -0.028   0.455  0.00  0.00     0.241 S 
ATOM     11  O   UNL d   1       0.683   1.088   0.433  0.00  0.00    -0.206 OA
ATOM     12  O   UNL d   1       2.519  -0.274  -0.635  0.00  0.00    -0.206 OA
BRANCH  10  13
ATOM     13  C   UNL d   1       2.527   0.112   1.963  0.00  0.00     0.074 A 
ATOM     14  C   UNL d   1       3.921   0.012   1.935  0.00  0.00     0.026 A 
ATOM     15  C   UNL d   1       4.653   0.271   3.096  0.00  0.00     0.025 A 
ATOM     16  C   UNL d   1       3.990   0.627   4.271  0.00  0.00     0.034 A 
ATOM     17  C   UNL d   1       2.596   0.712   4.303  0.00  0.00     0.025 A 
ATOM     18 CL   UNL d   1       4.899   0.989   5.686  0.00  0.00    -0.084 Cl
ATOM     19  C   UNL d   1       1.859   0.457   3.144  0.00  0.00     0.026 A 
ENDBRANCH  10  13
ENDBRANCH   8  10
ENDBRANCH   7   8
ENDBRANCH   4   7
BRANCH   1  20
ATOM     20  C   UNL d   1       1.284  -6.731  -1.822  0.00  0.00     0.313 C 
BRANCH  20  21
ATOM     21  C   UNL d   1       2.681  -7.076  -1.356  0.00  0.00    -0.030 A 
ATOM     22  C   UNL d   1       2.883  -8.120  -0.438  0.00  0.00     0.009 A 
ATOM     23  C   UNL d   1       4.171  -8.455  -0.017  0.00  0.00     0.001 A 
ATOM     24  C   UNL d   1       5.269  -7.755  -0.511  0.00  0.00     0.000 A 
ATOM     25  C   UNL d   1       5.081  -6.719  -1.425  0.00  0.00     0.001 A 
ATOM     26  C   UNL d   1       3.793  -6.380  -1.846  0.00  0.00     0.009 A 
ENDBRANCH  20  21
ENDBRANCH   1  20
BRANCH   2  27
ATOM     27  C   UNL d   1      -0.610  -2.872  -2.569  0.00  0.00     0.313 C 
BRANCH  27  28
ATOM     28  C   UNL d   1      -1.285  -1.517  -2.468  0.00  0.00    -0.030 A 
ATOM     29  C   UNL d   1      -0.520  -0.352  -2.635  0.00  0.00     0.009 A 
ATOM     30  C   UNL d   1      -1.124   0.907  -2.644  0.00  0.00     0.001 A 
ATOM     31  C   UNL d   1      -2.505   1.020  -2.496  0.00  0.00     0.000 A 
ATOM     32  C   UNL d   1      -3.280  -0.127  -2.335  0.00  0.00     0.001 A 
ATOM     33  C   UNL d   1      -2.676  -1.387  -2.330  0.00  0.00     0.009 A 
ENDBRANCH  27  28
ENDBRANCH   2  27
TORSDOF 8
