REMARK  8 active torsions:
REMARK  status: ('A' for Active; 'I' for Inactive)
REMARK    1  A    between atoms: C_2  and  C_1 
REMARK    2  A    between atoms: C_3  and  C_1 
REMARK    3  A    between atoms: C_4  and  C_2 
REMARK    4  A    between atoms: C_5  and  C_4 
REMARK    5  A    between atoms: O_15  and  C_6 
REMARK    6  A    between atoms: C_11  and  O_16 
REMARK    7  A    between atoms: O_17  and  C_11 
REMARK    8  A    between atoms: O_16  and  C_12 
ROOT
ATOM      1  C   UNL d   1       1.238   0.256   2.600  0.00  0.00     0.166 C 
ATOM      2  O   UNL d   1       0.748  -0.803   2.987  0.00  0.00    -0.292 OA
ENDROOT
BRANCH   1   3
ATOM      3  C   UNL d   1       0.371   1.472   2.393  0.00  0.00     0.167 C 
BRANCH   3   4
ATOM      4  C   UNL d   1       0.222   2.302   3.643  0.00  0.00     0.169 C 
ATOM      5  O   UNL d   1       0.906   2.113   4.651  0.00  0.00    -0.292 OA
BRANCH   4   6
ATOM      6  C   UNL d   1      -0.709   3.468   3.632  0.00  0.00     0.043 A 
ATOM      7  C   UNL d   1      -0.528   4.502   4.564  0.00  0.00     0.079 A 
ATOM      8  C   UNL d   1      -1.335   5.637   4.535  0.00  0.00     0.037 A 
ATOM      9  C   UNL d   1      -2.353   5.742   3.589  0.00  0.00     0.003 A 
ATOM     10  C   UNL d   1      -2.566   4.709   2.678  0.00  0.00     0.001 A 
ATOM     11  C   UNL d   1      -1.746   3.575   2.695  0.00  0.00     0.018 A 
BRANCH   7  12
ATOM     12  O   UNL d   1       0.437   4.475   5.537  0.00  0.00    -0.360 OA
ATOM     13  H   UNL d   1       0.834   3.575   5.542  0.00  0.00     0.217 HD
ENDBRANCH   7  12
ENDBRANCH   4   6
ENDBRANCH   3   4
ENDBRANCH   1   3
BRANCH   1  14
ATOM     14  C   UNL d   1       2.708   0.322   2.358  0.00  0.00     0.010 A 
ATOM     15  C   UNL d   1       3.524  -0.542   3.100  0.00  0.00     0.018 A 
ATOM     16  C   UNL d   1       4.896  -0.619   2.848  0.00  0.00     0.038 A 
ATOM     17  C   UNL d   1       5.460   0.147   1.829  0.00  0.00     0.071 A 
ATOM     18  C   UNL d   1       4.661   1.055   1.130  0.00  0.00     0.038 A 
ATOM     19  C   UNL d   1       3.287   1.142   1.385  0.00  0.00     0.018 A 
BRANCH  17  20
ATOM     20  O   UNL d   1       6.769   0.085   1.435  0.00  0.00    -0.326 OA
BRANCH  20  21
ATOM     21  C   UNL d   1       7.403  -1.179   1.645  0.00  0.00     0.344 C 
BRANCH  21  22
ATOM     22  O   UNL d   1       8.494  -1.382   0.745  0.00  0.00    -0.371 OA
ATOM     23  C   UNL d   1       9.567  -0.491   0.991  0.00  0.00     0.204 C 
ENDBRANCH  21  22
ENDBRANCH  20  21
ENDBRANCH  17  20
ENDBRANCH   1  14
TORSDOF 8
