REMARK  5 active torsions:
REMARK  status: ('A' for Active; 'I' for Inactive)
REMARK    1  A    between atoms: C_3  and  C_1 
REMARK    2  A    between atoms: C_2  and  C_8 
REMARK    3  A    between atoms: C_6  and  C_3 
REMARK    4  A    between atoms: N_13  and  C_4 
REMARK    5  A    between atoms: C_17  and  N_13 
ROOT
ATOM      1  C   UNL d   1       0.861   0.063  -0.098  0.00  0.00     0.105 C 
ATOM      2  C   UNL d   1       0.158   0.045   1.042  0.00  0.00     0.089 C 
ATOM      3  C   UNL d   1       0.244  -0.241  -1.340  0.00  0.00     0.104 C 
ATOM      4  N   UNL d   1      -0.227  -0.449  -2.380  0.00  0.00    -0.191 NA
ENDROOT
BRANCH   1   5
ATOM      5  C   UNL d   1       2.326   0.350   0.002  0.00  0.00     0.203 C 
ATOM      6  O   UNL d   1       2.936   0.247   1.060  0.00  0.00    -0.286 OA
BRANCH   5   7
ATOM      7  C   UNL d   1       3.076   0.729  -1.224  0.00  0.00     0.016 A 
ATOM      8  C   UNL d   1       2.527   1.583  -2.189  0.00  0.00     0.031 A 
ATOM      9  C   UNL d   1       3.224   1.864  -3.373  0.00  0.00     0.048 A 
ATOM     10  C   UNL d   1       4.511   1.330  -3.545  0.00  0.00     0.016 A 
ATOM     11  C   UNL d   1       5.085   0.526  -2.557  0.00  0.00     0.002 A 
ATOM     12  C   UNL d   1       4.368   0.223  -1.400  0.00  0.00     0.015 A 
BRANCH   9  13
ATOM     13  C   UNL d   1       2.596   2.710  -4.455  0.00  0.00     0.417 C 
ATOM     14  F   UNL d   1       1.338   3.132  -4.147  0.00  0.00    -0.166 F 
ATOM     15  F   UNL d   1       3.313   3.837  -4.715  0.00  0.00    -0.166 F 
ATOM     16  F   UNL d   1       2.490   2.047  -5.638  0.00  0.00    -0.166 F 
ENDBRANCH   9  13
ENDBRANCH   5   7
ENDBRANCH   1   5
BRANCH   2  17
ATOM     17  N   UNL d   1      -1.188  -0.269   1.210  0.00  0.00    -0.268 NA
ATOM     18  H   UNL d   1      -1.619   0.396   1.859  0.00  0.00     0.133 HD
BRANCH  17  19
ATOM     19  C   UNL d   1      -1.524  -1.570   1.692  0.00  0.00     0.015 C 
ATOM     20  C   UNL d   1      -2.603  -1.714   2.570  0.00  0.00     0.063 C 
ATOM     21  C   UNL d   1      -2.781  -2.920   3.237  0.00  0.00     0.103 C 
ATOM     22  O   UNL d   1      -3.706  -2.945   4.250  0.00  0.00    -0.346 OA
ATOM     23  C   UNL d   1      -1.972  -4.022   2.956  0.00  0.00     0.102 C 
ATOM     24  C   UNL d   1      -3.136  -3.696   5.323  0.00  0.00     0.202 C 
ATOM     25  C   UNL d   1      -2.795  -5.110   4.869  0.00  0.00     0.202 C 
ATOM     26  O   UNL d   1      -1.993  -5.179   3.682  0.00  0.00    -0.346 OA
ATOM     27  C   UNL d   1      -1.035  -3.942   1.935  0.00  0.00     0.041 C 
ATOM     28  C   UNL d   1      -0.809  -2.717   1.306  0.00  0.00     0.027 C 
ENDBRANCH  17  19
ENDBRANCH   2  17
TORSDOF 5
