REMARK  4 active torsions:
REMARK  status: ('A' for Active; 'I' for Inactive)
REMARK    1  A    between atoms: C_3  and  C_1 
REMARK    2  A    between atoms: C_8  and  C_2 
REMARK       I    between atoms: N_17  and  C_8 
REMARK       I    between atoms: C_12  and  N_18 
REMARK       I    between atoms: N_16  and  C_12 
REMARK    3  A    between atoms: C_14  and  N_16 
REMARK    4  A    between atoms: N_18  and  N_17 
ROOT
ATOM      1  C   UNL d   1      -2.451  -1.054  -0.840  0.00  0.00     0.289 C 
ATOM      2  N   UNL d   1      -3.761  -0.637  -0.674  0.00  0.00    -0.261 N 
ATOM      3  O   UNL d   1      -1.518  -0.270  -0.642  0.00  0.00    -0.264 OA
ATOM      4  H   UNL d   1      -4.516  -1.319  -0.579  0.00  0.00     0.190 HD
ENDROOT
BRANCH   1   5
ATOM      5  C   UNL d   1      -2.260  -2.429  -1.343  0.00  0.00     0.139 A 
ATOM      6  C   UNL d   1      -3.100  -3.592  -1.322  0.00  0.00     0.057 A 
ATOM      7  C   UNL d   1      -2.411  -4.538  -2.047  0.00  0.00     0.087 A 
ATOM      8  O   UNL d   1      -1.222  -4.015  -2.437  0.00  0.00    -0.241 OA
ATOM      9  C   UNL d   1      -2.658  -5.935  -2.457  0.00  0.00     0.080 C 
ATOM     10  N   UNL d   1      -1.115  -2.719  -1.994  0.00  0.00    -0.255 N 
ATOM     11  HN  UNL d   1      -0.319  -2.095  -2.130  1.00  0.00     0.195 HD
BRANCH   6  12
ATOM     12  C   UNL d   1      -4.392  -3.741  -0.656  0.00  0.00     0.054 A 
ATOM     13  N   UNL d   1      -4.671  -2.885   0.390  0.00  0.00    -0.353 N 
ATOM     14  C   UNL d   1      -5.864  -3.137   0.886  0.00  0.00     0.047 A 
ATOM     15  HN  UNL d   1      -4.041  -2.158   0.731  1.00  0.00     0.166 HD
ATOM     16  C   UNL d   1      -6.479  -2.384   2.013  0.00  0.00     0.076 C 
ATOM     17  S   UNL d   1      -6.719  -4.414   0.121  0.00  0.00    -0.087 SA
ATOM     18  C   UNL d   1      -5.394  -4.642  -0.947  0.00  0.00     0.082 A 
ENDBRANCH   6  12
ENDBRANCH   1   5
BRANCH   2  19
ATOM     19  N   UNL d   1      -4.013   0.615  -0.092  0.00  0.00    -0.248 N 
ATOM     20  C   UNL d   1      -5.334   1.038  -0.013  0.00  0.00     0.339 C 
ATOM     21  N   UNL d   1      -5.403   2.301   0.541  0.00  0.00    -0.307 N 
ATOM     22  O   UNL d   1      -6.281   0.330  -0.335  0.00  0.00    -0.245 OA
ATOM     23  H   UNL d   1      -4.682   2.421   1.238  0.00  0.00     0.171 HD
ATOM     24  H   UNL d   1      -3.277   1.308  -0.238  0.00  0.00     0.192 HD
BRANCH  21  25
ATOM     25  C   UNL d   1      -6.622   2.960   0.824  0.00  0.00     0.048 A 
ATOM     26  C   UNL d   1      -6.902   3.300   2.169  0.00  0.00    -0.035 A 
ATOM     27  C   UNL d   1      -7.967   4.168   2.457  0.00  0.00     0.009 A 
ATOM     28  C   UNL d   1      -6.160   2.718   3.344  0.00  0.00     0.050 C 
ATOM     29  C   UNL d   1      -8.763   4.677   1.439  0.00  0.00     0.001 A 
ATOM     30  C   UNL d   1      -8.529   4.288   0.124  0.00  0.00     0.009 A 
ATOM     31  C   UNL d   1      -7.472   3.417  -0.206  0.00  0.00    -0.035 A 
ATOM     32  C   UNL d   1      -7.292   3.115  -1.668  0.00  0.00     0.050 C 
ENDBRANCH  21  25
ENDBRANCH   2  19
TORSDOF 4
