REMARK  20 active torsions:
REMARK  status: ('A' for Active; 'I' for Inactive)
REMARK    1  A    between atoms: C_1  and  O_16 
REMARK    2  A    between atoms: C_2  and  O_15 
REMARK    3  A    between atoms: C_3  and  O_17 
REMARK    4  A    between atoms: C_4  and  O_18 
REMARK    5  A    between atoms: C_5  and  O_11 
REMARK    6  A    between atoms: C_6  and  O_14 
REMARK    7  A    between atoms: C_7  and  O_11 
REMARK    8  A    between atoms: C_8  and  O_19 
REMARK    9  A    between atoms: C_12  and  C_28 
REMARK   10  A    between atoms: C_13  and  C_29 
REMARK   11  A    between atoms: C_20  and  O_14 
REMARK   12  A    between atoms: C_21  and  O_15 
REMARK   13  A    between atoms: C_22  and  O_16 
REMARK   14  A    between atoms: C_23  and  O_17 
REMARK   15  A    between atoms: C_24  and  O_18 
REMARK   16  A    between atoms: C_25  and  O_19 
REMARK   17  A    between atoms: C_26  and  O_30 
REMARK   18  A    between atoms: C_27  and  O_31 
REMARK   19  A    between atoms: O_30  and  C_28 
REMARK   20  A    between atoms: O_31  and  C_29 
ROOT
ATOM      1  O   UNL d   1      -0.488  -3.516   1.584  0.00  0.00    -0.348 OA
ENDROOT
BRANCH   1   2
ATOM      2  C   UNL d   1      -0.520  -2.230   2.202  0.00  0.00     0.293 C 
ATOM      3  C   UNL d   1      -1.855  -1.445   2.061  0.00  0.00     0.219 C 
ATOM      4  C   UNL d   1      -1.716  -0.126   2.851  0.00  0.00     0.198 C 
ATOM      5  C   UNL d   1      -1.083  -0.260   4.251  0.00  0.00     0.195 C 
ATOM      6  C   UNL d   1       0.097  -1.243   4.275  0.00  0.00     0.181 C 
ATOM      7  O   UNL d   1      -0.262  -2.453   3.594  0.00  0.00    -0.348 OA
BRANCH   3   8
ATOM      8  O   UNL d   1      -2.061  -1.077   0.668  0.00  0.00    -0.308 OA
BRANCH   8   9
ATOM      9  C   UNL d   1      -3.313  -0.870   0.194  0.00  0.00     0.255 C 
ATOM     10  O   UNL d   1      -4.344  -0.953   0.839  0.00  0.00    -0.266 OA
ATOM     11  C   UNL d   1      -3.239  -0.484  -1.254  0.00  0.00     0.126 C 
ENDBRANCH   8   9
ENDBRANCH   3   8
BRANCH   4  12
ATOM     12  O   UNL d   1      -2.938   0.653   2.883  0.00  0.00    -0.311 OA
BRANCH  12  13
ATOM     13  C   UNL d   1      -4.024   0.121   3.504  0.00  0.00     0.255 C 
ATOM     14  O   UNL d   1      -4.037  -0.933   4.121  0.00  0.00    -0.266 OA
ATOM     15  C   UNL d   1      -5.186   1.056   3.383  0.00  0.00     0.126 C 
ENDBRANCH  12  13
ENDBRANCH   4  12
BRANCH   5  16
ATOM     16  O   UNL d   1      -0.741   1.033   4.826  0.00  0.00    -0.311 OA
BRANCH  16  17
ATOM     17  C   UNL d   1       0.156   1.832   4.184  0.00  0.00     0.255 C 
ATOM     18  O   UNL d   1       0.733   1.549   3.144  0.00  0.00    -0.266 OA
ATOM     19  C   UNL d   1       0.364   3.108   4.940  0.00  0.00     0.126 C 
ENDBRANCH  16  17
ENDBRANCH   5  16
BRANCH   6  20
ATOM     20  C   UNL d   1       0.466  -1.598   5.726  0.00  0.00     0.213 C 
BRANCH  20  21
ATOM     21  O   UNL d   1       1.580  -2.511   5.771  0.00  0.00    -0.319 OA
BRANCH  21  22
ATOM     22  C   UNL d   1       2.804  -1.953   5.587  0.00  0.00     0.254 C 
ATOM     23  O   UNL d   1       3.013  -0.755   5.429  0.00  0.00    -0.266 OA
ATOM     24  C   UNL d   1       3.874  -3.000   5.605  0.00  0.00     0.126 C 
ENDBRANCH  21  22
ENDBRANCH  20  21
ENDBRANCH   6  20
ENDBRANCH   1   2
BRANCH   1  25
ATOM     25  C   UNL d   1      -0.679  -3.610   0.171  0.00  0.00     0.188 C 
ATOM     26  C   UNL d   1       0.403  -2.856  -0.658  0.00  0.00     0.198 C 
ATOM     27  C   UNL d   1       0.247  -3.153  -2.161  0.00  0.00     0.219 C 
ATOM     28  C   UNL d   1      -0.038  -4.637  -2.478  0.00  0.00     0.302 C 
ATOM     29  O   UNL d   1      -1.046  -5.194  -1.634  0.00  0.00    -0.348 OA
ATOM     30  C   UNL d   1      -0.690  -5.103  -0.241  0.00  0.00     0.180 C 
BRANCH  26  31
ATOM     31  O   UNL d   1       0.185  -1.419  -0.501  0.00  0.00    -0.311 OA
BRANCH  31  32
ATOM     32  C   UNL d   1       1.226  -0.559  -0.613  0.00  0.00     0.255 C 
ATOM     33  O   UNL d   1       2.384  -0.870  -0.847  0.00  0.00    -0.266 OA
ATOM     34  C   UNL d   1       0.742   0.850  -0.439  0.00  0.00     0.126 C 
ENDBRANCH  31  32
ENDBRANCH  26  31
BRANCH  27  35
ATOM     35  O   UNL d   1       1.329  -2.618  -2.965  0.00  0.00    -0.308 OA
BRANCH  35  36
ATOM     36  C   UNL d   1       2.573  -3.127  -2.763  0.00  0.00     0.255 C 
ATOM     37  O   UNL d   1       2.838  -4.039  -1.995  0.00  0.00    -0.266 OA
ATOM     38  C   UNL d   1       3.557  -2.466  -3.675  0.00  0.00     0.126 C 
ENDBRANCH  35  36
ENDBRANCH  27  35
BRANCH  28  39
ATOM     39  O   UNL d   1      -0.347  -4.853  -3.877  0.00  0.00    -0.287 OA
BRANCH  39  40
ATOM     40  C   UNL d   1      -1.377  -4.180  -4.447  0.00  0.00     0.257 C 
ATOM     41  O   UNL d   1      -2.112  -3.373  -3.896  0.00  0.00    -0.266 OA
ATOM     42  C   UNL d   1      -1.523  -4.580  -5.886  0.00  0.00     0.126 C 
ENDBRANCH  39  40
ENDBRANCH  28  39
BRANCH  30  43
ATOM     43  C   UNL d   1      -1.709  -5.950   0.553  0.00  0.00     0.213 C 
BRANCH  43  44
ATOM     44  O   UNL d   1      -1.454  -6.020   1.965  0.00  0.00    -0.319 OA
BRANCH  44  45
ATOM     45  C   UNL d   1      -0.462  -6.861   2.356  0.00  0.00     0.254 C 
ATOM     46  O   UNL d   1       0.202  -7.565   1.607  0.00  0.00    -0.266 OA
ATOM     47  C   UNL d   1      -0.259  -6.799   3.842  0.00  0.00     0.126 C 
ENDBRANCH  44  45
ENDBRANCH  43  44
ENDBRANCH  30  43
ENDBRANCH   1  25
TORSDOF 20
