REMARK  7 active torsions:
REMARK  status: ('A' for Active; 'I' for Inactive)
REMARK    1  A    between atoms: C_7  and  C_3 
REMARK    2  A    between atoms: N_11  and  C_4 
REMARK    3  A    between atoms: C_13  and  C_5 
REMARK       I    between atoms: C_6  and  N_10 
REMARK       I    between atoms: N_15  and  C_6 
REMARK    4  A    between atoms: C_12  and  O_17 
REMARK    5  A    between atoms: O_30  and  C_13 
REMARK    6  A    between atoms: C_24  and  N_15 
REMARK    7  A    between atoms: O_17  and  C_28 
ROOT
ATOM      1  C   UNL d   1      -1.188   6.453   0.303  0.00  0.00     0.322 C 
ATOM      2  N   UNL d   1      -0.063   5.638   0.349  0.00  0.00    -0.333 N 
ATOM      3  N   UNL d   1       0.105   2.691   0.018  0.00  0.00    -0.253 NA
ATOM      4  N   UNL d   1      -1.545   7.055   1.488  0.00  0.00    -0.309 N 
ATOM      5  O   UNL d   1      -1.782   6.617  -0.761  0.00  0.00    -0.247 OA
ATOM      6  C   UNL d   1       0.334   4.991  -0.907  0.00  0.00     0.142 C 
ATOM      7  C   UNL d   1      -0.264   3.592  -1.095  0.00  0.00     0.118 C 
ATOM      8  C   UNL d   1       0.133   3.920   2.180  0.00  0.00     0.035 C 
ATOM      9  C   UNL d   1       0.680   5.186   1.522  0.00  0.00     0.129 C 
ATOM     10  C   UNL d   1      -0.611   2.939   1.275  0.00  0.00     0.100 C 
ATOM     11  H   UNL d   1      -1.007   6.823   2.304  0.00  0.00     0.170 HD
ENDROOT
BRANCH   3  12
ATOM     12  C   UNL d   1       0.107   1.342  -0.339  0.00  0.00     0.160 A 
ATOM     13  N   UNL d   1      -0.320   0.986  -1.557  0.00  0.00    -0.328 N 
ATOM     14  C   UNL d   1      -0.218  -0.311  -1.977  0.00  0.00     0.136 A 
ATOM     15  HN  UNL d   1      -0.725   1.688  -2.177  1.00  0.00     0.168 HD
ATOM     16  C   UNL d   1       0.340  -1.279  -1.167  0.00  0.00     0.086 A 
ATOM     17  C   UNL d   1       0.728  -0.831   0.083  0.00  0.00     0.110 A 
ATOM     18  N   UNL d   1       0.613   0.448   0.514  0.00  0.00    -0.342 N 
ATOM     19  HN  UNL d   1       0.902   0.718   1.454  1.00  0.00     0.167 HD
BRANCH  14  20
ATOM     20  C   UNL d   1      -0.735  -0.582  -3.375  0.00  0.00     0.433 C 
ATOM     21  F   UNL d   1      -1.292   0.521  -3.961  0.00  0.00    -0.165 F 
ATOM     22  F   UNL d   1       0.240  -0.979  -4.243  0.00  0.00    -0.165 F 
ATOM     23  F   UNL d   1      -1.718  -1.527  -3.418  0.00  0.00    -0.165 F 
ENDBRANCH  14  20
BRANCH  16  24
ATOM     24  C   UNL d   1       0.590  -2.703  -1.471  0.00  0.00     0.296 C 
ATOM     25  O   UNL d   1       1.119  -3.461  -0.676  0.00  0.00    -0.259 OA
BRANCH  24  26
ATOM     26  O   UNL d   1       0.193  -3.026  -2.716  0.00  0.00    -0.322 OA
ATOM     27  C   UNL d   1       0.431  -4.385  -3.097  0.00  0.00     0.213 C 
ENDBRANCH  24  26
ENDBRANCH  16  24
ENDBRANCH   3  12
BRANCH   4  28
ATOM     28  C   UNL d   1      -2.497   8.091   1.655  0.00  0.00     0.036 A 
ATOM     29  C   UNL d   1      -3.300   8.586   0.624  0.00  0.00     0.032 A 
ATOM     30  C   UNL d   1      -4.118   9.704   0.820  0.00  0.00     0.039 A 
ATOM     31  C   UNL d   1      -4.119  10.364   2.042  0.00  0.00     0.078 A 
ATOM     32  C   UNL d   1      -3.408   9.815   3.109  0.00  0.00     0.039 A 
ATOM     33  C   UNL d   1      -2.599   8.687   2.917  0.00  0.00     0.032 A 
BRANCH  31  34
ATOM     34  O   UNL d   1      -4.844  11.486   2.303  0.00  0.00    -0.255 OA
BRANCH  34  35
ATOM     35  C   UNL d   1      -4.798  12.537   1.338  0.00  0.00     0.530 C 
ATOM     36  F   UNL d   1      -4.157  12.228   0.192  0.00  0.00    -0.144 F 
ATOM     37  F   UNL d   1      -6.063  12.900   1.031  0.00  0.00    -0.144 F 
ATOM     38  F   UNL d   1      -4.178  13.607   1.886  0.00  0.00    -0.144 F 
ENDBRANCH  34  35
ENDBRANCH  31  34
ENDBRANCH   4  28
TORSDOF 7
