REMARK  4 active torsions:
REMARK  status: ('A' for Active; 'I' for Inactive)
REMARK    1  A    between atoms: C_2  and  C_1 
REMARK       I    between atoms: C_3  and  N_5 
REMARK    2  A    between atoms: O_14  and  C_3 
REMARK    3  A    between atoms: N_5  and  C_4 
REMARK    4  A    between atoms: O_15  and  C_9 
ROOT
ATOM      1  C   UNL d   1       0.432  -0.886  -1.020  0.00  0.00     0.052 A 
ATOM      2  C   UNL d   1       0.731  -3.263  -1.478  0.00  0.00     0.040 A 
ATOM      3  C   UNL d   1       1.049  -2.114  -0.747  0.00  0.00     0.046 A 
ATOM      4  C   UNL d   1      -0.518  -0.822  -2.046  0.00  0.00     0.053 A 
ATOM      5  C   UNL d   1      -0.218  -3.173  -2.509  0.00  0.00     0.066 A 
ATOM      6  C   UNL d   1      -0.848  -1.957  -2.792  0.00  0.00     0.071 A 
ENDROOT
BRANCH   2   7
ATOM      7  N   UNL d   1       1.314  -4.519  -1.217  0.00  0.00    -0.303 N 
ATOM      8  C   UNL d   1       2.228  -4.829  -0.246  0.00  0.00     0.364 C 
ATOM      9  O   UNL d   1       2.736  -4.075   0.571  0.00  0.00    -0.238 OA
ATOM     10  H   UNL d   1       1.031  -5.310  -1.780  0.00  0.00     0.171 HD
BRANCH   8  11
ATOM     11  O   UNL d   1       2.505  -6.159  -0.308  0.00  0.00    -0.309 OA
ATOM     12  C   UNL d   1       3.433  -6.587   0.693  0.00  0.00     0.215 C 
ENDBRANCH   8  11
ENDBRANCH   2   7
BRANCH   1  13
ATOM     13  C   UNL d   1       0.775   0.346  -0.225  0.00  0.00     0.417 C 
ATOM     14  F   UNL d   1       1.680   0.127   0.769  0.00  0.00    -0.166 F 
ATOM     15  F   UNL d   1      -0.315   0.894   0.382  0.00  0.00    -0.166 F 
ATOM     16  F   UNL d   1       1.307   1.333  -0.999  0.00  0.00    -0.166 F 
ENDBRANCH   1  13
BRANCH   6  17
ATOM     17  O   UNL d   1      -1.798  -1.733  -3.748  0.00  0.00    -0.356 OA
ATOM     18  C   UNL d   1      -2.200  -2.837  -4.547  0.00  0.00     0.210 C 
ENDBRANCH   6  17
TORSDOF 4
