REMARK  3 active torsions:
REMARK  status: ('A' for Active; 'I' for Inactive)
REMARK    1  A    between atoms: N_4  and  C_2 
REMARK    2  A    between atoms: S_13  and  C_5 
REMARK    3  A    between atoms: C_16  and  S_13 
ROOT
ATOM      1  C   UNL d   1      -1.210  -0.643  -1.387  0.00  0.00     0.119 A 
ATOM      2  C   UNL d   1      -1.212  -1.434  -0.220  0.00  0.00     0.133 A 
ATOM      3  C   UNL d   1      -1.180   0.824  -1.294  0.00  0.00     0.104 A 
ATOM      4  C   UNL d   1      -1.155   1.496  -0.047  0.00  0.00     0.036 A 
ATOM      5  N   UNL d   1      -1.223  -0.961  -2.689  0.00  0.00    -0.237 N 
ATOM      6  HN  UNL d   1      -1.246  -1.900  -3.086  1.00  0.00     0.197 HD
ATOM      7  C   UNL d   1      -1.189  -0.749   1.016  0.00  0.00     0.040 A 
ATOM      8  N   UNL d   1      -1.173   1.315  -2.542  0.00  0.00    -0.238 N 
ATOM      9  HN  UNL d   1      -1.151   2.299  -2.811  1.00  0.00     0.197 HD
ATOM     10  O   UNL d   1      -1.201   0.227  -3.387  0.00  0.00    -0.156 OA
ATOM     11  C   UNL d   1      -1.160   0.665   1.092  0.00  0.00     0.024 A 
ENDROOT
BRANCH   4  12
ATOM     12  S   UNL d   1      -1.023   3.251   0.045  0.00  0.00    -0.088 SA
BRANCH  12  13
ATOM     13  C   UNL d   1      -2.737   3.735   0.067  0.00  0.00     0.005 A 
ATOM     14  C   UNL d   1      -3.390   3.948   1.284  0.00  0.00     0.019 A 
ATOM     15  C   UNL d   1      -4.714   4.397   1.307  0.00  0.00     0.008 A 
ATOM     16  C   UNL d   1      -5.399   4.646   0.112  0.00  0.00    -0.062 A 
ATOM     17  C   UNL d   1      -4.745   4.426  -1.105  0.00  0.00     0.008 A 
ATOM     18  C   UNL d   1      -6.809   5.159   0.151  0.00  0.00     0.048 C 
ATOM     19  C   UNL d   1      -3.421   3.975  -1.127  0.00  0.00     0.019 A 
ENDBRANCH  12  13
ENDBRANCH   4  12
BRANCH   2  20
ATOM     20  N   UNL d   1      -1.215  -2.883  -0.283  0.00  0.00    -0.113 N 
ATOM     21  O   UNL d   1      -1.228  -3.440  -1.385  0.00  0.00    -0.532 OA
ATOM     22  O   UNL d   1      -1.202  -3.487   0.801  0.00  0.00    -0.532 OA
ENDBRANCH   2  20
TORSDOF 3
