REMARK  3 active torsions:
REMARK  status: ('A' for Active; 'I' for Inactive)
REMARK    1  A    between atoms: C_9  and  C_3 
REMARK       I    between atoms: C_4  and  N_8 
REMARK       I    between atoms: N_10  and  C_4 
REMARK    2  A    between atoms: N_8  and  C_13 
REMARK    3  A    between atoms: C_14  and  N_10 
ROOT
ATOM      1  C   UNL d   1       2.568   1.666   0.802  0.00  0.00    -0.006 A 
ATOM      2  C   UNL d   1       3.380   1.446  -0.335  0.00  0.00     0.043 A 
ATOM      3  C   UNL d   1       4.311   2.398  -0.755  0.00  0.00     0.037 A 
ATOM      4  C   UNL d   1       2.695   2.873   1.506  0.00  0.00     0.014 A 
ATOM      5  C   UNL d   1       3.615   3.831   1.099  0.00  0.00     0.003 A 
ATOM      6  C   UNL d   1       4.415   3.589  -0.016  0.00  0.00     0.029 A 
ENDROOT
BRANCH   3   7
ATOM      7  N   UNL d   1       5.190   2.320  -1.851  0.00  0.00    -0.309 N 
ATOM      8  C   UNL d   1       5.463   1.504  -2.901  0.00  0.00     0.325 C 
ATOM      9  N   UNL d   1       4.750   0.365  -3.083  0.00  0.00    -0.309 N 
ATOM     10  O   UNL d   1       6.358   1.908  -3.647  0.00  0.00    -0.247 OA
ATOM     11  H   UNL d   1       4.159   0.072  -2.330  0.00  0.00     0.170 HD
ATOM     12  H   UNL d   1       5.810   3.117  -1.947  0.00  0.00     0.170 HD
BRANCH   9  13
ATOM     13  C   UNL d   1       4.793  -0.507  -4.196  0.00  0.00     0.036 A 
ATOM     14  C   UNL d   1       5.581  -0.293  -5.331  0.00  0.00     0.029 A 
ATOM     15  C   UNL d   1       5.537  -1.182  -6.410  0.00  0.00     0.002 A 
ATOM     16  C   UNL d   1       4.703  -2.295  -6.369  0.00  0.00     0.000 A 
ATOM     17  C   UNL d   1       3.919  -2.525  -5.241  0.00  0.00     0.002 A 
ATOM     18  C   UNL d   1       3.966  -1.638  -4.160  0.00  0.00     0.029 A 
ENDBRANCH   9  13
ENDBRANCH   3   7
BRANCH   1  19
ATOM     19  C   UNL d   1       1.613   0.643   1.255  0.00  0.00     0.059 A 
ATOM     20  N   UNL d   1       1.556  -0.578   0.692  0.00  0.00    -0.299 N 
ATOM     21  N   UNL d   1       0.602  -1.228   1.381  0.00  0.00    -0.307 N 
ATOM     22  HN  UNL d   1       2.114  -0.932  -0.085  1.00  0.00     0.187 HD
ATOM     23  C   UNL d   1       0.025  -0.479   2.358  0.00  0.00     0.112 A 
ATOM     24  C   UNL d   1       0.294  -2.604   1.072  0.00  0.00     0.177 C 
ATOM     25  C   UNL d   1       0.653   0.740   2.306  0.00  0.00     0.050 A 
ENDBRANCH   1  19
TORSDOF 3
