REMARK  6 active torsions:
REMARK  status: ('A' for Active; 'I' for Inactive)
REMARK    1  A    between atoms: N_2  and  S_1 
REMARK    2  A    between atoms: C_12  and  S_1 
REMARK    3  A    between atoms: S_5  and  N_2 
REMARK    4  A    between atoms: C_4  and  N_10 
REMARK    5  A    between atoms: C_6  and  C_7 
REMARK    6  A    between atoms: O_30  and  C_27 
ROOT
ATOM      1  S   UNL d   1       0.837  -2.404  -1.425  0.00  0.00    -0.114 SA
ATOM      2  N   UNL d   1       0.687  -5.246  -0.089  0.00  0.00    -0.364 N 
ATOM      3  C   UNL d   1      -0.498  -3.638  -1.475  0.00  0.00     0.105 C 
ATOM      4  C   UNL d   1       2.157  -3.422  -0.678  0.00  0.00     0.105 C 
ATOM      5  C   UNL d   1      -0.599  -4.580  -0.279  0.00  0.00     0.135 C 
ATOM      6  C   UNL d   1       1.725  -4.367   0.442  0.00  0.00     0.135 C 
ENDROOT
BRANCH   1   7
ATOM      7  N   UNL d   1       0.397  -1.550  -0.131  0.00  0.00    -0.264 N 
ATOM      8  HN  UNL d   1      -0.202  -1.909   0.613  1.00  0.00     0.186 HD
BRANCH   7   9
ATOM      9  S   UNL d   1       1.064   0.054  -0.154  0.00  0.00     0.267 S 
ATOM     10  O   UNL d   1       0.542   0.780  -1.300  0.00  0.00    -0.200 OA
ATOM     11  O   UNL d   1       2.492  -0.030   0.087  0.00  0.00    -0.200 OA
BRANCH   9  12
ATOM     12  C   UNL d   1       0.340   0.789   1.296  0.00  0.00     0.080 A 
ATOM     13  C   UNL d   1       1.038   0.752   2.509  0.00  0.00     0.028 A 
ATOM     14  C   UNL d   1       0.558   1.473   3.609  0.00  0.00     0.038 A 
ATOM     15  C   UNL d   1      -0.608   2.233   3.494  0.00  0.00     0.068 A 
ATOM     16  C   UNL d   1      -1.291   2.269   2.275  0.00  0.00     0.038 A 
ATOM     17  C   UNL d   1      -0.824   1.548   1.175  0.00  0.00     0.028 A 
BRANCH  15  18
ATOM     18  O   UNL d   1      -1.140   3.024   4.474  0.00  0.00    -0.356 OA
ATOM     19  C   UNL d   1      -0.823   2.665   5.813  0.00  0.00     0.210 C 
ENDBRANCH  15  18
ENDBRANCH   9  12
ENDBRANCH   7   9
ENDBRANCH   1   7
BRANCH   2  20
ATOM     20  C   UNL d   1       0.768  -6.608   0.128  0.00  0.00     0.125 A 
ATOM     21  N   UNL d   1       1.454  -7.026   1.224  0.00  0.00    -0.350 N 
ATOM     22  C   UNL d   1       1.633  -8.355   1.428  0.00  0.00     0.106 A 
ATOM     23  HN  UNL d   1       1.831  -6.347   1.885  1.00  0.00     0.166 HD
ATOM     24  C   UNL d   1       1.163  -9.342   0.581  0.00  0.00     0.065 A 
ATOM     25  C   UNL d   1       0.456  -8.924  -0.544  0.00  0.00     0.045 A 
ATOM     26  C   UNL d   1       0.258  -7.560  -0.778  0.00  0.00     0.078 A 
ATOM     27 CL   UNL d   1      -0.506  -7.149  -2.276  0.00  0.00    -0.080 Cl
BRANCH  24  28
ATOM     28  C   UNL d   1       1.441 -10.783   0.869  0.00  0.00     0.418 C 
ATOM     29  F   UNL d   1       0.932 -11.630  -0.069  0.00  0.00    -0.166 F 
ATOM     30  F   UNL d   1       2.773 -11.055   0.930  0.00  0.00    -0.166 F 
ATOM     31  F   UNL d   1       0.920 -11.188   2.058  0.00  0.00    -0.166 F 
ENDBRANCH  24  28
ENDBRANCH   2  20
TORSDOF 6
