REMARK  5 active torsions:
REMARK  status: ('A' for Active; 'I' for Inactive)
REMARK    1  A    between atoms: C_6  and  C_1 
REMARK    2  A    between atoms: N_9  and  C_3 
REMARK       I    between atoms: C_10  and  N_9 
REMARK       I    between atoms: N_12  and  C_10 
REMARK    3  A    between atoms: C_11  and  O_13 
REMARK    4  A    between atoms: C_21  and  N_12 
REMARK    5  A    between atoms: O_13  and  C_22 
ROOT
ATOM      1  N   UNL d   1       1.640  -4.069  -0.595  0.00  0.00    -0.287 N 
ATOM      2  C   UNL d   1       1.452  -2.772  -0.234  0.00  0.00     0.326 C 
ATOM      3  N   UNL d   1       2.539  -1.940  -0.226  0.00  0.00    -0.309 N 
ATOM      4  O   UNL d   1       0.297  -2.454   0.054  0.00  0.00    -0.247 OA
ATOM      5  H   UNL d   1       0.803  -4.631  -0.579  0.00  0.00     0.172 HD
ATOM      6  H   UNL d   1       3.402  -2.324  -0.599  0.00  0.00     0.170 HD
ENDROOT
BRANCH   1   7
ATOM      7  C   UNL d   1       2.813  -4.680  -0.906  0.00  0.00     0.169 A 
ATOM      8  S   UNL d   1       2.686  -6.348  -1.216  0.00  0.00    -0.029 SA
ATOM      9  C   UNL d   1       4.400  -6.362  -1.419  0.00  0.00     0.177 A 
ATOM     10  N   UNL d   1       4.952  -5.163  -1.287  0.00  0.00    -0.288 N 
ATOM     11  N   UNL d   1       4.023  -4.183  -0.987  0.00  0.00    -0.279 N 
ATOM     12  HN  UNL d   1       5.950  -4.985  -1.394  1.00  0.00     0.187 HD
ATOM     13  HN  UNL d   1       4.251  -3.198  -0.848  1.00  0.00     0.189 HD
BRANCH   9  14
ATOM     14  C   UNL d   1       5.125  -7.640  -1.682  0.00  0.00     0.440 C 
ATOM     15  F   UNL d   1       4.295  -8.658  -2.045  0.00  0.00    -0.164 F 
ATOM     16  F   UNL d   1       6.038  -7.522  -2.681  0.00  0.00    -0.164 F 
ATOM     17  F   UNL d   1       5.798  -8.074  -0.583  0.00  0.00    -0.164 F 
ENDBRANCH   9  14
ENDBRANCH   1   7
BRANCH   3  18
ATOM     18  C   UNL d   1       2.561  -0.577   0.147  0.00  0.00     0.036 A 
ATOM     19  C   UNL d   1       1.490   0.071   0.766  0.00  0.00     0.032 A 
ATOM     20  C   UNL d   1       1.567   1.428   1.101  0.00  0.00     0.039 A 
ATOM     21  C   UNL d   1       2.705   2.163   0.789  0.00  0.00     0.078 A 
ATOM     22  C   UNL d   1       3.799   1.517   0.215  0.00  0.00     0.039 A 
ATOM     23  C   UNL d   1       3.728   0.153  -0.105  0.00  0.00     0.032 A 
BRANCH  21  24
ATOM     24  O   UNL d   1       2.861   3.467   1.150  0.00  0.00    -0.255 OA
BRANCH  24  25
ATOM     25  C   UNL d   1       1.877   4.377   0.664  0.00  0.00     0.530 C 
ATOM     26  F   UNL d   1       0.688   3.809   0.376  0.00  0.00    -0.144 F 
ATOM     27  F   UNL d   1       1.667   5.323   1.607  0.00  0.00    -0.144 F 
ATOM     28  F   UNL d   1       2.342   4.991  -0.447  0.00  0.00    -0.144 F 
ENDBRANCH  24  25
ENDBRANCH  21  24
ENDBRANCH   3  18
TORSDOF 5
