REMARK  3 active torsions:
REMARK  status: ('A' for Active; 'I' for Inactive)
REMARK       I    between atoms: C_2  and  N_1 
REMARK       I    between atoms: C_3  and  N_1 
REMARK    1  A    between atoms: C_4  and  C_2 
REMARK       I    between atoms: N_7  and  C_3 
REMARK    2  A    between atoms: C_14  and  N_7 
REMARK    3  A    between atoms: C_13  and  C_14 
ROOT
ATOM      1  N   UNL d   1       3.371   0.052   0.979  0.00  0.00    -0.275 N 
ATOM      2  C   UNL d   1       4.742   0.211   0.885  0.00  0.00     0.259 C 
ATOM      3  C   UNL d   1       2.498  -0.301  -0.030  0.00  0.00     0.323 C 
ATOM      4  N   UNL d   1       3.072  -0.554  -1.235  0.00  0.00    -0.342 N 
ATOM      5  O   UNL d   1       5.401  -0.077  -0.112  0.00  0.00    -0.267 OA
ATOM      6  O   UNL d   1       1.292  -0.345   0.196  0.00  0.00    -0.247 OA
ATOM      7  H   UNL d   1       2.896   0.219   1.853  0.00  0.00     0.173 HD
ATOM      8  H   UNL d   1       4.090  -0.567  -1.255  0.00  0.00     0.164 HD
ENDROOT
BRANCH   2   9
ATOM      9  C   UNL d   1       5.455   0.722   2.083  0.00  0.00     0.034 A 
ATOM     10  C   UNL d   1       6.789   0.317   2.258  0.00  0.00     0.044 A 
ATOM     11  C   UNL d   1       7.540   0.824   3.317  0.00  0.00     0.073 A 
ATOM     12 CL   UNL d   1       9.175   0.322   3.509  0.00  0.00    -0.081 Cl
ATOM     13  C   UNL d   1       6.966   1.737   4.196  0.00  0.00     0.138 A 
ATOM     14  C   UNL d   1       5.642   2.143   4.034  0.00  0.00     0.045 A 
ATOM     15  F   UNL d   1       7.678   2.255   5.207  0.00  0.00    -0.204 F 
ATOM     16  C   UNL d   1       4.879   1.637   2.975  0.00  0.00     0.020 A 
ENDBRANCH   2   9
BRANCH   4  17
ATOM     17  C   UNL d   1       2.361  -0.916  -2.444  0.00  0.00     0.132 C 
BRANCH  17  18
ATOM     18  C   UNL d   1       2.610   0.077  -3.606  0.00  0.00    -0.035 C 
ATOM     19  C   UNL d   1       4.112   0.201  -3.922  0.00  0.00     0.016 C 
ATOM     20  C   UNL d   1       1.893  -0.443  -4.865  0.00  0.00     0.016 C 
ATOM     21  C   UNL d   1       2.049   1.464  -3.252  0.00  0.00     0.016 C 
ENDBRANCH  17  18
ENDBRANCH   4  17
TORSDOF 3
