REMARK  6 active torsions:
REMARK  status: ('A' for Active; 'I' for Inactive)
REMARK    1  A    between atoms: C_8  and  C_1 
REMARK    2  A    between atoms: C_16  and  C_6 
REMARK    3  A    between atoms: C_7  and  C_13 
REMARK    4  A    between atoms: O_12  and  N_9 
REMARK    5  A    between atoms: C_11  and  O_12 
REMARK    6  A    between atoms: C_14  and  C_11 
ROOT
ATOM      1  C   UNL d   1      -1.399   2.230  -0.042  0.00  0.00     0.064 C 
ATOM      2  N   UNL d   1      -0.877   3.421  -0.049  0.00  0.00    -0.259 N 
ATOM      3  HN  UNL d   1      -1.426   4.280  -0.080  1.00  0.00     0.194 HD
ATOM      4  C   UNL d   1      -0.562   0.970   0.001  0.00  0.00     0.073 C 
ENDROOT
BRANCH   2   5
ATOM      5  O   UNL d   1       0.538   3.394  -0.009  0.00  0.00    -0.195 OA
BRANCH   5   6
ATOM      6  C   UNL d   1       1.022   4.673  -0.051  0.00  0.00     0.315 C 
ATOM      7  O   UNL d   1       0.366   5.704  -0.133  0.00  0.00    -0.257 OA
BRANCH   6   8
ATOM      8  C   UNL d   1       2.514   4.695   0.024  0.00  0.00     0.041 A 
ATOM      9  C   UNL d   1       3.141   5.950   0.032  0.00  0.00     0.018 A 
ATOM     10  C   UNL d   1       4.534   6.058   0.112  0.00  0.00     0.017 A 
ATOM     11  C   UNL d   1       5.332   4.909   0.185  0.00  0.00     0.048 A 
ATOM     12  C   UNL d   1       4.704   3.651   0.171  0.00  0.00     0.017 A 
ATOM     13  C   UNL d   1       3.307   3.542   0.091  0.00  0.00     0.018 A 
BRANCH  11  14
ATOM     14  C   UNL d   1       6.837   5.015   0.283  0.00  0.00     0.417 C 
ATOM     15  F   UNL d   1       7.295   6.298   0.276  0.00  0.00    -0.166 F 
ATOM     16  F   UNL d   1       7.324   4.452   1.423  0.00  0.00    -0.166 F 
ATOM     17  F   UNL d   1       7.471   4.388  -0.746  0.00  0.00    -0.166 F 
ENDBRANCH  11  14
ENDBRANCH   6   8
ENDBRANCH   5   6
ENDBRANCH   2   5
BRANCH   1  18
ATOM     18  C   UNL d   1      -2.838   2.113  -0.078  0.00  0.00     0.125 A 
ATOM     19  C   UNL d   1      -3.853   3.046  -0.115  0.00  0.00     0.073 A 
ATOM     20  C   UNL d   1      -5.059   2.293  -0.155  0.00  0.00     0.068 A 
ATOM     21  N   UNL d   1      -4.776   0.981  -0.143  0.00  0.00    -0.260 N 
ATOM     22  O   UNL d   1      -3.404   0.875  -0.089  0.00  0.00    -0.235 OA
ATOM     23  HN  UNL d   1      -5.446   0.212  -0.168  1.00  0.00     0.195 HD
BRANCH  20  24
ATOM     24  C   UNL d   1      -6.441   2.780  -0.215  0.00  0.00    -0.007 A 
ATOM     25  C   UNL d   1      -7.452   1.990  -0.785  0.00  0.00     0.014 A 
ATOM     26  C   UNL d   1      -8.768   2.455  -0.861  0.00  0.00     0.001 A 
ATOM     27  C   UNL d   1      -9.092   3.713  -0.361  0.00  0.00     0.000 A 
ATOM     28  C   UNL d   1      -8.103   4.505   0.219  0.00  0.00     0.001 A 
ATOM     29  C   UNL d   1      -6.784   4.043   0.291  0.00  0.00     0.014 A 
ENDBRANCH  20  24
ENDBRANCH   1  18
TORSDOF 6
