REMARK  5 active torsions:
REMARK  status: ('A' for Active; 'I' for Inactive)
REMARK    1  A    between atoms: N_10  and  C_1 
REMARK    2  A    between atoms: C_14  and  C_7 
REMARK    3  A    between atoms: S_15  and  C_8 
REMARK    4  A    between atoms: C_9  and  C_13 
REMARK    5  A    between atoms: C_19  and  N_10 
ROOT
ATOM      1  C   UNL d   1       0.092   1.119  -0.063  0.00  0.00     0.131 A 
ATOM      2  N   UNL d   1       1.430   1.163   0.104  0.00  0.00    -0.327 N 
ATOM      3  HN  UNL d   1       1.913   2.050   0.245  1.00  0.00     0.169 HD
ATOM      4  N   UNL d   1       1.526  -1.195  -0.030  0.00  0.00    -0.335 N 
ATOM      5  HN  UNL d   1       2.077  -2.053  -0.004  1.00  0.00     0.168 HD
ATOM      6  C   UNL d   1      -0.582  -0.085  -0.236  0.00  0.00     0.122 A 
ATOM      7  C   UNL d   1       2.108   0.006   0.078  0.00  0.00     0.118 A 
ATOM      8  C   UNL d   1       0.189  -1.233  -0.174  0.00  0.00     0.095 A 
ATOM      9  C   UNL d   1      -1.993  -0.115  -0.462  0.00  0.00     0.106 C 
ATOM     10  N   UNL d   1      -3.131  -0.092  -0.684  0.00  0.00    -0.191 NA
ENDROOT
BRANCH   1  11
ATOM     11  N   UNL d   1      -0.623   2.337  -0.046  0.00  0.00    -0.341 N 
ATOM     12  H   UNL d   1      -1.222   2.466  -0.853  0.00  0.00     0.167 HD
BRANCH  11  13
ATOM     13  C   UNL d   1      -0.325   3.528   0.642  0.00  0.00     0.033 A 
ATOM     14  C   UNL d   1      -0.733   4.756   0.107  0.00  0.00     0.030 A 
ATOM     15  C   UNL d   1      -0.567   5.947   0.823  0.00  0.00     0.018 A 
ATOM     16  C   UNL d   1       0.004   5.934   2.103  0.00  0.00     0.048 A 
ATOM     17  C   UNL d   1       0.472   4.717   2.613  0.00  0.00     0.018 A 
ATOM     18  C   UNL d   1       0.320   3.530   1.885  0.00  0.00     0.030 A 
BRANCH  16  19
ATOM     19  C   UNL d   1       0.076   7.189   2.939  0.00  0.00     0.417 C 
ATOM     20  F   UNL d   1      -0.417   8.293   2.311  0.00  0.00    -0.166 F 
ATOM     21  F   UNL d   1      -0.632   7.077   4.098  0.00  0.00    -0.166 F 
ATOM     22  F   UNL d   1       1.348   7.506   3.309  0.00  0.00    -0.166 F 
ENDBRANCH  16  19
ENDBRANCH  11  13
ENDBRANCH   1  11
BRANCH   8  23
ATOM     23  S   UNL d   1      -0.525  -2.875  -0.289  0.00  0.00    -0.115 SA
ATOM     24  C   UNL d   1       0.943  -3.913  -0.018  0.00  0.00     0.097 C 
ENDBRANCH   8  23
BRANCH   7  25
ATOM     25  C   UNL d   1       3.582   0.043   0.126  0.00  0.00     0.008 A 
ATOM     26  C   UNL d   1       4.292   1.256   0.162  0.00  0.00     0.015 A 
ATOM     27  C   UNL d   1       5.690   1.280   0.201  0.00  0.00     0.001 A 
ATOM     28  C   UNL d   1       6.411   0.089   0.201  0.00  0.00     0.000 A 
ATOM     29  C   UNL d   1       5.737  -1.126   0.154  0.00  0.00     0.001 A 
ATOM     30  C   UNL d   1       4.340  -1.146   0.115  0.00  0.00     0.015 A 
ENDBRANCH   7  25
TORSDOF 5
