REMARK  8 active torsions:
REMARK  status: ('A' for Active; 'I' for Inactive)
REMARK       I    between atoms: N_4  and  C_1 
REMARK    1  A    between atoms: O_5  and  C_1 
REMARK       I    between atoms: C_2  and  N_3 
REMARK    2  A    between atoms: O_6  and  C_2 
REMARK    3  A    between atoms: N_3  and  C_11 
REMARK    4  A    between atoms: C_12  and  N_4 
REMARK    5  A    between atoms: C_9  and  O_5 
REMARK    6  A    between atoms: C_10  and  O_6 
REMARK    7  A    between atoms: C_17  and  C_15 
REMARK    8  A    between atoms: C_16  and  C_17 
ROOT
ATOM      1  C   UNL d   1       3.040  -3.784   5.218  0.00  0.00     0.077 C 
ENDROOT
BRANCH   1   2
ATOM      2  C   UNL d   1       3.266  -2.989   6.481  0.00  0.00    -0.054 A 
ATOM      3  C   UNL d   1       2.328  -3.017   7.517  0.00  0.00     0.010 A 
ATOM      4  C   UNL d   1       2.644  -2.486   8.771  0.00  0.00     0.030 A 
ATOM      5  C   UNL d   1       3.901  -1.916   9.020  0.00  0.00     0.036 A 
ATOM      6  C   UNL d   1       4.791  -1.790   7.955  0.00  0.00     0.030 A 
ATOM      7  C   UNL d   1       4.477  -2.321   6.695  0.00  0.00     0.010 A 
BRANCH   5   8
ATOM      8  N   UNL d   1       4.170  -1.556  10.353  0.00  0.00    -0.302 N 
ATOM      9  C   UNL d   1       5.310  -1.123  10.985  0.00  0.00     0.370 C 
ATOM     10  O   UNL d   1       5.289  -0.936  12.199  0.00  0.00    -0.238 OA
ATOM     11  H   UNL d   1       3.425  -1.696  11.023  0.00  0.00     0.171 HD
BRANCH   9  12
ATOM     12  O   UNL d   1       6.420  -0.947  10.168  0.00  0.00    -0.261 OA
BRANCH  12  13
ATOM     13  C   UNL d   1       7.623  -0.306  10.552  0.00  0.00     0.081 A 
ATOM     14  C   UNL d   1       7.722   0.583  11.620  0.00  0.00     0.044 A 
ATOM     15  C   UNL d   1       8.922   1.272  11.846  0.00  0.00    -0.059 A 
ATOM     16  C   UNL d   1       9.017   2.289  12.946  0.00  0.00     0.048 C 
ATOM     17  C   UNL d   1      10.006   1.066  10.982  0.00  0.00     0.007 A 
ATOM     18  C   UNL d   1       9.902   0.168   9.918  0.00  0.00     0.003 A 
ATOM     19  C   UNL d   1       8.709  -0.519   9.701  0.00  0.00     0.037 A 
ENDBRANCH  12  13
ENDBRANCH   9  12
ENDBRANCH   5   8
ENDBRANCH   1   2
BRANCH   1  20
ATOM     20  C   UNL d   1       2.449  -3.129   3.994  0.00  0.00    -0.054 A 
ATOM     21  C   UNL d   1       1.999  -1.810   3.919  0.00  0.00     0.010 A 
ATOM     22  C   UNL d   1       1.458  -1.309   2.718  0.00  0.00     0.030 A 
ATOM     23  C   UNL d   1       1.345  -2.122   1.580  0.00  0.00     0.036 A 
ATOM     24  C   UNL d   1       1.791  -3.437   1.659  0.00  0.00     0.030 A 
ATOM     25  C   UNL d   1       2.335  -3.932   2.847  0.00  0.00     0.010 A 
BRANCH  23  26
ATOM     26  N   UNL d   1       0.809  -1.559   0.403  0.00  0.00    -0.302 N 
ATOM     27  C   UNL d   1       0.551  -2.200  -0.787  0.00  0.00     0.370 C 
ATOM     28  O   UNL d   1       0.633  -3.399  -1.010  0.00  0.00    -0.238 OA
ATOM     29  H   UNL d   1       0.602  -0.571   0.402  0.00  0.00     0.171 HD
BRANCH  27  30
ATOM     30  O   UNL d   1       0.171  -1.250  -1.737  0.00  0.00    -0.261 OA
BRANCH  30  31
ATOM     31  C   UNL d   1       0.066  -1.650  -3.085  0.00  0.00     0.081 A 
ATOM     32  C   UNL d   1       1.054  -2.415  -3.710  0.00  0.00     0.044 A 
ATOM     33  C   UNL d   1       0.941  -2.732  -5.069  0.00  0.00    -0.059 A 
ATOM     34  C   UNL d   1       1.986  -3.562  -5.754  0.00  0.00     0.048 C 
ATOM     35  C   UNL d   1      -0.157  -2.246  -5.793  0.00  0.00     0.007 A 
ATOM     36  C   UNL d   1      -1.130  -1.462  -5.168  0.00  0.00     0.003 A 
ATOM     37  C   UNL d   1      -1.018  -1.158  -3.810  0.00  0.00     0.037 A 
ENDBRANCH  30  31
ENDBRANCH  27  30
ENDBRANCH  23  26
ENDBRANCH   1  20
TORSDOF 8
