REMARK  2 active torsions:
REMARK  status: ('A' for Active; 'I' for Inactive)
REMARK    1  A    between atoms: O_9  and  C_1 
REMARK    2  A    between atoms: C_7  and  C_2 
ROOT
ATOM      1  C   UNL d   1      -2.363  -0.269  -0.005  0.00  0.00     0.154 A 
ATOM      2  C   UNL d   1      -1.855  -1.518  -0.041  0.00  0.00     0.123 A 
ATOM      3  C   UNL d   1      -1.373   0.858   0.049  0.00  0.00     0.221 A 
ATOM      4  O   UNL d   1      -0.515  -1.854  -0.002  0.00  0.00    -0.306 OA
ATOM      5  C   UNL d   1       0.054   0.495   0.030  0.00  0.00     0.051 A 
ATOM      6  C   UNL d   1       0.408  -0.847   0.016  0.00  0.00     0.090 A 
ATOM      7  O   UNL d   1      -1.687   2.043   0.095  0.00  0.00    -0.284 OA
ATOM      8  C   UNL d   1       1.045   1.483   0.023  0.00  0.00     0.018 A 
ATOM      9  C   UNL d   1       1.754  -1.217   0.009  0.00  0.00     0.038 A 
ATOM     10  C   UNL d   1       2.392   1.115   0.006  0.00  0.00     0.001 A 
ATOM     11  C   UNL d   1       2.745  -0.234   0.003  0.00  0.00     0.003 A 
ENDROOT
BRANCH   2  12
ATOM     12  C   UNL d   1      -2.718  -2.704  -0.165  0.00  0.00     0.001 A 
ATOM     13  C   UNL d   1      -3.048  -3.191  -1.437  0.00  0.00     0.014 A 
ATOM     14  C   UNL d   1      -3.843  -4.330  -1.571  0.00  0.00     0.001 A 
ATOM     15  C   UNL d   1      -4.312  -4.989  -0.436  0.00  0.00     0.000 A 
ATOM     16  C   UNL d   1      -3.989  -4.509   0.834  0.00  0.00     0.001 A 
ATOM     17  C   UNL d   1      -3.194  -3.369   0.971  0.00  0.00     0.014 A 
ENDBRANCH   2  12
BRANCH   1  18
ATOM     18  O   UNL d   1      -3.740  -0.088  -0.039  0.00  0.00    -0.350 OA
ATOM     19  C   UNL d   1      -4.251   1.236   0.024  0.00  0.00     0.210 C 
ENDBRANCH   1  18
TORSDOF 2
