REMARK  7 active torsions:
REMARK  status: ('A' for Active; 'I' for Inactive)
REMARK    1  A    between atoms: N_2  and  C_1 
REMARK    2  A    between atoms: C_3  and  C_1 
REMARK    3  A    between atoms: C_4  and  C_1 
REMARK    4  A    between atoms: N_5  and  C_1 
REMARK       I    between atoms: C_8  and  N_2 
REMARK    5  A    between atoms: C_9  and  N_5 
REMARK    6  A    between atoms: C_6  and  C_7 
REMARK    7  A    between atoms: C_11  and  C_8 
ROOT
ATOM      1  C   UNL d   1       0.962   0.080   0.277  0.00  0.00     0.306 C 
ENDROOT
BRANCH   1   2
ATOM      2  N   UNL d   1       0.294   1.398   0.421  0.00  0.00    -0.315 N 
ATOM      3  C   UNL d   1       0.409   2.203   1.524  0.00  0.00     0.254 C 
ATOM      4  O   UNL d   1       1.009   1.862   2.532  0.00  0.00    -0.268 OA
ATOM      5  H   UNL d   1       0.001   1.824  -0.445  0.00  0.00     0.165 HD
BRANCH   3   6
ATOM      6  C   UNL d   1      -0.218   3.557   1.432  0.00  0.00     0.032 A 
ATOM      7  C   UNL d   1      -1.232   3.858   0.511  0.00  0.00     0.017 A 
ATOM      8  C   UNL d   1      -1.778   5.145   0.462  0.00  0.00     0.001 A 
ATOM      9  C   UNL d   1      -1.326   6.130   1.338  0.00  0.00     0.000 A 
ATOM     10  C   UNL d   1      -0.333   5.832   2.270  0.00  0.00     0.001 A 
ATOM     11  C   UNL d   1       0.219   4.550   2.318  0.00  0.00     0.017 A 
ENDBRANCH   3   6
ENDBRANCH   1   2
BRANCH   1  12
ATOM     12  C   UNL d   1       0.226  -0.797  -0.786  0.00  0.00     0.441 C 
ATOM     13  F   UNL d   1      -0.264  -0.024  -1.797  0.00  0.00    -0.166 F 
ATOM     14  F   UNL d   1       1.030  -1.719  -1.361  0.00  0.00    -0.166 F 
ATOM     15  F   UNL d   1      -0.852  -1.446  -0.288  0.00  0.00    -0.166 F 
ENDBRANCH   1  12
BRANCH   1  16
ATOM     16  C   UNL d   1       0.892  -0.864   1.531  0.00  0.00     0.441 C 
ATOM     17  F   UNL d   1      -0.322  -0.829   2.132  0.00  0.00    -0.166 F 
ATOM     18  F   UNL d   1       1.137  -2.160   1.207  0.00  0.00    -0.166 F 
ATOM     19  F   UNL d   1       1.824  -0.546   2.463  0.00  0.00    -0.166 F 
ENDBRANCH   1  16
BRANCH   1  20
ATOM     20  N   UNL d   1       2.395   0.399  -0.050  0.00  0.00    -0.348 N 
ATOM     21  H   UNL d   1       2.961   0.374   0.807  0.00  0.00     0.162 HD
BRANCH  20  22
ATOM     22  C   UNL d   1       2.970   1.084  -1.101  0.00  0.00     0.045 A 
ATOM     23  C   UNL d   1       4.376   1.235  -1.180  0.00  0.00     0.074 A 
ATOM     24  C   UNL d   1       4.969   1.857  -2.303  0.00  0.00     0.018 A 
ATOM     25  C   UNL d   1       4.197   2.332  -3.354  0.00  0.00     0.001 A 
ATOM     26  C   UNL d   1       2.821   2.188  -3.293  0.00  0.00     0.002 A 
ATOM     27  C   UNL d   1       2.229   1.569  -2.190  0.00  0.00     0.030 A 
BRANCH  23  28
ATOM     28  C   UNL d   1       5.332   0.760  -0.106  0.00  0.00     0.419 C 
ATOM     29  F   UNL d   1       4.735   0.185   0.978  0.00  0.00    -0.166 F 
ATOM     30  F   UNL d   1       6.223  -0.162  -0.570  0.00  0.00    -0.166 F 
ATOM     31  F   UNL d   1       6.088   1.780   0.395  0.00  0.00    -0.166 F 
ENDBRANCH  23  28
ENDBRANCH  20  22
ENDBRANCH   1  20
TORSDOF 7
