REMARK  3 active torsions:
REMARK  status: ('A' for Active; 'I' for Inactive)
REMARK    1  A    between atoms: C_7  and  C_1 
REMARK    2  A    between atoms: C_14  and  C_1 
REMARK    3  A    between atoms: C_6  and  C_7 
ROOT
ATOM      1  C   UNL d   1       1.190   3.072  -1.225  0.00  0.00    -0.116 C 
ATOM      2  C   UNL d   1       2.137   3.811  -1.293  0.00  0.00     0.012 C 
ATOM      3  C   UNL d   1       0.054   2.139  -1.169  0.00  0.00     0.115 C 
ENDROOT
BRANCH   3   4
ATOM      4  C   UNL d   1       0.061   1.214   0.058  0.00  0.00     0.053 A 
ATOM      5  C   UNL d   1       1.152   0.169  -0.040  0.00  0.00     0.015 A 
ATOM      6  N   UNL d   1       0.697  -1.044  -0.121  0.00  0.00    -0.308 N 
ATOM      7  C   UNL d   1       2.612   0.474  -0.127  0.00  0.00     0.066 C 
ATOM      8  N   UNL d   1      -0.719  -0.996  -0.151  0.00  0.00    -0.308 N 
ATOM      9  HN  UNL d   1       1.264  -1.891  -0.159  1.00  0.00     0.186 HD
ATOM     10  C   UNL d   1      -1.091   0.245  -0.086  0.00  0.00     0.015 A 
ATOM     11  HN  UNL d   1      -1.342  -1.802  -0.212  1.00  0.00     0.186 HD
ATOM     12  C   UNL d   1      -2.512   0.660  -0.277  0.00  0.00     0.066 C 
BRANCH   4  13
ATOM     13  C   UNL d   1       0.036   1.969   1.413  0.00  0.00     0.066 C 
BRANCH  13  14
ATOM     14  C   UNL d   1      -0.044   1.127   2.677  0.00  0.00     0.004 A 
ATOM     15  C   UNL d   1      -1.231   0.858   3.378  0.00  0.00     0.043 A 
ATOM     16 CL   UNL d   1      -2.724   1.646   3.021  0.00  0.00    -0.084 Cl
ATOM     17  C   UNL d   1      -1.243  -0.025   4.468  0.00  0.00     0.024 A 
ATOM     18  C   UNL d   1      -0.065  -0.619   4.913  0.00  0.00     0.005 A 
ATOM     19  C   UNL d   1       1.132  -0.300   4.288  0.00  0.00     0.043 A 
ATOM     20  C   UNL d   1       1.132   0.564   3.196  0.00  0.00     0.124 A 
ATOM     21  F   UNL d   1       2.315   0.882   2.656  0.00  0.00    -0.205 F 
ENDBRANCH  13  14
ENDBRANCH   4  13
ENDBRANCH   3   4
TORSDOF 3
