REMARK  2 active torsions:
REMARK  status: ('A' for Active; 'I' for Inactive)
REMARK       I    between atoms: C_3  and  N_1 
REMARK    1  A    between atoms: C_2  and  C_3 
REMARK    2  A    between atoms: C_12  and  C_4 
ROOT
ATOM      1  C   UNL d   1      -1.853  -3.319   0.186  0.00  0.00     0.095 A 
ATOM      2  C   UNL d   1      -2.806  -3.075  -0.856  0.00  0.00     0.086 A 
ATOM      3  N   UNL d   1      -3.992  -3.610  -0.522  0.00  0.00    -0.259 N 
ATOM      4  HN  UNL d   1      -4.866  -3.519  -1.040  1.00  0.00     0.195 HD
ATOM      5  O   UNL d   1      -3.804  -4.302   0.647  0.00  0.00    -0.241 OA
ATOM      6  C   UNL d   1      -2.522  -4.155   1.061  0.00  0.00     0.090 A 
ATOM      7  C   UNL d   1      -2.150  -4.913   2.272  0.00  0.00     0.080 C 
ENDROOT
BRANCH   1   8
ATOM      8  C   UNL d   1      -0.470  -2.889   0.316  0.00  0.00     0.281 C 
ATOM      9  N   UNL d   1       0.019  -2.314   1.532  0.00  0.00    -0.223 N 
ATOM     10  N   UNL d   1      -0.891  -2.005   2.510  0.00  0.00    -0.294 N 
ATOM     11  C   UNL d   1       1.312  -1.983   1.937  0.00  0.00     0.053 A 
ATOM     12  C   UNL d   1      -0.183  -1.512   3.528  0.00  0.00     0.042 A 
ATOM     13  HN  UNL d   1      -1.903  -2.127   2.468  1.00  0.00     0.187 HD
ATOM     14  C   UNL d   1      -0.870  -1.086   4.773  0.00  0.00     0.071 C 
ATOM     15  C   UNL d   1       1.183  -1.493   3.219  0.00  0.00     0.059 A 
ATOM     16 BR   UNL d   1       2.543  -0.918   4.373  0.00  0.00    -0.047 Br
ATOM     17  C   UNL d   1       2.551  -2.179   1.141  0.00  0.00     0.072 C 
ATOM     18  O   UNL d   1       0.304  -2.985  -0.630  0.00  0.00    -0.265 OA
ENDBRANCH   1   8
BRANCH   2  19
ATOM     19  C   UNL d   1      -2.679  -2.352  -2.127  0.00  0.00     0.037 A 
ATOM     20  C   UNL d   1      -3.078  -2.962  -3.341  0.00  0.00     0.048 A 
ATOM     21 CL   UNL d   1      -3.600  -4.615  -3.447  0.00  0.00    -0.083 Cl
ATOM     22  C   UNL d   1      -3.046  -2.260  -4.554  0.00  0.00     0.025 A 
ATOM     23  C   UNL d   1      -2.590  -0.948  -4.595  0.00  0.00     0.003 A 
ATOM     24  C   UNL d   1      -2.171  -0.333  -3.417  0.00  0.00     0.025 A 
ATOM     25  C   UNL d   1      -2.229  -1.019  -2.192  0.00  0.00     0.048 A 
ATOM     26 CL   UNL d   1      -1.779  -0.102  -0.793  0.00  0.00    -0.083 Cl
ENDBRANCH   2  19
TORSDOF 2
