REMARK  5 active torsions:
REMARK  status: ('A' for Active; 'I' for Inactive)
REMARK    1  A    between atoms: C_3  and  C_1 
REMARK    2  A    between atoms: C_2  and  C_4 
REMARK    3  A    between atoms: C_6  and  C_5 
REMARK       I    between atoms: N_10  and  C_6 
REMARK    4  A    between atoms: C_22  and  N_10 
REMARK    5  A    between atoms: C_15  and  C_22 
ROOT
ATOM      1  C   UNL d   1       0.718  -0.745   1.135  0.00  0.00     0.049 A 
ATOM      2  C   UNL d   1       0.371  -2.705   2.547  0.00  0.00     0.049 A 
ATOM      3  C   UNL d   1       0.138  -0.454   3.494  0.00  0.00     0.033 A 
ATOM      4  C   UNL d   1       0.681  -2.138   1.303  0.00  0.00     0.032 A 
ATOM      5  C   UNL d   1       0.421   0.089   2.232  0.00  0.00     0.033 A 
ATOM      6  C   UNL d   1       0.105  -1.852   3.632  0.00  0.00     0.033 A 
ENDROOT
BRANCH   3   7
ATOM      7  C   UNL d   1      -0.046   0.370   4.731  0.00  0.00     0.251 C 
ATOM      8  N   UNL d   1       0.055   1.744   4.623  0.00  0.00    -0.353 N 
ATOM      9  H   UNL d   1       0.111   2.200   3.727  0.00  0.00     0.163 HD
ATOM     10  O   UNL d   1      -0.231  -0.190   5.809  0.00  0.00    -0.268 OA
BRANCH   8  11
ATOM     11  C   UNL d   1       0.038   2.598   5.791  0.00  0.00     0.161 C 
BRANCH  11  12
ATOM     12  C   UNL d   1      -1.357   3.048   6.130  0.00  0.00    -0.037 A 
ATOM     13  C   UNL d   1      -2.112   2.348   7.084  0.00  0.00     0.032 A 
ATOM     14  C   UNL d   1      -3.424   2.731   7.365  0.00  0.00     0.036 A 
ATOM     15 CL   UNL d   1      -4.336   1.855   8.533  0.00  0.00    -0.084 Cl
ATOM     16  C   UNL d   1      -4.005   3.809   6.704  0.00  0.00     0.047 A 
ATOM     17  C   UNL d   1      -3.258   4.510   5.762  0.00  0.00     0.036 A 
ATOM     18  C   UNL d   1      -1.942   4.140   5.473  0.00  0.00     0.032 A 
ATOM     19 CL   UNL d   1      -3.966   5.841   4.932  0.00  0.00    -0.084 Cl
ENDBRANCH  11  12
ENDBRANCH   8  11
ENDBRANCH   3   7
BRANCH   1  20
ATOM     20  C   UNL d   1       1.110  -0.129  -0.190  0.00  0.00     0.417 C 
ATOM     21  F   UNL d   1       1.535  -1.038  -1.108  0.00  0.00    -0.166 F 
ATOM     22  F   UNL d   1       2.125   0.769  -0.053  0.00  0.00    -0.166 F 
ATOM     23  F   UNL d   1       0.085   0.550  -0.770  0.00  0.00    -0.166 F 
ENDBRANCH   1  20
BRANCH   2  24
ATOM     24  C   UNL d   1       0.352  -4.205   2.741  0.00  0.00     0.417 C 
ATOM     25  F   UNL d   1       0.676  -4.896   1.613  0.00  0.00    -0.166 F 
ATOM     26  F   UNL d   1       1.231  -4.617   3.694  0.00  0.00    -0.166 F 
ATOM     27  F   UNL d   1      -0.869  -4.665   3.123  0.00  0.00    -0.166 F 
ENDBRANCH   2  24
TORSDOF 5
