REMARK  6 active torsions:
REMARK  status: ('A' for Active; 'I' for Inactive)
REMARK    1  A    between atoms: C_1  and  N_4 
REMARK    2  A    between atoms: C_2  and  O_10 
REMARK    3  A    between atoms: C_3  and  O_11 
REMARK       I    between atoms: C_8  and  N_4 
REMARK    4  A    between atoms: C_6  and  O_13 
REMARK    5  A    between atoms: C_7  and  C_14 
REMARK       I    between atoms: N_12  and  C_8 
REMARK    6  A    between atoms: O_15  and  C_14 
ROOT
ATOM      1  C   UNL d   1       1.133   1.385  -0.130  0.00  0.00     0.256 C 
ATOM      2  C   UNL d   1       1.199  -0.119   0.228  0.00  0.00     0.198 C 
ATOM      3  C   UNL d   1      -0.084  -0.811  -0.246  0.00  0.00     0.182 C 
ATOM      4  O   UNL d   1      -0.037   1.978   0.423  0.00  0.00    -0.354 OA
ATOM      5  C   UNL d   1      -1.343  -0.064   0.194  0.00  0.00     0.180 C 
ATOM      6  C   UNL d   1      -1.231   1.430  -0.147  0.00  0.00     0.179 C 
ENDROOT
BRANCH   1   7
ATOM      7  N   UNL d   1       2.224   2.142   0.424  0.00  0.00    -0.314 N 
ATOM      8  C   UNL d   1       3.469   2.077  -0.110  0.00  0.00     0.315 C 
ATOM      9  O   UNL d   1       3.766   1.383  -1.070  0.00  0.00    -0.248 OA
ATOM     10  N   UNL d   1       4.364   2.857   0.536  0.00  0.00    -0.352 N 
ATOM     11  H   UNL d   1       4.030   3.719   0.936  0.00  0.00     0.160 HD
ATOM     12  H   UNL d   1       5.263   2.927   0.068  0.00  0.00     0.160 HD
ATOM     13  H   UNL d   1       2.137   2.429   1.386  0.00  0.00     0.166 HD
ENDBRANCH   1   7
BRANCH   2  14
ATOM     14  O   UNL d   1       2.293  -0.833  -0.367  0.00  0.00    -0.389 OA
ATOM     15  H   UNL d   1       2.922  -0.181  -0.750  0.00  0.00     0.210 HD
ENDBRANCH   2  14
BRANCH   3  16
ATOM     16  O   UNL d   1      -0.151  -2.151   0.280  0.00  0.00    -0.390 OA
ATOM     17  H   UNL d   1       0.768  -2.485   0.254  0.00  0.00     0.210 HD
ENDBRANCH   3  16
BRANCH   6  18
ATOM     18  C   UNL d   1      -2.442   2.204   0.394  0.00  0.00     0.198 C 
BRANCH  18  19
ATOM     19  O   UNL d   1      -3.657   1.823  -0.243  0.00  0.00    -0.398 OA
ATOM     20  H   UNL d   1      -3.635   0.847  -0.345  0.00  0.00     0.209 HD
ENDBRANCH  18  19
ENDBRANCH   6  18
BRANCH   5  21
ATOM     21  O   UNL d   1      -2.489  -0.647  -0.440  0.00  0.00    -0.390 OA
ATOM     22  H   UNL d   1      -2.349  -1.616  -0.383  0.00  0.00     0.210 HD
ENDBRANCH   5  21
TORSDOF 6
