REMARK  6 active torsions:
REMARK  status: ('A' for Active; 'I' for Inactive)
REMARK       I    between atoms: N_2  and  C_1 
REMARK    1  A    between atoms: O_5  and  C_1 
REMARK    2  A    between atoms: C_4  and  N_2 
REMARK    3  A    between atoms: C_3  and  C_4 
REMARK       I    between atoms: N_10  and  C_3 
REMARK    4  A    between atoms: C_7  and  C_4 
REMARK    5  A    between atoms: C_9  and  O_5 
REMARK    6  A    between atoms: C_11  and  C_7 
ROOT
ATOM      1  C   UNL d   1       1.050   2.176   1.236  0.00  0.00     0.183 C 
ENDROOT
BRANCH   1   2
ATOM      2  C   UNL d   1       1.831   3.041   0.214  0.00  0.00     0.240 C 
ATOM      3  O   UNL d   1       1.338   4.013  -0.355  0.00  0.00    -0.271 OA
ATOM      4  N   UNL d   1       3.106   2.577  -0.053  0.00  0.00    -0.364 N 
ATOM      5  C   UNL d   1       3.933   3.158  -1.081  0.00  0.00     0.149 C 
ATOM      6  H   UNL d   1       3.279   1.599   0.178  0.00  0.00     0.161 HD
ENDBRANCH   1   2
BRANCH   1   7
ATOM      7  N   UNL d   1       0.349   1.104   0.527  0.00  0.00    -0.323 N 
ATOM      8  C   UNL d   1       0.999   0.061  -0.057  0.00  0.00     0.362 C 
ATOM      9  O   UNL d   1       2.218  -0.049  -0.080  0.00  0.00    -0.238 OA
ATOM     10  H   UNL d   1      -0.656   1.022   0.601  0.00  0.00     0.165 HD
BRANCH   8  11
ATOM     11  O   UNL d   1       0.106  -0.785  -0.625  0.00  0.00    -0.294 OA
BRANCH  11  12
ATOM     12  C   UNL d   1       0.569  -1.871  -1.475  0.00  0.00     0.061 C 
ATOM     13  C   UNL d   1       1.422  -2.880  -0.698  0.00  0.00     0.046 C 
ATOM     14  C   UNL d   1      -0.696  -2.582  -1.988  0.00  0.00     0.046 C 
ATOM     15  C   UNL d   1       1.320  -1.325  -2.697  0.00  0.00     0.046 C 
ENDBRANCH  11  12
ENDBRANCH   8  11
ENDBRANCH   1   7
BRANCH   1  16
ATOM     16  C   UNL d   1       0.073   3.097   1.991  0.00  0.00     0.073 C 
BRANCH  16  17
ATOM     17  C   UNL d   1      -0.705   2.412   3.094  0.00  0.00    -0.056 A 
ATOM     18  C   UNL d   1      -0.047   1.859   4.202  0.00  0.00     0.007 A 
ATOM     19  C   UNL d   1      -0.775   1.239   5.220  0.00  0.00     0.001 A 
ATOM     20  C   UNL d   1      -2.165   1.175   5.145  0.00  0.00     0.000 A 
ATOM     21  C   UNL d   1      -2.829   1.733   4.056  0.00  0.00     0.001 A 
ATOM     22  C   UNL d   1      -2.102   2.349   3.035  0.00  0.00     0.007 A 
ENDBRANCH  16  17
ENDBRANCH   1  16
TORSDOF 6
