REMARK  3 active torsions:
REMARK  status: ('A' for Active; 'I' for Inactive)
REMARK    1  A    between atoms: C_3  and  C_1 
REMARK       I    between atoms: N_4  and  C_1 
REMARK    2  A    between atoms: N_2  and  C_5 
REMARK    3  A    between atoms: C_7  and  N_6 
ROOT
ATOM      1  C   UNL d   1       0.656  -0.079   0.018  0.00  0.00     0.260 C 
ATOM      2  N   UNL d   1       0.279   0.519  -1.188  0.00  0.00    -0.345 N 
ATOM      3  N   UNL d   1      -0.627   1.406  -3.745  0.00  0.00    -0.364 N 
ATOM      4  O   UNL d   1       1.394  -1.062   0.082  0.00  0.00    -0.267 OA
ATOM      5  C   UNL d   1       0.620  -0.220  -2.413  0.00  0.00     0.146 C 
ATOM      6  C   UNL d   1      -0.830   1.488  -1.310  0.00  0.00     0.146 C 
ATOM      7  C   UNL d   1      -0.804   2.319  -2.609  0.00  0.00     0.144 C 
ATOM      8  C   UNL d   1       0.637   0.660  -3.675  0.00  0.00     0.144 C 
ENDROOT
BRANCH   1   9
ATOM      9  C   UNL d   1       0.196   0.491   1.288  0.00  0.00     0.109 A 
ATOM     10  C   UNL d   1      -1.141   0.433   1.671  0.00  0.00     0.135 A 
ATOM     11  F   UNL d   1      -2.062  -0.131   0.878  0.00  0.00    -0.205 F 
ATOM     12  C   UNL d   1      -1.555   0.980   2.885  0.00  0.00     0.043 A 
ATOM     13  C   UNL d   1      -0.618   1.557   3.743  0.00  0.00     0.006 A 
ATOM     14  C   UNL d   1       0.730   1.582   3.380  0.00  0.00     0.043 A 
ATOM     15  C   UNL d   1       1.130   1.047   2.156  0.00  0.00     0.135 A 
ATOM     16  F   UNL d   1       2.429   1.104   1.828  0.00  0.00    -0.205 F 
ENDBRANCH   1   9
BRANCH   3  17
ATOM     17  C   UNL d   1      -1.155   1.772  -4.967  0.00  0.00     0.103 A 
ATOM     18  N   UNL d   1      -1.658   3.018  -5.127  0.00  0.00    -0.350 N 
ATOM     19  C   UNL d   1      -2.293   3.327  -6.289  0.00  0.00     0.125 A 
ATOM     20  HN  UNL d   1      -1.563   3.715  -4.388  1.00  0.00     0.166 HD
ATOM     21  C   UNL d   1      -2.464   2.423  -7.321  0.00  0.00     0.118 A 
ATOM     22  C   UNL d   1      -1.946   1.142  -7.175  0.00  0.00     0.041 A 
ATOM     23  C   UNL d   1      -1.286   0.823  -5.986  0.00  0.00     0.051 A 
BRANCH  21  24
ATOM     24  N   UNL d   1      -3.201   2.805  -8.515  0.00  0.00    -0.114 N 
ATOM     25  O   UNL d   1      -3.607   3.972  -8.594  0.00  0.00    -0.532 OA
ATOM     26  O   UNL d   1      -3.382   1.936  -9.380  0.00  0.00    -0.532 OA
ENDBRANCH  21  24
ENDBRANCH   3  17
TORSDOF 3
