REMARK  4 active torsions:
REMARK  status: ('A' for Active; 'I' for Inactive)
REMARK    1  A    between atoms: C_2  and  S_1 
REMARK    2  A    between atoms: N_8  and  S_1 
REMARK    3  A    between atoms: C_3  and  C_14 
REMARK    4  A    between atoms: C_14  and  N_8 
ROOT
ATOM      1  S   UNL d   1       0.991  -0.036  -0.129  0.00  0.00     0.244 S 
ATOM      2  O   UNL d   1       0.344   1.190  -0.533  0.00  0.00    -0.206 OA
ATOM      3  O   UNL d   1       2.436  -0.095   0.011  0.00  0.00    -0.206 OA
ENDROOT
BRANCH   1   4
ATOM      4  C   UNL d   1       0.517  -1.306  -1.276  0.00  0.00     0.102 A 
ATOM      5  C   UNL d   1      -0.839  -1.542  -1.511  0.00  0.00     0.065 A 
ATOM      6  N   UNL d   1      -1.820  -0.932  -0.805  0.00  0.00    -0.364 N 
ATOM      7  C   UNL d   1      -1.158  -2.462  -2.540  0.00  0.00    -0.008 A 
ATOM      8  C   UNL d   1      -3.108  -1.141  -1.163  0.00  0.00     0.088 A 
ATOM      9  HN  UNL d   1      -1.592  -0.326  -0.017  1.00  0.00     0.165 HD
ATOM     10  C   UNL d   1      -3.498  -1.995  -2.174  0.00  0.00     0.018 A 
ATOM     11  C   UNL d   1      -2.505  -2.680  -2.857  0.00  0.00     0.015 A 
ATOM     12  C   UNL d   1      -0.149  -3.133  -3.252  0.00  0.00     0.014 A 
ATOM     13  C   UNL d   1       1.192  -2.889  -2.977  0.00  0.00     0.003 A 
ATOM     14  C   UNL d   1       1.529  -1.966  -1.995  0.00  0.00     0.027 A 
ENDBRANCH   1   4
BRANCH   1  15
ATOM     15  N   UNL d   1       0.337  -0.524   1.352  0.00  0.00    -0.211 NA
ATOM     16  H   UNL d   1      -0.653  -0.764   1.231  0.00  0.00     0.140 HD
BRANCH  15  17
ATOM     17  C   UNL d   1       1.133  -1.493   2.107  0.00  0.00     0.144 C 
BRANCH  17  18
ATOM     18  C   UNL d   1       0.380  -1.871   3.350  0.00  0.00    -0.026 A 
ATOM     19  C   UNL d   1      -0.497  -3.019   3.464  0.00  0.00    -0.009 A 
ATOM     20  C   UNL d   1      -1.031  -3.140   4.751  0.00  0.00     0.015 A 
ATOM     21  C   UNL d   1      -0.865  -3.994   2.501  0.00  0.00     0.037 A 
ATOM     22  C   UNL d   1      -1.906  -4.191   5.097  0.00  0.00     0.021 A 
ATOM     23  S   UNL d   1      -0.478  -1.880   5.782  0.00  0.00    -0.101 SA
ATOM     24  C   UNL d   1      -2.247  -5.136   4.126  0.00  0.00     0.025 A 
ATOM     25  C   UNL d   1      -1.730  -5.035   2.844  0.00  0.00     0.035 A 
ATOM     26 CL   UNL d   1      -2.151  -6.205   1.654  0.00  0.00    -0.084 Cl
ATOM     27  C   UNL d   1       0.463  -1.183   4.546  0.00  0.00     0.059 A 
ENDBRANCH  17  18
ENDBRANCH  15  17
ENDBRANCH   1  15
TORSDOF 4
