REMARK  9 active torsions:
REMARK  status: ('A' for Active; 'I' for Inactive)
REMARK    1  A    between atoms: N_10  and  C_1 
REMARK    2  A    between atoms: S_4  and  C_2 
REMARK    3  A    between atoms: S_3  and  C_6 
REMARK    4  A    between atoms: C_8  and  S_3 
REMARK    5  A    between atoms: C_11  and  S_4 
REMARK    6  A    between atoms: C_14  and  C_5 
REMARK    7  A    between atoms: N_12  and  N_10 
REMARK    8  A    between atoms: C_16  and  C_11 
REMARK    9  A    between atoms: O_31  and  C_14 
ROOT
ATOM      1  C   UNL d   1       3.333   4.025   1.082  0.00  0.00     0.229 C 
ATOM      2  N   UNL d   1       2.449   3.136   0.703  0.00  0.00    -0.281 N 
ATOM      3  HN  UNL d   1       2.633   2.143   0.842  1.00  0.00     0.188 HD
ATOM      4  C   UNL d   1       3.057   5.431   0.999  0.00  0.00     0.132 C 
ATOM      5  N   UNL d   1       2.814   6.567   0.948  0.00  0.00    -0.189 NA
ENDROOT
BRANCH   1   6
ATOM      6  S   UNL d   1       4.856   3.612   1.825  0.00  0.00     0.240 S 
ATOM      7  O   UNL d   1       5.839   4.614   1.450  0.00  0.00    -0.214 OA
ATOM      8  O   UNL d   1       4.581   3.300   3.216  0.00  0.00    -0.214 OA
BRANCH   6   9
ATOM      9  C   UNL d   1       5.412   2.097   1.106  0.00  0.00     0.106 A 
ATOM     10  S   UNL d   1       5.725   2.125  -0.575  0.00  0.00    -0.090 SA
ATOM     11  C   UNL d   1       6.167   0.473  -0.581  0.00  0.00     0.051 A 
ATOM     12  C   UNL d   1       6.099  -0.086   0.676  0.00  0.00     0.009 A 
ATOM     13  C   UNL d   1       5.673   0.856   1.654  0.00  0.00     0.032 A 
ENDBRANCH   6   9
ENDBRANCH   1   6
BRANCH   2  14
ATOM     14  N   UNL d   1       1.276   3.540   0.118  0.00  0.00    -0.296 N 
ATOM     15  H   UNL d   1       1.142   4.548  -0.082  0.00  0.00     0.187 HD
BRANCH  14  16
ATOM     16  C   UNL d   1       0.137   2.779   0.072  0.00  0.00     0.093 A 
ATOM     17  C   UNL d   1      -1.173   3.388   0.023  0.00  0.00     0.095 A 
ATOM     18  C   UNL d   1      -2.194   2.466  -0.017  0.00  0.00     0.076 A 
ATOM     19  S   UNL d   1      -1.610   0.878   0.018  0.00  0.00    -0.092 SA
ATOM     20  C   UNL d   1       0.047   1.389   0.089  0.00  0.00     0.109 A 
BRANCH  17  21
ATOM     21  S   UNL d   1      -1.524   5.102   0.047  0.00  0.00     0.182 S 
ATOM     22  O   UNL d   1      -0.217   5.715   0.167  0.00  0.00    -0.222 OA
ATOM     23  O   UNL d   1      -2.362   5.277  -1.125  0.00  0.00    -0.222 OA
BRANCH  21  24
ATOM     24  C   UNL d   1      -2.480   5.305   1.550  0.00  0.00     0.192 C 
BRANCH  24  25
ATOM     25  C   UNL d   1      -2.885   6.736   1.740  0.00  0.00    -0.003 A 
ATOM     26  S   UNL d   1      -4.550   7.125   1.913  0.00  0.00    -0.106 SA
ATOM     27  C   UNL d   1      -4.211   8.776   2.187  0.00  0.00     0.050 A 
ATOM     28  C   UNL d   1      -2.861   9.040   2.131  0.00  0.00     0.008 A 
ATOM     29  C   UNL d   1      -2.097   7.865   1.879  0.00  0.00     0.016 A 
ENDBRANCH  24  25
ENDBRANCH  21  24
ENDBRANCH  17  21
BRANCH  20  30
ATOM     30  C   UNL d   1       1.069   0.346   0.086  0.00  0.00     0.302 C 
ATOM     31  O   UNL d   1       2.200   0.418  -0.380  0.00  0.00    -0.259 OA
BRANCH  30  32
ATOM     32  O   UNL d   1       0.571  -0.788   0.676  0.00  0.00    -0.322 OA
ATOM     33  C   UNL d   1       1.418  -1.936   0.665  0.00  0.00     0.213 C 
ENDBRANCH  30  32
ENDBRANCH  20  30
ENDBRANCH  14  16
ENDBRANCH   2  14
TORSDOF 9
