REMARK  9 active torsions:
REMARK  status: ('A' for Active; 'I' for Inactive)
REMARK    1  A    between atoms: S_4  and  C_1 
REMARK    2  A    between atoms: C_2  and  N_5 
REMARK    3  A    between atoms: N_6  and  C_2 
REMARK    4  A    between atoms: C_3  and  C_13 
REMARK       I    between atoms: N_7  and  C_3 
REMARK    5  A    between atoms: C_15  and  S_4 
REMARK    6  A    between atoms: N_5  and  N_7 
REMARK    7  A    between atoms: C_17  and  N_6 
REMARK    8  A    between atoms: C_13  and  O_14 
REMARK    9  A    between atoms: O_14  and  C_16 
ROOT
ATOM      1  C   UNL d   1       2.867  -6.388   6.355  0.00  0.00     0.260 C 
ATOM      2  N   UNL d   1       2.732  -7.326   5.346  0.00  0.00    -0.266 N 
ATOM      3  O   UNL d   1       3.319  -6.669   7.463  0.00  0.00    -0.269 OA
ATOM      4  H   UNL d   1       2.674  -7.023   4.378  0.00  0.00     0.190 HD
ENDROOT
BRANCH   1   5
ATOM      5  C   UNL d   1       2.407  -4.988   5.969  0.00  0.00     0.280 C 
BRANCH   5   6
ATOM      6  O   UNL d   1       3.451  -4.266   5.330  0.00  0.00    -0.342 OA
BRANCH   6   7
ATOM      7  C   UNL d   1       3.510  -4.217   3.969  0.00  0.00     0.069 A 
ATOM      8  C   UNL d   1       2.442  -4.388   3.089  0.00  0.00     0.038 A 
ATOM      9  C   UNL d   1       2.646  -4.280   1.706  0.00  0.00     0.021 A 
ATOM     10  C   UNL d   1       3.916  -4.005   1.189  0.00  0.00     0.009 A 
ATOM     11  C   UNL d   1       4.975  -3.800   2.075  0.00  0.00     0.021 A 
ATOM     12  C   UNL d   1       4.770  -3.909   3.455  0.00  0.00     0.038 A 
BRANCH  10  13
ATOM     13  S   UNL d   1       4.209  -3.825  -0.556  0.00  0.00    -0.016 SA
BRANCH  13  14
ATOM     14  C   UNL d   1       3.733  -5.451  -1.164  0.00  0.00     0.448 C 
ATOM     15  F   UNL d   1       3.488  -6.348  -0.181  0.00  0.00    -0.160 F 
ATOM     16  F   UNL d   1       4.710  -5.974  -1.944  0.00  0.00    -0.160 F 
ATOM     17  F   UNL d   1       2.614  -5.372  -1.923  0.00  0.00    -0.160 F 
ENDBRANCH  13  14
ENDBRANCH  10  13
ENDBRANCH   6   7
ENDBRANCH   5   6
ENDBRANCH   1   5
BRANCH   2  18
ATOM     18  N   UNL d   1       3.371  -8.562   5.549  0.00  0.00    -0.273 N 
ATOM     19  H   UNL d   1       3.746  -8.677   6.493  0.00  0.00     0.189 HD
BRANCH  18  20
ATOM     20  C   UNL d   1       2.938  -9.702   4.938  0.00  0.00     0.191 C 
ATOM     21  S   UNL d   1       1.458  -9.866   4.167  0.00  0.00    -0.039 SA
BRANCH  20  22
ATOM     22  N   UNL d   1       3.787 -10.775   4.906  0.00  0.00    -0.332 N 
ATOM     23  H   UNL d   1       3.355 -11.580   4.466  0.00  0.00     0.168 HD
BRANCH  22  24
ATOM     24  C   UNL d   1       5.187 -10.874   5.097  0.00  0.00     0.034 A 
ATOM     25  C   UNL d   1       6.017  -9.868   5.598  0.00  0.00     0.029 A 
ATOM     26  C   UNL d   1       7.402 -10.050   5.669  0.00  0.00     0.002 A 
ATOM     27  C   UNL d   1       7.981 -11.233   5.225  0.00  0.00     0.000 A 
ATOM     28  C   UNL d   1       7.170 -12.249   4.731  0.00  0.00     0.002 A 
ATOM     29  C   UNL d   1       5.782 -12.074   4.679  0.00  0.00     0.029 A 
ENDBRANCH  22  24
ENDBRANCH  20  22
ENDBRANCH  18  20
ENDBRANCH   2  18
TORSDOF 9
