REMARK  3 active torsions:
REMARK  status: ('A' for Active; 'I' for Inactive)
REMARK    1  A    between atoms: N_4  and  C_2 
REMARK    2  A    between atoms: N_13  and  C_5 
REMARK    3  A    between atoms: C_16  and  N_13 
ROOT
ATOM      1  C   UNL d   1       0.137  -0.760  -0.020  0.00  0.00     0.120 A 
ATOM      2  C   UNL d   1      -1.043  -1.528   0.001  0.00  0.00     0.134 A 
ATOM      3  C   UNL d   1       0.071   0.703  -0.064  0.00  0.00     0.114 A 
ATOM      4  C   UNL d   1      -1.153   1.425  -0.069  0.00  0.00     0.064 A 
ATOM      5  N   UNL d   1       1.435  -1.096  -0.005  0.00  0.00    -0.237 N 
ATOM      6  HN  UNL d   1       1.818  -2.041   0.026  1.00  0.00     0.197 HD
ATOM      7  C   UNL d   1      -2.261  -0.818  -0.025  0.00  0.00     0.041 A 
ATOM      8  N   UNL d   1       1.321   1.185  -0.080  0.00  0.00    -0.237 N 
ATOM      9  HN  UNL d   1       1.602   2.165  -0.116  1.00  0.00     0.197 HD
ATOM     10  O   UNL d   1       2.151   0.082  -0.039  0.00  0.00    -0.156 OA
ATOM     11  C   UNL d   1      -2.303   0.597  -0.063  0.00  0.00     0.034 A 
ENDROOT
BRANCH   4  12
ATOM     12  N   UNL d   1      -1.235   2.828  -0.121  0.00  0.00    -0.354 N 
ATOM     13  H   UNL d   1      -0.314   3.262  -0.206  0.00  0.00     0.166 HD
BRANCH  12  14
ATOM     14  C   UNL d   1      -2.136   3.676   0.561  0.00  0.00     0.032 A 
ATOM     15  C   UNL d   1      -2.841   3.272   1.704  0.00  0.00     0.032 A 
ATOM     16  C   UNL d   1      -3.729   4.141   2.342  0.00  0.00     0.044 A 
ATOM     17  C   UNL d   1      -3.915   5.420   1.837  0.00  0.00     0.116 A 
ATOM     18  C   UNL d   1      -3.226   5.848   0.709  0.00  0.00     0.044 A 
ATOM     19  F   UNL d   1      -4.769   6.252   2.446  0.00  0.00    -0.206 F 
ATOM     20  C   UNL d   1      -2.335   4.979   0.075  0.00  0.00     0.032 A 
ENDBRANCH  12  14
ENDBRANCH   4  12
BRANCH   2  21
ATOM     21  N   UNL d   1      -1.014  -2.977   0.034  0.00  0.00    -0.113 N 
ATOM     22  O   UNL d   1       0.077  -3.556   0.051  0.00  0.00    -0.532 OA
ATOM     23  O   UNL d   1      -2.110  -3.556   0.042  0.00  0.00    -0.532 OA
ENDBRANCH   2  21
TORSDOF 3
