REMARK  5 active torsions:
REMARK  status: ('A' for Active; 'I' for Inactive)
REMARK    1  A    between atoms: N_2  and  C_1 
REMARK       I    between atoms: C_4  and  N_2 
REMARK       I    between atoms: N_10  and  C_4 
REMARK    2  A    between atoms: C_18  and  N_10 
REMARK    3  A    between atoms: O_15  and  C_11 
REMARK    4  A    between atoms: C_12  and  C_13 
REMARK    5  A    between atoms: C_20  and  O_15 
ROOT
ATOM      1  N   UNL d   1       1.523   3.545  -0.610  0.00  0.00    -0.344 N 
ATOM      2  HN  UNL d   1       1.299   4.358  -1.183  1.00  0.00     0.167 HD
ATOM      3  C   UNL d   1       0.680   3.099   0.341  0.00  0.00     0.148 A 
ATOM      4  C   UNL d   1       3.046   1.734  -0.039  0.00  0.00     0.051 A 
ATOM      5  C   UNL d   1       2.684   2.864  -0.770  0.00  0.00     0.119 A 
ATOM      6  C   UNL d   1       0.948   1.996   1.138  0.00  0.00     0.059 A 
ATOM      7  C   UNL d   1       2.155   1.313   0.951  0.00  0.00     0.035 A 
ENDROOT
BRANCH   4   8
ATOM      8  N   UNL d   1       4.220   0.978  -0.263  0.00  0.00    -0.307 N 
ATOM      9  C   UNL d   1       5.098   1.144  -1.288  0.00  0.00     0.325 C 
ATOM     10  N   UNL d   1       6.115   0.257  -1.448  0.00  0.00    -0.303 N 
ATOM     11  O   UNL d   1       5.025   2.029  -2.144  0.00  0.00    -0.247 OA
ATOM     12  H   UNL d   1       6.619   0.461  -2.303  0.00  0.00     0.171 HD
ATOM     13  H   UNL d   1       4.376   0.171   0.328  0.00  0.00     0.170 HD
BRANCH  10  14
ATOM     14  C   UNL d   1       6.637  -0.754  -0.675  0.00  0.00     0.079 A 
ATOM     15  S   UNL d   1       6.079  -1.139   0.871  0.00  0.00    -0.072 SA
ATOM     16  C   UNL d   1       7.356  -2.267   1.140  0.00  0.00     0.017 A 
ATOM     17  C   UNL d   1       7.631  -2.988   2.318  0.00  0.00     0.020 A 
ATOM     18  C   UNL d   1       8.159  -2.398   0.005  0.00  0.00    -0.016 A 
ATOM     19  C   UNL d   1       8.747  -3.830   2.350  0.00  0.00     0.001 A 
ATOM     20  C   UNL d   1       9.554  -3.978   1.230  0.00  0.00     0.001 A 
ATOM     21  C   UNL d   1       9.263  -3.281   0.055  0.00  0.00     0.013 A 
ATOM     22  C   UNL d   1       7.705  -1.537  -1.046  0.00  0.00     0.050 A 
ENDBRANCH  10  14
ENDBRANCH   4   8
BRANCH   3  23
ATOM     23  O   UNL d   1      -0.552   3.719   0.502  0.00  0.00    -0.294 OA
BRANCH  23  24
ATOM     24  C   UNL d   1      -0.626   5.069   0.242  0.00  0.00     0.077 A 
ATOM     25  C   UNL d   1      -1.780   5.539  -0.385  0.00  0.00     0.038 A 
ATOM     26  C   UNL d   1      -1.961   6.915  -0.583  0.00  0.00     0.011 A 
ATOM     27  C   UNL d   1      -1.004   7.855  -0.148  0.00  0.00    -0.050 A 
ATOM     28  C   UNL d   1       0.157   7.351   0.459  0.00  0.00     0.011 A 
ATOM     29  C   UNL d   1       0.337   5.979   0.666  0.00  0.00     0.038 A 
BRANCH  27  30
ATOM     30  C   UNL d   1      -1.265   9.366  -0.293  0.00  0.00    -0.024 C 
ATOM     31  C   UNL d   1      -0.119  10.247   0.258  0.00  0.00     0.019 C 
ATOM     32  C   UNL d   1      -1.460   9.745  -1.775  0.00  0.00     0.019 C 
ATOM     33  C   UNL d   1      -2.540   9.734   0.496  0.00  0.00     0.019 C 
ENDBRANCH  27  30
ENDBRANCH  23  24
ENDBRANCH   3  23
TORSDOF 5
