REMARK  9 active torsions:
REMARK  status: ('A' for Active; 'I' for Inactive)
REMARK    1  A    between atoms: C_2  and  S_1 
REMARK    2  A    between atoms: C_15  and  S_1 
REMARK    3  A    between atoms: N_5  and  C_3 
REMARK       I    between atoms: C_6  and  N_5 
REMARK    4  A    between atoms: C_18  and  C_6 
REMARK    5  A    between atoms: O_17  and  C_9 
REMARK    6  A    between atoms: C_10  and  C_19 
REMARK    7  A    between atoms: O_16  and  C_10 
REMARK    8  A    between atoms: C_20  and  C_18 
REMARK    9  A    between atoms: C_19  and  C_20 
ROOT
ATOM      1  C   UNL d   1       0.375  -0.122   1.744  0.00  0.00     0.061 A 
ATOM      2  C   UNL d   1      -0.428   0.909   3.775  0.00  0.00     0.069 A 
ATOM      3  C   UNL d   1       0.049   1.025   2.470  0.00  0.00     0.055 A 
ATOM      4  C   UNL d   1      -0.626  -0.369   4.316  0.00  0.00     0.092 A 
ATOM      5  C   UNL d   1       0.217  -1.394   2.300  0.00  0.00     0.026 A 
ATOM      6  C   UNL d   1      -0.296  -1.517   3.593  0.00  0.00     0.040 A 
ENDROOT
BRANCH   2   7
ATOM      7  N   UNL d   1      -0.748   2.030   4.571  0.00  0.00    -0.325 N 
ATOM      8  C   UNL d   1      -0.304   3.319   4.352  0.00  0.00     0.222 C 
ATOM      9  O   UNL d   1       0.508   3.657   3.494  0.00  0.00    -0.273 OA
ATOM     10  H   UNL d   1      -1.204   1.805   5.452  0.00  0.00     0.169 HD
BRANCH   8  11
ATOM     11  C   UNL d   1      -0.942   4.352   5.254  0.00  0.00     0.103 C 
BRANCH  11  12
ATOM     12  C   UNL d   1      -1.592   5.460   4.417  0.00  0.00     0.019 C 
BRANCH  12  13
ATOM     13  C   UNL d   1      -2.744   4.966   3.535  0.00  0.00     0.110 C 
BRANCH  13  14
ATOM     14  C   UNL d   1      -3.890   4.415   4.350  0.00  0.00     0.139 C 
ATOM     15  O   UNL d   1      -4.176   4.782   5.479  0.00  0.00    -0.650 OA
BRANCH  14  16
ATOM     16  O   UNL d   1      -4.595   3.463   3.702  0.00  0.00    -0.776 OA
ATOM     17  H   UNL d   1      -4.270   3.262   2.803  0.00  0.00     0.167 HD
ENDBRANCH  14  16
ENDBRANCH  13  14
ENDBRANCH  12  13
ENDBRANCH  11  12
ENDBRANCH   8  11
ENDBRANCH   2   7
BRANCH   4  18
ATOM     18  O   UNL d   1      -1.137  -0.466   5.584  0.00  0.00    -0.358 OA
ATOM     19  H   UNL d   1      -1.194  -1.407   5.825  0.00  0.00     0.217 HD
ENDBRANCH   4  18
BRANCH   1  20
ATOM     20  S   UNL d   1       0.920   0.069   0.061  0.00  0.00     0.175 S 
ATOM     21  O   UNL d   1      -0.131   0.797  -0.621  0.00  0.00    -0.223 OA
ATOM     22  O   UNL d   1       1.342  -1.242  -0.400  0.00  0.00    -0.223 OA
BRANCH  20  23
ATOM     23  C   UNL d   1       2.369   1.105   0.169  0.00  0.00     0.141 C 
ATOM     24  C   UNL d   1       2.949   1.380  -1.206  0.00  0.00     0.021 C 
ENDBRANCH  20  23
ENDBRANCH   1  20
TORSDOF 9
