REMARK  5 active torsions:
REMARK  status: ('A' for Active; 'I' for Inactive)
REMARK    1  A    between atoms: C_12  and  C_1 
REMARK    2  A    between atoms: C_5  and  C_2 
REMARK    3  A    between atoms: N_11  and  C_2 
REMARK    4  A    between atoms: N_3  and  O_10 
REMARK    5  A    between atoms: O_10  and  C_12 
ROOT
ATOM      1  C   UNL d   1      -2.353   5.033   0.052  0.00  0.00     0.108 C 
ATOM      2  N   UNL d   1      -1.243   4.356   0.161  0.00  0.00    -0.255 N 
ATOM      3  HN  UNL d   1      -1.182   3.343   0.259  1.00  0.00     0.195 HD
ENDROOT
BRANCH   2   4
ATOM      4  O   UNL d   1      -0.139   5.236   0.125  0.00  0.00    -0.274 OA
BRANCH   4   5
ATOM      5  C   UNL d   1       1.064   4.505   0.365  0.00  0.00     0.244 C 
BRANCH   5   6
ATOM      6  C   UNL d   1       2.222   5.470   0.380  0.00  0.00     0.028 A 
ATOM      7  C   UNL d   1       2.335   6.508   1.316  0.00  0.00     0.045 A 
ATOM      8 CL   UNL d   1       1.152   6.763   2.551  0.00  0.00    -0.084 Cl
ATOM      9  C   UNL d   1       3.429   7.386   1.288  0.00  0.00     0.024 A 
ATOM     10  C   UNL d   1       4.430   7.234   0.329  0.00  0.00     0.005 A 
ATOM     11  C   UNL d   1       4.335   6.205  -0.601  0.00  0.00     0.043 A 
ATOM     12  C   UNL d   1       3.241   5.338  -0.569  0.00  0.00     0.126 A 
ATOM     13  F   UNL d   1       3.190   4.355  -1.478  0.00  0.00    -0.205 F 
ENDBRANCH   5   6
ENDBRANCH   4   5
ENDBRANCH   2   4
BRANCH   1  14
ATOM     14  C   UNL d   1      -3.658   4.293   0.068  0.00  0.00     0.004 A 
ATOM     15  C   UNL d   1      -4.837   4.917   0.498  0.00  0.00     0.016 A 
ATOM     16  C   UNL d   1      -6.052   4.226   0.473  0.00  0.00     0.024 A 
ATOM     17  C   UNL d   1      -6.092   2.911   0.015  0.00  0.00     0.034 A 
ATOM     18  C   UNL d   1      -4.926   2.276  -0.408  0.00  0.00     0.024 A 
ATOM     19 CL   UNL d   1      -7.593   2.070  -0.028  0.00  0.00    -0.084 Cl
ATOM     20  C   UNL d   1      -3.708   2.964  -0.376  0.00  0.00     0.016 A 
ENDBRANCH   1  14
BRANCH   1  21
ATOM     21  N   UNL d   1      -2.355   6.402  -0.085  0.00  0.00    -0.286 NA
ATOM     22  H   UNL d   1      -1.438   6.787   0.125  0.00  0.00     0.125 HD
ATOM     23  H   UNL d   1      -3.110   6.933   0.323  0.00  0.00     0.125 HD
ENDBRANCH   1  21
TORSDOF 5
