REMARK  6 active torsions:
REMARK  status: ('A' for Active; 'I' for Inactive)
REMARK    1  A    between atoms: C_4  and  C_1 
REMARK    2  A    between atoms: N_3  and  C_2 
REMARK       I    between atoms: N_6  and  C_4 
REMARK    3  A    between atoms: C_8  and  N_6 
REMARK    4  A    between atoms: N_15  and  C_8 
REMARK    5  A    between atoms: C_11  and  C_20 
REMARK    6  A    between atoms: C_20  and  N_15 
ROOT
ATOM      1  C   UNL d   1       2.086  -1.505  -0.425  0.00  0.00     0.258 C 
ATOM      2  N   UNL d   1       2.133  -2.869  -0.180  0.00  0.00    -0.300 N 
ATOM      3  O   UNL d   1       1.060  -0.835  -0.481  0.00  0.00    -0.267 OA
ATOM      4  H   UNL d   1       3.013  -3.325  -0.356  0.00  0.00     0.171 HD
ENDROOT
BRANCH   2   5
ATOM      5  C   UNL d   1       1.170  -3.684   0.372  0.00  0.00     0.174 C 
ATOM      6  S   UNL d   1      -0.111  -3.236   1.336  0.00  0.00    -0.041 SA
BRANCH   5   7
ATOM      7  N   UNL d   1       1.308  -5.018   0.071  0.00  0.00    -0.362 N 
ATOM      8  H   UNL d   1       0.553  -5.570   0.467  0.00  0.00     0.162 HD
BRANCH   7   9
ATOM      9  C   UNL d   1       1.824  -5.519  -1.196  0.00  0.00     0.168 C 
BRANCH   9  10
ATOM     10  C   UNL d   1       3.314  -5.646  -1.151  0.00  0.00     0.000 A 
ATOM     11  S   UNL d   1       4.243  -5.167  -2.513  0.00  0.00    -0.105 SA
ATOM     12  C   UNL d   1       5.705  -5.645  -1.768  0.00  0.00     0.050 A 
ATOM     13  C   UNL d   1       5.500  -6.132  -0.497  0.00  0.00     0.008 A 
ATOM     14  C   UNL d   1       4.121  -6.131  -0.140  0.00  0.00     0.017 A 
ENDBRANCH   9  10
ENDBRANCH   7   9
ENDBRANCH   5   7
ENDBRANCH   2   5
BRANCH   1  15
ATOM     15  C   UNL d   1       3.379  -0.933  -0.815  0.00  0.00     0.041 A 
ATOM     16  C   UNL d   1       4.697  -1.306  -0.368  0.00  0.00     0.061 A 
ATOM     17  C   UNL d   1       5.678  -0.527  -0.947  0.00  0.00     0.144 A 
ATOM     18  S   UNL d   1       5.057   0.618  -2.032  0.00  0.00    -0.077 SA
ATOM     19  C   UNL d   1       3.453   0.118  -1.718  0.00  0.00     0.069 A 
BRANCH  17  20
ATOM     20  N   UNL d   1       7.097  -0.615  -0.712  0.00  0.00    -0.108 N 
ATOM     21  O   UNL d   1       7.471  -1.550   0.012  0.00  0.00    -0.531 OA
ATOM     22  O   UNL d   1       7.836   0.228  -1.234  0.00  0.00    -0.531 OA
ENDBRANCH  17  20
ENDBRANCH   1  15
TORSDOF 6
