REMARK  1 active torsions:
REMARK  status: ('A' for Active; 'I' for Inactive)
REMARK    1  A    between atoms: C_8  and  C_7 
ROOT
ATOM      1  C   UNL d   1       1.556  -0.076   0.137  0.00  0.00     0.101 A 
ATOM      2  N   UNL d   1      -0.500   1.171  -0.082  0.00  0.00    -0.299 N 
ATOM      3  N   UNL d   1      -0.604  -1.144   0.089  0.00  0.00    -0.299 N 
ATOM      4  C   UNL d   1       0.865   1.233  -0.006  0.00  0.00     0.263 A 
ATOM      5  C   UNL d   1       0.752  -1.323   0.190  0.00  0.00     0.263 A 
ATOM      6  C   UNL d   1      -1.257   0.042  -0.040  0.00  0.00     0.181 A 
ATOM      7  C   UNL d   1       2.901  -0.045   0.205  0.00  0.00     0.037 C 
ATOM      8  S   UNL d   1      -2.915   0.109  -0.142  0.00  0.00    -0.040 SA
ATOM      9  O   UNL d   1       1.450   2.310  -0.058  0.00  0.00    -0.267 OA
ATOM     10  O   UNL d   1       1.223  -2.447   0.317  0.00  0.00    -0.267 OA
ATOM     11  H   UNL d   1      -0.975   2.058  -0.181  0.00  0.00     0.171 HD
ATOM     12  H   UNL d   1      -1.158  -1.990   0.123  0.00  0.00     0.171 HD
ENDROOT
BRANCH   7  13
ATOM     13  C   UNL d   1       3.807  -1.201   0.327  0.00  0.00     0.009 A 
ATOM     14  C   UNL d   1       4.313  -1.845  -0.818  0.00  0.00     0.046 A 
ATOM     15 CL   UNL d   1       3.850  -1.359  -2.415  0.00  0.00    -0.083 Cl
ATOM     16  C   UNL d   1       5.221  -2.903  -0.705  0.00  0.00     0.025 A 
ATOM     17  C   UNL d   1       5.636  -3.339   0.552  0.00  0.00     0.003 A 
ATOM     18  C   UNL d   1       5.127  -2.730   1.698  0.00  0.00     0.025 A 
ATOM     19  C   UNL d   1       4.215  -1.674   1.588  0.00  0.00     0.046 A 
ATOM     20 CL   UNL d   1       3.622  -0.976   3.058  0.00  0.00    -0.083 Cl
ENDBRANCH   7  13
TORSDOF 1
