REMARK  5 active torsions:
REMARK  status: ('A' for Active; 'I' for Inactive)
REMARK    1  A    between atoms: C_6  and  N_1 
REMARK    2  A    between atoms: C_9  and  C_4 
REMARK    3  A    between atoms: S_5  and  N_10 
REMARK    4  A    between atoms: C_14  and  S_5 
REMARK       I    between atoms: N_13  and  C_9 
REMARK    5  A    between atoms: N_10  and  N_13 
ROOT
ATOM      1  N   UNL d   1       0.865  -0.615  -0.077  0.00  0.00    -0.257 N 
ATOM      2  N   UNL d   1       0.884   0.749  -0.121  0.00  0.00    -0.288 N 
ATOM      3  HN  UNL d   1       1.704   1.354  -0.162  1.00  0.00     0.188 HD
ATOM      4  C   UNL d   1      -0.405   1.128  -0.099  0.00  0.00     0.119 A 
ATOM      5  C   UNL d   1      -0.435  -1.090   0.070  0.00  0.00     0.033 A 
ATOM      6  C   UNL d   1      -1.258   0.011  -0.014  0.00  0.00     0.063 A 
ATOM      7  C   UNL d   1      -0.843  -2.492   0.355  0.00  0.00     0.070 C 
ENDROOT
BRANCH   4   8
ATOM      8  C   UNL d   1      -0.830   2.531  -0.138  0.00  0.00     0.288 C 
ATOM      9  N   UNL d   1       0.198   3.445  -0.002  0.00  0.00    -0.255 N 
ATOM     10  H   UNL d   1       1.149   3.124   0.176  0.00  0.00     0.191 HD
ATOM     11  O   UNL d   1      -2.006   2.871  -0.271  0.00  0.00    -0.264 OA
BRANCH   9  12
ATOM     12  N   UNL d   1      -0.119   4.854  -0.046  0.00  0.00    -0.220 N 
ATOM     13  H   UNL d   1      -1.091   5.147  -0.197  0.00  0.00     0.200 HD
BRANCH  12  14
ATOM     14  S   UNL d   1       1.036   6.053   0.144  0.00  0.00     0.276 S 
ATOM     15  O   UNL d   1       0.364   7.327   0.032  0.00  0.00    -0.199 OA
ATOM     16  O   UNL d   1       1.855   5.711   1.290  0.00  0.00    -0.199 OA
BRANCH  14  17
ATOM     17  C   UNL d   1       2.024   5.824  -1.316  0.00  0.00     0.081 A 
ATOM     18  C   UNL d   1       1.669   6.466  -2.506  0.00  0.00     0.027 A 
ATOM     19  C   UNL d   1       2.457   6.280  -3.645  0.00  0.00     0.025 A 
ATOM     20  C   UNL d   1       3.589   5.465  -3.582  0.00  0.00     0.034 A 
ATOM     21  C   UNL d   1       3.949   4.840  -2.389  0.00  0.00     0.025 A 
ATOM     22 CL   UNL d   1       4.553   5.230  -4.989  0.00  0.00    -0.084 Cl
ATOM     23  C   UNL d   1       3.170   5.023  -1.247  0.00  0.00     0.027 A 
ENDBRANCH  14  17
ENDBRANCH  12  14
ENDBRANCH   9  12
ENDBRANCH   4   8
BRANCH   1  24
ATOM     24  C   UNL d   1       2.086  -1.343  -0.155  0.00  0.00     0.100 A 
ATOM     25  C   UNL d   1       3.213  -0.931   0.587  0.00  0.00     0.066 A 
ATOM     26  C   UNL d   1       4.401  -1.675   0.548  0.00  0.00     0.050 A 
ATOM     27 CL   UNL d   1       3.232   0.420   1.675  0.00  0.00    -0.082 Cl
ATOM     28  C   UNL d   1       4.477  -2.832  -0.216  0.00  0.00     0.037 A 
ATOM     29  C   UNL d   1       3.392  -3.235  -0.982  0.00  0.00     0.050 A 
ATOM     30 CL   UNL d   1       5.928  -3.755  -0.235  0.00  0.00    -0.084 Cl
ATOM     31  C   UNL d   1       2.210  -2.480  -0.978  0.00  0.00     0.066 A 
ATOM     32 CL   UNL d   1       1.044  -2.942  -2.174  0.00  0.00    -0.082 Cl
ENDBRANCH   1  24
TORSDOF 5
