REMARK  6 active torsions:
REMARK  status: ('A' for Active; 'I' for Inactive)
REMARK    1  A    between atoms: C_5  and  C_1 
REMARK    2  A    between atoms: N_14  and  C_4 
REMARK       I    between atoms: C_6  and  N_15 
REMARK    3  A    between atoms: C_10  and  C_6 
REMARK    4  A    between atoms: C_19  and  N_14 
REMARK    5  A    between atoms: N_15  and  C_18 
REMARK    6  A    between atoms: C_18  and  C_19 
ROOT
ATOM      1  N   UNL d   1      -0.906   0.197  -4.489  0.00  0.00    -0.224 N 
ATOM      2  H   UNL d   1      -1.574   0.816  -4.050  0.00  0.00     0.177 HD
ENDROOT
BRANCH   1   3
ATOM      3  C   UNL d   1       0.369   0.696  -4.385  0.00  0.00     0.678 A 
ATOM      4  N   UNL d   1       0.525   1.746  -3.573  0.00  0.00    -0.187 N 
ATOM      5  C   UNL d   1       1.786   2.215  -3.377  0.00  0.00     0.133 A 
ATOM      6  HN  UNL d   1      -0.275   2.181  -3.116  1.00  0.00     0.184 HD
ATOM      7  C   UNL d   1       2.883   1.633  -3.985  0.00  0.00     0.052 A 
ATOM      8  C   UNL d   1       2.618   0.574  -4.812  0.00  0.00     0.108 A 
ATOM      9  N   UNL d   1       1.380   0.106  -5.035  0.00  0.00    -0.202 N 
ATOM     10  HN  UNL d   1       1.215  -0.670  -5.677  1.00  0.00     0.183 HD
BRANCH   5  11
ATOM     11  C   UNL d   1       2.004   3.398  -2.451  0.00  0.00     0.433 C 
ATOM     12  F   UNL d   1       0.862   3.928  -1.932  0.00  0.00    -0.165 F 
ATOM     13  F   UNL d   1       2.641   4.433  -3.077  0.00  0.00    -0.165 F 
ATOM     14  F   UNL d   1       2.792   3.084  -1.381  0.00  0.00    -0.165 F 
ENDBRANCH   5  11
ENDBRANCH   1   3
BRANCH   1  15
ATOM     15  C   UNL d   1      -1.302  -0.444  -5.730  0.00  0.00     0.157 C 
BRANCH  15  16
ATOM     16  C   UNL d   1      -1.881   0.559  -6.742  0.00  0.00     0.143 C 
BRANCH  16  17
ATOM     17  N   UNL d   1      -2.262  -0.058  -8.003  0.00  0.00    -0.355 N 
ATOM     18  C   UNL d   1      -3.252  -1.015  -8.066  0.00  0.00     0.251 C 
ATOM     19  O   UNL d   1      -3.873  -1.412  -7.083  0.00  0.00    -0.268 OA
ATOM     20  H   UNL d   1      -1.932   0.370  -8.858  0.00  0.00     0.162 HD
BRANCH  18  21
ATOM     21  C   UNL d   1      -3.570  -1.557  -9.414  0.00  0.00     0.032 A 
ATOM     22  C   UNL d   1      -2.617  -1.591 -10.441  0.00  0.00     0.017 A 
ATOM     23  C   UNL d   1      -2.957  -2.114 -11.690  0.00  0.00     0.001 A 
ATOM     24  C   UNL d   1      -4.241  -2.610 -11.913  0.00  0.00     0.000 A 
ATOM     25  C   UNL d   1      -5.186  -2.596 -10.888  0.00  0.00     0.001 A 
ATOM     26  C   UNL d   1      -4.850  -2.077  -9.639  0.00  0.00     0.017 A 
ENDBRANCH  18  21
ENDBRANCH  16  17
ENDBRANCH  15  16
ENDBRANCH   1  15
TORSDOF 6
