REMARK  2 active torsions:
REMARK  status: ('A' for Active; 'I' for Inactive)
REMARK    1  A    between atoms: C_2  and  C_1 
REMARK    2  A    between atoms: O_20  and  C_16 
ROOT
ATOM      1  C   UNL d   1      -3.173  -1.390  -0.038  0.00  0.00     0.088 A 
ATOM      2  C   UNL d   1      -3.655  -2.126   1.161  0.00  0.00     0.201 A 
ATOM      3  C   UNL d   1      -4.031  -1.151  -1.051  0.00  0.00     0.068 A 
ATOM      4  C   UNL d   1      -5.042  -2.607   1.117  0.00  0.00     0.049 A 
ATOM      5  C   UNL d   1      -5.827  -2.293   0.012  0.00  0.00     0.092 A 
ATOM      6  O   UNL d   1      -5.357  -1.567  -1.051  0.00  0.00    -0.313 OA
ATOM      7  C   UNL d   1      -7.160  -2.706  -0.040  0.00  0.00     0.074 A 
ATOM      8  C   UNL d   1      -5.579  -3.338   2.183  0.00  0.00     0.021 A 
ATOM      9  O   UNL d   1      -2.971  -2.288   2.165  0.00  0.00    -0.286 OA
ATOM     10  C   UNL d   1      -7.691  -3.426   1.027  0.00  0.00     0.068 A 
ATOM     11  C   UNL d   1      -6.913  -3.745   2.135  0.00  0.00     0.037 A 
ATOM     12  C   UNL d   1      -3.691  -0.395  -2.307  0.00  0.00     0.078 C 
ENDROOT
BRANCH   1  13
ATOM     13  C   UNL d   1      -1.820  -0.967  -0.076  0.00  0.00     0.125 A 
ATOM     14  N   UNL d   1      -0.778  -1.597  -0.584  0.00  0.00    -0.340 N 
ATOM     15  C   UNL d   1       0.308  -0.802  -0.328  0.00  0.00     0.060 A 
ATOM     16  HN  UNL d   1      -0.781  -2.495  -1.070  1.00  0.00     0.167 HD
ATOM     17  C   UNL d   1       1.664  -1.027  -0.605  0.00  0.00     0.032 A 
ATOM     18  C   UNL d   1      -0.076   0.379   0.296  0.00  0.00     0.062 A 
ATOM     19  C   UNL d   1       2.596  -0.043  -0.257  0.00  0.00     0.002 A 
ATOM     20  C   UNL d   1       2.185   1.146   0.348  0.00  0.00     0.002 A 
ATOM     21  C   UNL d   1       0.837   1.386   0.639  0.00  0.00     0.032 A 
ATOM     22  N   UNL d   1      -1.439   0.248   0.456  0.00  0.00    -0.335 N 
ATOM     23  C   UNL d   1      -2.276   1.252   1.075  0.00  0.00     0.158 C 
ENDBRANCH   1  13
BRANCH  10  24
ATOM     24  O   UNL d   1      -8.990  -3.840   1.028  0.00  0.00    -0.361 OA
ATOM     25  H   UNL d   1      -9.410  -3.576   0.193  0.00  0.00     0.217 HD
ENDBRANCH  10  24
TORSDOF 2
