REMARK  10 active torsions:
REMARK  status: ('A' for Active; 'I' for Inactive)
REMARK    1  A    between atoms: C_7  and  C_1 
REMARK    2  A    between atoms: O_8  and  C_1 
REMARK    3  A    between atoms: C_16  and  C_2 
REMARK    4  A    between atoms: N_17  and  C_2 
REMARK    5  A    between atoms: N_3  and  O_8 
REMARK    6  A    between atoms: N_5  and  O_12 
REMARK    7  A    between atoms: O_12  and  C_7 
REMARK    8  A    between atoms: C_10  and  C_9 
REMARK    9  A    between atoms: O_18  and  C_16 
REMARK   10  A    between atoms: C_19  and  O_18 
ROOT
ATOM      1  O   UNL d   1       3.314  -1.419  -0.629  0.00  0.00    -0.196 OA
ENDROOT
BRANCH   1   2
ATOM      2  N   UNL d   1       4.227  -2.475  -0.402  0.00  0.00    -0.249 N 
ATOM      3  C   UNL d   1       4.143  -2.910   0.822  0.00  0.00     0.100 C 
ATOM      4  HN  UNL d   1       4.867  -2.847  -1.105  1.00  0.00     0.196 HD
BRANCH   3   5
ATOM      5  C   UNL d   1       4.855  -4.215   1.171  0.00  0.00     0.247 C 
BRANCH   5   6
ATOM      6  O   UNL d   1       3.786  -5.087   1.542  0.00  0.00    -0.344 OA
BRANCH   6   7
ATOM      7  C   UNL d   1       4.090  -6.242   2.196  0.00  0.00     0.070 A 
ATOM      8  C   UNL d   1       5.360  -6.660   2.583  0.00  0.00     0.060 A 
ATOM      9  C   UNL d   1       5.503  -7.859   3.285  0.00  0.00     0.036 A 
ATOM     10 CL   UNL d   1       7.070  -8.364   3.789  0.00  0.00    -0.084 Cl
ATOM     11  C   UNL d   1       4.395  -8.648   3.591  0.00  0.00     0.024 A 
ATOM     12  C   UNL d   1       3.126  -8.237   3.193  0.00  0.00     0.004 A 
ATOM     13  C   UNL d   1       2.977  -7.035   2.501  0.00  0.00     0.037 A 
ENDBRANCH   6   7
ENDBRANCH   5   6
ENDBRANCH   3   5
BRANCH   3  14
ATOM     14  N   UNL d   1       3.455  -2.286   1.852  0.00  0.00    -0.289 NA
ATOM     15  H   UNL d   1       3.711  -1.312   1.958  0.00  0.00     0.125 HD
ATOM     16  H   UNL d   1       3.532  -2.764   2.747  0.00  0.00     0.125 HD
ENDBRANCH   3  14
ENDBRANCH   1   2
BRANCH   1  17
ATOM     17  C   UNL d   1       3.816  -0.198  -0.255  0.00  0.00     0.307 C 
ATOM     18  O   UNL d   1       4.967   0.040   0.100  0.00  0.00    -0.261 OA
BRANCH  17  19
ATOM     19  C   UNL d   1       2.667   0.771  -0.076  0.00  0.00     0.314 C 
BRANCH  19  20
ATOM     20  O   UNL d   1       1.622   0.547  -1.009  0.00  0.00    -0.270 OA
BRANCH  20  21
ATOM     21  N   UNL d   1       0.442   1.117  -0.514  0.00  0.00    -0.270 N 
ATOM     22  C   UNL d   1      -0.586   0.846  -1.268  0.00  0.00     0.038 C 
ATOM     23  C   UNL d   1      -0.505   0.009  -2.532  0.00  0.00     0.071 C 
ATOM     24  HN  UNL d   1       0.392   1.679   0.336  1.00  0.00     0.194 HD
BRANCH  22  25
ATOM     25  C   UNL d   1      -1.925   1.412  -0.885  0.00  0.00    -0.012 A 
ATOM     26  C   UNL d   1      -2.068   2.065   0.349  0.00  0.00     0.015 A 
ATOM     27  C   UNL d   1      -3.292   2.641   0.713  0.00  0.00     0.024 A 
ATOM     28  C   UNL d   1      -4.377   2.559  -0.153  0.00  0.00     0.034 A 
ATOM     29  C   UNL d   1      -4.253   1.905  -1.377  0.00  0.00     0.024 A 
ATOM     30 CL   UNL d   1      -5.876   3.280   0.282  0.00  0.00    -0.084 Cl
ATOM     31  C   UNL d   1      -3.030   1.333  -1.743  0.00  0.00     0.015 A 
ENDBRANCH  22  25
ENDBRANCH  20  21
ENDBRANCH  19  20
ENDBRANCH  17  19
ENDBRANCH   1  17
TORSDOF 10
