REMARK  1 active torsions:
REMARK  status: ('A' for Active; 'I' for Inactive)
REMARK    1  A    between atoms: C_2  and  C_1 
REMARK       I    between atoms: N_3  and  C_1 
ROOT
ATOM      1  C   UNL d   1       0.399   0.691   1.151  0.00  0.00     0.109 A 
ATOM      2  C   UNL d   1      -0.940   0.807   1.519  0.00  0.00     0.135 A 
ATOM      3  C   UNL d   1       1.342   1.425   1.872  0.00  0.00     0.135 A 
ATOM      4  F   UNL d   1      -1.881   0.044   0.953  0.00  0.00    -0.205 F 
ATOM      5  F   UNL d   1       2.652   1.316   1.611  0.00  0.00    -0.205 F 
ATOM      6  C   UNL d   1      -0.403   2.479   3.171  0.00  0.00     0.006 A 
ATOM      7  C   UNL d   1      -1.349   1.721   2.490  0.00  0.00     0.043 A 
ATOM      8  C   UNL d   1       0.950   2.310   2.880  0.00  0.00     0.043 A 
ENDROOT
BRANCH   1   9
ATOM      9  C   UNL d   1       0.851  -0.243   0.103  0.00  0.00     0.260 C 
ATOM     10  N   UNL d   1       0.286  -0.224  -1.179  0.00  0.00    -0.346 N 
ATOM     11  C   UNL d   1       0.759  -1.205  -2.164  0.00  0.00     0.136 C 
ATOM     12  C   UNL d   1      -0.826   0.614  -1.654  0.00  0.00     0.136 C 
ATOM     13  C   UNL d   1      -0.312  -2.246  -2.497  0.00  0.00     0.093 C 
ATOM     14  S   UNL d   1      -1.806  -1.475  -3.220  0.00  0.00    -0.166 SA
ATOM     15  C   UNL d   1      -2.089  -0.213  -1.931  0.00  0.00     0.093 C 
ATOM     16  O   UNL d   1       1.753  -1.018   0.406  0.00  0.00    -0.267 OA
ENDBRANCH   1   9
TORSDOF 1
