REMARK  5 active torsions:
REMARK  status: ('A' for Active; 'I' for Inactive)
REMARK    1  A    between atoms: C_7  and  C_1 
REMARK    2  A    between atoms: O_16  and  C_2 
REMARK    3  A    between atoms: C_6  and  C_12 
REMARK    4  A    between atoms: O_14  and  C_7 
REMARK    5  A    between atoms: N_8  and  O_14 
ROOT
ATOM      1  N   UNL d   1      -3.376   4.604  -0.195  0.00  0.00    -0.268 N 
ATOM      2  HN  UNL d   1      -4.360   4.350  -0.107  1.00  0.00     0.194 HD
ATOM      3  C   UNL d   1      -2.932   5.809  -0.327  0.00  0.00     0.129 C 
ENDROOT
BRANCH   1   4
ATOM      4  O   UNL d   1      -2.304   3.689  -0.191  0.00  0.00    -0.195 OA
BRANCH   4   5
ATOM      5  C   UNL d   1      -2.781   2.402  -0.011  0.00  0.00     0.318 C 
ATOM      6  O   UNL d   1      -3.959   2.099   0.148  0.00  0.00    -0.257 OA
BRANCH   5   7
ATOM      7  C   UNL d   1      -1.695   1.415  -0.023  0.00  0.00     0.083 A 
ATOM      8  C   UNL d   1      -1.755   0.097   0.575  0.00  0.00     0.113 A 
ATOM      9  C   UNL d   1      -0.570  -0.589   0.387  0.00  0.00     0.108 A 
ATOM     10 CL   UNL d   1      -0.058  -2.156   0.892  0.00  0.00    -0.073 Cl
ATOM     11  S   UNL d   1       0.582   0.302  -0.494  0.00  0.00    -0.086 SA
ATOM     12  C   UNL d   1      -0.470   1.636  -0.629  0.00  0.00     0.072 A 
BRANCH   8  13
ATOM     13  O   UNL d   1      -2.881  -0.277   1.242  0.00  0.00    -0.353 OA
ATOM     14  C   UNL d   1      -2.964  -1.589   1.761  0.00  0.00     0.210 C 
ENDBRANCH   8  13
ENDBRANCH   5   7
ENDBRANCH   4   5
ENDBRANCH   1   4
BRANCH   3  15
ATOM     15  C   UNL d   1      -3.839   6.978  -0.382  0.00  0.00     0.025 A 
ATOM     16  C   UNL d   1      -3.404   8.204   0.150  0.00  0.00     0.047 A 
ATOM     17 CL   UNL d   1      -1.855   8.407   0.896  0.00  0.00    -0.083 Cl
ATOM     18  C   UNL d   1      -4.237   9.330   0.117  0.00  0.00     0.025 A 
ATOM     19  C   UNL d   1      -5.508   9.248  -0.444  0.00  0.00     0.003 A 
ATOM     20  C   UNL d   1      -5.945   8.040  -0.981  0.00  0.00     0.025 A 
ATOM     21  C   UNL d   1      -5.119   6.908  -0.960  0.00  0.00     0.047 A 
ATOM     22 CL   UNL d   1      -5.749   5.504  -1.750  0.00  0.00    -0.083 Cl
ENDBRANCH   3  15
TORSDOF 5
