REMARK  5 active torsions:
REMARK  status: ('A' for Active; 'I' for Inactive)
REMARK    1  A    between atoms: C_3  and  S_1 
REMARK    2  A    between atoms: C_4  and  S_1 
REMARK    3  A    between atoms: S_2  and  C_5 
REMARK    4  A    between atoms: C_7  and  S_2 
REMARK    5  A    between atoms: C_5  and  C_4 
ROOT
ATOM      1  S   UNL d   1       0.342   0.191   4.215  0.00  0.00     0.176 S 
ATOM      2  O   UNL d   1      -1.103   0.263   4.103  0.00  0.00    -0.223 OA
ATOM      3  O   UNL d   1       0.965  -0.656   5.215  0.00  0.00    -0.223 OA
ENDROOT
BRANCH   1   4
ATOM      4  C   UNL d   1       0.984  -0.278   2.634  0.00  0.00     0.161 C 
BRANCH   4   5
ATOM      5  C   UNL d   1       0.519  -1.676   2.277  0.00  0.00     0.161 C 
BRANCH   5   6
ATOM      6  S   UNL d   1       1.173  -2.133   0.697  0.00  0.00     0.182 S 
ATOM      7  O   UNL d   1       0.563  -1.310  -0.325  0.00  0.00    -0.222 OA
ATOM      8  O   UNL d   1       2.614  -2.248   0.821  0.00  0.00    -0.222 OA
BRANCH   6   9
ATOM      9  C   UNL d   1       0.608  -3.793   0.402  0.00  0.00     0.099 A 
ATOM     10  S   UNL d   1      -1.086  -4.032   0.348  0.00  0.00    -0.090 SA
ATOM     11  C   UNL d   1      -0.906  -5.703   0.025  0.00  0.00     0.051 A 
ATOM     12  C   UNL d   1       0.417  -6.077  -0.042  0.00  0.00     0.009 A 
ATOM     13  C   UNL d   1       1.292  -4.973   0.175  0.00  0.00     0.031 A 
ENDBRANCH   6   9
ENDBRANCH   5   6
ENDBRANCH   4   5
ENDBRANCH   1   4
BRANCH   1  14
ATOM     14  C   UNL d   1       0.952   1.843   4.448  0.00  0.00     0.059 A 
ATOM     15  C   UNL d   1       0.167   2.932   4.064  0.00  0.00     0.024 A 
ATOM     16  C   UNL d   1       0.649   4.229   4.255  0.00  0.00     0.008 A 
ATOM     17  C   UNL d   1       1.907   4.442   4.837  0.00  0.00    -0.062 A 
ATOM     18  C   UNL d   1       2.674   3.339   5.236  0.00  0.00     0.008 A 
ATOM     19  C   UNL d   1       2.410   5.843   5.037  0.00  0.00     0.048 C 
ATOM     20  C   UNL d   1       2.197   2.039   5.048  0.00  0.00     0.024 A 
ENDBRANCH   1  14
TORSDOF 5
