REMARK  5 active torsions:
REMARK  status: ('A' for Active; 'I' for Inactive)
REMARK    1  A    between atoms: N_3  and  C_1 
REMARK    2  A    between atoms: C_4  and  C_2 
REMARK       I    between atoms: N_11  and  C_4 
REMARK    3  A    between atoms: N_15  and  N_11 
REMARK       I    between atoms: C_12  and  N_15 
REMARK    4  A    between atoms: C_14  and  C_12 
REMARK    5  A    between atoms: C_19  and  C_16 
ROOT
ATOM      1  C   UNL d   1      -0.137   2.708  -0.532  0.00  0.00     0.279 C 
ATOM      2  N   UNL d   1      -1.465   3.088  -0.324  0.00  0.00    -0.262 N 
ATOM      3  O   UNL d   1       0.691   3.461  -1.034  0.00  0.00    -0.265 OA
ATOM      4  H   UNL d   1      -2.038   2.539   0.306  0.00  0.00     0.190 HD
ENDROOT
BRANCH   1   5
ATOM      5  C   UNL d   1       0.157   1.331  -0.135  0.00  0.00     0.101 A 
ATOM      6  C   UNL d   1       1.301   0.769   0.423  0.00  0.00     0.062 A 
ATOM      7  C   UNL d   1       1.218  -0.664   0.464  0.00  0.00     0.039 A 
ATOM      8  C   UNL d   1       0.030  -1.145  -0.033  0.00  0.00     0.053 A 
ATOM      9  S   UNL d   1      -1.001   0.111  -0.532  0.00  0.00    -0.094 SA
BRANCH   6  10
ATOM     10  N   UNL d   1       2.445   1.482   0.935  0.00  0.00    -0.319 N 
ATOM     11  C   UNL d   1       3.783   1.093   0.802  0.00  0.00     0.013 A 
ATOM     12  C   UNL d   1       4.577   2.021   1.450  0.00  0.00     0.027 A 
ATOM     13  C   UNL d   1       4.269  -0.077   0.017  0.00  0.00     0.068 C 
ATOM     14  C   UNL d   1       3.732   2.976   2.029  0.00  0.00     0.027 A 
ATOM     15  C   UNL d   1       2.429   2.611   1.753  0.00  0.00     0.013 A 
ATOM     16  C   UNL d   1       1.215   3.261   2.317  0.00  0.00     0.068 C 
ENDBRANCH   6  10
ENDBRANCH   1   5
BRANCH   2  17
ATOM     17  N   UNL d   1      -1.864   4.412  -0.558  0.00  0.00    -0.264 N 
ATOM     18  C   UNL d   1      -1.654   5.357   0.421  0.00  0.00     0.259 C 
ATOM     19  O   UNL d   1      -1.218   5.119   1.540  0.00  0.00    -0.267 OA
ATOM     20  H   UNL d   1      -2.072   4.670  -1.517  0.00  0.00     0.190 HD
BRANCH  18  21
ATOM     21  C   UNL d   1      -2.083   6.720   0.018  0.00  0.00     0.076 C 
ATOM     22  C   UNL d   1      -1.458   7.782   0.549  0.00  0.00     0.017 C 
BRANCH  22  23
ATOM     23  C   UNL d   1      -1.921   9.171   0.414  0.00  0.00    -0.036 A 
ATOM     24  C   UNL d   1      -3.276   9.502   0.559  0.00  0.00     0.011 A 
ATOM     25  C   UNL d   1      -3.687  10.837   0.569  0.00  0.00     0.001 A 
ATOM     26  C   UNL d   1      -2.747  11.857   0.437  0.00  0.00     0.000 A 
ATOM     27  C   UNL d   1      -1.398  11.541   0.287  0.00  0.00     0.001 A 
ATOM     28  C   UNL d   1      -0.986  10.205   0.280  0.00  0.00     0.011 A 
ENDBRANCH  22  23
ENDBRANCH  18  21
ENDBRANCH   2  17
TORSDOF 5
