REMARK  3 active torsions:
REMARK  status: ('A' for Active; 'I' for Inactive)
REMARK    1  A    between atoms: C_3  and  N_1 
REMARK    2  A    between atoms: S_8  and  C_4 
REMARK    3  A    between atoms: C_13  and  S_8 
ROOT
ATOM      1  C   UNL d   1       0.096  -3.417  -0.777  0.00  0.00     0.064 A 
ATOM      2  C   UNL d   1       0.280  -1.012  -0.489  0.00  0.00     0.104 A 
ATOM      3  C   UNL d   1      -1.150  -3.249  -1.411  0.00  0.00     0.026 A 
ATOM      4  N   UNL d   1       1.200  -5.743  -0.452  0.00  0.00    -0.191 NA
ATOM      5  C   UNL d   1       0.696  -4.711  -0.610  0.00  0.00     0.101 C 
ATOM      6  C   UNL d   1       0.802  -2.298  -0.302  0.00  0.00     0.060 A 
ATOM      7  C   UNL d   1      -0.942  -0.833  -1.146  0.00  0.00     0.037 A 
ATOM      8  C   UNL d   1      -1.651  -1.950  -1.600  0.00  0.00     0.023 A 
ENDROOT
BRANCH   3   9
ATOM      9  S   UNL d   1      -2.086  -4.611  -2.099  0.00  0.00    -0.089 SA
BRANCH   9  10
ATOM     10  C   UNL d   1      -3.271  -4.969  -0.813  0.00  0.00     0.005 A 
ATOM     11  C   UNL d   1      -4.636  -4.777  -1.066  0.00  0.00     0.020 A 
ATOM     12  C   UNL d   1      -5.595  -5.173  -0.127  0.00  0.00     0.025 A 
ATOM     13  C   UNL d   1      -5.191  -5.764   1.068  0.00  0.00     0.034 A 
ATOM     14  C   UNL d   1      -3.837  -5.948   1.337  0.00  0.00     0.025 A 
ATOM     15 CL   UNL d   1      -6.370  -6.298   2.201  0.00  0.00    -0.084 Cl
ATOM     16  C   UNL d   1      -2.879  -5.554   0.396  0.00  0.00     0.020 A 
ENDBRANCH   9  10
ENDBRANCH   3   9
BRANCH   2  17
ATOM     17  N   UNL d   1       1.026   0.156  -0.002  0.00  0.00    -0.116 N 
ATOM     18  O   UNL d   1       2.083  -0.055   0.607  0.00  0.00    -0.532 OA
ATOM     19  O   UNL d   1       0.552   1.277  -0.229  0.00  0.00    -0.532 OA
ENDBRANCH   2  17
TORSDOF 3
