REMARK  3 active torsions:
REMARK  status: ('A' for Active; 'I' for Inactive)
REMARK    1  A    between atoms: C_7  and  C_1 
REMARK    2  A    between atoms: C_8  and  C_4 
REMARK    3  A    between atoms: C_11  and  C_8 
ROOT
ATOM      1  C   UNL d   1      -0.192   1.227  -0.009  0.00  0.00     0.046 A 
ATOM      2  C   UNL d   1       0.702   0.047  -0.061  0.00  0.00     0.253 A 
ATOM      3  N   UNL d   1      -0.102  -1.063  -0.023  0.00  0.00    -0.353 N 
ATOM      4  C   UNL d   1      -1.449   0.752   0.062  0.00  0.00    -0.046 A 
ATOM      5  C   UNL d   1      -1.487  -0.743   0.059  0.00  0.00     0.158 A 
ATOM      6  O   UNL d   1       1.917   0.047  -0.130  0.00  0.00    -0.268 OA
ATOM      7  H   UNL d   1       0.298  -1.992  -0.057  0.00  0.00     0.163 HD
ENDROOT
BRANCH   1   8
ATOM      8  C   UNL d   1       0.258   2.607  -0.096  0.00  0.00    -0.020 A 
ATOM      9  C   UNL d   1       0.448   3.369   1.062  0.00  0.00     0.012 A 
ATOM     10  C   UNL d   1       0.930   4.676   0.969  0.00  0.00     0.001 A 
ATOM     11  C   UNL d   1       1.219   5.227  -0.279  0.00  0.00     0.000 A 
ATOM     12  C   UNL d   1       1.003   4.483  -1.438  0.00  0.00     0.001 A 
ATOM     13  C   UNL d   1       0.516   3.178  -1.347  0.00  0.00     0.012 A 
ENDBRANCH   1   8
BRANCH   4  14
ATOM     14  C   UNL d   1      -2.718   1.553   0.067  0.00  0.00     0.036 C 
BRANCH  14  15
ATOM     15  C   UNL d   1      -3.565   1.339   1.323  0.00  0.00    -0.000 C 
ATOM     16  C   UNL d   1      -4.824   2.194   1.282  0.00  0.00     0.005 C 
ENDBRANCH  14  15
ENDBRANCH   4  14
TORSDOF 3
