REMARK  4 active torsions:
REMARK  status: ('A' for Active; 'I' for Inactive)
REMARK    1  A    between atoms: C_2  and  S_1 
REMARK    2  A    between atoms: C_10  and  S_1 
REMARK    3  A    between atoms: N_16  and  C_5 
REMARK    4  A    between atoms: C_13  and  C_6 
ROOT
ATOM      1  C   UNL d   1       0.582   0.015   1.799  0.00  0.00     0.113 A 
ATOM      2  N   UNL d   1      -0.006  -1.230   3.737  0.00  0.00    -0.331 N 
ATOM      3  HN  UNL d   1      -0.115  -2.122   4.220  1.00  0.00     0.168 HD
ATOM      4  C   UNL d   1       0.387  -1.181   2.450  0.00  0.00     0.102 A 
ATOM      5  C   UNL d   1      -0.251  -0.062   4.365  0.00  0.00     0.116 A 
ATOM      6  N   UNL d   1      -0.155   1.144   3.775  0.00  0.00    -0.350 N 
ATOM      7  HN  UNL d   1      -0.378   2.005   4.274  1.00  0.00     0.166 HD
ATOM      8  C   UNL d   1       0.249   1.154   2.491  0.00  0.00     0.116 A 
ENDROOT
BRANCH   1   9
ATOM      9  S   UNL d   1       1.098   0.138   0.131  0.00  0.00     0.187 S 
ATOM     10  O   UNL d   1       0.621   1.427  -0.347  0.00  0.00    -0.222 OA
ATOM     11  O   UNL d   1       0.652  -1.069  -0.545  0.00  0.00    -0.222 OA
BRANCH   9  12
ATOM     12  C   UNL d   1       2.921   0.185   0.131  0.00  0.00     0.058 C 
ATOM     13  C   UNL d   1       3.510  -1.070   0.783  0.00  0.00     0.031 C 
ATOM     14  C   UNL d   1       3.389   0.250  -1.336  0.00  0.00     0.031 C 
ATOM     15  C   UNL d   1       3.434   1.432   0.867  0.00  0.00     0.031 C 
ENDBRANCH   9  12
ENDBRANCH   1   9
BRANCH   4  16
ATOM     16  N   UNL d   1       0.680  -2.419   1.889  0.00  0.00    -0.287 NA
ATOM     17  H   UNL d   1       0.356  -3.155   2.511  0.00  0.00     0.125 HD
ATOM     18  H   UNL d   1       0.315  -2.519   0.939  0.00  0.00     0.125 HD
ENDBRANCH   4  16
BRANCH   5  19
ATOM     19  C   UNL d   1      -0.558  -0.093   5.807  0.00  0.00     0.011 A 
ATOM     20  C   UNL d   1      -0.795   1.089   6.527  0.00  0.00     0.032 A 
ATOM     21  C   UNL d   1      -1.020   1.027   7.893  0.00  0.00     0.088 A 
ATOM     22  N   UNL d   1      -1.034  -0.122   8.596  0.00  0.00    -0.375 N 
ATOM     23  C   UNL d   1      -0.820  -1.257   7.900  0.00  0.00     0.088 A 
ATOM     24  HN  UNL d   1      -1.198  -0.133   9.603  1.00  0.00     0.164 HD
ATOM     25  C   UNL d   1      -0.586  -1.293   6.534  0.00  0.00     0.032 A 
ENDBRANCH   5  19
TORSDOF 4
