REMARK  7 active torsions:
REMARK  status: ('A' for Active; 'I' for Inactive)
REMARK    1  A    between atoms: N_2  and  C_1 
REMARK    2  A    between atoms: C_3  and  C_1 
REMARK    3  A    between atoms: C_4  and  C_1 
REMARK    4  A    between atoms: N_6  and  C_1 
REMARK       I    between atoms: C_5  and  N_2 
REMARK    5  A    between atoms: C_7  and  C_5 
REMARK    6  A    between atoms: C_8  and  N_6 
REMARK    7  A    between atoms: O_23  and  C_12 
ROOT
ATOM      1  C   UNL d   1       1.005   0.197   0.177  0.00  0.00     0.291 C 
ENDROOT
BRANCH   1   2
ATOM      2  N   UNL d   1       0.621  -0.949  -0.703  0.00  0.00    -0.320 N 
ATOM      3  C   UNL d   1       0.508  -2.244  -0.277  0.00  0.00     0.256 C 
ATOM      4  O   UNL d   1       0.785  -2.564   0.867  0.00  0.00    -0.268 OA
ATOM      5  H   UNL d   1       0.542  -0.711  -1.679  0.00  0.00     0.165 HD
BRANCH   3   6
ATOM      6  C   UNL d   1       0.016  -3.238  -1.277  0.00  0.00     0.065 A 
ATOM      7  C   UNL d   1      -0.748  -4.343  -0.868  0.00  0.00     0.084 A 
ATOM      8  C   UNL d   1      -1.106  -5.335  -1.787  0.00  0.00     0.038 A 
ATOM      9  C   UNL d   1      -0.779  -5.197  -3.135  0.00  0.00     0.003 A 
ATOM     10  C   UNL d   1      -0.079  -4.072  -3.564  0.00  0.00     0.001 A 
ATOM     11  C   UNL d   1       0.334  -3.104  -2.642  0.00  0.00     0.020 A 
BRANCH   7  12
ATOM     12  O   UNL d   1      -1.171  -4.566   0.417  0.00  0.00    -0.355 OA
ATOM     13  C   UNL d   1      -2.097  -3.575   0.872  0.00  0.00     0.210 C 
ENDBRANCH   7  12
ENDBRANCH   3   6
ENDBRANCH   1   2
BRANCH   1  14
ATOM     14  C   UNL d   1       0.051   0.333   1.412  0.00  0.00     0.435 C 
ATOM     15  F   UNL d   1      -1.247   0.104   1.081  0.00  0.00    -0.167 F 
ATOM     16  F   UNL d   1       0.365  -0.553   2.395  0.00  0.00    -0.167 F 
ATOM     17  F   UNL d   1       0.106   1.550   2.011  0.00  0.00    -0.167 F 
ENDBRANCH   1  14
BRANCH   1  18
ATOM     18  C   UNL d   1       0.820   1.540  -0.606  0.00  0.00     0.435 C 
ATOM     19  F   UNL d   1       0.480   1.274  -1.905  0.00  0.00    -0.167 F 
ATOM     20  F   UNL d   1      -0.180   2.327  -0.142  0.00  0.00    -0.167 F 
ATOM     21  F   UNL d   1       1.932   2.310  -0.653  0.00  0.00    -0.167 F 
ENDBRANCH   1  18
BRANCH   1  22
ATOM     22  N   UNL d   1       2.382  -0.080   0.683  0.00  0.00    -0.237 NA
ATOM     23  H   UNL d   1       2.305  -0.848   1.354  0.00  0.00     0.132 HD
BRANCH  22  24
ATOM     24  C   UNL d   1       3.410  -0.402  -0.206  0.00  0.00     0.082 A 
ATOM     25  N   UNL d   1       3.276  -0.194  -1.526  0.00  0.00    -0.357 N 
ATOM     26  C   UNL d   1       4.311  -0.579  -2.316  0.00  0.00     0.090 A 
ATOM     27  HN  UNL d   1       2.435   0.233  -1.917  1.00  0.00     0.166 HD
ATOM     28  C   UNL d   1       5.474  -1.174  -1.850  0.00  0.00     0.024 A 
ATOM     29  C   UNL d   1       5.608  -1.377  -0.485  0.00  0.00    -0.058 A 
ATOM     30  C   UNL d   1       4.574  -0.947   0.340  0.00  0.00     0.049 A 
ATOM     31  C   UNL d   1       6.828  -2.030   0.095  0.00  0.00     0.048 C 
ENDBRANCH  22  24
ENDBRANCH   1  22
TORSDOF 7
