REMARK  4 active torsions:
REMARK  status: ('A' for Active; 'I' for Inactive)
REMARK    1  A    between atoms: C_4  and  C_1 
REMARK       I    between atoms: N_9  and  C_4 
REMARK    2  A    between atoms: C_6  and  C_11 
REMARK       I    between atoms: C_8  and  N_10 
REMARK    3  A    between atoms: C_12  and  C_8 
REMARK    4  A    between atoms: N_10  and  N_9 
ROOT
ATOM      1  C   UNL d   1       5.080   0.870   0.018  0.00  0.00     0.270 C 
ATOM      2  N   UNL d   1       3.857   0.326  -0.320  0.00  0.00    -0.263 N 
ATOM      3  O   UNL d   1       5.929   0.272   0.669  0.00  0.00    -0.266 OA
ATOM      4  H   UNL d   1       3.061   0.928  -0.534  0.00  0.00     0.190 HD
ENDROOT
BRANCH   2   5
ATOM      5  N   UNL d   1       3.510  -0.946   0.185  0.00  0.00    -0.262 N 
ATOM      6  C   UNL d   1       2.164  -1.204   0.408  0.00  0.00     0.278 C 
ATOM      7  O   UNL d   1       1.353  -0.302   0.171  0.00  0.00    -0.265 OA
ATOM      8  H   UNL d   1       4.264  -1.609   0.361  0.00  0.00     0.190 HD
BRANCH   6   9
ATOM      9  C   UNL d   1       1.787  -2.528   0.898  0.00  0.00     0.096 A 
ATOM     10  C   UNL d   1       2.514  -3.648   1.269  0.00  0.00     0.063 A 
ATOM     11  C   UNL d   1       1.683  -4.742   1.726  0.00  0.00    -0.032 A 
ATOM     12 CL   UNL d   1       4.228  -3.784   1.222  0.00  0.00    -0.082 Cl
ATOM     13  C   UNL d   1       2.130  -6.079   2.229  0.00  0.00     0.050 C 
ATOM     14  C   UNL d   1       0.346  -4.403   1.647  0.00  0.00     0.059 A 
ATOM     15  S   UNL d   1       0.096  -2.827   1.069  0.00  0.00    -0.094 SA
ENDBRANCH   6   9
ENDBRANCH   2   5
BRANCH   1  16
ATOM     16  C   UNL d   1       5.331   2.261  -0.464  0.00  0.00     0.033 A 
ATOM     17  C   UNL d   1       6.181   3.098   0.271  0.00  0.00     0.018 A 
ATOM     18  C   UNL d   1       6.493   4.381  -0.196  0.00  0.00     0.017 A 
ATOM     19  C   UNL d   1       5.973   4.844  -1.415  0.00  0.00     0.048 A 
ATOM     20  C   UNL d   1       5.118   4.002  -2.146  0.00  0.00     0.017 A 
ATOM     21  C   UNL d   1       4.798   2.723  -1.676  0.00  0.00     0.018 A 
BRANCH  19  22
ATOM     22  C   UNL d   1       6.338   6.208  -1.959  0.00  0.00     0.417 C 
ATOM     23  F   UNL d   1       7.152   6.925  -1.136  0.00  0.00    -0.166 F 
ATOM     24  F   UNL d   1       6.989   6.130  -3.153  0.00  0.00    -0.166 F 
ATOM     25  F   UNL d   1       5.246   6.990  -2.180  0.00  0.00    -0.166 F 
ENDBRANCH  19  22
ENDBRANCH   1  16
TORSDOF 4
