REMARK  10 active torsions:
REMARK  status: ('A' for Active; 'I' for Inactive)
REMARK    1  A    between atoms: O_12  and  C_1 
REMARK    2  A    between atoms: O_11  and  C_2 
REMARK    3  A    between atoms: C_16  and  C_3 
REMARK    4  A    between atoms: C_15  and  C_4 
REMARK    5  A    between atoms: C_5  and  C_14 
REMARK    6  A    between atoms: C_6  and  C_13 
REMARK    7  A    between atoms: C_7  and  O_12 
REMARK    8  A    between atoms: C_17  and  C_7 
REMARK    9  A    between atoms: C_8  and  O_11 
REMARK   10  A    between atoms: C_18  and  C_8 
ROOT
ATOM      1  C   UNL d   1       1.176  -0.533   0.474  0.00  0.00     0.087 C 
ATOM      2  C   UNL d   1      -1.354   0.400  -0.116  0.00  0.00     0.087 C 
ATOM      3  C   UNL d   1       0.372  -1.312  -0.388  0.00  0.00    -0.014 C 
ATOM      4  C   UNL d   1      -0.469   1.293   0.521  0.00  0.00    -0.014 C 
ATOM      5  C   UNL d   1      -0.916  -0.826  -0.630  0.00  0.00     0.048 C 
ATOM      6  C   UNL d   1       0.797   0.760   0.881  0.00  0.00     0.048 C 
ENDROOT
BRANCH   1   7
ATOM      7  O   UNL d   1       2.348  -1.192   1.007  0.00  0.00    -0.274 OA
BRANCH   7   8
ATOM      8  C   UNL d   1       3.461  -0.836   1.779  0.00  0.00     0.298 C 
ATOM      9  O   UNL d   1       3.756   0.293   2.134  0.00  0.00    -0.259 OA
BRANCH   8  10
ATOM     10  C   UNL d   1       4.254  -2.078   2.121  0.00  0.00     0.040 A 
ATOM     11  C   UNL d   1       5.416  -1.989   2.900  0.00  0.00     0.018 A 
ATOM     12  C   UNL d   1       6.130  -3.150   3.262  0.00  0.00     0.017 A 
ATOM     13  C   UNL d   1       5.701  -4.425   2.855  0.00  0.00     0.048 A 
ATOM     14  C   UNL d   1       4.559  -4.510   2.058  0.00  0.00     0.017 A 
ATOM     15  C   UNL d   1       3.858  -3.354   1.702  0.00  0.00     0.018 A 
BRANCH  13  16
ATOM     16  C   UNL d   1       6.433  -5.681   3.272  0.00  0.00     0.417 C 
ATOM     17  F   UNL d   1       5.873  -6.820   2.786  0.00  0.00    -0.166 F 
ATOM     18  F   UNL d   1       7.728  -5.698   2.851  0.00  0.00    -0.166 F 
ATOM     19  F   UNL d   1       6.473  -5.835   4.623  0.00  0.00    -0.166 F 
ENDBRANCH  13  16
ENDBRANCH   8  10
ENDBRANCH   7   8
ENDBRANCH   1   7
BRANCH   3  20
ATOM     20  C   UNL d   1       0.805  -2.660  -0.986  0.00  0.00    -0.021 C 
ATOM     21  C   UNL d   1       0.622  -3.746   0.092  0.00  0.00     0.019 C 
ATOM     22  C   UNL d   1      -0.050  -3.102  -2.205  0.00  0.00     0.019 C 
ATOM     23  C   UNL d   1       2.245  -2.592  -1.550  0.00  0.00     0.019 C 
ENDBRANCH   3  20
BRANCH   4  24
ATOM     24  C   UNL d   1      -0.861   2.766   0.775  0.00  0.00    -0.021 C 
ATOM     25  C   UNL d   1      -1.939   2.871   1.871  0.00  0.00     0.019 C 
ATOM     26  C   UNL d   1       0.326   3.655   1.211  0.00  0.00     0.019 C 
ATOM     27  C   UNL d   1      -1.396   3.415  -0.532  0.00  0.00     0.019 C 
ENDBRANCH   4  24
BRANCH   2  28
ATOM     28  O   UNL d   1      -2.718   0.725  -0.286  0.00  0.00    -0.274 OA
BRANCH  28  29
ATOM     29  C   UNL d   1      -3.619  -0.200   0.230  0.00  0.00     0.298 C 
ATOM     30  O   UNL d   1      -3.356  -1.248   0.805  0.00  0.00    -0.259 OA
BRANCH  29  31
ATOM     31  C   UNL d   1      -5.027   0.210  -0.027  0.00  0.00     0.040 A 
ATOM     32  C   UNL d   1      -6.031  -0.756   0.145  0.00  0.00     0.018 A 
ATOM     33  C   UNL d   1      -7.377  -0.422  -0.030  0.00  0.00     0.017 A 
ATOM     34  C   UNL d   1      -7.745   0.886  -0.376  0.00  0.00     0.048 A 
ATOM     35  C   UNL d   1      -6.737   1.846  -0.559  0.00  0.00     0.017 A 
ATOM     36  C   UNL d   1      -5.387   1.512  -0.388  0.00  0.00     0.018 A 
BRANCH  34  37
ATOM     37  C   UNL d   1      -9.207   1.239  -0.524  0.00  0.00     0.417 C 
ATOM     38  F   UNL d   1      -9.420   2.527  -0.909  0.00  0.00    -0.166 F 
ATOM     39  F   UNL d   1      -9.840   0.463  -1.447  0.00  0.00    -0.166 F 
ATOM     40  F   UNL d   1      -9.899   1.077   0.638  0.00  0.00    -0.166 F 
ENDBRANCH  34  37
ENDBRANCH  29  31
ENDBRANCH  28  29
ENDBRANCH   2  28
TORSDOF 10
