REMARK  3 active torsions:
REMARK  status: ('A' for Active; 'I' for Inactive)
REMARK    1  A    between atoms: C_10  and  C_1 
REMARK    2  A    between atoms: C_2  and  O_9 
REMARK    3  A    between atoms: O_9  and  C_10 
ROOT
ATOM      1  C   UNL d   1      -2.173  -2.004   0.489  0.00  0.00     0.072 A 
ATOM      2  C   UNL d   1      -4.112  -3.363   0.018  0.00  0.00     0.038 A 
ATOM      3  C   UNL d   1      -2.752  -3.852   1.934  0.00  0.00     0.038 A 
ATOM      4  C   UNL d   1      -3.265  -2.308  -0.325  0.00  0.00     0.060 A 
ATOM      5  C   UNL d   1      -1.900  -2.799   1.603  0.00  0.00     0.060 A 
ATOM      6  C   UNL d   1      -3.868  -4.135   1.151  0.00  0.00     0.048 A 
ATOM      7 CL   UNL d   1      -2.431  -4.803   3.332  0.00  0.00    -0.084 Cl
ATOM      8 CL   UNL d   1      -5.484  -3.703  -0.965  0.00  0.00    -0.084 Cl
ENDROOT
BRANCH   1   9
ATOM      9  O   UNL d   1      -1.310  -0.959   0.285  0.00  0.00    -0.344 OA
BRANCH   9  10
ATOM     10  C   UNL d   1      -1.846   0.139  -0.454  0.00  0.00     0.244 C 
BRANCH  10  11
ATOM     11  C   UNL d   1      -1.052   1.415  -0.195  0.00  0.00     0.095 C 
ATOM     12  S   UNL d   1      -1.503   2.884  -0.846  0.00  0.00    -0.064 SA
ATOM     13  N   UNL d   1       0.053   1.324   0.596  0.00  0.00    -0.392 N 
ATOM     14  H   UNL d   1       0.598   2.150   0.808  0.00  0.00     0.156 HD
ATOM     15  H   UNL d   1       0.326   0.437   1.009  0.00  0.00     0.156 HD
ENDBRANCH  10  11
ENDBRANCH   9  10
ENDBRANCH   1   9
TORSDOF 3
