REMARK  3 active torsions:
REMARK  status: ('A' for Active; 'I' for Inactive)
REMARK       I    between atoms: N_2  and  C_1 
REMARK    1  A    between atoms: C_4  and  C_1 
REMARK       I    between atoms: C_3  and  N_5 
REMARK    2  A    between atoms: C_14  and  C_3 
REMARK    3  A    between atoms: N_5  and  C_15 
ROOT
ATOM      1  C   UNL d   1       1.088  -0.094   0.017  0.00  0.00     0.277 C 
ATOM      2  N   UNL d   1       0.335   0.933  -0.564  0.00  0.00    -0.346 N 
ATOM      3  C   UNL d   1       0.780   1.541  -1.813  0.00  0.00     0.128 C 
ATOM      4  C   UNL d   1      -0.811   1.595   0.052  0.00  0.00     0.128 C 
ATOM      5  O   UNL d   1       2.205  -0.371  -0.424  0.00  0.00    -0.265 OA
ATOM      6  C   UNL d   1      -1.648   2.241  -2.223  0.00  0.00     0.087 C 
ATOM      7  C   UNL d   1      -1.994   1.532  -0.900  0.00  0.00     0.045 C 
ATOM      8  C   UNL d   1      -0.370   1.626  -2.822  0.00  0.00     0.045 C 
ENDROOT
BRANCH   6   9
ATOM      9  N   UNL d   1      -1.522   3.695  -2.070  0.00  0.00    -0.356 N 
ATOM     10  C   UNL d   1      -2.595   4.465  -1.680  0.00  0.00     0.222 C 
ATOM     11  O   UNL d   1      -3.683   3.986  -1.368  0.00  0.00    -0.273 OA
ATOM     12  H   UNL d   1      -0.767   4.164  -2.556  0.00  0.00     0.162 HD
BRANCH  10  13
ATOM     13  C   UNL d   1      -2.393   5.971  -1.685  0.00  0.00     0.078 C 
ATOM     14  C   UNL d   1      -1.214   6.456  -0.838  0.00  0.00     0.014 C 
ATOM     15  C   UNL d   1      -1.210   7.987  -0.780  0.00  0.00     0.001 C 
ATOM     16  C   UNL d   1      -1.222   8.620  -2.173  0.00  0.00     0.000 C 
ATOM     17  C   UNL d   1      -2.313   8.047  -3.077  0.00  0.00     0.001 C 
ATOM     18  C   UNL d   1      -2.279   6.520  -3.108  0.00  0.00     0.014 C 
ENDBRANCH  10  13
ENDBRANCH   6   9
BRANCH   1  19
ATOM     19  C   UNL d   1       0.536  -0.825   1.149  0.00  0.00     0.142 A 
ATOM     20  O   UNL d   1      -0.816  -1.006   1.280  0.00  0.00    -0.317 OA
ATOM     21  C   UNL d   1      -1.025  -1.721   2.415  0.00  0.00     0.143 A 
ATOM     22  C   UNL d   1       0.171  -2.052   3.001  0.00  0.00     0.027 A 
ATOM     23  C   UNL d   1       1.180  -1.501   2.173  0.00  0.00     0.045 A 
ENDBRANCH   1  19
TORSDOF 3
