REMARK  6 active torsions:
REMARK  status: ('A' for Active; 'I' for Inactive)
REMARK    1  A    between atoms: S_3  and  C_1 
REMARK    2  A    between atoms: N_7  and  C_2 
REMARK    3  A    between atoms: C_16  and  S_3 
REMARK    4  A    between atoms: C_8  and  C_4 
REMARK       I    between atoms: N_14  and  C_8 
REMARK    5  A    between atoms: N_11  and  N_14 
REMARK    6  A    between atoms: C_21  and  C_20 
ROOT
ATOM      1  C   UNL d   1       1.466  -0.597  -0.010  0.00  0.00     0.094 A 
ATOM      2  C   UNL d   1       1.446   0.860  -0.042  0.00  0.00     0.083 A 
ATOM      3  C   UNL d   1       0.128   1.342  -0.004  0.00  0.00     0.102 A 
ATOM      4  S   UNL d   1      -1.017   0.079   0.170  0.00  0.00    -0.092 SA
ATOM      5  C   UNL d   1       0.185  -1.113   0.068  0.00  0.00     0.076 A 
ENDROOT
BRANCH   3   6
ATOM      6  C   UNL d   1      -0.374   2.703  -0.223  0.00  0.00     0.279 C 
ATOM      7  N   UNL d   1      -1.500   3.072   0.520  0.00  0.00    -0.266 N 
ATOM      8  H   UNL d   1      -1.950   2.408   1.134  0.00  0.00     0.190 HD
ATOM      9  O   UNL d   1       0.170   3.470  -1.016  0.00  0.00    -0.265 OA
BRANCH   7  10
ATOM     10  N   UNL d   1      -1.946   4.363   0.441  0.00  0.00    -0.312 N 
ATOM     11  C   UNL d   1      -2.997   4.683   1.121  0.00  0.00     0.088 C 
ATOM     12  HN  UNL d   1      -1.464   5.051  -0.137  1.00  0.00     0.185 HD
BRANCH  11  13
ATOM     13  C   UNL d   1      -3.519   6.123   1.098  0.00  0.00    -0.018 C 
ATOM     14  C   UNL d   1      -3.812   6.540  -0.349  0.00  0.00     0.020 C 
ATOM     15  C   UNL d   1      -4.807   6.223   1.925  0.00  0.00     0.020 C 
ATOM     16  C   UNL d   1      -2.456   7.048   1.703  0.00  0.00     0.020 C 
ENDBRANCH  11  13
ENDBRANCH   7  10
ENDBRANCH   3   6
BRANCH   2  17
ATOM     17  N   UNL d   1       2.586   1.746  -0.089  0.00  0.00    -0.330 N 
ATOM     18  C   UNL d   1       2.662   2.994   0.510  0.00  0.00     0.097 A 
ATOM     19  C   UNL d   1       3.922   3.522   0.336  0.00  0.00     0.019 A 
ATOM     20  C   UNL d   1       4.659   2.584  -0.405  0.00  0.00     0.019 A 
ATOM     21  C   UNL d   1       3.812   1.532  -0.680  0.00  0.00     0.097 A 
ENDBRANCH   2  17
BRANCH   1  22
ATOM     22  S   UNL d   1       2.820  -1.715  -0.001  0.00  0.00     0.181 S 
ATOM     23  O   UNL d   1       2.210  -3.011   0.255  0.00  0.00    -0.222 OA
ATOM     24  O   UNL d   1       3.503  -1.471  -1.250  0.00  0.00    -0.222 OA
BRANCH  22  25
ATOM     25  C   UNL d   1       3.863  -1.312   1.404  0.00  0.00     0.105 C 
ATOM     26  C   UNL d   1       3.124  -1.524   2.723  0.00  0.00     0.026 C 
ATOM     27  C   UNL d   1       5.123  -2.182   1.377  0.00  0.00     0.026 C 
ENDBRANCH  22  25
ENDBRANCH   1  22
TORSDOF 6
