REMARK  3 active torsions:
REMARK  status: ('A' for Active; 'I' for Inactive)
REMARK    1  A    between atoms: C_13  and  N_4 
REMARK    2  A    between atoms: C_17  and  C_10 
REMARK    3  A    between atoms: C_12  and  C_14 
ROOT
ATOM      1  C   UNL d   1      -0.472   0.343  -0.035  0.00  0.00     0.123 A 
ATOM      2  C   UNL d   1      -0.057  -0.960  -0.100  0.00  0.00     0.063 A 
ATOM      3  C   UNL d   1       0.512   1.428   0.008  0.00  0.00     0.295 A 
ATOM      4  N   UNL d   1       1.867   0.981  -0.052  0.00  0.00    -0.219 N 
ATOM      5  N   UNL d   1      -1.857   0.502   0.015  0.00  0.00    -0.344 N 
ATOM      6  HN  UNL d   1      -2.342   1.399   0.031  1.00  0.00     0.167 HD
ATOM      7  N   UNL d   1       2.231  -0.379  -0.086  0.00  0.00    -0.294 N 
ATOM      8  HN  UNL d   1       3.218  -0.636  -0.094  1.00  0.00     0.187 HD
ATOM      9  S   UNL d   1      -1.371  -2.018  -0.151  0.00  0.00    -0.067 SA
ATOM     10  C   UNL d   1      -2.447  -0.678   0.039  0.00  0.00     0.085 A 
ATOM     11  C   UNL d   1       1.326  -1.310  -0.106  0.00  0.00     0.042 A 
ATOM     12  O   UNL d   1       0.142   2.595   0.107  0.00  0.00    -0.264 OA
ATOM     13  C   UNL d   1       1.795  -2.742  -0.108  0.00  0.00     0.071 C 
ENDROOT
BRANCH   4  14
ATOM     14  C   UNL d   1       3.014   1.863  -0.046  0.00  0.00     0.061 A 
ATOM     15  C   UNL d   1       2.914   3.259  -0.151  0.00  0.00     0.047 A 
ATOM     16  C   UNL d   1       4.054   4.092  -0.133  0.00  0.00     0.050 A 
ATOM     17  C   UNL d   1       5.324   3.514  -0.017  0.00  0.00     0.016 A 
ATOM     18  C   UNL d   1       5.452   2.135   0.077  0.00  0.00     0.003 A 
ATOM     19  C   UNL d   1       4.312   1.326   0.060  0.00  0.00     0.031 A 
BRANCH  16  20
ATOM     20  C   UNL d   1       3.926   5.593  -0.231  0.00  0.00     0.417 C 
ATOM     21  F   UNL d   1       2.646   6.034  -0.360  0.00  0.00    -0.166 F 
ATOM     22  F   UNL d   1       4.432   6.227   0.864  0.00  0.00    -0.166 F 
ATOM     23  F   UNL d   1       4.604   6.101  -1.299  0.00  0.00    -0.166 F 
ENDBRANCH  16  20
ENDBRANCH   4  14
BRANCH  10  24
ATOM     24  C   UNL d   1      -3.890  -0.909   0.210  0.00  0.00    -0.002 A 
ATOM     25  C   UNL d   1      -4.818  -0.006  -0.328  0.00  0.00     0.014 A 
ATOM     26  C   UNL d   1      -6.191  -0.199  -0.145  0.00  0.00     0.001 A 
ATOM     27  C   UNL d   1      -6.655  -1.291   0.587  0.00  0.00     0.000 A 
ATOM     28  C   UNL d   1      -5.748  -2.195   1.135  0.00  0.00     0.001 A 
ATOM     29  C   UNL d   1      -4.377  -2.003   0.948  0.00  0.00     0.014 A 
ENDBRANCH  10  24
TORSDOF 3
