REMARK  5 active torsions:
REMARK  status: ('A' for Active; 'I' for Inactive)
REMARK    1  A    between atoms: C_2  and  C_1 
REMARK    2  A    between atoms: O_10  and  C_2 
REMARK    3  A    between atoms: S_7  and  C_3 
REMARK    4  A    between atoms: C_12  and  S_7 
REMARK    5  A    between atoms: C_8  and  C_12 
ROOT
ATOM      1  C   UNL d   1       0.857   1.346   0.013  0.00  0.00     0.071 A 
ATOM      2  C   UNL d   1      -0.537   1.377   0.022  0.00  0.00     0.086 A 
ATOM      3  N   UNL d   1      -1.288   0.244   0.008  0.00  0.00    -0.360 N 
ATOM      4  HN  UNL d   1      -2.307   0.291   0.018  1.00  0.00     0.166 HD
ATOM      5  C   UNL d   1       1.486   0.090  -0.028  0.00  0.00     0.022 A 
ATOM      6  C   UNL d   1      -0.649  -0.947  -0.019  0.00  0.00     0.089 A 
ATOM      7  C   UNL d   1       0.725  -1.073  -0.036  0.00  0.00     0.018 A 
ENDROOT
BRANCH   1   8
ATOM      8  C   UNL d   1       1.748   2.529   0.016  0.00  0.00     0.179 C 
ATOM      9  O   UNL d   1       2.848   2.500  -0.514  0.00  0.00    -0.646 OA
BRANCH   8  10
ATOM     10  O   UNL d   1       1.304   3.606   0.690  0.00  0.00    -0.773 OA
ATOM     11  H   UNL d   1       0.398   3.539   1.057  0.00  0.00     0.167 HD
ENDBRANCH   8  10
ENDBRANCH   1   8
BRANCH   2  12
ATOM     12  S   UNL d   1      -1.524   2.858   0.129  0.00  0.00    -0.107 SA
BRANCH  12  13
ATOM     13  C   UNL d   1      -1.330   3.472  -1.574  0.00  0.00     0.107 C 
BRANCH  13  14
ATOM     14  C   UNL d   1      -2.237   4.652  -1.761  0.00  0.00    -0.026 C 
ATOM     15  C   UNL d   1      -1.821   5.917  -1.915  0.00  0.00     0.007 C 
ENDBRANCH  13  14
ENDBRANCH  12  13
ENDBRANCH   2  12
TORSDOF 5
