REMARK  2 active torsions:
REMARK  status: ('A' for Active; 'I' for Inactive)
REMARK    1  A    between atoms: C_6  and  C_2 
REMARK       I    between atoms: N_10  and  C_6 
REMARK    2  A    between atoms: C_12  and  N_10 
ROOT
ATOM      1  C   UNL d   1       3.720   0.464   0.151  0.00  0.00     0.263 C 
ATOM      2  N   UNL d   1       4.482  -0.671   0.391  0.00  0.00    -0.323 N 
ATOM      3  O   UNL d   1       4.218   1.569  -0.063  0.00  0.00    -0.267 OA
ATOM      4  H   UNL d   1       3.971  -1.544   0.436  0.00  0.00     0.169 HD
ENDROOT
BRANCH   1   5
ATOM      5  C   UNL d   1       2.261   0.283   0.159  0.00  0.00     0.081 A 
ATOM      6  S   UNL d   1       1.558  -1.288   0.330  0.00  0.00    -0.076 SA
ATOM      7  C   UNL d   1       0.026  -0.636   0.258  0.00  0.00     0.057 A 
ATOM      8  C   UNL d   1      -0.007   0.702   0.119  0.00  0.00     0.002 A 
ATOM      9  S   UNL d   1      -1.474  -1.363   0.328  0.00  0.00    -0.093 SA
ATOM     10  C   UNL d   1       1.283   1.294   0.039  0.00  0.00    -0.027 A 
ATOM     11  C   UNL d   1      -1.326   1.238   0.083  0.00  0.00    -0.043 A 
ATOM     12  C   UNL d   1       1.655   2.730  -0.141  0.00  0.00     0.050 C 
ATOM     13  C   UNL d   1      -1.812   2.643  -0.029  0.00  0.00     0.049 C 
ATOM     14  C   UNL d   1      -2.230   0.178   0.174  0.00  0.00     0.058 A 
ENDBRANCH   1   5
BRANCH   2  15
ATOM     15  C   UNL d   1       5.882  -0.731   0.563  0.00  0.00     0.035 A 
ATOM     16  C   UNL d   1       6.699   0.401   0.673  0.00  0.00     0.031 A 
ATOM     17  C   UNL d   1       8.080   0.277   0.866  0.00  0.00     0.026 A 
ATOM     18  C   UNL d   1       8.654  -0.983   0.949  0.00  0.00     0.034 A 
ATOM     19  C   UNL d   1       7.861  -2.123   0.843  0.00  0.00     0.026 A 
ATOM     20 CL   UNL d   1      10.350  -1.135   1.191  0.00  0.00    -0.084 Cl
ATOM     21  C   UNL d   1       6.477  -1.996   0.655  0.00  0.00     0.031 A 
ENDBRANCH   2  15
TORSDOF 2
