REMARK  1 active torsions:
REMARK  status: ('A' for Active; 'I' for Inactive)
REMARK    1  A    between atoms: C_8  and  C_6 
ROOT
ATOM      1  C   UNL d   1      -1.132  -0.861   0.005  0.00  0.00     0.045 A 
ATOM      2  C   UNL d   1       0.367  -0.985  -0.054  0.00  0.00     0.257 A 
ATOM      3  N   UNL d   1       0.829   0.312  -0.199  0.00  0.00    -0.322 N 
ATOM      4  C   UNL d   1      -1.452   0.571  -0.067  0.00  0.00     0.006 A 
ATOM      5  C   UNL d   1      -0.223   1.226  -0.210  0.00  0.00     0.046 A 
ATOM      6  C   UNL d   1      -1.898  -1.960   0.057  0.00  0.00     0.029 C 
ATOM      7  O   UNL d   1       1.028  -2.003   0.002  0.00  0.00    -0.267 OA
ATOM      8  C   UNL d   1      -2.624   1.303  -0.011  0.00  0.00     0.015 A 
ATOM      9  C   UNL d   1      -0.118   2.598  -0.334  0.00  0.00     0.030 A 
ATOM     10  C   UNL d   1      -2.543   2.696  -0.127  0.00  0.00     0.001 A 
ATOM     11  C   UNL d   1      -1.302   3.336  -0.295  0.00  0.00     0.002 A 
ATOM     12  H   UNL d   1       1.809   0.539  -0.276  0.00  0.00     0.169 HD
ENDROOT
BRANCH   6  13
ATOM     13  C   UNL d   1      -3.359  -1.958   0.026  0.00  0.00    -0.034 A 
ATOM     14  C   UNL d   1      -4.029  -2.002  -1.203  0.00  0.00     0.037 A 
ATOM     15  C   UNL d   1      -5.425  -1.929  -1.247  0.00  0.00     0.056 A 
ATOM     16 CL   UNL d   1      -6.181  -1.961  -2.801  0.00  0.00    -0.083 Cl
ATOM     17  C   UNL d   1      -6.155  -1.818  -0.059  0.00  0.00     0.055 A 
ATOM     18  C   UNL d   1      -5.486  -1.795   1.169  0.00  0.00     0.026 A 
ATOM     19 CL   UNL d   1      -7.877  -1.688  -0.038  0.00  0.00    -0.083 Cl
ATOM     20  C   UNL d   1      -4.092  -1.867   1.212  0.00  0.00     0.013 A 
ENDBRANCH   6  13
TORSDOF 1
