REMARK  4 active torsions:
REMARK  status: ('A' for Active; 'I' for Inactive)
REMARK    1  A    between atoms: S_16  and  C_2 
REMARK    2  A    between atoms: C_7  and  C_4 
REMARK       I    between atoms: N_15  and  C_7 
REMARK    3  A    between atoms: C_8  and  C_14 
REMARK    4  A    between atoms: N_11  and  N_15 
ROOT
ATOM      1  C   UNL d   1       0.205   0.872   0.175  0.00  0.00     0.002 C 
ATOM      2  C   UNL d   1       1.560   1.103  -0.041  0.00  0.00     0.051 C 
ATOM      3  C   UNL d   1      -0.098  -0.533  -0.065  0.00  0.00    -0.025 C 
ATOM      4  C   UNL d   1       1.040  -1.320  -0.175  0.00  0.00     0.082 C 
ATOM      5  S   UNL d   1       2.436  -0.348  -0.286  0.00  0.00    -0.076 SA
ATOM      6  C   UNL d   1      -0.892   1.849   0.611  0.00  0.00     0.085 C 
ATOM      7  S   UNL d   1      -1.019   3.321  -0.476  0.00  0.00    -0.142 SA
ATOM      8  S   UNL d   1      -0.539   2.413   2.342  0.00  0.00    -0.142 SA
ATOM      9  C   UNL d   1      -1.509  -1.050  -0.081  0.00  0.00     0.041 C 
ATOM     10  C   UNL d   1      -2.307   1.194   0.662  0.00  0.00     0.037 C 
ATOM     11  C   UNL d   1      -2.497   0.079  -0.366  0.00  0.00     0.007 C 
ATOM     12  C   UNL d   1      -1.386   4.503   0.847  0.00  0.00     0.086 C 
ATOM     13  C   UNL d   1      -0.474   4.189   2.015  0.00  0.00     0.086 C 
ENDROOT
BRANCH   4  14
ATOM     14  C   UNL d   1       1.111  -2.785  -0.193  0.00  0.00     0.277 C 
ATOM     15  N   UNL d   1       2.387  -3.334  -0.136  0.00  0.00    -0.266 N 
ATOM     16  H   UNL d   1       3.197  -2.727  -0.078  0.00  0.00     0.190 HD
ATOM     17  O   UNL d   1       0.098  -3.488  -0.212  0.00  0.00    -0.265 OA
BRANCH  15  18
ATOM     18  N   UNL d   1       2.521  -4.686   0.023  0.00  0.00    -0.308 N 
ATOM     19  C   UNL d   1       3.721  -5.158   0.124  0.00  0.00     0.126 C 
ATOM     20  HN  UNL d   1       1.706  -5.298   0.061  1.00  0.00     0.186 HD
BRANCH  19  21
ATOM     21  C   UNL d   1       3.910  -6.574   0.329  0.00  0.00     0.021 A 
ATOM     22  S   UNL d   1       5.489  -7.225   0.372  0.00  0.00    -0.101 SA
ATOM     23  C   UNL d   1       4.895  -8.810   0.628  0.00  0.00     0.050 A 
ATOM     24  C   UNL d   1       3.520  -8.844   0.689  0.00  0.00     0.008 A 
ATOM     25  C   UNL d   1       2.950  -7.550   0.514  0.00  0.00     0.021 A 
ENDBRANCH  19  21
ENDBRANCH  15  18
ENDBRANCH   4  14
BRANCH   2  26
ATOM     26  S   UNL d   1       2.441   2.631  -0.018  0.00  0.00    -0.126 SA
ATOM     27  C   UNL d   1       2.485   3.000  -1.792  0.00  0.00     0.096 C 
ENDBRANCH   2  26
TORSDOF 4
