REMARK  5 active torsions:
REMARK  status: ('A' for Active; 'I' for Inactive)
REMARK    1  A    between atoms: N_2  and  S_1 
REMARK    2  A    between atoms: C_10  and  S_1 
REMARK    3  A    between atoms: S_4  and  N_2 
REMARK    4  A    between atoms: C_7  and  S_4 
REMARK    5  A    between atoms: C_5  and  C_6 
ROOT
ATOM      1  S   UNL d   1       0.683   2.793  -0.371  0.00  0.00    -0.070 SA
ATOM      2  C   UNL d   1       0.283   4.080  -1.587  0.00  0.00     0.109 C 
ENDROOT
BRANCH   1   3
ATOM      3  N   UNL d   1       0.562   1.451  -1.251  0.00  0.00    -0.259 N 
ATOM      4  HN  UNL d   1       1.251   0.706  -1.145  1.00  0.00     0.186 HD
BRANCH   3   5
ATOM      5  S   UNL d   1      -0.723   1.277  -2.366  0.00  0.00     0.268 S 
ATOM      6  O   UNL d   1      -0.228   1.613  -3.687  0.00  0.00    -0.200 OA
ATOM      7  O   UNL d   1      -1.936   1.891  -1.852  0.00  0.00    -0.200 OA
BRANCH   5   8
ATOM      8  C   UNL d   1      -0.996  -0.483  -2.338  0.00  0.00     0.080 A 
ATOM      9  C   UNL d   1      -2.024  -1.004  -1.547  0.00  0.00     0.026 A 
ATOM     10  C   UNL d   1      -2.341  -2.361  -1.631  0.00  0.00     0.008 A 
ATOM     11  C   UNL d   1      -1.639  -3.201  -2.506  0.00  0.00    -0.062 A 
ATOM     12  C   UNL d   1      -0.603  -2.669  -3.284  0.00  0.00     0.008 A 
ATOM     13  C   UNL d   1      -2.031  -4.646  -2.624  0.00  0.00     0.048 C 
ATOM     14  C   UNL d   1      -0.282  -1.311  -3.209  0.00  0.00     0.026 A 
ENDBRANCH   5   8
ENDBRANCH   3   5
ENDBRANCH   1   3
BRANCH   1  15
ATOM     15  C   UNL d   1       2.474   2.889  -0.469  0.00  0.00     0.078 A 
ATOM     16  N   UNL d   1       2.912   4.167  -0.522  0.00  0.00    -0.359 N 
ATOM     17  C   UNL d   1       4.250   4.365  -0.538  0.00  0.00     0.105 A 
ATOM     18  HN  UNL d   1       2.259   4.950  -0.549  1.00  0.00     0.166 HD
ATOM     19  C   UNL d   1       5.186   3.343  -0.493  0.00  0.00     0.063 A 
ATOM     20  C   UNL d   1       4.701   2.031  -0.432  0.00  0.00     0.020 A 
ATOM     21  C   UNL d   1       3.326   1.798  -0.408  0.00  0.00     0.038 A 
BRANCH  19  22
ATOM     22  C   UNL d   1       6.654   3.640  -0.491  0.00  0.00     0.418 C 
ATOM     23  F   UNL d   1       6.944   4.970  -0.528  0.00  0.00    -0.166 F 
ATOM     24  F   UNL d   1       7.279   3.154   0.618  0.00  0.00    -0.166 F 
ATOM     25  F   UNL d   1       7.300   3.087  -1.554  0.00  0.00    -0.166 F 
ENDBRANCH  19  22
ENDBRANCH   1  15
TORSDOF 5
