REMARK  3 active torsions:
REMARK  status: ('A' for Active; 'I' for Inactive)
REMARK    1  A    between atoms: C_6  and  C_1 
REMARK    2  A    between atoms: C_8  and  C_2 
REMARK       I    between atoms: N_10  and  C_6 
REMARK    3  A    between atoms: N_14  and  N_10 
ROOT
ATOM      1  C   UNL d   1       0.085  -1.365   0.024  0.00  0.00     0.094 A 
ATOM      2  C   UNL d   1      -1.238  -0.963  -0.025  0.00  0.00     0.126 A 
ATOM      3  O   UNL d   1      -1.281   0.398  -0.112  0.00  0.00    -0.236 OA
ATOM      4  N   UNL d   1      -0.004   0.912  -0.131  0.00  0.00    -0.264 N 
ATOM      5  HN  UNL d   1       0.262   1.895  -0.199  1.00  0.00     0.194 HD
ATOM      6  C   UNL d   1       0.815  -0.140  -0.044  0.00  0.00     0.047 A 
ATOM      7  C   UNL d   1       2.279   0.094   0.009  0.00  0.00     0.071 C 
ENDROOT
BRANCH   1   8
ATOM      8  C   UNL d   1       0.554  -2.725   0.161  0.00  0.00     0.270 C 
ATOM      9  O   UNL d   1      -0.060  -3.588   0.786  0.00  0.00    -0.266 OA
ATOM     10  N   UNL d   1       1.744  -3.017  -0.505  0.00  0.00    -0.290 N 
ATOM     11  H   UNL d   1       2.094  -2.374  -1.211  0.00  0.00     0.183 HD
BRANCH  10  12
ATOM     12  N   UNL d   1       2.200  -4.360  -0.556  0.00  0.00    -0.247 NA
ATOM     13  H   UNL d   1       1.424  -4.955  -0.228  0.00  0.00     0.143 HD
ATOM     14  H   UNL d   1       2.914  -4.478   0.169  0.00  0.00     0.143 HD
ENDBRANCH  10  12
ENDBRANCH   1   8
BRANCH   2  15
ATOM     15  C   UNL d   1      -2.547  -1.612  -0.060  0.00  0.00     0.001 A 
ATOM     16  C   UNL d   1      -3.668  -0.990   0.512  0.00  0.00     0.016 A 
ATOM     17  C   UNL d   1      -4.933  -1.587   0.447  0.00  0.00     0.024 A 
ATOM     18  C   UNL d   1      -5.087  -2.813  -0.192  0.00  0.00     0.034 A 
ATOM     19  C   UNL d   1      -3.988  -3.448  -0.764  0.00  0.00     0.024 A 
ATOM     20 CL   UNL d   1      -6.642  -3.541  -0.288  0.00  0.00    -0.084 Cl
ATOM     21  C   UNL d   1      -2.726  -2.849  -0.699  0.00  0.00     0.016 A 
ENDBRANCH   2  15
TORSDOF 3
