REMARK  9 active torsions:
REMARK  status: ('A' for Active; 'I' for Inactive)
REMARK    1  A    between atoms: C_6  and  S_1 
REMARK    2  A    between atoms: C_10  and  S_1 
REMARK    3  A    between atoms: C_2  and  C_7 
REMARK    4  A    between atoms: C_4  and  C_3 
REMARK       I    between atoms: N_9  and  C_4 
REMARK    5  A    between atoms: C_5  and  S_21 
REMARK    6  A    between atoms: C_22  and  N_9 
REMARK    7  A    between atoms: C_24  and  C_10 
REMARK    8  A    between atoms: S_21  and  C_24 
REMARK    9  A    between atoms: C_23  and  C_22 
ROOT
ATOM      1  C   UNL d   1       0.287   5.449  -3.208  0.00  0.00     0.065 A 
ATOM      2  C   UNL d   1       1.353   4.556  -3.286  0.00  0.00     0.085 A 
ATOM      3  N   UNL d   1       2.609   4.960  -3.650  0.00  0.00    -0.360 N 
ATOM      4  HN  UNL d   1       3.372   4.286  -3.708  1.00  0.00     0.166 HD
ATOM      5  C   UNL d   1       0.571   6.804  -3.486  0.00  0.00     0.021 A 
ATOM      6  C   UNL d   1       2.825   6.262  -3.930  0.00  0.00     0.089 A 
ATOM      7  C   UNL d   1       1.845   7.221  -3.847  0.00  0.00     0.018 A 
ENDROOT
BRANCH   2   8
ATOM      8  S   UNL d   1       1.248   2.805  -2.953  0.00  0.00    -0.110 SA
BRANCH   8   9
ATOM      9  C   UNL d   1       3.032   2.382  -2.722  0.00  0.00     0.096 C 
BRANCH   9  10
ATOM     10  C   UNL d   1       3.578   3.002  -1.449  0.00  0.00     0.156 C 
BRANCH  10  11
ATOM     11  S   UNL d   1       5.253   2.535  -1.103  0.00  0.00     0.176 S 
ATOM     12  O   UNL d   1       5.573   3.019   0.227  0.00  0.00    -0.223 OA
ATOM     13  O   UNL d   1       5.413   1.127  -1.420  0.00  0.00    -0.223 OA
BRANCH  11  14
ATOM     14  C   UNL d   1       6.289   3.462  -2.223  0.00  0.00     0.060 A 
ATOM     15  C   UNL d   1       6.615   4.792  -1.919  0.00  0.00     0.039 A 
ATOM     16  C   UNL d   1       7.560   5.482  -2.698  0.00  0.00     0.049 A 
ATOM     17  C   UNL d   1       8.171   4.816  -3.773  0.00  0.00     0.016 A 
ATOM     18  C   UNL d   1       7.848   3.489  -4.067  0.00  0.00     0.002 A 
ATOM     19  C   UNL d   1       6.910   2.808  -3.289  0.00  0.00     0.023 A 
BRANCH  16  20
ATOM     20  C   UNL d   1       7.962   6.903  -2.377  0.00  0.00     0.417 C 
ATOM     21  F   UNL d   1       7.212   7.471  -1.393  0.00  0.00    -0.166 F 
ATOM     22  F   UNL d   1       9.257   7.002  -1.971  0.00  0.00    -0.166 F 
ATOM     23  F   UNL d   1       7.843   7.730  -3.454  0.00  0.00    -0.166 F 
ENDBRANCH  16  20
ENDBRANCH  11  14
ENDBRANCH  10  11
ENDBRANCH   9  10
ENDBRANCH   8   9
ENDBRANCH   2   8
BRANCH   1  24
ATOM     24  C   UNL d   1      -1.145   5.178  -2.910  0.00  0.00     0.254 C 
ATOM     25  N   UNL d   1      -1.561   4.097  -2.157  0.00  0.00    -0.351 N 
ATOM     26  H   UNL d   1      -0.964   3.309  -1.928  0.00  0.00     0.163 HD
ATOM     27  O   UNL d   1      -1.968   5.999  -3.324  0.00  0.00    -0.268 OA
BRANCH  25  28
ATOM     28  C   UNL d   1      -2.990   3.997  -1.911  0.00  0.00     0.179 C 
BRANCH  28  29
ATOM     29  C   UNL d   1      -3.482   2.882  -1.018  0.00  0.00     0.026 A 
ATOM     30  N   UNL d   1      -2.776   1.727  -0.933  0.00  0.00    -0.368 N 
ATOM     31  C   UNL d   1      -3.346   0.715  -0.232  0.00  0.00     0.088 A 
ATOM     32  HN  UNL d   1      -1.862   1.625  -1.374  1.00  0.00     0.165 HD
ATOM     33  C   UNL d   1      -4.583   0.791   0.392  0.00  0.00     0.017 A 
ATOM     34  C   UNL d   1      -5.288   1.982   0.303  0.00  0.00     0.003 A 
ATOM     35  C   UNL d   1      -4.735   3.038  -0.412  0.00  0.00     0.027 A 
ENDBRANCH  28  29
ENDBRANCH  25  28
ENDBRANCH   1  24
TORSDOF 9
