REMARK  3 active torsions:
REMARK  status: ('A' for Active; 'I' for Inactive)
REMARK    1  A    between atoms: C_2  and  N_1 
REMARK    2  A    between atoms: S_5  and  C_3 
REMARK    3  A    between atoms: C_12  and  S_5 
ROOT
ATOM      1  C   UNL d   1      -0.993   1.046  -1.121  0.00  0.00     0.121 A 
ATOM      2  C   UNL d   1      -0.699   1.593   0.137  0.00  0.00     0.038 A 
ATOM      3  N   UNL d   1       1.986   3.137  -4.327  0.00  0.00    -0.191 NA
ATOM      4  C   UNL d   1       1.407   2.810  -3.380  0.00  0.00     0.099 C 
ATOM      5  C   UNL d   1      -0.299   1.422  -2.285  0.00  0.00     0.060 A 
ATOM      6  C   UNL d   1       0.282   2.596   0.186  0.00  0.00     0.023 A 
ATOM      7  C   UNL d   1       0.691   2.402  -2.204  0.00  0.00     0.047 A 
ATOM      8  C   UNL d   1       0.967   2.998  -0.969  0.00  0.00     0.024 A 
ENDROOT
BRANCH   1   9
ATOM      9  N   UNL d   1      -2.075   0.097  -1.288  0.00  0.00    -0.114 N 
ATOM     10  O   UNL d   1      -3.223   0.494  -1.051  0.00  0.00    -0.532 OA
ATOM     11  O   UNL d   1      -1.775  -1.019  -1.733  0.00  0.00    -0.532 OA
ENDBRANCH   1   9
BRANCH   2  12
ATOM     12  S   UNL d   1      -1.536   1.172   1.656  0.00  0.00    -0.088 SA
BRANCH  12  13
ATOM     13  C   UNL d   1      -0.432  -0.014   2.407  0.00  0.00     0.005 A 
ATOM     14  C   UNL d   1       0.637   0.405   3.205  0.00  0.00     0.019 A 
ATOM     15  C   UNL d   1       1.409  -0.530   3.906  0.00  0.00     0.008 A 
ATOM     16  C   UNL d   1       1.118  -1.897   3.827  0.00  0.00    -0.062 A 
ATOM     17  C   UNL d   1       0.058  -2.315   3.014  0.00  0.00     0.008 A 
ATOM     18  C   UNL d   1       1.915  -2.887   4.627  0.00  0.00     0.048 C 
ATOM     19  C   UNL d   1      -0.712  -1.380   2.311  0.00  0.00     0.019 A 
ENDBRANCH  12  13
ENDBRANCH   2  12
TORSDOF 3
