REMARK  5 active torsions:
REMARK  status: ('A' for Active; 'I' for Inactive)
REMARK    1  A    between atoms: S_12  and  C_2 
REMARK    2  A    between atoms: C_9  and  C_3 
REMARK    3  A    between atoms: C_7  and  C_9 
REMARK    4  A    between atoms: C_8  and  C_13 
REMARK    5  A    between atoms: C_13  and  S_12 
ROOT
ATOM      1  C   UNL d   1       0.822   0.393  -0.072  0.00  0.00     0.084 A 
ATOM      2  C   UNL d   1      -0.048   1.468   0.095  0.00  0.00     0.091 A 
ATOM      3  C   UNL d   1      -1.098  -1.119  -0.021  0.00  0.00    -0.024 A 
ATOM      4  N   UNL d   1      -1.390   1.305   0.137  0.00  0.00    -0.353 N 
ATOM      5  HN  UNL d   1      -2.008   2.112   0.221  1.00  0.00     0.166 HD
ATOM      6  C   UNL d   1       0.298  -0.923  -0.169  0.00  0.00    -0.030 A 
ATOM      7  C   UNL d   1      -1.903   0.039   0.066  0.00  0.00     0.013 A 
ATOM      8  C   UNL d   1       2.237   0.604  -0.125  0.00  0.00     0.103 C 
ATOM      9  N   UNL d   1       3.394   0.728  -0.156  0.00  0.00    -0.191 NA
ATOM     10  C   UNL d   1       1.262  -2.068  -0.394  0.00  0.00     0.050 C 
ATOM     11  C   UNL d   1      -3.409  -0.003   0.044  0.00  0.00     0.068 C 
ENDROOT
BRANCH   2  12
ATOM     12  S   UNL d   1       0.597   3.146   0.161  0.00  0.00    -0.106 SA
BRANCH  12  13
ATOM     13  C   UNL d   1      -0.555   3.979   1.301  0.00  0.00     0.124 C 
BRANCH  13  14
ATOM     14  C   UNL d   1      -0.087   5.388   1.608  0.00  0.00     0.012 A 
ATOM     15  C   UNL d   1       0.641   5.646   2.775  0.00  0.00     0.125 A 
ATOM     16  F   UNL d   1       0.927   4.649   3.624  0.00  0.00    -0.205 F 
ATOM     17  C   UNL d   1       1.089   6.932   3.103  0.00  0.00     0.043 A 
ATOM     18  C   UNL d   1       0.824   7.996   2.248  0.00  0.00     0.005 A 
ATOM     19  C   UNL d   1       0.125   7.763   1.065  0.00  0.00     0.024 A 
ATOM     20  C   UNL d   1      -0.324   6.472   0.744  0.00  0.00     0.044 A 
ATOM     21 CL   UNL d   1      -1.170   6.285  -0.750  0.00  0.00    -0.084 Cl
ENDBRANCH  13  14
ENDBRANCH  12  13
ENDBRANCH   2  12
BRANCH   3  22
ATOM     22  C   UNL d   1      -1.705  -2.517   0.059  0.00  0.00     0.084 C 
BRANCH  22  23
ATOM     23  C   UNL d   1      -2.305  -3.129  -1.193  0.00  0.00     0.006 A 
ATOM     24  C   UNL d   1      -2.126  -2.569  -2.464  0.00  0.00     0.124 A 
ATOM     25  F   UNL d   1      -1.312  -1.522  -2.645  0.00  0.00    -0.205 F 
ATOM     26  C   UNL d   1      -2.792  -3.053  -3.590  0.00  0.00     0.043 A 
ATOM     27  C   UNL d   1      -3.636  -4.150  -3.482  0.00  0.00     0.005 A 
ATOM     28  C   UNL d   1      -3.773  -4.786  -2.252  0.00  0.00     0.024 A 
ATOM     29  C   UNL d   1      -3.109  -4.286  -1.121  0.00  0.00     0.043 A 
ATOM     30 CL   UNL d   1      -3.337  -5.149   0.363  0.00  0.00    -0.084 Cl
ENDBRANCH  22  23
ENDBRANCH   3  22
TORSDOF 5
