REMARK  3 active torsions:
REMARK  status: ('A' for Active; 'I' for Inactive)
REMARK    1  A    between atoms: N_8  and  C_1 
REMARK    2  A    between atoms: C_11  and  N_4 
REMARK    3  A    between atoms: N_9  and  N_8 
ROOT
ATOM      1  C   UNL d   1      -0.960   1.170   0.046  0.00  0.00     0.095 A 
ATOM      2  C   UNL d   1      -1.594   0.012  -0.194  0.00  0.00     0.133 A 
ATOM      3  C   UNL d   1      -0.896  -1.312  -0.203  0.00  0.00     0.291 A 
ATOM      4  N   UNL d   1       0.486  -1.278   0.026  0.00  0.00    -0.220 N 
ATOM      5  N   UNL d   1       1.165  -0.106   0.284  0.00  0.00    -0.300 N 
ATOM      6  HN  UNL d   1       2.168  -0.109   0.470  1.00  0.00     0.186 HD
ATOM      7  C   UNL d   1       0.491   0.996   0.283  0.00  0.00     0.141 A 
ATOM      8  O   UNL d   1      -1.569  -2.331  -0.372  0.00  0.00    -0.264 OA
ATOM      9 CL   UNL d   1      -3.319  -0.037  -0.423  0.00  0.00    -0.076 Cl
ENDROOT
BRANCH   1  10
ATOM     10  N   UNL d   1      -1.481   2.466   0.083  0.00  0.00    -0.288 N 
ATOM     11  C   UNL d   1      -1.100   3.487   1.049  0.00  0.00     0.178 C 
BRANCH  10  12
ATOM     12  N   UNL d   1      -2.191   2.960  -1.018  0.00  0.00    -0.277 N 
ATOM     13  C   UNL d   1      -3.350   3.696  -0.961  0.00  0.00     0.116 A 
ATOM     14  C   UNL d   1      -3.733   4.018  -2.245  0.00  0.00     0.021 A 
ATOM     15  C   UNL d   1      -2.785   3.442  -3.121  0.00  0.00     0.021 A 
ATOM     16  C   UNL d   1      -1.837   2.817  -2.340  0.00  0.00     0.116 A 
ENDBRANCH  10  12
ENDBRANCH   1  10
BRANCH   4  17
ATOM     17  C   UNL d   1       1.328  -2.448   0.041  0.00  0.00     0.060 A 
ATOM     18  C   UNL d   1       0.917  -3.682  -0.484  0.00  0.00     0.031 A 
ATOM     19  C   UNL d   1       1.741  -4.813  -0.428  0.00  0.00     0.002 A 
ATOM     20  C   UNL d   1       3.002  -4.733   0.152  0.00  0.00     0.000 A 
ATOM     21  C   UNL d   1       3.446  -3.518   0.658  0.00  0.00     0.002 A 
ATOM     22  C   UNL d   1       2.622  -2.387   0.593  0.00  0.00     0.031 A 
ENDBRANCH   4  17
TORSDOF 3
