REMARK  5 active torsions:
REMARK  status: ('A' for Active; 'I' for Inactive)
REMARK    1  A    between atoms: C_5  and  C_1 
REMARK       I    between atoms: N_13  and  C_5 
REMARK    2  A    between atoms: C_14  and  C_6 
REMARK    3  A    between atoms: C_7  and  O_9 
REMARK    4  A    between atoms: O_9  and  C_14 
REMARK    5  A    between atoms: N_15  and  N_13 
ROOT
ATOM      1  C   UNL d   1       0.123  -1.123  -0.165  0.00  0.00     0.126 A 
ATOM      2  N   UNL d   1      -0.135  -0.992   1.149  0.00  0.00    -0.256 N 
ATOM      3  HN  UNL d   1       0.084  -1.661   1.887  1.00  0.00     0.195 HD
ATOM      4  C   UNL d   1      -0.346   0.010  -0.882  0.00  0.00     0.074 A 
ATOM      5  C   UNL d   1      -0.864   0.841   0.082  0.00  0.00     0.102 A 
ATOM      6  O   UNL d   1      -0.758   0.231   1.293  0.00  0.00    -0.239 OA
ENDROOT
BRANCH   5   7
ATOM      7  C   UNL d   1      -1.410   2.222   0.103  0.00  0.00     0.242 C 
BRANCH   7   8
ATOM      8  O   UNL d   1      -2.830   2.129   0.028  0.00  0.00    -0.341 OA
BRANCH   8   9
ATOM      9  C   UNL d   1      -3.532   3.272  -0.284  0.00  0.00     0.112 A 
ATOM     10  C   UNL d   1      -4.656   3.083  -1.116  0.00  0.00     0.069 A 
ATOM     11 CL   UNL d   1      -5.039   1.526  -1.771  0.00  0.00    -0.081 Cl
ATOM     12  C   UNL d   1      -5.504   4.146  -1.453  0.00  0.00     0.027 A 
ATOM     13  C   UNL d   1      -5.251   5.420  -0.964  0.00  0.00     0.003 A 
ATOM     14  C   UNL d   1      -4.154   5.628  -0.136  0.00  0.00     0.027 A 
ATOM     15  C   UNL d   1      -3.302   4.566   0.215  0.00  0.00     0.069 A 
ATOM     16 CL   UNL d   1      -2.053   4.988   1.333  0.00  0.00    -0.081 Cl
ENDBRANCH   8   9
ENDBRANCH   7   8
ENDBRANCH   5   7
BRANCH   1  17
ATOM     17  C   UNL d   1       0.826  -2.293  -0.689  0.00  0.00     0.284 C 
ATOM     18  O   UNL d   1       1.050  -2.462  -1.888  0.00  0.00    -0.265 OA
ATOM     19  N   UNL d   1       1.239  -3.192   0.293  0.00  0.00    -0.288 N 
ATOM     20  H   UNL d   1       1.099  -2.929   1.270  0.00  0.00     0.183 HD
BRANCH  19  21
ATOM     21  N   UNL d   1       2.020  -4.324  -0.035  0.00  0.00    -0.247 NA
ATOM     22  H   UNL d   1       2.326  -4.212  -1.011  0.00  0.00     0.143 HD
ATOM     23  H   UNL d   1       1.398  -5.137  -0.057  0.00  0.00     0.143 HD
ENDBRANCH  19  21
ENDBRANCH   1  17
TORSDOF 5
