REMARK  7 active torsions:
REMARK  status: ('A' for Active; 'I' for Inactive)
REMARK    1  A    between atoms: O_9  and  N_1 
REMARK    2  A    between atoms: C_8  and  C_3 
REMARK    3  A    between atoms: N_20  and  C_3 
REMARK    4  A    between atoms: C_4  and  C_6 
REMARK    5  A    between atoms: C_5  and  C_4 
REMARK    6  A    between atoms: C_6  and  O_9 
REMARK    7  A    between atoms: C_10  and  C_11 
ROOT
ATOM      1  N   UNL d   1       0.830  -0.223   0.408  0.00  0.00    -0.246 N 
ATOM      2  HN  UNL d   1       1.784  -0.416   0.714  1.00  0.00     0.196 HD
ATOM      3  C   UNL d   1       0.151  -0.986  -0.397  0.00  0.00     0.109 C 
ENDROOT
BRANCH   3   4
ATOM      4  C   UNL d   1       0.847  -2.165  -1.015  0.00  0.00     0.004 A 
ATOM      5  C   UNL d   1       1.914  -2.793  -0.377  0.00  0.00     0.015 A 
ATOM      6  C   UNL d   1       2.592  -3.852  -1.006  0.00  0.00     0.009 A 
ATOM      7  C   UNL d   1       2.235  -4.295  -2.297  0.00  0.00    -0.051 A 
ATOM      8  C   UNL d   1       1.143  -3.657  -2.910  0.00  0.00     0.009 A 
ATOM      9  C   UNL d   1       0.458  -2.608  -2.281  0.00  0.00     0.015 A 
BRANCH   7  10
ATOM     10  C   UNL d   1       3.046  -5.400  -3.005  0.00  0.00    -0.024 C 
ATOM     11  C   UNL d   1       2.540  -5.722  -4.431  0.00  0.00     0.019 C 
ATOM     12  C   UNL d   1       4.521  -4.959  -3.141  0.00  0.00     0.019 C 
ATOM     13  C   UNL d   1       2.991  -6.713  -2.198  0.00  0.00     0.019 C 
ENDBRANCH   7  10
ENDBRANCH   3   4
BRANCH   3  14
ATOM     14  N   UNL d   1      -1.170  -0.762  -0.721  0.00  0.00    -0.286 NA
ATOM     15  H   UNL d   1      -1.617  -0.115  -0.079  0.00  0.00     0.125 HD
ATOM     16  H   UNL d   1      -1.725  -1.598  -0.865  0.00  0.00     0.125 HD
ENDBRANCH   3  14
BRANCH   1  17
ATOM     17  O   UNL d   1       0.078   0.908   0.808  0.00  0.00    -0.198 OA
BRANCH  17  18
ATOM     18  C   UNL d   1       0.833   1.703   1.636  0.00  0.00     0.285 C 
ATOM     19  O   UNL d   1       1.906   1.407   2.157  0.00  0.00    -0.263 OA
BRANCH  18  20
ATOM     20  C   UNL d   1       0.205   3.066   1.791  0.00  0.00     0.159 C 
BRANCH  20  21
ATOM     21  C   UNL d   1      -1.077   3.009   2.563  0.00  0.00    -0.008 A 
ATOM     22  S   UNL d   1      -2.582   3.035   1.744  0.00  0.00    -0.106 SA
ATOM     23  C   UNL d   1      -3.456   3.002   3.213  0.00  0.00     0.050 A 
ATOM     24  C   UNL d   1      -2.623   2.973   4.309  0.00  0.00     0.008 A 
ATOM     25  C   UNL d   1      -1.248   2.982   3.934  0.00  0.00     0.015 A 
ENDBRANCH  20  21
ENDBRANCH  18  20
ENDBRANCH  17  18
ENDBRANCH   1  17
TORSDOF 7
