REMARK  6 active torsions:
REMARK  status: ('A' for Active; 'I' for Inactive)
REMARK    1  A    between atoms: C_7  and  N_1 
REMARK    2  A    between atoms: S_8  and  C_2 
REMARK    3  A    between atoms: C_14  and  S_8 
REMARK    4  A    between atoms: C_11  and  C_14 
REMARK    5  A    between atoms: C_12  and  C_11 
REMARK    6  A    between atoms: O_23  and  C_20 
ROOT
ATOM      1  N   UNL d   1      -0.153  -1.316  -0.086  0.00  0.00    -0.218 N 
ATOM      2  C   UNL d   1       1.074  -0.689  -0.278  0.00  0.00     0.177 A 
ATOM      3  N   UNL d   1       0.921   0.613  -0.154  0.00  0.00    -0.264 N 
ATOM      4  HN  UNL d   1       1.648   1.326  -0.220  1.00  0.00     0.186 HD
ATOM      5  N   UNL d   1      -1.070  -0.333   0.111  0.00  0.00     0.001 NA
ATOM      6  N   UNL d   1      -0.406   0.811   0.080  0.00  0.00    -0.006 NA
ENDROOT
BRANCH   2   7
ATOM      7  S   UNL d   1       2.550  -1.468  -0.752  0.00  0.00    -0.084 SA
BRANCH   7   8
ATOM      8  C   UNL d   1       3.447  -0.093  -1.536  0.00  0.00     0.166 C 
BRANCH   8   9
ATOM      9  C   UNL d   1       2.815   0.359  -2.843  0.00  0.00     0.169 C 
ATOM     10  O   UNL d   1       1.825  -0.180  -3.340  0.00  0.00    -0.291 OA
BRANCH   9  11
ATOM     11  C   UNL d   1       3.444   1.507  -3.572  0.00  0.00     0.011 A 
ATOM     12  C   UNL d   1       4.662   2.082  -3.182  0.00  0.00     0.018 A 
ATOM     13  C   UNL d   1       5.198   3.164  -3.897  0.00  0.00     0.037 A 
ATOM     14  C   UNL d   1       4.521   3.681  -5.003  0.00  0.00     0.068 A 
ATOM     15  C   UNL d   1       3.329   3.087  -5.416  0.00  0.00     0.037 A 
ATOM     16  C   UNL d   1       2.789   2.014  -4.703  0.00  0.00     0.018 A 
BRANCH  14  17
ATOM     17  O   UNL d   1       4.954   4.725  -5.770  0.00  0.00    -0.356 OA
ATOM     18  C   UNL d   1       5.685   5.731  -5.076  0.00  0.00     0.210 C 
ENDBRANCH  14  17
ENDBRANCH   9  11
ENDBRANCH   8   9
ENDBRANCH   7   8
ENDBRANCH   2   7
BRANCH   1  19
ATOM     19  C   UNL d   1      -0.513  -2.683   0.087  0.00  0.00     0.062 A 
ATOM     20  C   UNL d   1      -1.784  -3.175  -0.282  0.00  0.00    -0.033 A 
ATOM     21  C   UNL d   1      -2.121  -4.504   0.060  0.00  0.00     0.015 A 
ATOM     22  C   UNL d   1      -2.814  -2.431  -1.092  0.00  0.00     0.050 C 
ATOM     23  C   UNL d   1      -1.230  -5.344   0.736  0.00  0.00    -0.061 A 
ATOM     24  C   UNL d   1       0.036  -4.858   1.056  0.00  0.00     0.009 A 
ATOM     25  C   UNL d   1      -1.650  -6.731   1.122  0.00  0.00     0.048 C 
ATOM     26  C   UNL d   1       0.391  -3.543   0.739  0.00  0.00     0.032 A 
ENDBRANCH   1  19
TORSDOF 6
