REMARK  3 active torsions:
REMARK  status: ('A' for Active; 'I' for Inactive)
REMARK    1  A    between atoms: N_8  and  C_3 
REMARK    2  A    between atoms: C_14  and  C_4 
REMARK    3  A    between atoms: C_9  and  N_8 
ROOT
ATOM      1  N   UNL d   1      -0.741  -3.812   1.778  0.00  0.00    -0.321 N 
ATOM      2  HN  UNL d   1      -0.199  -4.670   1.681  1.00  0.00     0.169 HD
ATOM      3  C   UNL d   1      -0.585  -2.732   1.049  0.00  0.00     0.163 A 
ATOM      4  C   UNL d   1      -1.766  -3.605   2.709  0.00  0.00     0.123 A 
ATOM      5  N   UNL d   1      -2.357  -2.404   2.744  0.00  0.00    -0.309 N 
ATOM      6  HN  UNL d   1      -3.091  -2.109   3.387  1.00  0.00     0.176 HD
ATOM      7  S   UNL d   1      -1.666  -1.484   1.541  0.00  0.00     0.024 SA
ENDROOT
BRANCH   3   8
ATOM      8  N   UNL d   1       0.312  -2.570   0.046  0.00  0.00    -0.364 N 
ATOM      9  H   UNL d   1       0.408  -1.640  -0.350  0.00  0.00     0.162 HD
BRANCH   8  10
ATOM     10  C   UNL d   1       1.507  -3.406   0.025  0.00  0.00     0.092 C 
ATOM     11  C   UNL d   1       2.438  -3.159   1.238  0.00  0.00     0.064 C 
ATOM     12  C   UNL d   1       3.786  -3.450   0.658  0.00  0.00    -0.050 A 
ATOM     13  C   UNL d   1       4.970  -3.688   1.338  0.00  0.00     0.007 A 
ATOM     14  C   UNL d   1       3.749  -3.414  -0.737  0.00  0.00    -0.050 A 
ATOM     15  C   UNL d   1       6.132  -3.898   0.587  0.00  0.00     0.001 A 
ATOM     16  C   UNL d   1       6.096  -3.853  -0.815  0.00  0.00     0.001 A 
ATOM     17  C   UNL d   1       4.899  -3.602  -1.487  0.00  0.00     0.007 A 
ATOM     18  C   UNL d   1       2.368  -3.113  -1.229  0.00  0.00     0.064 C 
ENDBRANCH   8  10
ENDBRANCH   3   8
BRANCH   4  19
ATOM     19  C   UNL d   1      -2.154  -4.693   3.614  0.00  0.00     0.009 A 
ATOM     20  C   UNL d   1      -1.539  -5.951   3.511  0.00  0.00     0.015 A 
ATOM     21  C   UNL d   1      -1.885  -6.989   4.380  0.00  0.00     0.001 A 
ATOM     22  C   UNL d   1      -2.852  -6.785   5.361  0.00  0.00     0.000 A 
ATOM     23  C   UNL d   1      -3.482  -5.546   5.468  0.00  0.00     0.001 A 
ATOM     24  C   UNL d   1      -3.138  -4.508   4.598  0.00  0.00     0.015 A 
ENDBRANCH   4  19
TORSDOF 3
