REMARK  4 active torsions:
REMARK  status: ('A' for Active; 'I' for Inactive)
REMARK    1  A    between atoms: C_2  and  S_1 
REMARK    2  A    between atoms: N_10  and  S_1 
REMARK    3  A    between atoms: C_15  and  N_10 
REMARK    4  A    between atoms: C_11  and  C_15 
ROOT
ATOM      1  S   UNL d   1       0.884   0.054  -0.133  0.00  0.00     0.261 S 
ATOM      2  O   UNL d   1       0.355   0.070   1.212  0.00  0.00    -0.200 OA
ATOM      3  O   UNL d   1       2.312   0.113  -0.378  0.00  0.00    -0.200 OA
ENDROOT
BRANCH   1   4
ATOM      4  C   UNL d   1       0.134   1.365  -1.007  0.00  0.00     0.110 A 
ATOM      5  C   UNL d   1      -1.260   1.516  -1.087  0.00  0.00     0.108 A 
ATOM      6  C   UNL d   1      -1.860   2.659  -1.768  0.00  0.00     0.086 A 
ATOM      7  N   UNL d   1      -2.257   0.752  -0.619  0.00  0.00    -0.238 N 
ATOM      8  N   UNL d   1      -3.190   2.552  -1.686  0.00  0.00    -0.239 N 
ATOM      9  C   UNL d   1      -1.089   3.664  -2.384  0.00  0.00     0.034 A 
ATOM     10  O   UNL d   1      -3.431   1.385  -0.982  0.00  0.00    -0.156 OA
ATOM     11  HN  UNL d   1      -3.884   3.197  -2.064  1.00  0.00     0.197 HD
ATOM     12  C   UNL d   1       0.303   3.476  -2.304  0.00  0.00     0.004 A 
ATOM     13  C   UNL d   1       0.897   2.370  -1.643  0.00  0.00     0.028 A 
ATOM     14  HN  UNL d   1      -2.168  -0.121  -0.099  1.00  0.00     0.197 HD
ENDBRANCH   1   4
BRANCH   1  15
ATOM     15  N   UNL d   1       0.295  -1.303  -0.888  0.00  0.00    -0.311 N 
ATOM     16  H   UNL d   1      -0.297  -1.905  -0.319  0.00  0.00     0.172 HD
BRANCH  15  17
ATOM     17  C   UNL d   1       1.034  -1.875  -2.004  0.00  0.00     0.178 C 
BRANCH  17  18
ATOM     18  C   UNL d   1       0.284  -3.092  -2.466  0.00  0.00     0.007 A 
ATOM     19  C   UNL d   1       0.436  -4.422  -2.089  0.00  0.00    -0.047 A 
ATOM     20  C   UNL d   1      -0.528  -5.255  -2.749  0.00  0.00     0.015 A 
ATOM     21  C   UNL d   1       1.439  -4.969  -1.123  0.00  0.00     0.049 C 
ATOM     22  C   UNL d   1      -1.353  -4.552  -3.595  0.00  0.00     0.051 A 
ATOM     23  S   UNL d   1      -0.980  -2.890  -3.613  0.00  0.00    -0.104 SA
ENDBRANCH  17  18
ENDBRANCH  15  17
ENDBRANCH   1  15
TORSDOF 4
