REMARK  5 active torsions:
REMARK  status: ('A' for Active; 'I' for Inactive)
REMARK    1  A    between atoms: C_11  and  C_3 
REMARK    2  A    between atoms: S_23  and  C_14 
REMARK       I    between atoms: N_16  and  C_19 
REMARK    3  A    between atoms: C_17  and  N_16 
REMARK    4  A    between atoms: C_19  and  C_28 
REMARK    5  A    between atoms: C_28  and  S_23 
ROOT
ATOM      1  C   UNL d   1       3.390  -1.399  -0.108  0.00  0.00     0.049 A 
ATOM      2  N   UNL d   1       3.947  -1.579   1.101  0.00  0.00    -0.336 N 
ATOM      3  HN  UNL d   1       3.505  -1.234   1.953  1.00  0.00     0.168 HD
ATOM      4  C   UNL d   1       5.113  -2.234   1.127  0.00  0.00     0.145 A 
ATOM      5  N   UNL d   1       5.763  -2.697   0.047  0.00  0.00    -0.347 N 
ATOM      6  HN  UNL d   1       6.656  -3.184   0.124  1.00  0.00     0.167 HD
ATOM      7  C   UNL d   1       3.965  -1.846  -1.277  0.00  0.00     0.047 A 
ATOM      8  C   UNL d   1       5.171  -2.486  -1.139  0.00  0.00     0.092 A 
ENDROOT
BRANCH   4   9
ATOM      9  S   UNL d   1       5.656  -2.832   2.706  0.00  0.00    -0.085 SA
BRANCH   9  10
ATOM     10  C   UNL d   1       4.189  -3.855   3.052  0.00  0.00     0.185 C 
BRANCH  10  11
ATOM     11  C   UNL d   1       3.859  -4.767   1.876  0.00  0.00     0.231 C 
ATOM     12  N   UNL d   1       4.868  -5.651   1.540  0.00  0.00    -0.325 N 
ATOM     13  H   UNL d   1       5.615  -5.795   2.213  0.00  0.00     0.169 HD
ATOM     14  O   UNL d   1       2.759  -4.717   1.323  0.00  0.00    -0.272 OA
BRANCH  12  15
ATOM     15  C   UNL d   1       4.889  -6.487   0.401  0.00  0.00     0.056 A 
ATOM     16  C   UNL d   1       5.655  -7.664   0.426  0.00  0.00     0.062 A 
ATOM     17  C   UNL d   1       5.709  -8.508  -0.685  0.00  0.00     0.050 A 
ATOM     18 CL   UNL d   1       6.502  -8.141   1.859  0.00  0.00    -0.082 Cl
ATOM     19  C   UNL d   1       5.032  -8.152  -1.848  0.00  0.00     0.035 A 
ATOM     20  C   UNL d   1       4.288  -6.975  -1.901  0.00  0.00     0.026 A 
ATOM     21 CL   UNL d   1       5.121  -9.167  -3.234  0.00  0.00    -0.084 Cl
ATOM     22  C   UNL d   1       4.205  -6.153  -0.773  0.00  0.00     0.033 A 
ENDBRANCH  12  15
ENDBRANCH  10  11
ENDBRANCH   9  10
ENDBRANCH   4   9
BRANCH   1  23
ATOM     23  C   UNL d   1       2.083  -0.748  -0.102  0.00  0.00     0.030 A 
ATOM     24  C   UNL d   1       1.858   0.565  -0.324  0.00  0.00     0.046 A 
ATOM     25  N   UNL d   1       0.538   1.038  -0.269  0.00  0.00    -0.243 N 
ATOM     26  C   UNL d   1       2.927   1.583  -0.610  0.00  0.00     0.071 C 
ATOM     27  C   UNL d   1      -0.535   0.180   0.006  0.00  0.00     0.129 A 
ATOM     28  N   UNL d   1       0.100   2.314  -0.470  0.00  0.00    -0.297 N 
ATOM     29  N   UNL d   1      -0.359  -1.153   0.245  0.00  0.00    -0.350 N 
ATOM     30  C   UNL d   1      -1.667   0.957  -0.014  0.00  0.00     0.076 A 
ATOM     31  C   UNL d   1       0.869  -1.573   0.205  0.00  0.00     0.105 A 
ATOM     32  HN  UNL d   1      -1.141  -1.777   0.441  1.00  0.00     0.166 HD
ATOM     33  C   UNL d   1      -1.224   2.260  -0.301  0.00  0.00     0.026 A 
ATOM     34  C   UNL d   1      -2.050   3.486  -0.422  0.00  0.00     0.070 C 
ATOM     35  HN  UNL d   1       0.662   3.133  -0.700  1.00  0.00     0.187 HD
ENDBRANCH   1  23
TORSDOF 5
