REMARK  3 active torsions:
REMARK  status: ('A' for Active; 'I' for Inactive)
REMARK    1  A    between atoms: C_2  and  C_1 
REMARK    2  A    between atoms: C_14  and  C_3 
REMARK    3  A    between atoms: O_16  and  C_14 
ROOT
ATOM      1  C   UNL d   1      -1.370   0.838   0.009  0.00  0.00     0.086 A 
ATOM      2  C   UNL d   1      -0.065   1.326   0.039  0.00  0.00     0.092 A 
ATOM      3  N   UNL d   1      -1.243  -0.524  -0.042  0.00  0.00    -0.298 N 
ATOM      4  N   UNL d   1       0.019  -0.962  -0.044  0.00  0.00    -0.304 N 
ATOM      5  HN  UNL d   1       0.348  -1.927  -0.069  1.00  0.00     0.186 HD
ATOM      6  C   UNL d   1       0.754   0.156  -0.006  0.00  0.00     0.040 A 
ATOM      7  C   UNL d   1       2.234   0.020   0.019  0.00  0.00     0.071 C 
ATOM      8  H   UNL d   1      -1.981  -1.218  -0.097  0.00  0.00     0.187 HD
ENDROOT
BRANCH   1   9
ATOM      9  C   UNL d   1      -2.657   1.478  -0.038  0.00  0.00     0.075 A 
ATOM     10  C   UNL d   1      -3.886   1.103   0.504  0.00  0.00     0.043 A 
ATOM     11  N   UNL d   1      -4.944   1.959   0.203  0.00  0.00    -0.298 N 
ATOM     12  C   UNL d   1      -4.224  -0.075   1.344  0.00  0.00     0.071 C 
ATOM     13  N   UNL d   1      -4.566   2.971  -0.553  0.00  0.00    -0.269 N 
ATOM     14  HN  UNL d   1      -5.899   1.819   0.531  1.00  0.00     0.187 HD
ATOM     15  S   UNL d   1      -2.947   2.924  -0.935  0.00  0.00     0.006 SA
ATOM     16  HN  UNL d   1      -5.200   3.705  -0.870  1.00  0.00     0.195 HD
ENDBRANCH   1   9
BRANCH   2  17
ATOM     17  C   UNL d   1       0.341   2.718   0.119  0.00  0.00     0.297 C 
ATOM     18  O   UNL d   1      -0.311   3.579   0.700  0.00  0.00    -0.259 OA
BRANCH  17  19
ATOM     19  O   UNL d   1       1.500   2.970  -0.552  0.00  0.00    -0.322 OA
ATOM     20  C   UNL d   1       1.871   4.351  -0.569  0.00  0.00     0.213 C 
ENDBRANCH  17  19
ENDBRANCH   2  17
TORSDOF 3
