REMARK  9 active torsions:
REMARK  status: ('A' for Active; 'I' for Inactive)
REMARK    1  A    between atoms: S_4  and  C_1 
REMARK    2  A    between atoms: C_7  and  C_2 
REMARK    3  A    between atoms: N_11  and  C_3 
REMARK    4  A    between atoms: C_12  and  S_4 
REMARK    5  A    between atoms: S_8  and  C_5 
REMARK    6  A    between atoms: O_15  and  C_7 
REMARK    7  A    between atoms: C_14  and  S_8 
REMARK    8  A    between atoms: C_16  and  C_14 
REMARK    9  A    between atoms: C_19  and  O_15 
ROOT
ATOM      1  C   UNL d   1      -0.608  -1.259   0.134  0.00  0.00     0.111 A 
ATOM      2  C   UNL d   1      -0.122   1.042   0.127  0.00  0.00     0.109 A 
ATOM      3  C   UNL d   1      -1.116   0.083   0.246  0.00  0.00     0.072 A 
ATOM      4  C   UNL d   1       0.779  -1.283   0.044  0.00  0.00     0.066 A 
ATOM      5  S   UNL d   1       1.421   0.304   0.073  0.00  0.00    -0.073 SA
ENDROOT
BRANCH   4   6
ATOM      6  S   UNL d   1       1.833  -2.684  -0.194  0.00  0.00    -0.116 SA
BRANCH   6   7
ATOM      7  C   UNL d   1       3.321  -2.311   0.780  0.00  0.00     0.118 C 
BRANCH   7   8
ATOM      8  C   UNL d   1       4.258  -3.499   0.820  0.00  0.00    -0.049 A 
ATOM      9  C   UNL d   1       5.146  -3.736  -0.241  0.00  0.00     0.008 A 
ATOM     10  C   UNL d   1       6.008  -4.834  -0.218  0.00  0.00     0.001 A 
ATOM     11  C   UNL d   1       5.992  -5.712   0.863  0.00  0.00     0.000 A 
ATOM     12  C   UNL d   1       5.108  -5.496   1.919  0.00  0.00     0.001 A 
ATOM     13  C   UNL d   1       4.242  -4.398   1.897  0.00  0.00     0.008 A 
ENDBRANCH   7   8
ENDBRANCH   6   7
ENDBRANCH   4   6
BRANCH   1  14
ATOM     14  S   UNL d   1      -1.626  -2.674   0.022  0.00  0.00     0.183 S 
ATOM     15  O   UNL d   1      -2.983  -2.209   0.254  0.00  0.00    -0.222 OA
ATOM     16  O   UNL d   1      -1.258  -3.272  -1.245  0.00  0.00    -0.222 OA
BRANCH  14  17
ATOM     17  C   UNL d   1      -1.155  -3.759   1.373  0.00  0.00     0.105 C 
ATOM     18  C   UNL d   1      -1.424  -3.119   2.729  0.00  0.00     0.026 C 
ATOM     19  C   UNL d   1      -1.889  -5.092   1.249  0.00  0.00     0.026 C 
ENDBRANCH  14  17
ENDBRANCH   1  14
BRANCH   3  20
ATOM     20  N   UNL d   1      -2.417   0.414   0.394  0.00  0.00    -0.397 N 
ATOM     21  H   UNL d   1      -2.755   1.372   0.276  0.00  0.00     0.156 HD
ATOM     22  H   UNL d   1      -3.158  -0.292   0.326  0.00  0.00     0.156 HD
ENDBRANCH   3  20
BRANCH   2  23
ATOM     23  C   UNL d   1      -0.284   2.483  -0.004  0.00  0.00     0.302 C 
ATOM     24  O   UNL d   1      -1.363   3.073  -0.044  0.00  0.00    -0.259 OA
BRANCH  23  25
ATOM     25  O   UNL d   1       0.923   3.097  -0.191  0.00  0.00    -0.317 OA
BRANCH  25  26
ATOM     26  C   UNL d   1       0.887   4.397  -0.789  0.00  0.00     0.174 C 
ATOM     27  C   UNL d   1       0.875   4.226  -2.299  0.00  0.00     0.034 C 
ENDBRANCH  25  26
ENDBRANCH  23  25
ENDBRANCH   2  23
TORSDOF 9
