REMARK  6 active torsions:
REMARK  status: ('A' for Active; 'I' for Inactive)
REMARK    1  A    between atoms: C_3  and  C_1 
REMARK    2  A    between atoms: C_20  and  C_1 
REMARK    3  A    between atoms: C_2  and  C_21 
REMARK    4  A    between atoms: C_4  and  C_2 
REMARK    5  A    between atoms: C_19  and  C_20 
REMARK    6  A    between atoms: C_21  and  C_19 
ROOT
ATOM      1  C   UNL d   1       3.031   1.171   0.830  0.00  0.00     0.015 C 
ENDROOT
BRANCH   1   2
ATOM      2  C   UNL d   1       2.429   0.087  -0.072  0.00  0.00     0.084 C 
BRANCH   2   3
ATOM      3  C   UNL d   1       0.913   0.219  -0.164  0.00  0.00     0.159 C 
ATOM      4  O   UNL d   1       0.298   1.116   0.411  0.00  0.00    -0.292 OA
BRANCH   3   5
ATOM      5  C   UNL d   1       0.149  -0.752  -1.010  0.00  0.00     0.010 A 
ATOM      6  C   UNL d   1      -1.242  -0.582  -1.125  0.00  0.00     0.018 A 
ATOM      7  C   UNL d   1      -1.992  -1.411  -1.962  0.00  0.00     0.043 A 
ATOM      8  C   UNL d   1      -1.352  -2.412  -2.680  0.00  0.00     0.116 A 
ATOM      9  C   UNL d   1       0.018  -2.618  -2.555  0.00  0.00     0.043 A 
ATOM     10  F   UNL d   1      -2.062  -3.187  -3.510  0.00  0.00    -0.206 F 
ATOM     11  C   UNL d   1       0.772  -1.792  -1.714  0.00  0.00     0.018 A 
ENDBRANCH   3   5
ENDBRANCH   2   3
ENDBRANCH   1   2
BRANCH   1  12
ATOM     12  C   UNL d   1       4.559   1.153   0.938  0.00  0.00     0.084 C 
BRANCH  12  13
ATOM     13  C   UNL d   1       5.137  -0.091   1.597  0.00  0.00     0.159 C 
ATOM     14  O   UNL d   1       4.448  -1.058   1.899  0.00  0.00    -0.292 OA
BRANCH  13  15
ATOM     15  C   UNL d   1       6.607  -0.138   1.884  0.00  0.00     0.010 A 
ATOM     16  C   UNL d   1       7.477   0.905   1.538  0.00  0.00     0.018 A 
ATOM     17  C   UNL d   1       8.832   0.830   1.879  0.00  0.00     0.043 A 
ATOM     18  C   UNL d   1       9.313  -0.284   2.558  0.00  0.00     0.116 A 
ATOM     19  C   UNL d   1       8.471  -1.337   2.888  0.00  0.00     0.043 A 
ATOM     20  F   UNL d   1      10.606  -0.339   2.901  0.00  0.00    -0.206 F 
ATOM     21  C   UNL d   1       7.118  -1.266   2.549  0.00  0.00     0.018 A 
ENDBRANCH  13  15
ENDBRANCH  12  13
ENDBRANCH   1  12
TORSDOF 6
