REMARK  6 active torsions:
REMARK  status: ('A' for Active; 'I' for Inactive)
REMARK    1  A    between atoms: S_9  and  C_1 
REMARK    2  A    between atoms: C_17  and  N_4 
REMARK    3  A    between atoms: C_14  and  S_9 
REMARK    4  A    between atoms: C_12  and  C_14 
REMARK    5  A    between atoms: O_18  and  C_12 
REMARK    6  A    between atoms: C_19  and  O_18 
ROOT
ATOM      1  C   UNL d   1       2.489   0.080  -0.103  0.00  0.00     0.148 A 
ATOM      2  N   UNL d   1       1.746   1.163  -0.065  0.00  0.00    -0.335 N 
ATOM      3  HN  UNL d   1       2.064   2.132  -0.061  1.00  0.00     0.168 HD
ATOM      4  N   UNL d   1       1.733  -1.064  -0.084  0.00  0.00    -0.326 N 
ATOM      5  C   UNL d   1       0.408  -0.682  -0.036  0.00  0.00     0.065 A 
ATOM      6  C   UNL d   1       0.452   0.710  -0.031  0.00  0.00     0.063 A 
ATOM      7  C   UNL d   1      -0.795  -1.400   0.003  0.00  0.00     0.057 A 
ATOM      8  C   UNL d   1      -0.745   1.439   0.005  0.00  0.00     0.057 A 
ATOM      9  C   UNL d   1      -1.986  -0.660   0.034  0.00  0.00     0.058 A 
ATOM     10  C   UNL d   1      -1.963   0.742   0.033  0.00  0.00     0.058 A 
ATOM     11 CL   UNL d   1      -3.466  -1.557   0.067  0.00  0.00    -0.082 Cl
ATOM     12 CL   UNL d   1      -3.415   1.683   0.061  0.00  0.00    -0.082 Cl
ENDROOT
BRANCH   1  13
ATOM     13  S   UNL d   1       4.225   0.069  -0.152  0.00  0.00    -0.084 SA
BRANCH  13  14
ATOM     14  C   UNL d   1       4.594   1.600   0.754  0.00  0.00     0.193 C 
BRANCH  14  15
ATOM     15  C   UNL d   1       4.007   1.580   2.148  0.00  0.00     0.268 C 
ATOM     16  O   UNL d   1       3.782   0.584   2.824  0.00  0.00    -0.264 OA
BRANCH  15  17
ATOM     17  O   UNL d   1       3.773   2.864   2.552  0.00  0.00    -0.321 OA
BRANCH  17  18
ATOM     18  C   UNL d   1       2.912   3.003   3.691  0.00  0.00     0.174 C 
ATOM     19  C   UNL d   1       1.477   3.042   3.200  0.00  0.00     0.034 C 
ENDBRANCH  17  18
ENDBRANCH  15  17
ENDBRANCH  14  15
ENDBRANCH  13  14
ENDBRANCH   1  13
BRANCH   4  20
ATOM     20  C   UNL d   1       2.202  -2.437  -0.115  0.00  0.00     0.127 C 
ATOM     21  C   UNL d   1       2.387  -3.022   1.274  0.00  0.00     0.027 C 
ENDBRANCH   4  20
TORSDOF 6
