REMARK  4 active torsions:
REMARK  status: ('A' for Active; 'I' for Inactive)
REMARK    1  A    between atoms: C_8  and  C_1 
REMARK    2  A    between atoms: S_12  and  C_5 
REMARK    3  A    between atoms: O_13  and  C_8 
REMARK    4  A    between atoms: C_15  and  O_13 
ROOT
ATOM      1  C   UNL d   1      -0.707   1.239  -0.043  0.00  0.00     0.063 A 
ATOM      2  C   UNL d   1      -0.762  -1.196  -0.027  0.00  0.00     0.079 A 
ATOM      3  N   UNL d   1       1.345  -0.039  -0.024  0.00  0.00    -0.353 N 
ATOM      4  HN  UNL d   1       2.365  -0.067  -0.021  1.00  0.00     0.166 HD
ATOM      5  C   UNL d   1       0.627  -1.188  -0.018  0.00  0.00     0.088 A 
ATOM      6  C   UNL d   1      -1.429   0.033  -0.043  0.00  0.00     0.045 A 
ATOM      7  C   UNL d   1       0.688   1.157  -0.032  0.00  0.00     0.022 A 
ATOM      8  C   UNL d   1      -1.521  -2.409  -0.009  0.00  0.00     0.102 C 
ATOM      9  N   UNL d   1      -2.172  -3.368   0.008  0.00  0.00    -0.191 NA
ATOM     10  C   UNL d   1       1.585   2.362  -0.009  0.00  0.00     0.069 C 
ENDROOT
BRANCH   5  11
ATOM     11  S   UNL d   1       1.624  -2.656   0.008  0.00  0.00    -0.124 SA
ATOM     12  H   UNL d   1       2.785  -1.986   0.005  0.00  0.00     0.108 HD
ENDBRANCH   5  11
BRANCH   1  13
ATOM     13  C   UNL d   1      -1.403   2.556   0.016  0.00  0.00     0.295 C 
ATOM     14  O   UNL d   1      -0.842   3.637   0.034  0.00  0.00    -0.259 OA
BRANCH  13  15
ATOM     15  O   UNL d   1      -2.739   2.367   0.161  0.00  0.00    -0.318 OA
BRANCH  15  16
ATOM     16  C   UNL d   1      -3.458   3.493   0.688  0.00  0.00     0.174 C 
ATOM     17  C   UNL d   1      -3.453   3.371   2.201  0.00  0.00     0.034 C 
ENDBRANCH  15  16
ENDBRANCH  13  15
ENDBRANCH   1  13
TORSDOF 4
