REMARK  7 active torsions:
REMARK  status: ('A' for Active; 'I' for Inactive)
REMARK    1  A    between atoms: C_3  and  C_1 
REMARK    2  A    between atoms: S_7  and  C_2 
REMARK    3  A    between atoms: N_17  and  C_3 
REMARK    4  A    between atoms: O_13  and  N_4 
REMARK    5  A    between atoms: C_6  and  O_13 
REMARK       I    between atoms: N_12  and  C_6 
REMARK    6  A    between atoms: C_18  and  S_7 
REMARK    7  A    between atoms: C_15  and  N_12 
ROOT
ATOM      1  C   UNL d   1      -1.597  -1.788   0.304  0.00  0.00     0.149 C 
ATOM      2  N   UNL d   1      -1.137  -2.973   0.608  0.00  0.00    -0.238 N 
ATOM      3  HN  UNL d   1      -1.706  -3.819   0.614  1.00  0.00     0.197 HD
ENDROOT
BRANCH   1   4
ATOM      4  C   UNL d   1      -3.079  -1.707  -0.040  0.00  0.00     0.112 A 
ATOM      5  C   UNL d   1      -3.799  -0.532  -0.293  0.00  0.00     0.105 A 
ATOM      6  N   UNL d   1      -5.139  -0.580  -0.554  0.00  0.00    -0.357 N 
ATOM      7  C   UNL d   1      -5.723  -1.798  -0.559  0.00  0.00     0.106 A 
ATOM      8  HN  UNL d   1      -5.676   0.267  -0.738  1.00  0.00     0.166 HD
ATOM      9  C   UNL d   1      -5.014  -2.954  -0.318  0.00  0.00     0.105 A 
ATOM     10  N   UNL d   1      -3.693  -2.932  -0.053  0.00  0.00    -0.359 N 
ATOM     11  HN  UNL d   1      -3.173  -3.791   0.129  1.00  0.00     0.165 HD
BRANCH   5  12
ATOM     12  S   UNL d   1      -3.132   1.113  -0.212  0.00  0.00    -0.070 SA
BRANCH  12  13
ATOM     13  C   UNL d   1      -3.429   1.849  -1.808  0.00  0.00     0.007 A 
ATOM     14  C   UNL d   1      -3.831   1.153  -2.954  0.00  0.00     0.020 A 
ATOM     15  C   UNL d   1      -4.011   1.825  -4.171  0.00  0.00     0.025 A 
ATOM     16  C   UNL d   1      -3.778   3.196  -4.250  0.00  0.00     0.034 A 
ATOM     17  C   UNL d   1      -3.370   3.902  -3.125  0.00  0.00     0.025 A 
ATOM     18 CL   UNL d   1      -3.993   4.018  -5.745  0.00  0.00    -0.084 Cl
ATOM     19  C   UNL d   1      -3.196   3.230  -1.911  0.00  0.00     0.020 A 
ENDBRANCH  12  13
ENDBRANCH   5  12
ENDBRANCH   1   4
BRANCH   1  20
ATOM     20  N   UNL d   1      -0.776  -0.687   0.336  0.00  0.00    -0.382 N 
ATOM     21  H   UNL d   1      -1.027   0.145  -0.190  0.00  0.00     0.157 HD
ATOM     22  H   UNL d   1       0.218  -0.896   0.338  0.00  0.00     0.157 HD
ENDBRANCH   1  20
BRANCH   2  23
ATOM     23  O   UNL d   1       0.247  -2.948   0.929  0.00  0.00    -0.179 OA
BRANCH  23  24
ATOM     24  C   UNL d   1       0.505  -3.694   2.070  0.00  0.00     0.387 C 
ATOM     25  N   UNL d   1      -0.640  -3.986   2.768  0.00  0.00    -0.301 N 
ATOM     26  H   UNL d   1      -1.454  -3.623   2.281  0.00  0.00     0.171 HD
ATOM     27  O   UNL d   1       1.657  -3.960   2.401  0.00  0.00    -0.236 OA
BRANCH  25  28
ATOM     28  C   UNL d   1      -0.818  -4.683   3.963  0.00  0.00     0.038 A 
ATOM     29  C   UNL d   1       0.203  -5.365   4.622  0.00  0.00     0.053 A 
ATOM     30  C   UNL d   1      -0.084  -6.075   5.790  0.00  0.00     0.036 A 
ATOM     31 CL   UNL d   1       1.164  -6.956   6.584  0.00  0.00    -0.084 Cl
ATOM     32  C   UNL d   1      -1.375  -6.091   6.316  0.00  0.00     0.024 A 
ATOM     33  C   UNL d   1      -2.393  -5.394   5.672  0.00  0.00     0.004 A 
ATOM     34  C   UNL d   1      -2.114  -4.697   4.495  0.00  0.00     0.029 A 
ENDBRANCH  25  28
ENDBRANCH  23  24
ENDBRANCH   2  23
TORSDOF 7
