REMARK  20 active torsions:
REMARK  status: ('A' for Active; 'I' for Inactive)
REMARK    1  A    between atoms: C_1  and  O_16 
REMARK    2  A    between atoms: C_2  and  O_15 
REMARK    3  A    between atoms: C_3  and  O_17 
REMARK    4  A    between atoms: C_4  and  O_18 
REMARK    5  A    between atoms: C_5  and  O_11 
REMARK    6  A    between atoms: C_6  and  O_14 
REMARK    7  A    between atoms: C_7  and  O_11 
REMARK    8  A    between atoms: C_8  and  O_19 
REMARK    9  A    between atoms: C_12  and  C_28 
REMARK   10  A    between atoms: C_13  and  C_29 
REMARK   11  A    between atoms: C_20  and  O_14 
REMARK   12  A    between atoms: C_21  and  O_15 
REMARK   13  A    between atoms: C_22  and  O_16 
REMARK   14  A    between atoms: C_23  and  O_17 
REMARK   15  A    between atoms: C_24  and  O_18 
REMARK   16  A    between atoms: C_25  and  O_19 
REMARK   17  A    between atoms: C_26  and  O_30 
REMARK   18  A    between atoms: C_27  and  O_31 
REMARK   19  A    between atoms: O_30  and  C_28 
REMARK   20  A    between atoms: O_31  and  C_29 
ROOT
ATOM      1  O   UNL d   1      -0.510  -3.499   1.569  0.00  0.00    -0.348 OA
ENDROOT
BRANCH   1   2
ATOM      2  C   UNL d   1      -0.462  -2.216   2.194  0.00  0.00     0.293 C 
ATOM      3  C   UNL d   1      -1.749  -1.359   2.043  0.00  0.00     0.219 C 
ATOM      4  C   UNL d   1      -1.556  -0.050   2.837  0.00  0.00     0.198 C 
ATOM      5  C   UNL d   1      -1.162  -0.324   4.298  0.00  0.00     0.195 C 
ATOM      6  C   UNL d   1       0.060  -1.263   4.318  0.00  0.00     0.181 C 
ATOM      7  O   UNL d   1      -0.221  -2.464   3.588  0.00  0.00    -0.348 OA
BRANCH   3   8
ATOM      8  O   UNL d   1      -1.961  -0.997   0.657  0.00  0.00    -0.308 OA
BRANCH   8   9
ATOM      9  C   UNL d   1      -3.234  -0.868   0.206  0.00  0.00     0.255 C 
ATOM     10  O   UNL d   1      -4.241  -1.092   0.861  0.00  0.00    -0.266 OA
ATOM     11  C   UNL d   1      -3.225  -0.338  -1.196  0.00  0.00     0.126 C 
ENDBRANCH   8   9
ENDBRANCH   3   8
BRANCH   4  12
ATOM     12  O   UNL d   1      -2.779   0.720   2.809  0.00  0.00    -0.311 OA
BRANCH  12  13
ATOM     13  C   UNL d   1      -2.915   1.671   1.850  0.00  0.00     0.255 C 
ATOM     14  O   UNL d   1      -2.054   1.986   1.038  0.00  0.00    -0.266 OA
ATOM     15  C   UNL d   1      -4.314   2.205   1.853  0.00  0.00     0.126 C 
ENDBRANCH  12  13
ENDBRANCH   4  12
BRANCH   5  16
ATOM     16  O   UNL d   1      -2.268  -0.960   4.978  0.00  0.00    -0.311 OA
BRANCH  16  17
ATOM     17  C   UNL d   1      -3.186  -0.120   5.534  0.00  0.00     0.255 C 
ATOM     18  O   UNL d   1      -3.106   1.101   5.567  0.00  0.00    -0.266 OA
ATOM     19  C   UNL d   1      -4.352  -0.899   6.053  0.00  0.00     0.126 C 
ENDBRANCH  16  17
ENDBRANCH   5  16
BRANCH   6  20
ATOM     20  C   UNL d   1       0.486  -1.649   5.743  0.00  0.00     0.213 C 
BRANCH  20  21
ATOM     21  O   UNL d   1       0.795  -0.491   6.538  0.00  0.00    -0.319 OA
BRANCH  21  22
ATOM     22  C   UNL d   1       2.005   0.082   6.296  0.00  0.00     0.254 C 
ATOM     23  O   UNL d   1       2.816  -0.311   5.469  0.00  0.00    -0.266 OA
ATOM     24  C   UNL d   1       2.199   1.303   7.142  0.00  0.00     0.126 C 
ENDBRANCH  21  22
ENDBRANCH  20  21
ENDBRANCH   6  20
ENDBRANCH   1   2
BRANCH   1  25
ATOM     25  C   UNL d   1      -0.669  -3.571   0.149  0.00  0.00     0.188 C 
ATOM     26  C   UNL d   1       0.438  -2.859  -0.672  0.00  0.00     0.198 C 
ATOM     27  C   UNL d   1       0.267  -3.150  -2.177  0.00  0.00     0.219 C 
ATOM     28  C   UNL d   1      -0.058  -4.630  -2.485  0.00  0.00     0.302 C 
ATOM     29  O   UNL d   1      -1.091  -5.147  -1.646  0.00  0.00    -0.348 OA
ATOM     30  C   UNL d   1      -0.729  -5.064  -0.255  0.00  0.00     0.180 C 
BRANCH  26  31
ATOM     31  O   UNL d   1       0.279  -1.413  -0.509  0.00  0.00    -0.311 OA
BRANCH  31  32
ATOM     32  C   UNL d   1       1.345  -0.593  -0.649  0.00  0.00     0.255 C 
ATOM     33  O   UNL d   1       2.487  -0.947  -0.906  0.00  0.00    -0.266 OA
ATOM     34  C   UNL d   1       0.926   0.828  -0.448  0.00  0.00     0.126 C 
ENDBRANCH  31  32
ENDBRANCH  26  31
BRANCH  27  35
ATOM     35  O   UNL d   1       1.361  -2.651  -2.987  0.00  0.00    -0.308 OA
BRANCH  35  36
ATOM     36  C   UNL d   1       2.589  -3.198  -2.787  0.00  0.00     0.255 C 
ATOM     37  O   UNL d   1       2.829  -4.114  -2.014  0.00  0.00    -0.266 OA
ATOM     38  C   UNL d   1       3.588  -2.579  -3.711  0.00  0.00     0.126 C 
ENDBRANCH  35  36
ENDBRANCH  27  35
BRANCH  28  39
ATOM     39  O   UNL d   1      -0.348  -4.860  -3.884  0.00  0.00    -0.287 OA
BRANCH  39  40
ATOM     40  C   UNL d   1      -1.359  -4.177  -4.476  0.00  0.00     0.257 C 
ATOM     41  O   UNL d   1      -2.080  -3.343  -3.946  0.00  0.00    -0.266 OA
ATOM     42  C   UNL d   1      -1.500  -4.604  -5.907  0.00  0.00     0.126 C 
ENDBRANCH  39  40
ENDBRANCH  28  39
BRANCH  30  43
ATOM     43  C   UNL d   1      -1.772  -5.832   0.575  0.00  0.00     0.213 C 
BRANCH  43  44
ATOM     44  O   UNL d   1      -1.871  -7.214   0.164  0.00  0.00    -0.319 OA
BRANCH  44  45
ATOM     45  C   UNL d   1      -0.939  -8.059   0.677  0.00  0.00     0.254 C 
ATOM     46  O   UNL d   1      -0.029  -7.739   1.428  0.00  0.00    -0.266 OA
ATOM     47  C   UNL d   1      -1.192  -9.465   0.222  0.00  0.00     0.126 C 
ENDBRANCH  44  45
ENDBRANCH  43  44
ENDBRANCH  30  43
ENDBRANCH   1  25
TORSDOF 20
