REMARK  3 active torsions:
REMARK  status: ('A' for Active; 'I' for Inactive)
REMARK    1  A    between atoms: N_3  and  N_10 
REMARK    2  A    between atoms: N_10  and  C_5 
REMARK    3  A    between atoms: C_12  and  C_7 
ROOT
ATOM      1  N   UNL d   1      -3.595   1.398  -0.147  0.00  0.00    -0.286 N 
ATOM      2  H   UNL d   1      -3.397   2.381  -0.324  0.00  0.00     0.188 HD
ENDROOT
BRANCH   1   3
ATOM      3  N   UNL d   1      -4.645   0.772  -0.740  0.00  0.00    -0.308 N 
ATOM      4  C   UNL d   1      -5.720   1.472  -0.907  0.00  0.00     0.136 C 
ATOM      5  HN  UNL d   1      -4.589  -0.202  -1.038  1.00  0.00     0.186 HD
BRANCH   4   6
ATOM      6  C   UNL d   1      -6.909   0.874  -1.551  0.00  0.00     0.049 A 
ATOM      7  N   UNL d   1      -7.992   1.681  -1.650  0.00  0.00    -0.365 N 
ATOM      8  C   UNL d   1      -9.083   1.140  -2.236  0.00  0.00     0.088 A 
ATOM      9  HN  UNL d   1      -7.984   2.641  -1.304  1.00  0.00     0.165 HD
ATOM     10  C   UNL d   1      -9.142  -0.158  -2.725  0.00  0.00     0.017 A 
ATOM     11  C   UNL d   1      -8.012  -0.961  -2.609  0.00  0.00     0.004 A 
ATOM     12  C   UNL d   1      -6.872  -0.439  -2.010  0.00  0.00     0.031 A 
ENDBRANCH   4   6
ENDBRANCH   1   3
BRANCH   1  13
ATOM     13  C   UNL d   1      -2.383   0.678  -0.077  0.00  0.00     0.120 A 
ATOM     14  N   UNL d   1      -1.230   1.383  -0.061  0.00  0.00    -0.341 N 
ATOM     15  C   UNL d   1      -0.063   0.708  -0.021  0.00  0.00     0.043 A 
ATOM     16  HN  UNL d   1      -1.243   2.403  -0.078  1.00  0.00     0.167 HD
ATOM     17  C   UNL d   1       0.000  -0.701   0.010  0.00  0.00    -0.009 A 
ATOM     18  C   UNL d   1       1.140   1.405  -0.015  0.00  0.00     0.030 A 
ATOM     19  C   UNL d   1      -1.199  -1.410   0.019  0.00  0.00     0.017 A 
ATOM     20  C   UNL d   1       1.237  -1.368   0.030  0.00  0.00     0.013 A 
ATOM     21  C   UNL d   1      -2.398  -0.713  -0.015  0.00  0.00     0.051 A 
ATOM     22  C   UNL d   1       2.424  -0.643   0.027  0.00  0.00     0.001 A 
ATOM     23  C   UNL d   1       2.376   0.748   0.009  0.00  0.00     0.002 A 
ENDBRANCH   1  13
TORSDOF 3
