REMARK  4 active torsions:
REMARK  status: ('A' for Active; 'I' for Inactive)
REMARK    1  A    between atoms: C_3  and  C_1 
REMARK    2  A    between atoms: C_4  and  CA_2 
REMARK       I    between atoms: N_5  and  C_3 
REMARK    3  A    between atoms: OXT_13  and  C_4 
REMARK    4  A    between atoms: C_12  and  N_5 
ROOT
ATOM      1  C   UNL d   1      -0.595  -1.213  -0.149  0.00  0.00     0.134 A 
ATOM      2  CA  UNL d   1       0.575  -0.893   0.528  0.00  0.00     0.139 A 
ATOM      3  N   UNL d   1      -1.183  -0.268  -0.957  0.00  0.00    -0.358 N 
ATOM      4  HN  UNL d   1      -2.029  -0.483  -1.486  1.00  0.00     0.165 HD
ATOM      5  N   UNL d   1       1.156   0.364   0.463  0.00  0.00    -0.357 N 
ATOM      6  HN  UNL d   1       2.005   0.594   0.979  1.00  0.00     0.165 HD
ATOM      7  C   UNL d   1       0.531   1.266  -0.326  0.00  0.00     0.105 A 
ATOM      8  C   UNL d   1      -0.610   0.951  -1.031  0.00  0.00     0.105 A 
ENDROOT
BRANCH   1   9
ATOM      9  C   UNL d   1      -1.431  -2.458  -0.026  0.00  0.00     0.275 C 
ATOM     10  N   UNL d   1      -0.816  -3.686   0.137  0.00  0.00    -0.322 N 
ATOM     11  H   UNL d   1       0.175  -3.705   0.373  0.00  0.00     0.169 HD
ATOM     12  O   UNL d   1      -2.652  -2.297  -0.087  0.00  0.00    -0.266 OA
BRANCH  10  13
ATOM     13  C   UNL d   1      -1.462  -4.942   0.253  0.00  0.00     0.035 A 
ATOM     14  C   UNL d   1      -2.814  -5.157  -0.024  0.00  0.00     0.029 A 
ATOM     15  C   UNL d   1      -3.391  -6.416   0.173  0.00  0.00     0.002 A 
ATOM     16  C   UNL d   1      -2.618  -7.476   0.635  0.00  0.00     0.000 A 
ATOM     17  C   UNL d   1      -1.261  -7.285   0.881  0.00  0.00     0.002 A 
ATOM     18  C   UNL d   1      -0.685  -6.026   0.684  0.00  0.00     0.029 A 
ENDBRANCH  10  13
ENDBRANCH   1   9
BRANCH   2  19
ATOM     19  C   UNL d   1       1.358  -1.814   1.394  0.00  0.00     0.196 C 
ATOM     20  O   UNL d   1       1.223  -3.021   1.467  0.00  0.00    -0.645 OA
BRANCH  19  21
ATOM     21  OXT UNL d   1       2.329  -1.136   2.058  0.00  0.00    -0.772 OA
ATOM     22  HXT UNL d   1       2.316  -0.187   1.783  0.00  0.00     0.167 HD
ENDBRANCH  19  21
ENDBRANCH   2  19
TORSDOF 4
