REMARK  4 active torsions:
REMARK  status: ('A' for Active; 'I' for Inactive)
REMARK    1  A    between atoms: N_2  and  C_1 
REMARK    2  A    between atoms: N_3  and  C_7 
REMARK    3  A    between atoms: O_9  and  C_6 
REMARK    4  A    between atoms: C_17  and  O_9 
ROOT
ATOM      1  C   UNL d   1      -1.021   1.142  -0.005  0.00  0.00     0.208 A 
ATOM      2  N   UNL d   1       0.350   1.136   0.019  0.00  0.00    -0.339 N 
ATOM      3  HN  UNL d   1       0.879   2.003   0.106  1.00  0.00     0.167 HD
ATOM      4  C   UNL d   1      -1.791  -0.019  -0.105  0.00  0.00     0.126 A 
ATOM      5  C   UNL d   1      -1.110  -1.231  -0.255  0.00  0.00     0.043 A 
ATOM      6  C   UNL d   1       0.977  -0.058  -0.076  0.00  0.00     0.007 A 
ATOM      7  C   UNL d   1       0.283  -1.254  -0.220  0.00  0.00     0.027 A 
ATOM      8  C   UNL d   1       2.475  -0.059  -0.011  0.00  0.00     0.068 C 
ENDROOT
BRANCH   4   9
ATOM      9  O   UNL d   1      -3.163   0.060  -0.143  0.00  0.00    -0.307 OA
BRANCH   9  10
ATOM     10  C   UNL d   1      -3.909  -0.903   0.501  0.00  0.00     0.076 A 
ATOM     11  C   UNL d   1      -3.540  -1.499   1.713  0.00  0.00     0.040 A 
ATOM     12  C   UNL d   1      -4.344  -2.493   2.278  0.00  0.00     0.039 A 
ATOM     13  C   UNL d   1      -5.541  -2.856   1.647  0.00  0.00     0.103 A 
ATOM     14  C   UNL d   1      -5.945  -2.218   0.466  0.00  0.00     0.039 A 
ATOM     15  C   UNL d   1      -5.125  -1.238  -0.100  0.00  0.00     0.040 A 
BRANCH  13  16
ATOM     16  N   UNL d   1      -6.375  -3.918   2.223  0.00  0.00    -0.116 N 
ATOM     17  O   UNL d   1      -5.935  -4.521   3.213  0.00  0.00    -0.532 OA
ATOM     18  O   UNL d   1      -7.462  -4.157   1.679  0.00  0.00    -0.532 OA
ENDBRANCH  13  16
ENDBRANCH   9  10
ENDBRANCH   4   9
BRANCH   1  19
ATOM     19  N   UNL d   1      -1.759   2.410   0.053  0.00  0.00    -0.095 N 
ATOM     20  O   UNL d   1      -2.469   2.614   1.051  0.00  0.00    -0.530 OA
ATOM     21  O   UNL d   1      -1.613   3.191  -0.899  0.00  0.00    -0.530 OA
ENDBRANCH   1  19
TORSDOF 4
