REMARK  2 active torsions:
REMARK  status: ('A' for Active; 'I' for Inactive)
REMARK    1  A    between atoms: C_3  and  C_5 
REMARK       I    between atoms: N_4  and  C_3 
REMARK    2  A    between atoms: C_6  and  N_4 
ROOT
ATOM      1  N   UNL d   1       6.181  -0.990   3.153  0.00  0.00    -0.197 NA
ATOM      2  C   UNL d   1       6.039  -1.324   2.048  0.00  0.00     0.068 C 
ATOM      3  C   UNL d   1       5.792  -1.782   0.687  0.00  0.00     0.226 C 
ENDROOT
BRANCH   3   4
ATOM      4  C   UNL d   1       4.321  -1.909   0.338  0.00  0.00     0.235 C 
ATOM      5  N   UNL d   1       3.440  -2.119   1.389  0.00  0.00    -0.326 N 
ATOM      6  H   UNL d   1       3.791  -2.034   2.339  0.00  0.00     0.169 HD
ATOM      7  O   UNL d   1       3.999  -1.854  -0.849  0.00  0.00    -0.272 OA
BRANCH   5   8
ATOM      8  C   UNL d   1       2.032  -2.213   1.288  0.00  0.00     0.036 A 
ATOM      9  C   UNL d   1       1.352  -2.430   0.088  0.00  0.00     0.053 A 
ATOM     10  C   UNL d   1      -0.043  -2.406   0.057  0.00  0.00     0.036 A 
ATOM     11 CL   UNL d   1      -0.868  -2.640  -1.436  0.00  0.00    -0.084 Cl
ATOM     12  C   UNL d   1      -0.775  -2.182   1.220  0.00  0.00     0.024 A 
ATOM     13  C   UNL d   1      -0.107  -2.017   2.431  0.00  0.00     0.004 A 
ATOM     14  C   UNL d   1       1.290  -2.047   2.467  0.00  0.00     0.029 A 
ENDBRANCH   5   8
ENDBRANCH   3   4
TORSDOF 2
