REMARK  4 active torsions:
REMARK  status: ('A' for Active; 'I' for Inactive)
REMARK    1  A    between atoms: N_9  and  C_1 
REMARK    2  A    between atoms: C_2  and  C_3 
REMARK    3  A    between atoms: N_7  and  S_4 
REMARK       I    between atoms: C_10  and  N_7 
REMARK    4  A    between atoms: C_19  and  C_10 
ROOT
ATOM      1  S   UNL d   1       2.711   4.731  -0.013  0.00  0.00    -0.122 SA
ATOM      2  N   UNL d   1       0.699   2.226   0.003  0.00  0.00    -0.364 N 
ATOM      3  C   UNL d   1       1.356   4.299   1.143  0.00  0.00     0.105 C 
ATOM      4  C   UNL d   1       2.807   3.108  -0.868  0.00  0.00     0.105 C 
ATOM      5  C   UNL d   1       0.185   3.470   0.587  0.00  0.00     0.135 C 
ATOM      6  C   UNL d   1       1.456   2.494  -1.236  0.00  0.00     0.135 C 
ENDROOT
BRANCH   2   7
ATOM      7  C   UNL d   1      -0.090   1.085  -0.004  0.00  0.00     0.125 A 
ATOM      8  N   UNL d   1      -1.442   1.212   0.064  0.00  0.00    -0.350 N 
ATOM      9  C   UNL d   1      -2.201   0.088   0.057  0.00  0.00     0.106 A 
ATOM     10  HN  UNL d   1      -1.877   2.133   0.117  1.00  0.00     0.166 HD
ATOM     11  C   UNL d   1      -1.692  -1.201  -0.001  0.00  0.00     0.065 A 
ATOM     12  C   UNL d   1      -0.307  -1.332  -0.041  0.00  0.00     0.045 A 
ATOM     13  C   UNL d   1       0.498  -0.195  -0.033  0.00  0.00     0.078 A 
ATOM     14 CL   UNL d   1       2.210  -0.466   0.033  0.00  0.00    -0.080 Cl
BRANCH  11  15
ATOM     15  C   UNL d   1      -2.604  -2.383  -0.003  0.00  0.00     0.418 C 
ATOM     16  F   UNL d   1      -1.946  -3.575  -0.067  0.00  0.00    -0.166 F 
ATOM     17  F   UNL d   1      -3.381  -2.453   1.112  0.00  0.00    -0.166 F 
ATOM     18  F   UNL d   1      -3.465  -2.383  -1.058  0.00  0.00    -0.166 F 
ENDBRANCH  11  15
ENDBRANCH   2   7
BRANCH   1  19
ATOM     19  N   UNL d   1       1.935   5.507  -1.052  0.00  0.00    -0.306 N 
ATOM     20  C   UNL d   1       2.636   5.914  -2.130  0.00  0.00     0.261 C 
ATOM     21  O   UNL d   1       3.813   5.704  -2.437  0.00  0.00    -0.267 OA
ATOM     22  HN  UNL d   1       0.942   5.711  -0.945  1.00  0.00     0.176 HD
BRANCH  20  23
ATOM     23  C   UNL d   1       1.845   6.734  -3.104  0.00  0.00     0.032 A 
ATOM     24  C   UNL d   1       0.450   6.658  -3.195  0.00  0.00     0.017 A 
ATOM     25  C   UNL d   1      -0.238   7.433  -4.131  0.00  0.00     0.001 A 
ATOM     26  C   UNL d   1       0.464   8.288  -4.983  0.00  0.00     0.000 A 
ATOM     27  C   UNL d   1       1.853   8.364  -4.905  0.00  0.00     0.001 A 
ATOM     28  C   UNL d   1       2.542   7.586  -3.973  0.00  0.00     0.017 A 
ENDBRANCH  20  23
ENDBRANCH   1  19
TORSDOF 4
