REMARK  3 active torsions:
REMARK  status: ('A' for Active; 'I' for Inactive)
REMARK    1  A    between atoms: N_9  and  C_4 
REMARK    2  A    between atoms: C_6  and  C_5 
REMARK    3  A    between atoms: C_14  and  N_9 
ROOT
ATOM      1  C   UNL d   1       0.744   1.180  -0.414  0.00  0.00     0.071 C 
ATOM      2  C   UNL d   1       1.491  -0.083  -0.185  0.00  0.00     0.165 C 
ATOM      3  C   UNL d   1      -0.721   1.251  -0.173  0.00  0.00     0.165 C 
ATOM      4  C   UNL d   1       1.336   2.242  -0.982  0.00  0.00     0.107 C 
ATOM      5  C   UNL d   1      -0.710  -1.223   0.394  0.00  0.00     0.040 C 
ATOM      6  C   UNL d   1      -1.485  -0.048  -0.198  0.00  0.00     0.094 C 
ATOM      7  C   UNL d   1       0.696  -1.366  -0.189  0.00  0.00     0.094 C 
ATOM      8  O   UNL d   1      -1.302   2.327  -0.051  0.00  0.00    -0.292 OA
ATOM      9  O   UNL d   1       2.719  -0.098  -0.099  0.00  0.00    -0.292 OA
ENDROOT
BRANCH   4  10
ATOM     10  N   UNL d   1       2.648   2.393  -1.360  0.00  0.00    -0.363 N 
ATOM     11  H   UNL d   1       3.295   1.662  -1.043  0.00  0.00     0.165 HD
BRANCH  10  12
ATOM     12  C   UNL d   1       3.215   3.371  -2.202  0.00  0.00     0.053 A 
ATOM     13  C   UNL d   1       4.609   3.575  -2.222  0.00  0.00     0.060 A 
ATOM     14 CL   UNL d   1       5.663   2.581  -1.272  0.00  0.00    -0.082 Cl
ATOM     15  C   UNL d   1       5.187   4.582  -3.002  0.00  0.00     0.026 A 
ATOM     16  C   UNL d   1       4.380   5.407  -3.783  0.00  0.00     0.002 A 
ATOM     17  C   UNL d   1       3.001   5.220  -3.786  0.00  0.00     0.002 A 
ATOM     18  C   UNL d   1       2.425   4.217  -2.999  0.00  0.00     0.031 A 
ENDBRANCH  10  12
ENDBRANCH   4  10
BRANCH   5  19
ATOM     19  C   UNL d   1      -0.706  -1.207   1.910  0.00  0.00    -0.013 A 
ATOM     20  S   UNL d   1      -1.414  -2.529   2.754  0.00  0.00    -0.106 SA
ATOM     21  C   UNL d   1      -1.055  -1.845   4.275  0.00  0.00     0.050 A 
ATOM     22  C   UNL d   1      -0.410  -0.637   4.156  0.00  0.00     0.008 A 
ATOM     23  C   UNL d   1      -0.206  -0.268   2.794  0.00  0.00     0.015 A 
ENDBRANCH   5  19
TORSDOF 3
