REMARK  1 active torsions:
REMARK  status: ('A' for Active; 'I' for Inactive)
REMARK    1  A    between atoms: C_12  and  C_6 
ROOT
ATOM      1  C   UNL d   1       0.173  -0.787   0.008  0.00  0.00     0.151 A 
ATOM      2  N   UNL d   1       0.234   0.609   0.007  0.00  0.00    -0.242 N 
ATOM      3  C   UNL d   1       1.477  -1.227   0.013  0.00  0.00     0.104 A 
ATOM      4  N   UNL d   1       1.524   1.046   0.011  0.00  0.00    -0.294 N 
ATOM      5  HN  UNL d   1       1.845   2.014   0.010  1.00  0.00     0.187 HD
ATOM      6  C   UNL d   1       2.286  -0.062   0.015  0.00  0.00     0.059 A 
ATOM      7  N   UNL d   1      -1.014  -1.472   0.006  0.00  0.00    -0.343 N 
ATOM      8  HN  UNL d   1      -1.044  -2.492   0.006  1.00  0.00     0.167 HD
ATOM      9  C   UNL d   1      -0.950   1.369   0.005  0.00  0.00     0.034 A 
ATOM     10  C   UNL d   1      -2.138   0.734   0.007  0.00  0.00     0.051 A 
ATOM     11  C   UNL d   1      -2.097  -0.761   0.005  0.00  0.00     0.009 A 
ATOM     12 CL   UNL d   1       1.968  -2.854   0.007  0.00  0.00    -0.078 Cl
ATOM     13  C   UNL d   1      -0.886   2.867   0.006  0.00  0.00     0.070 C 
ATOM     14  C   UNL d   1      -3.416  -1.491   0.008  0.00  0.00     0.068 C 
ENDROOT
BRANCH   6  15
ATOM     15  C   UNL d   1       3.813   0.049   0.004  0.00  0.00    -0.005 C 
ATOM     16  C   UNL d   1       4.399  -0.618  -1.259  0.00  0.00     0.021 C 
ATOM     17  C   UNL d   1       4.274   1.527   0.024  0.00  0.00     0.021 C 
ATOM     18  C   UNL d   1       4.438  -0.632   1.239  0.00  0.00     0.021 C 
ENDBRANCH   6  15
TORSDOF 1
