REMARK  4 active torsions:
REMARK  status: ('A' for Active; 'I' for Inactive)
REMARK    1  A    between atoms: S_7  and  C_1 
REMARK    2  A    between atoms: C_6  and  C_2 
REMARK    3  A    between atoms: C_8  and  C_5 
REMARK    4  A    between atoms: O_17  and  C_8 
ROOT
ATOM      1  C   UNL d   1      -0.782   1.272   0.130  0.00  0.00     0.086 A 
ATOM      2  C   UNL d   1       0.601   1.302   0.049  0.00  0.00     0.033 A 
ATOM      3  C   UNL d   1       1.162  -0.040   0.020  0.00  0.00    -0.024 A 
ATOM      4  S   UNL d   1      -1.395  -0.310   0.115  0.00  0.00    -0.073 SA
ATOM      5  C   UNL d   1       0.161  -1.015   0.055  0.00  0.00     0.088 A 
ATOM      6  C   UNL d   1       2.624  -0.395  -0.000  0.00  0.00     0.050 C 
ENDROOT
BRANCH   2   7
ATOM      7  C   UNL d   1       1.380   2.589  -0.035  0.00  0.00     0.113 A 
ATOM      8  O   UNL d   1       0.985   3.771   0.530  0.00  0.00    -0.237 OA
ATOM      9  N   UNL d   1       1.931   4.751   0.305  0.00  0.00    -0.272 N 
ATOM     10  C   UNL d   1       2.866   4.169  -0.445  0.00  0.00     0.117 A 
ATOM     11  HN  UNL d   1       1.917   5.715   0.640  1.00  0.00     0.194 HD
ATOM     12  C   UNL d   1       2.567   2.818  -0.698  0.00  0.00     0.059 A 
ENDBRANCH   2   7
BRANCH   1  13
ATOM     13  S   UNL d   1      -1.857   2.663   0.088  0.00  0.00     0.053 S 
ATOM     14  O   UNL d   1      -3.238   2.148  -0.200  0.00  0.00    -0.253 OA
ATOM     15  C   UNL d   1      -1.842   3.031   1.865  0.00  0.00     0.133 C 
ENDBRANCH   1  13
BRANCH   5  16
ATOM     16  C   UNL d   1       0.317  -2.471   0.040  0.00  0.00     0.300 C 
ATOM     17  O   UNL d   1       1.384  -3.063  -0.058  0.00  0.00    -0.259 OA
BRANCH  16  18
ATOM     18  O   UNL d   1      -0.888  -3.102   0.158  0.00  0.00    -0.322 OA
ATOM     19  C   UNL d   1      -0.828  -4.528   0.158  0.00  0.00     0.213 C 
ENDBRANCH  16  18
ENDBRANCH   5  16
TORSDOF 4
