REMARK  3 active torsions:
REMARK  status: ('A' for Active; 'I' for Inactive)
REMARK    1  A    between atoms: C_2  and  C_1 
REMARK    2  A    between atoms: S_4  and  C_3 
REMARK    3  A    between atoms: C_5  and  S_4 
ROOT
ATOM      1  C   UNL d   1       0.507   1.415   0.463  0.00  0.00     0.065 A 
ATOM      2  C   UNL d   1      -0.152   3.988   1.237  0.00  0.00     0.097 A 
ATOM      3  N   UNL d   1      -0.984   2.963   1.567  0.00  0.00    -0.358 N 
ATOM      4  HN  UNL d   1      -1.842   3.131   2.091  1.00  0.00     0.166 HD
ATOM      5  C   UNL d   1       1.023   3.782   0.511  0.00  0.00     0.068 A 
ATOM      6  C   UNL d   1       1.349   2.479   0.122  0.00  0.00     0.044 A 
ATOM      7  C   UNL d   1      -0.640   1.713   1.179  0.00  0.00     0.105 A 
ATOM      8 CL   UNL d   1       2.110   5.049   0.074  0.00  0.00    -0.081 Cl
ENDROOT
BRANCH   2   9
ATOM      9  S   UNL d   1      -0.642   5.579   1.875  0.00  0.00    -0.064 SA
BRANCH   9  10
ATOM     10  C   UNL d   1      -1.625   6.175   0.542  0.00  0.00     0.047 A 
ATOM     11  S   UNL d   1      -1.754   7.864   0.262  0.00  0.00    -0.095 SA
ATOM     12  C   UNL d   1      -2.824   7.636  -1.051  0.00  0.00     0.051 A 
ATOM     13  C   UNL d   1      -3.084   6.303  -1.277  0.00  0.00     0.009 A 
ATOM     14  C   UNL d   1      -2.398   5.461  -0.351  0.00  0.00     0.027 A 
ENDBRANCH   9  10
ENDBRANCH   2   9
BRANCH   1  15
ATOM     15  C   UNL d   1       0.806  -0.008   0.102  0.00  0.00     0.418 C 
ATOM     16  F   UNL d   1       1.939  -0.151  -0.639  0.00  0.00    -0.166 F 
ATOM     17  F   UNL d   1      -0.192  -0.579  -0.625  0.00  0.00    -0.166 F 
ATOM     18  F   UNL d   1       0.971  -0.797   1.198  0.00  0.00    -0.166 F 
ENDBRANCH   1  15
TORSDOF 3
