REMARK  4 active torsions:
REMARK  status: ('A' for Active; 'I' for Inactive)
REMARK    1  A    between atoms: C_4  and  C_1 
REMARK    2  A    between atoms: C_2  and  C_3 
REMARK    3  A    between atoms: C_3  and  O_5 
REMARK    4  A    between atoms: O_5  and  C_4 
ROOT
ATOM      1  O   UNL d   1      -1.239   3.133  -0.109  0.00  0.00    -0.313 OA
ENDROOT
BRANCH   1   2
ATOM      2  C   UNL d   1      -1.093   4.480  -0.069  0.00  0.00     0.295 C 
ATOM      3  O   UNL d   1      -0.097   5.074   0.308  0.00  0.00    -0.259 OA
BRANCH   2   4
ATOM      4  C   UNL d   1      -2.332   5.146  -0.560  0.00  0.00     0.061 A 
ATOM      5  C   UNL d   1      -2.295   6.406  -1.176  0.00  0.00     0.050 A 
ATOM      6 CL   UNL d   1      -0.833   7.240  -1.571  0.00  0.00    -0.083 Cl
ATOM      7  C   UNL d   1      -3.490   7.039  -1.550  0.00  0.00     0.025 A 
ATOM      8  C   UNL d   1      -4.718   6.420  -1.333  0.00  0.00     0.002 A 
ATOM      9  C   UNL d   1      -4.763   5.157  -0.749  0.00  0.00     0.001 A 
ATOM     10  C   UNL d   1      -3.578   4.523  -0.361  0.00  0.00     0.019 A 
ENDBRANCH   2   4
ENDBRANCH   1   2
BRANCH   1  11
ATOM     11  C   UNL d   1      -0.077   2.352   0.228  0.00  0.00     0.222 C 
BRANCH  11  12
ATOM     12  C   UNL d   1      -0.371   1.403   1.360  0.00  0.00     0.026 A 
ATOM     13  C   UNL d   1       0.401   1.468   2.527  0.00  0.00     0.126 A 
ATOM     14  F   UNL d   1       1.382   2.377   2.631  0.00  0.00    -0.205 F 
ATOM     15  C   UNL d   1       0.201   0.597   3.597  0.00  0.00     0.043 A 
ATOM     16  C   UNL d   1      -0.789  -0.374   3.521  0.00  0.00     0.005 A 
ATOM     17  C   UNL d   1      -1.567  -0.469   2.367  0.00  0.00     0.024 A 
ATOM     18  C   UNL d   1      -1.357   0.408   1.293  0.00  0.00     0.045 A 
ATOM     19 CL   UNL d   1      -2.338   0.187  -0.113  0.00  0.00    -0.084 Cl
ENDBRANCH  11  12
ENDBRANCH   1  11
TORSDOF 4
