REMARK  1 active torsions:
REMARK  status: ('A' for Active; 'I' for Inactive)
REMARK    1  A    between atoms: C_4  and  N_1 
ROOT
ATOM      1  N   UNL d   1      -1.424  -2.098  -4.480  0.00  0.00    -0.359 N 
ATOM      2  HN  UNL d   1      -1.099  -2.993  -4.847  1.00  0.00     0.166 HD
ATOM      3  C   UNL d   1       0.393  -0.508  -1.095  0.00  0.00     0.103 A 
ATOM      4  C   UNL d   1      -0.857  -1.562  -3.388  0.00  0.00     0.042 A 
ATOM      5  C   UNL d   1      -0.656   0.196  -1.698  0.00  0.00     0.049 A 
ATOM      6  C   UNL d   1      -1.278  -0.329  -2.845  0.00  0.00    -0.007 A 
ATOM      7  C   UNL d   1       0.818  -1.728  -1.625  0.00  0.00     0.038 A 
ATOM      8  C   UNL d   1       0.184  -2.238  -2.764  0.00  0.00     0.033 A 
ATOM      9  C   UNL d   1      -2.434  -1.429  -5.084  0.00  0.00     0.005 A 
ATOM     10  C   UNL d   1      -2.324   0.344  -3.487  0.00  0.00     0.015 A 
ATOM     11  C   UNL d   1      -2.908  -0.209  -4.620  0.00  0.00     0.025 A 
ATOM     12  C   UNL d   1      -3.042  -2.061  -6.300  0.00  0.00     0.068 C 
ENDROOT
BRANCH   3  13
ATOM     13  N   UNL d   1       1.051   0.040   0.097  0.00  0.00    -0.116 N 
ATOM     14  O   UNL d   1       0.639   1.124   0.534  0.00  0.00    -0.532 OA
ATOM     15  O   UNL d   1       1.980  -0.612   0.594  0.00  0.00    -0.532 OA
ENDBRANCH   3  13
TORSDOF 1
