REMARK  7 active torsions:
REMARK  status: ('A' for Active; 'I' for Inactive)
REMARK    1  A    between atoms: C_4  and  C_1 
REMARK       I    between atoms: C_2  and  N_5 
REMARK       I    between atoms: N_6  and  C_2 
REMARK    2  A    between atoms: O_7  and  C_3 
REMARK    3  A    between atoms: O_22  and  C_4 
REMARK    4  A    between atoms: N_5  and  C_11 
REMARK    5  A    between atoms: C_14  and  N_6 
REMARK    6  A    between atoms: C_13  and  O_7 
REMARK    7  A    between atoms: C_30  and  O_22 
ROOT
ATOM      1  C   UNL d   1       1.938   0.041  -0.278  0.00  0.00     0.075 C 
ATOM      2  C   UNL d   1       1.106  -0.969  -0.787  0.00  0.00     0.092 C 
ATOM      3  C   UNL d   1       1.372   1.304  -0.057  0.00  0.00     0.050 C 
ATOM      4  C   UNL d   1       0.032   1.561  -0.352  0.00  0.00     0.037 C 
ATOM      5  C   UNL d   1      -0.160  -0.655  -1.299  0.00  0.00     0.040 C 
ATOM      6  C   UNL d   1      -0.695   0.616  -1.082  0.00  0.00     0.032 C 
ENDROOT
BRANCH   4   7
ATOM      7  N   UNL d   1      -0.667   2.684   0.151  0.00  0.00    -0.309 N 
ATOM      8  C   UNL d   1      -0.268   3.432   1.260  0.00  0.00     0.325 C 
ATOM      9  N   UNL d   1      -1.270   4.302   1.657  0.00  0.00    -0.309 N 
ATOM     10  O   UNL d   1       0.803   3.305   1.835  0.00  0.00    -0.247 OA
ATOM     11  H   UNL d   1      -2.019   4.461   1.003  0.00  0.00     0.170 HD
ATOM     12  H   UNL d   1      -1.646   2.735  -0.083  0.00  0.00     0.170 HD
BRANCH   9  13
ATOM     13  C   UNL d   1      -1.281   5.096   2.829  0.00  0.00     0.037 A 
ATOM     14  C   UNL d   1      -0.326   5.008   3.847  0.00  0.00     0.053 A 
ATOM     15  C   UNL d   1      -0.410   5.841   4.965  0.00  0.00     0.036 A 
ATOM     16 CL   UNL d   1       0.778   5.734   6.207  0.00  0.00    -0.084 Cl
ATOM     17  C   UNL d   1      -1.448   6.760   5.088  0.00  0.00     0.024 A 
ATOM     18  C   UNL d   1      -2.416   6.841   4.090  0.00  0.00     0.004 A 
ATOM     19  C   UNL d   1      -2.334   6.011   2.969  0.00  0.00     0.029 A 
ENDBRANCH   9  13
ENDBRANCH   4   7
BRANCH   1  20
ATOM     20  C   UNL d   1       3.329  -0.148   0.209  0.00  0.00     0.296 C 
ATOM     21  O   UNL d   1       3.865   0.653   0.970  0.00  0.00    -0.259 OA
BRANCH  20  22
ATOM     22  O   UNL d   1       3.950  -1.213  -0.352  0.00  0.00    -0.318 OA
BRANCH  22  23
ATOM     23  C   UNL d   1       5.373  -1.249  -0.136  0.00  0.00     0.174 C 
ATOM     24  C   UNL d   1       5.758  -1.749   1.247  0.00  0.00     0.034 C 
ENDBRANCH  22  23
ENDBRANCH  20  22
ENDBRANCH   1  20
BRANCH   2  25
ATOM     25  O   UNL d   1       1.369  -2.314  -0.634  0.00  0.00    -0.308 OA
BRANCH  25  26
ATOM     26  C   UNL d   1       1.371  -2.780   0.670  0.00  0.00     0.093 A 
ATOM     27  C   UNL d   1       0.961  -2.049   1.793  0.00  0.00     0.064 A 
ATOM     28  C   UNL d   1       1.194  -2.557   3.065  0.00  0.00     0.052 A 
ATOM     29 CL   UNL d   1       0.837  -1.612   4.452  0.00  0.00    -0.083 Cl
ATOM     30  C   UNL d   1       1.753  -3.818   3.175  0.00  0.00     0.111 A 
ATOM     31  N   UNL d   1       2.067  -4.599   2.111  0.00  0.00    -0.371 N 
ATOM     32  C   UNL d   1       1.872  -4.057   0.883  0.00  0.00     0.124 A 
ATOM     33  HN  UNL d   1       2.431  -5.544   2.229  1.00  0.00     0.164 HD
ENDBRANCH  25  26
ENDBRANCH   2  25
TORSDOF 7
