REMARK  1 active torsions:
REMARK  status: ('A' for Active; 'I' for Inactive)
REMARK    1  A    between atoms: C_9  and  C_5 
ROOT
ATOM      1  C   UNL d   1       0.137   0.662   0.010  0.00  0.00     0.059 A 
ATOM      2  C   UNL d   1      -0.169  -0.648   0.005  0.00  0.00     0.003 A 
ATOM      3  C   UNL d   1      -1.575  -0.893   0.002  0.00  0.00    -0.029 A 
ATOM      4  S   UNL d   1      -1.173   1.682   0.017  0.00  0.00    -0.078 SA
ATOM      5  C   UNL d   1      -2.263   0.343   0.012  0.00  0.00     0.058 A 
ATOM      6  S   UNL d   1       1.769   0.999   0.010  0.00  0.00    -0.074 SA
ATOM      7  C   UNL d   1       2.108  -0.673   0.004  0.00  0.00     0.059 A 
ATOM      8  C   UNL d   1       0.981  -1.498   0.004  0.00  0.00    -0.025 A 
ATOM      9 BR   UNL d   1       3.890  -1.288  -0.001  0.00  0.00    -0.042 Br
ATOM     10  C   UNL d   1      -2.312  -2.195  -0.011  0.00  0.00     0.050 C 
ATOM     11  C   UNL d   1       1.084  -2.987   0.004  0.00  0.00     0.051 C 
ENDROOT
BRANCH   5  12
ATOM     12  C   UNL d   1      -3.719   0.551   0.018  0.00  0.00     0.163 C 
ATOM     13  O   UNL d   1      -4.515  -0.395   0.016  0.00  0.00    -0.292 OA
ATOM     14  C   UNL d   1      -4.316   1.941   0.029  0.00  0.00     0.097 C 
ENDBRANCH   5  12
TORSDOF 1
