REMARK  6 active torsions:
REMARK  status: ('A' for Active; 'I' for Inactive)
REMARK    1  A    between atoms: C_7  and  N_1 
REMARK    2  A    between atoms: S_19  and  C_2 
REMARK    3  A    between atoms: S_4  and  C_12 
REMARK    4  A    between atoms: C_11  and  S_4 
REMARK    5  A    between atoms: C_12  and  C_24 
REMARK    6  A    between atoms: C_24  and  S_19 
ROOT
ATOM      1  N   UNL d   1       0.956  -0.650  -0.123  0.00  0.00    -0.241 N 
ATOM      2  C   UNL d   1       0.934   0.687   0.143  0.00  0.00     0.170 A 
ATOM      3  C   UNL d   1      -0.368  -0.980  -0.348  0.00  0.00     0.347 A 
ATOM      4  N   UNL d   1      -0.248   1.235   0.104  0.00  0.00    -0.275 N 
ATOM      5  HN  UNL d   1      -0.492   2.211   0.271  1.00  0.00     0.189 HD
ATOM      6  N   UNL d   1      -1.080   0.206  -0.211  0.00  0.00    -0.249 N 
ATOM      7  O   UNL d   1      -0.880  -2.069  -0.551  0.00  0.00    -0.245 OA
ATOM      8  H   UNL d   1      -2.087   0.294  -0.247  0.00  0.00     0.192 HD
ENDROOT
BRANCH   2   9
ATOM      9  S   UNL d   1       2.377   1.609   0.419  0.00  0.00    -0.091 SA
BRANCH   9  10
ATOM     10  C   UNL d   1       1.732   3.317   0.431  0.00  0.00     0.098 C 
BRANCH  10  11
ATOM     11  C   UNL d   1       0.996   3.631   1.723  0.00  0.00     0.156 C 
BRANCH  11  12
ATOM     12  S   UNL d   1       0.512   5.343   1.756  0.00  0.00     0.176 S 
ATOM     13  O   UNL d   1       1.710   6.154   1.863  0.00  0.00    -0.223 OA
ATOM     14  O   UNL d   1      -0.446   5.578   0.693  0.00  0.00    -0.223 OA
BRANCH  12  15
ATOM     15  C   UNL d   1      -0.359   5.483   3.302  0.00  0.00     0.059 A 
ATOM     16  C   UNL d   1       0.349   5.809   4.465  0.00  0.00     0.026 A 
ATOM     17  C   UNL d   1      -0.337   5.930   5.674  0.00  0.00     0.044 A 
ATOM     18  C   UNL d   1      -1.715   5.736   5.705  0.00  0.00     0.116 A 
ATOM     19  C   UNL d   1      -2.424   5.424   4.547  0.00  0.00     0.044 A 
ATOM     20  F   UNL d   1      -2.370   5.851   6.866  0.00  0.00    -0.206 F 
ATOM     21  C   UNL d   1      -1.746   5.301   3.334  0.00  0.00     0.026 A 
ENDBRANCH  12  15
ENDBRANCH  11  12
ENDBRANCH  10  11
ENDBRANCH   9  10
ENDBRANCH   2   9
BRANCH   1  22
ATOM     22  C   UNL d   1       1.976  -1.618  -0.013  0.00  0.00     0.049 A 
ATOM     23  C   UNL d   1       2.879  -1.617   1.056  0.00  0.00     0.069 A 
ATOM     24  C   UNL d   1       3.769  -2.682   1.226  0.00  0.00     0.104 A 
ATOM     25  O   UNL d   1       4.568  -2.639   2.341  0.00  0.00    -0.346 OA
ATOM     26  C   UNL d   1       3.778  -3.746   0.321  0.00  0.00     0.102 A 
ATOM     27  C   UNL d   1       5.588  -3.646   2.304  0.00  0.00     0.202 C 
ATOM     28  C   UNL d   1       5.026  -4.973   1.822  0.00  0.00     0.202 C 
ATOM     29  O   UNL d   1       4.572  -4.853   0.469  0.00  0.00    -0.346 OA
ATOM     30  C   UNL d   1       2.934  -3.725  -0.782  0.00  0.00     0.042 A 
ATOM     31  C   UNL d   1       2.023  -2.678  -0.935  0.00  0.00     0.033 A 
ENDBRANCH   1  22
TORSDOF 6
