REMARK  1 active torsions:
REMARK  status: ('A' for Active; 'I' for Inactive)
REMARK       I    between atoms: C_2  and  N_1 
REMARK    1  A    between atoms: C_5  and  C_2 
ROOT
ATOM      1  N   UNL d   1       1.778   2.815  -2.847  0.00  0.00    -0.197 NA
ATOM      2  C   UNL d   1       2.489   2.123  -2.243  0.00  0.00     0.068 C 
ATOM      3  C   UNL d   1       3.379   1.296  -1.433  0.00  0.00     0.226 C 
ENDROOT
BRANCH   3   4
ATOM      4  C   UNL d   1       2.753  -0.048  -1.134  0.00  0.00     0.232 C 
ATOM      5  N   UNL d   1       1.750  -0.125  -0.174  0.00  0.00    -0.351 N 
ATOM      6  C   UNL d   1       1.099   1.009   0.483  0.00  0.00     0.126 C 
ATOM      7  C   UNL d   1       1.127  -1.419   0.106  0.00  0.00     0.126 C 
ATOM      8  C   UNL d   1      -0.364   1.096   0.048  0.00  0.00     0.024 C 
ATOM      9  C   UNL d   1      -1.098  -0.222   0.343  0.00  0.00    -0.015 C 
ATOM     10  C   UNL d   1      -0.350  -1.409  -0.290  0.00  0.00     0.024 C 
ATOM     11  C   UNL d   1      -2.542  -0.164  -0.152  0.00  0.00     0.010 C 
ATOM     12  O   UNL d   1       3.176  -1.049  -1.719  0.00  0.00    -0.272 OA
ENDBRANCH   3   4
TORSDOF 1
