REMARK  4 active torsions:
REMARK  status: ('A' for Active; 'I' for Inactive)
REMARK    1  A    between atoms: C_7  and  C_4 
REMARK    2  A    between atoms: O_14  and  C_7 
REMARK    3  A    between atoms: O_15  and  C_8 
REMARK    4  A    between atoms: O_16  and  C_9 
ROOT
ATOM      1  C   UNL d   1       0.271  -0.895  -0.003  0.00  0.00     0.126 A 
ATOM      2  C   UNL d   1      -0.142   0.472   0.024  0.00  0.00     0.084 A 
ATOM      3  O   UNL d   1      -0.627  -1.941  -0.030  0.00  0.00    -0.300 OA
ATOM      4  C   UNL d   1      -1.976  -1.685  -0.069  0.00  0.00     0.153 A 
ATOM      5  C   UNL d   1      -1.618   0.698   0.076  0.00  0.00     0.190 A 
ATOM      6  C   UNL d   1      -2.504  -0.465  -0.030  0.00  0.00     0.100 A 
ATOM      7  C   UNL d   1       0.844   1.481   0.020  0.00  0.00     0.085 A 
ATOM      8  C   UNL d   1       1.635  -1.248  -0.006  0.00  0.00     0.103 A 
ATOM      9  O   UNL d   1      -2.171   1.776   0.222  0.00  0.00    -0.287 OA
ATOM     10  C   UNL d   1       2.197   1.095   0.008  0.00  0.00     0.040 A 
ATOM     11  C   UNL d   1       2.588  -0.237   0.000  0.00  0.00     0.042 A 
ENDROOT
BRANCH   4  12
ATOM     12  C   UNL d   1      -2.914  -2.838  -0.141  0.00  0.00     0.201 C 
ATOM     13  O   UNL d   1      -4.128  -2.747  -0.175  0.00  0.00    -0.645 OA
BRANCH  12  14
ATOM     14  O   UNL d   1      -2.262  -4.021  -0.164  0.00  0.00    -0.771 OA
ATOM     15  H   UNL d   1      -1.296  -3.913  -0.130  0.00  0.00     0.167 HD
ENDBRANCH  12  14
ENDBRANCH   4  12
BRANCH   8  16
ATOM     16  O   UNL d   1       2.219  -2.485  -0.014  0.00  0.00    -0.353 OA
ATOM     17  C   UNL d   1       1.426  -3.656   0.002  0.00  0.00     0.210 C 
ENDBRANCH   8  16
BRANCH   7  18
ATOM     18  O   UNL d   1       0.809   2.844   0.024  0.00  0.00    -0.355 OA
ATOM     19  C   UNL d   1      -0.373   3.611  -0.019  0.00  0.00     0.210 C 
ENDBRANCH   7  18
TORSDOF 4
