REMARK  7 active torsions:
REMARK  status: ('A' for Active; 'I' for Inactive)
REMARK    1  A    between atoms: O_9  and  C_3 
REMARK    2  A    between atoms: O_15  and  C_4 
REMARK    3  A    between atoms: S_10  and  C_5 
REMARK    4  A    between atoms: C_16  and  O_9 
REMARK    5  A    between atoms: C_12  and  S_10 
REMARK    6  A    between atoms: C_11  and  C_12 
REMARK    7  A    between atoms: C_14  and  C_11 
ROOT
ATOM      1  N   UNL d   1      -0.552   1.358   0.205  0.00  0.00    -0.315 N 
ATOM      2  HN  UNL d   1      -0.978   2.281   0.293  1.00  0.00     0.170 HD
ATOM      3  C   UNL d   1      -0.772  -1.040   0.056  0.00  0.00     0.149 A 
ATOM      4  C   UNL d   1      -1.284   0.234   0.242  0.00  0.00     0.178 A 
ATOM      5  C   UNL d   1       0.768   1.199   0.046  0.00  0.00     0.146 A 
ATOM      6  N   UNL d   1       1.383   0.015  -0.089  0.00  0.00    -0.338 N 
ATOM      7  HN  UNL d   1       2.394  -0.047  -0.211  1.00  0.00     0.168 HD
ATOM      8  C   UNL d   1       0.609  -1.094  -0.056  0.00  0.00     0.045 A 
ATOM      9  C   UNL d   1       1.338  -2.406  -0.101  0.00  0.00     0.071 C 
ENDROOT
BRANCH   5  10
ATOM     10  S   UNL d   1       1.794   2.644  -0.009  0.00  0.00    -0.086 SA
BRANCH  10  11
ATOM     11  C   UNL d   1       0.766   3.780   0.977  0.00  0.00     0.166 C 
BRANCH  11  12
ATOM     12  C   UNL d   1       0.526   3.263   2.388  0.00  0.00     0.169 C 
ATOM     13  O   UNL d   1       1.333   2.553   2.991  0.00  0.00    -0.291 OA
BRANCH  12  14
ATOM     14  C   UNL d   1      -0.676   3.742   3.129  0.00  0.00     0.010 A 
ATOM     15  C   UNL d   1      -1.864   4.115   2.490  0.00  0.00     0.015 A 
ATOM     16  C   UNL d   1      -2.949   4.577   3.241  0.00  0.00     0.001 A 
ATOM     17  C   UNL d   1      -2.859   4.657   4.630  0.00  0.00     0.000 A 
ATOM     18  C   UNL d   1      -1.689   4.267   5.276  0.00  0.00     0.001 A 
ATOM     19  C   UNL d   1      -0.604   3.809   4.529  0.00  0.00     0.015 A 
ENDBRANCH  12  14
ENDBRANCH  11  12
ENDBRANCH  10  11
ENDBRANCH   5  10
BRANCH   4  20
ATOM     20  O   UNL d   1      -2.594   0.478   0.535  0.00  0.00    -0.344 OA
ATOM     21  H   UNL d   1      -2.998  -0.358   0.815  0.00  0.00     0.219 HD
ENDBRANCH   4  20
BRANCH   3  22
ATOM     22  O   UNL d   1      -1.455  -2.225   0.084  0.00  0.00    -0.304 OA
BRANCH  22  23
ATOM     23  C   UNL d   1      -2.692  -2.353  -0.502  0.00  0.00     0.076 A 
ATOM     24  C   UNL d   1      -3.153  -1.608  -1.590  0.00  0.00     0.039 A 
ATOM     25  C   UNL d   1      -4.478  -1.748  -2.016  0.00  0.00     0.026 A 
ATOM     26  C   UNL d   1      -5.319  -2.668  -1.391  0.00  0.00     0.034 A 
ATOM     27  C   UNL d   1      -4.837  -3.473  -0.361  0.00  0.00     0.026 A 
ATOM     28 CL   UNL d   1      -6.961  -2.802  -1.881  0.00  0.00    -0.084 Cl
ATOM     29  C   UNL d   1      -3.522  -3.317   0.079  0.00  0.00     0.039 A 
ENDBRANCH  22  23
ENDBRANCH   3  22
TORSDOF 7
