REMARK  4 active torsions:
REMARK  status: ('A' for Active; 'I' for Inactive)
REMARK    1  A    between atoms: C_7  and  C_1 
REMARK    2  A    between atoms: C_10  and  C_6 
REMARK       I    between atoms: N_12  and  C_7 
REMARK    3  A    between atoms: N_8  and  N_12 
REMARK    4  A    between atoms: N_14  and  C_11 
ROOT
ATOM      1  C   UNL d   1       1.185  -0.629  -0.006  0.00  0.00     0.119 A 
ATOM      2  C   UNL d   1       1.145   0.750  -0.008  0.00  0.00     0.064 A 
ATOM      3  N   UNL d   1      -1.001   0.005   0.004  0.00  0.00    -0.303 N 
ATOM      4  HN  UNL d   1      -2.019  -0.043   0.010  1.00  0.00     0.186 HD
ATOM      5  N   UNL d   1      -0.127  -1.017  -0.002  0.00  0.00    -0.295 N 
ATOM      6  C   UNL d   1      -0.231   1.102   0.001  0.00  0.00     0.035 A 
ATOM      7  H   UNL d   1      -0.478  -1.969  -0.000  0.00  0.00     0.187 HD
ENDROOT
BRANCH   1   8
ATOM      8  C   UNL d   1       2.257  -1.595  -0.007  0.00  0.00     0.288 C 
ATOM      9  N   UNL d   1       3.529  -1.042  -0.007  0.00  0.00    -0.264 N 
ATOM     10  H   UNL d   1       3.655  -0.039  -0.005  0.00  0.00     0.190 HD
ATOM     11  O   UNL d   1       2.022  -2.801  -0.008  0.00  0.00    -0.264 OA
BRANCH   9  12
ATOM     12  N   UNL d   1       4.629  -1.845  -0.005  0.00  0.00    -0.293 N 
ATOM     13  C   UNL d   1       5.774  -1.243  -0.004  0.00  0.00     0.194 C 
ATOM     14  HN  UNL d   1       4.554  -2.862  -0.004  1.00  0.00     0.187 HD
BRANCH  13  15
ATOM     15  N   UNL d   1       7.005  -1.851  -0.001  0.00  0.00    -0.385 N 
ATOM     16  C   UNL d   1       7.127  -3.302   0.000  0.00  0.00     0.149 C 
ATOM     17  C   UNL d   1       8.251  -1.109  -0.003  0.00  0.00     0.149 C 
ENDBRANCH  13  15
ENDBRANCH   9  12
ENDBRANCH   1   8
BRANCH   6  18
ATOM     18  C   UNL d   1      -0.856   2.489   0.010  0.00  0.00    -0.007 C 
ATOM     19  C   UNL d   1       0.225   3.592   0.009  0.00  0.00     0.021 C 
ATOM     20  C   UNL d   1      -1.739   2.691  -1.238  0.00  0.00     0.021 C 
ATOM     21  C   UNL d   1      -1.724   2.680   1.271  0.00  0.00     0.021 C 
ENDBRANCH   6  18
TORSDOF 4
