REMARK  4 active torsions:
REMARK  status: ('A' for Active; 'I' for Inactive)
REMARK    1  A    between atoms: C_4  and  C_1 
REMARK       I    between atoms: N_7  and  C_4 
REMARK    2  A    between atoms: C_10  and  N_7 
REMARK    3  A    between atoms: O_8  and  C_12 
REMARK    4  A    between atoms: C_9  and  O_8 
ROOT
ATOM      1  C   UNL d   1      -0.570  -4.116   0.103  0.00  0.00     0.069 A 
ATOM      2  C   UNL d   1      -1.110  -3.541  -1.061  0.00  0.00     0.102 A 
ATOM      3  C   UNL d   1      -1.336  -5.054   0.814  0.00  0.00     0.032 A 
ATOM      4  C   UNL d   1      -2.452  -3.793  -1.391  0.00  0.00     0.039 A 
ATOM      5  C   UNL d   1      -2.659  -5.319   0.457  0.00  0.00     0.002 A 
ATOM      6  C   UNL d   1      -3.227  -4.668  -0.631  0.00  0.00     0.003 A 
ENDROOT
BRANCH   1   7
ATOM      7  N   UNL d   1       0.714  -3.858   0.628  0.00  0.00    -0.320 N 
ATOM      8  C   UNL d   1       1.292  -2.611   0.719  0.00  0.00     0.258 C 
ATOM      9  O   UNL d   1       0.711  -1.559   0.466  0.00  0.00    -0.267 OA
ATOM     10  H   UNL d   1       1.112  -4.580   1.216  0.00  0.00     0.169 HD
BRANCH   8  11
ATOM     11  C   UNL d   1       2.666  -2.584   1.235  0.00  0.00     0.063 A 
ATOM     12  C   UNL d   1       3.569  -3.627   1.328  0.00  0.00     0.091 A 
ATOM     13  S   UNL d   1       5.086  -3.177   1.954  0.00  0.00    -0.065 SA
ATOM     14 CL   UNL d   1       3.374  -5.284   0.891  0.00  0.00    -0.075 Cl
ATOM     15  C   UNL d   1       4.586  -1.573   2.112  0.00  0.00     0.077 A 
ATOM     16  C   UNL d   1       3.296  -1.368   1.703  0.00  0.00     0.050 A 
ATOM     17 CL   UNL d   1       5.668  -0.395   2.731  0.00  0.00    -0.076 Cl
ENDBRANCH   8  11
ENDBRANCH   1   7
BRANCH   2  18
ATOM     18  O   UNL d   1      -0.477  -2.748  -1.992  0.00  0.00    -0.307 OA
BRANCH  18  19
ATOM     19  C   UNL d   1       0.840  -2.937  -2.341  0.00  0.00     0.098 A 
ATOM     20  C   UNL d   1       1.519  -4.148  -2.528  0.00  0.00     0.069 A 
ATOM     21  C   UNL d   1       2.894  -4.139  -2.796  0.00  0.00     0.050 A 
ATOM     22 CL   UNL d   1       0.748  -5.694  -2.503  0.00  0.00    -0.081 Cl
ATOM     23  C   UNL d   1       3.571  -2.931  -2.946  0.00  0.00     0.035 A 
ATOM     24  C   UNL d   1       2.886  -1.725  -2.865  0.00  0.00     0.026 A 
ATOM     25 CL   UNL d   1       5.265  -2.930  -3.243  0.00  0.00    -0.084 Cl
ATOM     26  C   UNL d   1       1.524  -1.732  -2.568  0.00  0.00     0.041 A 
ENDBRANCH  18  19
ENDBRANCH   2  18
TORSDOF 4
