REMARK  3 active torsions:
REMARK  status: ('A' for Active; 'I' for Inactive)
REMARK    1  A    between atoms: C_4  and  C_1 
REMARK       I    between atoms: N_5  and  C_4 
REMARK    2  A    between atoms: C_10  and  N_5 
REMARK       I    between atoms: C_6  and  N_7 
REMARK    3  A    between atoms: N_7  and  C_11 
ROOT
ATOM      1  C   UNL d   1      -2.322   2.458  -0.398  0.00  0.00     0.034 A 
ATOM      2  C   UNL d   1      -2.536   2.985  -3.172  0.00  0.00     0.034 A 
ATOM      3  C   UNL d   1      -2.520   1.421  -1.311  0.00  0.00     0.032 A 
ATOM      4  C   UNL d   1      -2.355   3.770  -0.873  0.00  0.00     0.032 A 
ATOM      5  C   UNL d   1      -2.618   1.678  -2.685  0.00  0.00     0.032 A 
ATOM      6  C   UNL d   1      -2.454   4.028  -2.248  0.00  0.00     0.032 A 
ENDROOT
BRANCH   1   7
ATOM      7  N   UNL d   1      -2.047   2.255   0.975  0.00  0.00    -0.327 N 
ATOM      8  C   UNL d   1      -1.680   1.049   1.547  0.00  0.00     0.227 C 
ATOM      9  O   UNL d   1      -1.586  -0.023   0.966  0.00  0.00    -0.273 OA
ATOM     10  H   UNL d   1      -1.970   3.078   1.553  0.00  0.00     0.169 HD
BRANCH   8  11
ATOM     11  C   UNL d   1      -1.332   1.123   3.004  0.00  0.00     0.086 A 
ATOM     12  C   UNL d   1       0.033   0.703   3.569  0.00  0.00    -0.035 A 
ATOM     13  C   UNL d   1       0.553   1.339   4.836  0.00  0.00     0.015 C 
ATOM     14  C   UNL d   1       1.125   0.188   2.659  0.00  0.00     0.015 C 
ATOM     15  C   UNL d   1      -1.177  -0.181   3.758  0.00  0.00     0.024 A 
ENDBRANCH   8  11
ENDBRANCH   1   7
BRANCH   2  16
ATOM     16  N   UNL d   1      -2.506   3.167  -4.574  0.00  0.00    -0.328 N 
ATOM     17  C   UNL d   1      -2.319   4.358  -5.248  0.00  0.00     0.218 C 
ATOM     18  O   UNL d   1      -2.225   5.480  -4.749  0.00  0.00    -0.274 OA
ATOM     19  C   UNL d   1      -2.212   4.205  -6.744  0.00  0.00     0.117 C 
ATOM     20  H   UNL d   1      -2.544   2.319  -5.128  0.00  0.00     0.169 HD
ENDBRANCH   2  16
TORSDOF 3
