REMARK  3 active torsions:
REMARK  status: ('A' for Active; 'I' for Inactive)
REMARK    1  A    between atoms: N_8  and  C_4 
REMARK    2  A    between atoms: C_11  and  C_5 
REMARK    3  A    between atoms: C_12  and  N_8 
ROOT
ATOM      1  C   UNL d   1       0.737   1.189  -0.377  0.00  0.00     0.071 C 
ATOM      2  C   UNL d   1       1.478  -0.080  -0.169  0.00  0.00     0.165 C 
ATOM      3  C   UNL d   1      -0.733   1.244  -0.171  0.00  0.00     0.165 C 
ATOM      4  C   UNL d   1       1.316   2.247  -0.970  0.00  0.00     0.107 C 
ATOM      5  C   UNL d   1      -0.742  -1.220   0.380  0.00  0.00     0.033 C 
ATOM      6  C   UNL d   1      -1.478  -0.062  -0.306  0.00  0.00     0.093 C 
ATOM      7  C   UNL d   1       0.672  -1.358  -0.211  0.00  0.00     0.093 C 
ATOM      8  O   UNL d   1      -1.328   2.305   0.002  0.00  0.00    -0.292 OA
ATOM      9  O   UNL d   1       2.707  -0.105  -0.103  0.00  0.00    -0.292 OA
ENDROOT
BRANCH   4  10
ATOM     10  N   UNL d   1       2.609   2.373  -1.421  0.00  0.00    -0.365 N 
ATOM     11  H   UNL d   1       3.223   1.587  -1.197  0.00  0.00     0.165 HD
BRANCH  10  12
ATOM     12  C   UNL d   1       3.159   3.385  -2.226  0.00  0.00     0.032 A 
ATOM     13  C   UNL d   1       2.489   4.578  -2.525  0.00  0.00     0.031 A 
ATOM     14  C   UNL d   1       3.066   5.545  -3.360  0.00  0.00     0.026 A 
ATOM     15  C   UNL d   1       4.320   5.323  -3.914  0.00  0.00     0.034 A 
ATOM     16  C   UNL d   1       5.002   4.141  -3.643  0.00  0.00     0.026 A 
ATOM     17 CL   UNL d   1       5.027   6.511  -4.936  0.00  0.00    -0.084 Cl
ATOM     18  C   UNL d   1       4.422   3.180  -2.805  0.00  0.00     0.031 A 
ENDBRANCH  10  12
ENDBRANCH   4  10
BRANCH   5  19
ATOM     19  C   UNL d   1      -0.770  -1.219   1.907  0.00  0.00    -0.053 A 
ATOM     20  C   UNL d   1      -1.423  -0.236   2.668  0.00  0.00     0.007 A 
ATOM     21  C   UNL d   1      -1.476  -0.319   4.063  0.00  0.00     0.001 A 
ATOM     22  C   UNL d   1      -0.880  -1.385   4.727  0.00  0.00     0.000 A 
ATOM     23  C   UNL d   1      -0.235  -2.375   3.995  0.00  0.00     0.001 A 
ATOM     24  C   UNL d   1      -0.189  -2.297   2.601  0.00  0.00     0.007 A 
ENDBRANCH   5  19
TORSDOF 3
