REMARK  4 active torsions:
REMARK  status: ('A' for Active; 'I' for Inactive)
REMARK    1  A    between atoms: C_13  and  C_9 
REMARK    2  A    between atoms: C_19  and  C_10 
REMARK    3  A    between atoms: C_11  and  C_14 
REMARK    4  A    between atoms: C_12  and  C_15 
ROOT
ATOM      1  N   UNL d   1      -0.283  -0.588  -0.022  0.00  0.00    -0.204 N 
ATOM      2  C   UNL d   1      -0.247   0.794  -0.021  0.00  0.00     0.133 A 
ATOM      3  N   UNL d   1      -1.556  -1.062  -0.018  0.00  0.00    -0.293 N 
ATOM      4  HN  UNL d   1      -1.857  -2.037  -0.020  1.00  0.00     0.187 HD
ATOM      5  C   UNL d   1       0.858  -1.409  -0.020  0.00  0.00     0.270 A 
ATOM      6  C   UNL d   1      -1.547   1.225  -0.016  0.00  0.00     0.077 A 
ATOM      7  C   UNL d   1       2.148  -0.661  -0.013  0.00  0.00     0.106 A 
ATOM      8  N   UNL d   1       0.955   1.414  -0.019  0.00  0.00    -0.340 N 
ATOM      9  C   UNL d   1       2.130   0.684  -0.011  0.00  0.00     0.049 A 
ATOM     10  C   UNL d   1      -2.330   0.035  -0.010  0.00  0.00     0.037 A 
ATOM     11  O   UNL d   1       0.792  -2.632  -0.019  0.00  0.00    -0.266 OA
ATOM     12  H   UNL d   1       1.044   2.429  -0.011  0.00  0.00     0.167 HD
ENDROOT
BRANCH   9  13
ATOM     13  C   UNL d   1       3.394   1.435   0.013  0.00  0.00    -0.008 A 
ATOM     14  C   UNL d   1       4.023   1.808  -1.182  0.00  0.00     0.029 A 
ATOM     15  C   UNL d   1       5.233   2.522  -1.167  0.00  0.00     0.049 A 
ATOM     16  C   UNL d   1       5.805   2.862   0.070  0.00  0.00     0.032 A 
ATOM     17  C   UNL d   1       5.189   2.499   1.278  0.00  0.00     0.049 A 
ATOM     18  C   UNL d   1       3.981   1.784   1.236  0.00  0.00     0.029 A 
BRANCH  15  19
ATOM     19  C   UNL d   1       5.902   2.911  -2.465  0.00  0.00     0.417 C 
ATOM     20  F   UNL d   1       7.063   3.600  -2.290  0.00  0.00    -0.166 F 
ATOM     21  F   UNL d   1       6.219   1.830  -3.228  0.00  0.00    -0.166 F 
ATOM     22  F   UNL d   1       5.110   3.702  -3.239  0.00  0.00    -0.166 F 
ENDBRANCH  15  19
BRANCH  17  23
ATOM     23  C   UNL d   1       5.805   2.867   2.608  0.00  0.00     0.417 C 
ATOM     24  F   UNL d   1       6.978   3.549   2.492  0.00  0.00    -0.166 F 
ATOM     25  F   UNL d   1       4.986   3.655   3.357  0.00  0.00    -0.166 F 
ATOM     26  F   UNL d   1       6.080   1.775   3.372  0.00  0.00    -0.166 F 
ENDBRANCH  17  23
ENDBRANCH   9  13
BRANCH  10  27
ATOM     27  C   UNL d   1      -3.851  -0.066   0.017  0.00  0.00    -0.007 C 
ATOM     28  C   UNL d   1      -4.341  -1.531   0.010  0.00  0.00     0.021 C 
ATOM     29  C   UNL d   1      -4.398   0.611   1.290  0.00  0.00     0.021 C 
ATOM     30  C   UNL d   1      -4.453   0.639  -1.216  0.00  0.00     0.021 C 
ENDBRANCH  10  27
TORSDOF 4
