REMARK  4 active torsions:
REMARK  status: ('A' for Active; 'I' for Inactive)
REMARK    1  A    between atoms: C_5  and  C_1 
REMARK    2  A    between atoms: C_6  and  C_2 
REMARK    3  A    between atoms: O_14  and  C_5 
REMARK    4  A    between atoms: O_13  and  C_6 
ROOT
ATOM      1  C   UNL d   1      -2.632   0.661  -0.056  0.00  0.00     0.056 A 
ATOM      2  C   UNL d   1      -2.585  -0.734   0.078  0.00  0.00     0.056 A 
ATOM      3  C   UNL d   1      -1.417   1.372  -0.115  0.00  0.00     0.045 A 
ATOM      4  C   UNL d   1      -1.348  -1.396   0.181  0.00  0.00     0.045 A 
ATOM      5  C   UNL d   1      -0.186   0.714  -0.027  0.00  0.00     0.056 A 
ATOM      6  C   UNL d   1      -0.153  -0.675   0.121  0.00  0.00     0.056 A 
ATOM      7 CL   UNL d   1       1.248   1.669  -0.112  0.00  0.00    -0.083 Cl
ATOM      8 CL   UNL d   1       1.323  -1.563   0.230  0.00  0.00    -0.083 Cl
ENDROOT
BRANCH   1   9
ATOM      9  C   UNL d   1      -3.857   1.482  -0.252  0.00  0.00     0.177 C 
ATOM     10  O   UNL d   1      -3.821   2.461  -0.983  0.00  0.00    -0.646 OA
BRANCH   9  11
ATOM     11  O   UNL d   1      -4.949   1.170   0.463  0.00  0.00    -0.773 OA
ATOM     12  H   UNL d   1      -4.965   0.320   0.965  0.00  0.00     0.167 HD
ENDBRANCH   9  11
ENDBRANCH   1   9
BRANCH   2  13
ATOM     13  C   UNL d   1      -3.802  -1.549   0.191  0.00  0.00     0.177 C 
ATOM     14  O   UNL d   1      -4.689  -1.244   0.970  0.00  0.00    -0.646 OA
BRANCH  13  15
ATOM     15  O   UNL d   1      -3.827  -2.627  -0.610  0.00  0.00    -0.773 OA
ATOM     16  H   UNL d   1      -3.103  -2.713  -1.262  0.00  0.00     0.167 HD
ENDBRANCH  13  15
ENDBRANCH   2  13
TORSDOF 4
