REMARK  2 active torsions:
REMARK  status: ('A' for Active; 'I' for Inactive)
REMARK    1  A    between atoms: N_5  and  C_1 
REMARK    2  A    between atoms: O_10  and  C_2 
REMARK       I    between atoms: C_4  and  N_5 
REMARK       I    between atoms: N_8  and  C_4 
ROOT
ATOM      1  C   UNL d   1      -1.464   1.344   0.229  0.00  0.00     0.078 A 
ATOM      2  C   UNL d   1      -1.524   0.133  -0.536  0.00  0.00     0.124 A 
ATOM      3  C   UNL d   1      -0.533  -0.749  -0.181  0.00  0.00     0.110 A 
ATOM      4  S   UNL d   1       0.505  -0.134   1.006  0.00  0.00    -0.085 SA
ATOM      5  C   UNL d   1      -0.381   1.334   1.085  0.00  0.00     0.083 A 
ATOM      6 CL   UNL d   1      -0.241  -2.318  -0.823  0.00  0.00    -0.073 Cl
ENDROOT
BRANCH   1   7
ATOM      7  N   UNL d   1      -2.405   2.365   0.109  0.00  0.00    -0.306 N 
ATOM      8  C   UNL d   1      -2.186   3.683   0.440  0.00  0.00     0.322 C 
ATOM      9  N   UNL d   1      -3.301   4.503   0.282  0.00  0.00    -0.343 N 
ATOM     10  O   UNL d   1      -1.095   4.129   0.789  0.00  0.00    -0.247 OA
ATOM     11  C   UNL d   1      -3.101   5.942   0.226  0.00  0.00     0.154 C 
ATOM     12  C   UNL d   1      -4.668   4.038   0.096  0.00  0.00     0.154 C 
ATOM     13  H   UNL d   1      -3.176   2.169  -0.507  0.00  0.00     0.171 HD
ENDBRANCH   1   7
BRANCH   2  14
ATOM     14  O   UNL d   1      -2.442  -0.166  -1.492  0.00  0.00    -0.351 OA
ATOM     15  C   UNL d   1      -2.361   0.711  -2.615  0.00  0.00     0.210 C 
ENDBRANCH   2  14
TORSDOF 2
