REMARK  3 active torsions:
REMARK  status: ('A' for Active; 'I' for Inactive)
REMARK    1  A    between atoms: C_3  and  C_1 
REMARK    2  A    between atoms: C_2  and  C_4 
REMARK    3  A    between atoms: C_5  and  C_3 
ROOT
ATOM      1  C   UNL d   1       1.061  -0.137  -0.019  0.00  0.00     0.097 C 
ATOM      2  C   UNL d   1       0.309   0.952   0.240  0.00  0.00     0.045 C 
ATOM      3  C   UNL d   1       0.526  -1.400  -0.386  0.00  0.00     0.103 C 
ATOM      4  N   UNL d   1       0.091  -2.441  -0.659  0.00  0.00    -0.191 NA
ENDROOT
BRANCH   1   5
ATOM      5  C   UNL d   1       2.556   0.034   0.010  0.00  0.00     0.209 C 
ATOM      6  O   UNL d   1       3.022   1.156  -0.199  0.00  0.00    -0.285 OA
BRANCH   5   7
ATOM      7  C   UNL d   1       3.397  -1.131   0.287  0.00  0.00     0.056 A 
ATOM      8  S   UNL d   1       4.963  -1.200  -0.414  0.00  0.00    -0.098 SA
ATOM      9  C   UNL d   1       5.285  -2.728   0.279  0.00  0.00     0.050 A 
ATOM     10  C   UNL d   1       4.240  -3.171   1.056  0.00  0.00     0.009 A 
ATOM     11  C   UNL d   1       3.156  -2.244   1.074  0.00  0.00     0.023 A 
ENDBRANCH   5   7
ENDBRANCH   1   5
BRANCH   2  12
ATOM     12  C   UNL d   1      -1.119   0.968   0.262  0.00  0.00     0.007 A 
ATOM     13  C   UNL d   1      -2.034   0.025   0.710  0.00  0.00     0.038 A 
ATOM     14  C   UNL d   1      -3.376   0.446   0.541  0.00  0.00     0.018 A 
ATOM     15 BR   UNL d   1      -4.831  -0.646   1.037  0.00  0.00    -0.051 Br
ATOM     16  C   UNL d   1      -3.487   1.699  -0.000  0.00  0.00     0.069 A 
ATOM     17  S   UNL d   1      -1.948   2.377  -0.302  0.00  0.00    -0.101 SA
ENDBRANCH   2  12
TORSDOF 3
