REMARK  2 active torsions:
REMARK  status: ('A' for Active; 'I' for Inactive)
REMARK    1  A    between atoms: S_5  and  C_1 
REMARK    2  A    between atoms: C_16  and  C_9 
ROOT
ATOM      1  C   UNL d   1       1.174  -1.578  -0.056  0.00  0.00     0.115 A 
ATOM      2  C   UNL d   1       0.067  -0.747  -0.118  0.00  0.00     0.046 A 
ATOM      3  C   UNL d   1       0.430   0.653  -0.159  0.00  0.00    -0.014 A 
ATOM      4  S   UNL d   1       2.624  -0.662  -0.121  0.00  0.00    -0.066 SA
ATOM      5  C   UNL d   1       1.800   0.828  -0.186  0.00  0.00     0.093 A 
ATOM      6  C   UNL d   1      -1.334  -1.171  -0.114  0.00  0.00     0.162 C 
ATOM      7  C   UNL d   1      -0.624   1.739  -0.141  0.00  0.00     0.051 C 
ATOM      8  C   UNL d   1      -1.975   1.211   0.413  0.00  0.00     0.030 C 
ATOM      9  C   UNL d   1       2.478   2.085  -0.238  0.00  0.00     0.107 C 
ATOM     10  C   UNL d   1      -2.355  -0.072  -0.359  0.00  0.00     0.093 C 
ATOM     11  N   UNL d   1       2.992   3.126  -0.269  0.00  0.00    -0.191 NA
ATOM     12  O   UNL d   1      -1.674  -2.337   0.044  0.00  0.00    -0.292 OA
ENDROOT
BRANCH   1  13
ATOM     13  S   UNL d   1       1.378  -3.358   0.006  0.00  0.00     0.179 S 
ATOM     14  O   UNL d   1       0.619  -3.855  -1.123  0.00  0.00    -0.222 OA
ATOM     15  O   UNL d   1       2.803  -3.611   0.118  0.00  0.00    -0.222 OA
ATOM     16  C   UNL d   1       0.627  -3.866   1.530  0.00  0.00     0.167 C 
ENDBRANCH   1  13
BRANCH   8  17
ATOM     17  C   UNL d   1      -2.041   1.000   1.929  0.00  0.00    -0.053 A 
ATOM     18  C   UNL d   1      -0.933   1.154   2.779  0.00  0.00     0.007 A 
ATOM     19  C   UNL d   1      -1.039   0.943   4.156  0.00  0.00     0.001 A 
ATOM     20  C   UNL d   1      -2.259   0.585   4.715  0.00  0.00     0.000 A 
ATOM     21  C   UNL d   1      -3.374   0.434   3.896  0.00  0.00     0.001 A 
ATOM     22  C   UNL d   1      -3.267   0.641   2.518  0.00  0.00     0.007 A 
ENDBRANCH   8  17
TORSDOF 2
