REMARK  7 active torsions:
REMARK  status: ('A' for Active; 'I' for Inactive)
REMARK    1  A    between atoms: C_2  and  C_1 
REMARK    2  A    between atoms: C_4  and  C_1 
REMARK    3  A    between atoms: C_5  and  C_1 
REMARK    4  A    between atoms: O_16  and  C_1 
REMARK       I    between atoms: C_3  and  N_7 
REMARK       I    between atoms: N_6  and  C_3 
REMARK    5  A    between atoms: O_22  and  C_4 
REMARK    6  A    between atoms: C_9  and  N_6 
REMARK    7  A    between atoms: N_7  and  C_21 
ROOT
ATOM      1  C   UNL d   1       0.519   1.240  -0.441  0.00  0.00    -0.005 A 
ATOM      2  C   UNL d   1      -0.832   1.587  -0.579  0.00  0.00     0.013 A 
ATOM      3  C   UNL d   1       1.443   2.296  -0.307  0.00  0.00     0.013 A 
ATOM      4  C   UNL d   1      -0.327   3.934  -0.207  0.00  0.00     0.036 A 
ATOM      5  C   UNL d   1       1.028   3.626  -0.191  0.00  0.00     0.030 A 
ATOM      6  C   UNL d   1      -1.250   2.913  -0.442  0.00  0.00     0.030 A 
ENDROOT
BRANCH   4   7
ATOM      7  N   UNL d   1      -0.836   5.229  -0.037  0.00  0.00    -0.309 N 
ATOM      8  C   UNL d   1      -0.145   6.377   0.318  0.00  0.00     0.325 C 
ATOM      9  N   UNL d   1      -0.927   7.476  -0.012  0.00  0.00    -0.309 N 
ATOM     10  O   UNL d   1       0.985   6.426   0.778  0.00  0.00    -0.247 OA
ATOM     11  H   UNL d   1      -1.636   7.268  -0.699  0.00  0.00     0.170 HD
ATOM     12  H   UNL d   1      -1.842   5.316  -0.041  0.00  0.00     0.170 HD
BRANCH   9  13
ATOM     13  C   UNL d   1      -0.534   8.820   0.059  0.00  0.00     0.037 A 
ATOM     14  C   UNL d   1      -1.082   9.672  -0.904  0.00  0.00     0.042 A 
ATOM     15  C   UNL d   1      -0.726  11.022  -0.961  0.00  0.00    -0.024 A 
ATOM     16  C   UNL d   1      -1.214  11.844  -1.986  0.00  0.00     0.012 A 
ATOM     17  C   UNL d   1       0.146  11.549   0.014  0.00  0.00    -0.026 A 
ATOM     18  C   UNL d   1      -0.862  13.191  -2.040  0.00  0.00     0.001 A 
ATOM     19  C   UNL d   1      -0.030  13.726  -1.062  0.00  0.00     0.001 A 
ATOM     20  C   UNL d   1       0.472  12.914  -0.042  0.00  0.00     0.012 A 
ATOM     21  C   UNL d   1       0.667  10.691   1.001  0.00  0.00     0.014 A 
ATOM     22  C   UNL d   1       0.344   9.328   1.014  0.00  0.00     0.030 A 
ENDBRANCH   9  13
ENDBRANCH   4   7
BRANCH   1  23
ATOM     23  C   UNL d   1       1.007  -0.214  -0.442  0.00  0.00     0.271 C 
BRANCH  23  24
ATOM     24  C   UNL d   1       1.175  -0.802  -1.854  0.00  0.00     0.432 C 
ATOM     25  F   UNL d   1       0.146  -1.598  -2.232  0.00  0.00    -0.167 F 
ATOM     26  F   UNL d   1       1.317   0.140  -2.815  0.00  0.00    -0.167 F 
ATOM     27  F   UNL d   1       2.296  -1.576  -1.906  0.00  0.00    -0.167 F 
ENDBRANCH  23  24
BRANCH  23  28
ATOM     28  C   UNL d   1       0.079  -1.197   0.299  0.00  0.00     0.307 C 
ATOM     29  O   UNL d   1      -1.126  -1.086   0.466  0.00  0.00    -0.261 OA
BRANCH  28  30
ATOM     30  O   UNL d   1       0.799  -2.277   0.751  0.00  0.00    -0.324 OA
ATOM     31  C   UNL d   1       0.018  -3.211   1.500  0.00  0.00     0.213 C 
ENDBRANCH  28  30
ENDBRANCH  23  28
BRANCH  23  32
ATOM     32  O   UNL d   1       2.275  -0.220   0.288  0.00  0.00    -0.368 OA
ATOM     33  H   UNL d   1       2.598  -1.144   0.264  0.00  0.00     0.212 HD
ENDBRANCH  23  32
ENDBRANCH   1  23
TORSDOF 7
