REMARK  4 active torsions:
REMARK  status: ('A' for Active; 'I' for Inactive)
REMARK    1  A    between atoms: C_6  and  C_1 
REMARK    2  A    between atoms: S_10  and  C_3 
REMARK    3  A    between atoms: C_9  and  C_12 
REMARK    4  A    between atoms: C_11  and  S_10 
ROOT
ATOM      1  C   UNL d   1      -0.477  -2.706   3.863  0.00  0.00     0.207 A 
ATOM      2  N   UNL d   1      -1.246  -2.772   2.731  0.00  0.00    -0.317 N 
ATOM      3  C   UNL d   1      -0.386  -2.775   1.678  0.00  0.00     0.167 A 
ATOM      4  N   UNL d   1       0.794  -2.700   3.505  0.00  0.00    -0.280 N 
ATOM      5  HN  UNL d   1       1.595  -2.670   4.136  1.00  0.00     0.188 HD
ATOM      6  N   UNL d   1       0.847  -2.741   2.127  0.00  0.00    -0.278 N 
ATOM      7  HN  UNL d   1       1.694  -2.744   1.559  1.00  0.00     0.189 HD
ATOM      8  H   UNL d   1      -2.255  -2.831   2.667  0.00  0.00     0.169 HD
ENDROOT
BRANCH   3   9
ATOM      9  S   UNL d   1      -0.858  -2.792   0.021  0.00  0.00    -0.035 SA
BRANCH   9  10
ATOM     10  C   UNL d   1      -2.642  -2.801   0.059  0.00  0.00     0.078 A 
ATOM     11  N   UNL d   1      -3.280  -3.361   1.117  0.00  0.00    -0.360 N 
ATOM     12  C   UNL d   1      -4.630  -3.430   1.072  0.00  0.00     0.089 A 
ATOM     13  HN  UNL d   1      -2.760  -3.718   1.919  1.00  0.00     0.166 HD
ATOM     14  C   UNL d   1      -5.388  -2.931   0.028  0.00  0.00     0.033 A 
ATOM     15  C   UNL d   1      -4.729  -2.329  -1.048  0.00  0.00     0.051 A 
ATOM     16  C   UNL d   1      -3.330  -2.273  -1.029  0.00  0.00     0.053 A 
BRANCH  15  17
ATOM     17  C   UNL d   1      -5.523  -1.764  -2.197  0.00  0.00     0.417 C 
ATOM     18  F   UNL d   1      -4.751  -1.201  -3.165  0.00  0.00    -0.166 F 
ATOM     19  F   UNL d   1      -6.278  -2.710  -2.817  0.00  0.00    -0.166 F 
ATOM     20  F   UNL d   1      -6.390  -0.795  -1.795  0.00  0.00    -0.166 F 
ENDBRANCH  15  17
ENDBRANCH   9  10
ENDBRANCH   3   9
BRANCH   1  21
ATOM     21  C   UNL d   1      -1.069  -2.645   5.216  0.00  0.00     0.450 C 
ATOM     22  F   UNL d   1      -2.432  -2.636   5.157  0.00  0.00    -0.163 F 
ATOM     23  F   UNL d   1      -0.728  -3.706   5.989  0.00  0.00    -0.163 F 
ATOM     24  F   UNL d   1      -0.712  -1.523   5.890  0.00  0.00    -0.163 F 
ENDBRANCH   1  21
TORSDOF 4
