REMARK  4 active torsions:
REMARK  status: ('A' for Active; 'I' for Inactive)
REMARK    1  A    between atoms: C_6  and  C_1 
REMARK    2  A    between atoms: C_19  and  C_5 
REMARK    3  A    between atoms: C_9  and  O_18 
REMARK    4  A    between atoms: O_18  and  C_19 
ROOT
ATOM      1  C   UNL d   1      -0.338  -0.470   0.912  0.00  0.00     0.091 A 
ATOM      2  N   UNL d   1       0.718   0.286   1.153  0.00  0.00    -0.351 N 
ATOM      3  HN  UNL d   1       1.064   0.518   2.084  1.00  0.00     0.166 HD
ATOM      4  S   UNL d   1      -0.707  -0.671  -0.758  0.00  0.00    -0.081 SA
ATOM      5  C   UNL d   1       1.293   0.722  -0.035  0.00  0.00     0.041 A 
ATOM      6  C   UNL d   1       0.641   0.296  -1.175  0.00  0.00     0.079 A 
ENDROOT
BRANCH   5   7
ATOM      7  C   UNL d   1       2.501   1.607   0.015  0.00  0.00     0.233 C 
BRANCH   7   8
ATOM      8  O   UNL d   1       3.710   0.846  -0.079  0.00  0.00    -0.345 OA
BRANCH   8   9
ATOM      9  C   UNL d   1       4.887   1.541  -0.007  0.00  0.00     0.072 A 
ATOM     10  C   UNL d   1       5.015   2.931   0.032  0.00  0.00     0.060 A 
ATOM     11  C   UNL d   1       6.285   3.511   0.093  0.00  0.00     0.038 A 
ATOM     12 CL   UNL d   1       6.428   5.227   0.133  0.00  0.00    -0.084 Cl
ATOM     13  C   UNL d   1       7.431   2.725   0.120  0.00  0.00     0.048 A 
ATOM     14  C   UNL d   1       7.300   1.340   0.083  0.00  0.00     0.038 A 
ATOM     15  C   UNL d   1       6.038   0.748   0.018  0.00  0.00     0.060 A 
ATOM     16 CL   UNL d   1       8.709   0.352   0.116  0.00  0.00    -0.084 Cl
ENDBRANCH   8   9
ENDBRANCH   7   8
ENDBRANCH   5   7
BRANCH   1  17
ATOM     17  C   UNL d   1      -1.104  -1.058   1.990  0.00  0.00     0.038 A 
ATOM     18  S   UNL d   1      -2.487  -2.050   1.750  0.00  0.00    -0.099 SA
ATOM     19  C   UNL d   1      -2.717  -2.275   3.427  0.00  0.00     0.050 A 
ATOM     20  C   UNL d   1      -1.767  -1.613   4.170  0.00  0.00     0.008 A 
ATOM     21  C   UNL d   1      -0.841  -0.914   3.342  0.00  0.00     0.022 A 
ENDBRANCH   1  17
TORSDOF 4
