REMARK  3 active torsions:
REMARK  status: ('A' for Active; 'I' for Inactive)
REMARK    1  A    between atoms: O_2  and  C_1 
REMARK    2  A    between atoms: C_6  and  O_2 
REMARK    3  A    between atoms: N_7  and  C_5 
ROOT
ATOM      1  C   UNL d   1       0.406  -0.988   0.047  0.00  0.00     0.169 A 
ATOM      2  N   UNL d   1       1.151  -0.133   0.791  0.00  0.00    -0.345 N 
ATOM      3  HN  UNL d   1       1.982  -0.445   1.295  1.00  0.00     0.167 HD
ATOM      4  C   UNL d   1      -0.800  -0.643  -0.587  0.00  0.00     0.058 A 
ATOM      5  C   UNL d   1       0.739   1.149   0.831  0.00  0.00     0.090 A 
ATOM      6  C   UNL d   1      -1.152   0.706  -0.557  0.00  0.00     0.029 A 
ATOM      7  C   UNL d   1      -0.383   1.615   0.169  0.00  0.00     0.019 A 
ENDROOT
BRANCH   1   8
ATOM      8  O   UNL d   1       0.806  -2.319  -0.058  0.00  0.00    -0.292 OA
BRANCH   8   9
ATOM      9  C   UNL d   1       2.155  -2.590  -0.019  0.00  0.00     0.078 A 
ATOM     10  C   UNL d   1       2.537  -3.761   0.642  0.00  0.00     0.040 A 
ATOM     11  C   UNL d   1       3.884  -4.124   0.698  0.00  0.00     0.045 A 
ATOM     12  C   UNL d   1       4.836  -3.319   0.082  0.00  0.00     0.116 A 
ATOM     13  C   UNL d   1       4.466  -2.167  -0.603  0.00  0.00     0.045 A 
ATOM     14  F   UNL d   1       6.129  -3.662   0.144  0.00  0.00    -0.206 F 
ATOM     15  C   UNL d   1       3.119  -1.809  -0.668  0.00  0.00     0.040 A 
ENDBRANCH   8   9
ENDBRANCH   1   8
BRANCH   4  16
ATOM     16  N   UNL d   1      -1.508  -1.530  -1.418  0.00  0.00    -0.299 NA
ATOM     17  H   UNL d   1      -1.343  -2.503  -1.167  0.00  0.00     0.124 HD
ATOM     18  H   UNL d   1      -2.495  -1.312  -1.502  0.00  0.00     0.124 HD
ENDBRANCH   4  16
TORSDOF 3
