REMARK  6 active torsions:
REMARK  status: ('A' for Active; 'I' for Inactive)
REMARK    1  A    between atoms: N_5  and  S_1 
REMARK    2  A    between atoms: C_10  and  S_1 
REMARK    3  A    between atoms: C_4  and  C_13 
REMARK    4  A    between atoms: C_17  and  N_5 
REMARK    5  A    between atoms: C_6  and  O_14 
REMARK    6  A    between atoms: O_14  and  C_23 
ROOT
ATOM      1  N   UNL d   1       0.505  -0.764   1.413  0.00  0.00    -0.281 N 
ATOM      2  H   UNL d   1       0.106  -0.548   0.504  0.00  0.00     0.179 HD
ENDROOT
BRANCH   1   3
ATOM      3  S   UNL d   1       0.563   0.468   2.546  0.00  0.00     0.263 S 
ATOM      4  O   UNL d   1      -0.178   0.076   3.720  0.00  0.00    -0.200 OA
ATOM      5  O   UNL d   1       0.247   1.690   1.831  0.00  0.00    -0.200 OA
BRANCH   3   6
ATOM      6  C   UNL d   1       2.293   0.518   2.960  0.00  0.00     0.080 A 
ATOM      7  C   UNL d   1       3.173   1.298   2.207  0.00  0.00     0.028 A 
ATOM      8  C   UNL d   1       4.540   1.279   2.504  0.00  0.00     0.038 A 
ATOM      9  C   UNL d   1       5.018   0.516   3.571  0.00  0.00     0.078 A 
ATOM     10  C   UNL d   1       4.126  -0.275   4.305  0.00  0.00     0.038 A 
ATOM     11  C   UNL d   1       2.762  -0.264   4.017  0.00  0.00     0.028 A 
BRANCH   9  12
ATOM     12  O   UNL d   1       6.317   0.402   3.958  0.00  0.00    -0.255 OA
BRANCH  12  13
ATOM     13  C   UNL d   1       7.205   1.498   3.790  0.00  0.00     0.530 C 
ATOM     14  F   UNL d   1       6.611   2.640   3.387  0.00  0.00    -0.144 F 
ATOM     15  F   UNL d   1       7.810   1.744   4.974  0.00  0.00    -0.144 F 
ATOM     16  F   UNL d   1       8.158   1.163   2.893  0.00  0.00    -0.144 F 
ENDBRANCH  12  13
ENDBRANCH   9  12
ENDBRANCH   3   6
ENDBRANCH   1   3
BRANCH   1  17
ATOM     17  C   UNL d   1       0.817  -2.091   1.783  0.00  0.00     0.042 A 
ATOM     18  C   UNL d   1      -0.172  -2.929   2.287  0.00  0.00     0.031 A 
ATOM     19  C   UNL d   1       0.151  -4.242   2.647  0.00  0.00     0.016 A 
ATOM     20  C   UNL d   1       1.462  -4.723   2.505  0.00  0.00    -0.009 A 
ATOM     21  C   UNL d   1       2.449  -3.857   2.017  0.00  0.00     0.016 A 
ATOM     22  C   UNL d   1       2.123  -2.554   1.636  0.00  0.00     0.031 A 
BRANCH  20  23
ATOM     23  C   UNL d   1       1.814  -6.103   2.822  0.00  0.00     0.049 A 
ATOM     24  N   UNL d   1       3.088  -6.450   3.250  0.00  0.00    -0.353 N 
ATOM     25  C   UNL d   1       3.163  -7.751   3.435  0.00  0.00     0.047 A 
ATOM     26  HN  UNL d   1       3.855  -5.793   3.398  1.00  0.00     0.166 HD
ATOM     27  C   UNL d   1       4.376  -8.476   3.901  0.00  0.00     0.076 C 
ATOM     28  S   UNL d   1       1.729  -8.632   3.085  0.00  0.00    -0.087 SA
ATOM     29  C   UNL d   1       0.948  -7.168   2.666  0.00  0.00     0.081 A 
ENDBRANCH  20  23
ENDBRANCH   1  17
TORSDOF 6
