REMARK  6 active torsions:
REMARK  status: ('A' for Active; 'I' for Inactive)
REMARK    1  A    between atoms: C_3  and  C_1 
REMARK       I    between atoms: N_10  and  C_3 
REMARK    2  A    between atoms: O_17  and  C_6 
REMARK    3  A    between atoms: O_19  and  C_7 
REMARK    4  A    between atoms: C_20  and  N_10 
REMARK    5  A    between atoms: C_15  and  C_21 
REMARK    6  A    between atoms: C_21  and  C_20 
ROOT
ATOM      1  C   UNL d   1      -2.509  -2.165  -0.042  0.00  0.00     0.253 C 
ATOM      2  O   UNL d   1      -2.434  -3.391   0.001  0.00  0.00    -0.268 OA
ATOM      3  N   UNL d   1      -3.722  -1.520  -0.049  0.00  0.00    -0.357 N 
ATOM      4  H   UNL d   1      -3.747  -0.507  -0.077  0.00  0.00     0.162 HD
ENDROOT
BRANCH   3   5
ATOM      5  C   UNL d   1      -4.980  -2.246  -0.013  0.00  0.00     0.127 C 
BRANCH   5   6
ATOM      6  C   UNL d   1      -6.175  -1.293  -0.034  0.00  0.00     0.058 C 
BRANCH   6   7
ATOM      7  C   UNL d   1      -7.502  -2.005   0.039  0.00  0.00    -0.054 A 
ATOM      8  C   UNL d   1      -8.082  -2.285   1.287  0.00  0.00     0.046 A 
ATOM      9  C   UNL d   1      -9.317  -2.945   1.394  0.00  0.00     0.102 A 
ATOM     10  C   UNL d   1      -9.990  -3.312   0.216  0.00  0.00     0.101 A 
ATOM     11  C   UNL d   1      -9.397  -3.056  -1.028  0.00  0.00     0.040 A 
ATOM     12  C   UNL d   1      -8.165  -2.408  -1.121  0.00  0.00     0.010 A 
BRANCH   9  13
ATOM     13  O   UNL d   1      -9.886  -3.282   2.593  0.00  0.00    -0.353 OA
ATOM     14  C   UNL d   1      -9.193  -2.932   3.784  0.00  0.00     0.210 C 
ENDBRANCH   9  13
BRANCH  10  15
ATOM     15  O   UNL d   1     -11.189  -3.972   0.112  0.00  0.00    -0.353 OA
ATOM     16  C   UNL d   1     -12.154  -3.718   1.125  0.00  0.00     0.210 C 
ENDBRANCH  10  15
ENDBRANCH   6   7
ENDBRANCH   5   6
ENDBRANCH   3   5
BRANCH   1  17
ATOM     17  C   UNL d   1      -1.253  -1.344  -0.086  0.00  0.00     0.053 A 
ATOM     18  C   UNL d   1      -1.165   0.060  -0.133  0.00  0.00     0.051 A 
ATOM     19  C   UNL d   1       0.089   0.693  -0.175  0.00  0.00     0.048 A 
ATOM     20 CL   UNL d   1      -2.526   1.130  -0.145  0.00  0.00    -0.083 Cl
ATOM     21  C   UNL d   1       1.258  -0.060  -0.168  0.00  0.00     0.035 A 
ATOM     22  C   UNL d   1       1.196  -1.445  -0.120  0.00  0.00     0.025 A 
ATOM     23 CL   UNL d   1       2.784   0.731  -0.220  0.00  0.00    -0.084 Cl
ATOM     24  C   UNL d   1      -0.048  -2.079  -0.080  0.00  0.00     0.020 A 
ENDBRANCH   1  17
TORSDOF 6
