REMARK  5 active torsions:
REMARK  status: ('A' for Active; 'I' for Inactive)
REMARK    1  A    between atoms: C_7  and  C_1 
REMARK    2  A    between atoms: C_8  and  C_6 
REMARK    3  A    between atoms: C_16  and  C_11 
REMARK       I    between atoms: C_12  and  N_18 
REMARK    4  A    between atoms: C_17  and  C_12 
REMARK    5  A    between atoms: N_18  and  N_13 
ROOT
ATOM      1  C   UNL d   1       2.534   1.685  -0.055  0.00  0.00     0.034 A 
ATOM      2  S   UNL d   1       2.886   2.985   1.001  0.00  0.00    -0.087 SA
ATOM      3  C   UNL d   1       3.473   1.579  -1.060  0.00  0.00     0.023 A 
ATOM      4  C   UNL d   1       4.329   3.363   0.167  0.00  0.00     0.022 A 
ATOM      5  C   UNL d   1       4.505   2.552  -0.936  0.00  0.00     0.021 A 
ENDROOT
BRANCH   4   6
ATOM      6  C   UNL d   1       5.196   4.413   0.645  0.00  0.00     0.126 C 
ATOM      7  N   UNL d   1       6.293   4.667   0.007  0.00  0.00    -0.308 N 
ATOM      8  HN  UNL d   1       6.545   4.148  -0.834  1.00  0.00     0.186 HD
BRANCH   7   9
ATOM      9  N   UNL d   1       7.102   5.651   0.496  0.00  0.00    -0.266 N 
ATOM     10  C   UNL d   1       8.300   5.903  -0.161  0.00  0.00     0.270 C 
ATOM     11  O   UNL d   1       8.709   5.283  -1.139  0.00  0.00    -0.266 OA
ATOM     12  H   UNL d   1       6.872   6.099   1.374  0.00  0.00     0.190 HD
BRANCH  10  13
ATOM     13  C   UNL d   1       9.146   6.995   0.396  0.00  0.00     0.033 A 
ATOM     14  C   UNL d   1      10.533   6.926   0.188  0.00  0.00     0.019 A 
ATOM     15  C   UNL d   1      11.371   7.946   0.646  0.00  0.00     0.025 A 
ATOM     16  C   UNL d   1      10.823   9.042   1.307  0.00  0.00     0.034 A 
ATOM     17  C   UNL d   1       9.445   9.126   1.513  0.00  0.00     0.025 A 
ATOM     18 CL   UNL d   1      11.848  10.310   1.854  0.00  0.00    -0.084 Cl
ATOM     19  C   UNL d   1       8.603   8.105   1.056  0.00  0.00     0.019 A 
ENDBRANCH  10  13
ENDBRANCH   7   9
ENDBRANCH   4   6
BRANCH   1  20
ATOM     20  C   UNL d   1       1.372   0.748   0.091  0.00  0.00     0.067 A 
ATOM     21  C   UNL d   1       0.320   0.831   1.023  0.00  0.00     0.068 A 
ATOM     22  C   UNL d   1      -0.482  -0.274   0.788  0.00  0.00     0.136 A 
ATOM     23  N   UNL d   1       0.143  -0.967  -0.212  0.00  0.00    -0.292 N 
ATOM     24  N   UNL d   1       1.235  -0.331  -0.686  0.00  0.00    -0.297 N 
ATOM     25  C   UNL d   1      -0.134  -2.268  -0.777  0.00  0.00     0.178 C 
ATOM     26  HN  UNL d   1       1.827  -0.613  -1.468  1.00  0.00     0.187 HD
BRANCH  22  27
ATOM     27  C   UNL d   1      -1.732  -0.666   1.469  0.00  0.00     0.434 C 
ATOM     28  F   UNL d   1      -2.340  -1.756   0.947  0.00  0.00    -0.165 F 
ATOM     29  F   UNL d   1      -1.511  -0.935   2.781  0.00  0.00    -0.165 F 
ATOM     30  F   UNL d   1      -2.646   0.337   1.427  0.00  0.00    -0.165 F 
ENDBRANCH  22  27
ENDBRANCH   1  20
TORSDOF 5
