REMARK  3 active torsions:
REMARK  status: ('A' for Active; 'I' for Inactive)
REMARK    1  A    between atoms: S_9  and  C_2 
REMARK    2  A    between atoms: C_6  and  C_4 
REMARK    3  A    between atoms: N_11  and  C_6 
ROOT
ATOM      1  C   UNL d   1       0.495   0.647  -0.009  0.00  0.00     0.041 A 
ATOM      2  C   UNL d   1       1.866   0.814  -0.031  0.00  0.00     0.056 A 
ATOM      3  C   UNL d   1       0.122  -0.759   0.008  0.00  0.00    -0.022 A 
ATOM      4  C   UNL d   1       1.231  -1.601   0.040  0.00  0.00     0.051 A 
ATOM      5  S   UNL d   1       2.684  -0.682  -0.042  0.00  0.00    -0.079 SA
ATOM      6  C   UNL d   1      -0.519   1.712   0.003  0.00  0.00     0.162 C 
ATOM      7  O   UNL d   1      -0.264   2.902  -0.162  0.00  0.00    -0.292 OA
ATOM      8  C   UNL d   1      -1.330  -1.170   0.008  0.00  0.00     0.041 C 
ATOM      9  C   UNL d   1      -1.947   1.264   0.276  0.00  0.00     0.084 C 
ATOM     10  C   UNL d   1      -2.251  -0.039  -0.456  0.00  0.00     0.012 C 
ENDROOT
BRANCH   4  11
ATOM     11  C   UNL d   1       1.351  -3.049   0.132  0.00  0.00     0.112 C 
ATOM     12  S   UNL d   1       0.279  -4.001   0.980  0.00  0.00    -0.059 SA
BRANCH  11  13
ATOM     13  N   UNL d   1       2.417  -3.648  -0.482  0.00  0.00    -0.389 N 
ATOM     14  H   UNL d   1       3.139  -3.105  -0.940  0.00  0.00     0.157 HD
ATOM     15  H   UNL d   1       2.556  -4.644  -0.374  0.00  0.00     0.157 HD
ENDBRANCH  11  13
ENDBRANCH   4  11
BRANCH   2  16
ATOM     16  S   UNL d   1       2.802   2.305   0.004  0.00  0.00    -0.126 SA
ATOM     17  C   UNL d   1       2.865   2.683  -1.762  0.00  0.00     0.096 C 
ENDBRANCH   2  16
TORSDOF 3
