REMARK  4 active torsions:
REMARK  status: ('A' for Active; 'I' for Inactive)
REMARK    1  A    between atoms: S_2  and  C_4 
REMARK    2  A    between atoms: C_8  and  S_2 
REMARK    3  A    between atoms: C_3  and  C_8 
REMARK    4  A    between atoms: O_10  and  C_3 
ROOT
ATOM      1  C   UNL d   1      -0.008  -0.081   0.002  0.00  0.00     0.013 A 
ATOM      2  C   UNL d   1      -0.379  -1.476   0.028  0.00  0.00     0.013 A 
ATOM      3  C   UNL d   1       1.292   0.521  -0.115  0.00  0.00     0.046 A 
ATOM      4  C   UNL d   1      -1.094   0.852   0.072  0.00  0.00    -0.023 A 
ATOM      5 CL   UNL d   1       2.751  -0.368  -0.418  0.00  0.00    -0.083 Cl
ATOM      6  C   UNL d   1      -2.753  -0.923   0.061  0.00  0.00     0.002 A 
ATOM      7  C   UNL d   1       0.405   2.771   0.046  0.00  0.00     0.003 A 
ATOM      8  C   UNL d   1      -1.736  -1.863   0.025  0.00  0.00     0.019 A 
ATOM      9  C   UNL d   1       1.485   1.912  -0.069  0.00  0.00     0.025 A 
ATOM     10  C   UNL d   1      -2.427   0.423   0.101  0.00  0.00     0.012 A 
ATOM     11  C   UNL d   1      -0.876   2.237   0.100  0.00  0.00     0.012 A 
ENDROOT
BRANCH   2  12
ATOM     12  S   UNL d   1       0.724  -2.906   0.032  0.00  0.00    -0.119 SA
BRANCH  12  13
ATOM     13  C   UNL d   1       1.498  -2.795   1.685  0.00  0.00     0.189 C 
BRANCH  13  14
ATOM     14  C   UNL d   1       0.513  -2.829   2.830  0.00  0.00     0.149 C 
ATOM     15  O   UNL d   1       0.714  -2.273   3.902  0.00  0.00    -0.649 OA
BRANCH  14  16
ATOM     16  O   UNL d   1      -0.569  -3.615   2.625  0.00  0.00    -0.776 OA
ATOM     17  H   UNL d   1      -0.573  -3.979   1.716  0.00  0.00     0.167 HD
ENDBRANCH  14  16
ENDBRANCH  13  14
ENDBRANCH  12  13
ENDBRANCH   2  12
TORSDOF 4
