REMARK  4 active torsions:
REMARK  status: ('A' for Active; 'I' for Inactive)
REMARK    1  A    between atoms: S_13  and  C_3 
REMARK    2  A    between atoms: C_7  and  C_4 
REMARK    3  A    between atoms: O_15  and  C_7 
REMARK    4  A    between atoms: O_16  and  N_11 
ROOT
ATOM      1  C   UNL d   1      -2.277  -0.590  -0.349  0.00  0.00     0.020 C 
ATOM      2  C   UNL d   1      -2.082   0.656  -1.074  0.00  0.00    -0.020 C 
ATOM      3  C   UNL d   1      -3.546  -0.675   0.196  0.00  0.00     0.054 C 
ATOM      4  C   UNL d   1      -3.266   1.369  -1.217  0.00  0.00     0.088 C 
ATOM      5  S   UNL d   1      -4.538   0.607  -0.367  0.00  0.00    -0.076 SA
ATOM      6  C   UNL d   1      -1.144  -1.502  -0.222  0.00  0.00     0.045 C 
ATOM      7  C   UNL d   1      -0.721   1.086  -1.594  0.00  0.00     0.050 C 
ATOM      8  C   UNL d   1       0.394   0.004  -1.461  0.00  0.00    -0.038 C 
ATOM      9  C   UNL d   1       0.209  -0.818  -0.160  0.00  0.00     0.069 C 
ATOM     10  N   UNL d   1      -1.166  -2.798  -0.329  0.00  0.00    -0.273 N 
ATOM     11  HN  UNL d   1      -0.352  -3.390  -0.165  1.00  0.00     0.194 HD
ATOM     12  C   UNL d   1       1.771   0.692  -1.420  0.00  0.00     0.015 C 
ATOM     13  C   UNL d   1       0.370  -0.927  -2.694  0.00  0.00     0.015 C 
ENDROOT
BRANCH   4  14
ATOM     14  C   UNL d   1      -3.482   2.610  -1.954  0.00  0.00     0.300 C 
ATOM     15  O   UNL d   1      -2.602   3.262  -2.505  0.00  0.00    -0.259 OA
BRANCH  14  16
ATOM     16  O   UNL d   1      -4.805   2.951  -1.985  0.00  0.00    -0.322 OA
ATOM     17  C   UNL d   1      -5.104   4.114  -2.757  0.00  0.00     0.213 C 
ENDBRANCH  14  16
ENDBRANCH   4  14
BRANCH   3  18
ATOM     18  S   UNL d   1      -4.279  -1.826   1.317  0.00  0.00    -0.126 SA
ATOM     19  C   UNL d   1      -2.940  -2.227   2.453  0.00  0.00     0.096 C 
ENDBRANCH   3  18
BRANCH  10  20
ATOM     20  O   UNL d   1      -2.420  -3.294  -0.691  0.00  0.00    -0.290 OA
ATOM     21  H   UNL d   1      -2.265  -4.255  -0.748  0.00  0.00     0.244 HD
ENDBRANCH  10  20
TORSDOF 4
