REMARK  6 active torsions:
REMARK  status: ('A' for Active; 'I' for Inactive)
REMARK    1  A    between atoms: C_6  and  C_3 
REMARK    2  A    between atoms: O_16  and  C_9 
REMARK       I    between atoms: C_10  and  N_17 
REMARK       I    between atoms: N_18  and  C_10 
REMARK    3  A    between atoms: C_13  and  C_23 
REMARK       I    between atoms: N_19  and  C_13 
REMARK    4  A    between atoms: C_23  and  O_16 
REMARK    5  A    between atoms: N_17  and  N_19 
REMARK    6  A    between atoms: C_24  and  N_18 
ROOT
ATOM      1  C   UNL d   1       1.405  -2.806  -0.139  0.00  0.00    -0.006 C 
ATOM      2  C   UNL d   1       1.466  -5.639  -0.069  0.00  0.00     0.081 C 
ATOM      3  C   UNL d   1       0.878  -4.955  -1.157  0.00  0.00    -0.027 C 
ATOM      4  C   UNL d   1       2.086  -4.897   0.957  0.00  0.00    -0.027 C 
ATOM      5  C   UNL d   1       2.029  -3.485   0.910  0.00  0.00     0.023 C 
ATOM      6  C   UNL d   1       0.918  -3.549  -1.211  0.00  0.00     0.023 C 
ATOM      7  C   UNL d   1       0.110  -5.651  -2.247  0.00  0.00     0.051 C 
ATOM      8  C   UNL d   1       2.778  -5.494   2.150  0.00  0.00     0.051 C 
ENDROOT
BRANCH   2   9
ATOM      9  O   UNL d   1       1.246  -6.994  -0.047  0.00  0.00    -0.341 OA
BRANCH   9  10
ATOM     10  C   UNL d   1       2.341  -7.843   0.260  0.00  0.00     0.280 C 
BRANCH  10  11
ATOM     11  C   UNL d   1       1.948  -9.304   0.054  0.00  0.00     0.260 C 
ATOM     12  N   UNL d   1       2.544  -9.929  -1.020  0.00  0.00    -0.264 N 
ATOM     13  H   UNL d   1       3.163  -9.478  -1.692  0.00  0.00     0.190 HD
ATOM     14  O   UNL d   1       1.184  -9.905   0.812  0.00  0.00    -0.269 OA
BRANCH  12  15
ATOM     15  N   UNL d   1       2.404 -11.325  -1.128  0.00  0.00    -0.249 N 
ATOM     16  C   UNL d   1       2.880 -11.931  -2.281  0.00  0.00     0.339 C 
ATOM     17  N   UNL d   1       2.603 -13.283  -2.286  0.00  0.00    -0.308 N 
ATOM     18  O   UNL d   1       3.485 -11.290  -3.134  0.00  0.00    -0.245 OA
ATOM     19  H   UNL d   1       2.199 -13.650  -1.437  0.00  0.00     0.170 HD
ATOM     20  H   UNL d   1       1.592 -11.705  -0.648  0.00  0.00     0.192 HD
BRANCH  17  21
ATOM     21  C   UNL d   1       2.832 -14.206  -3.326  0.00  0.00     0.036 A 
ATOM     22  C   UNL d   1       3.401 -13.867  -4.555  0.00  0.00     0.031 A 
ATOM     23  C   UNL d   1       3.520 -14.823  -5.572  0.00  0.00     0.026 A 
ATOM     24  C   UNL d   1       3.074 -16.124  -5.360  0.00  0.00     0.034 A 
ATOM     25  C   UNL d   1       2.536 -16.486  -4.128  0.00  0.00     0.026 A 
ATOM     26 CL   UNL d   1       3.171 -17.282  -6.627  0.00  0.00    -0.084 Cl
ATOM     27  C   UNL d   1       2.421 -15.530  -3.112  0.00  0.00     0.031 A 
ENDBRANCH  17  21
ENDBRANCH  12  15
ENDBRANCH  10  11
ENDBRANCH   9  10
ENDBRANCH   2   9
BRANCH   1  28
ATOM     28  C   UNL d   1       1.293  -1.308  -0.068  0.00  0.00     0.070 C 
ATOM     29  N   UNL d   1       2.289  -0.684   0.493  0.00  0.00    -0.294 N 
ATOM     30  N   UNL d   1       2.287   0.682   0.566  0.00  0.00    -0.261 N 
ATOM     31  HN  UNL d   1       3.070  -1.214   0.879  1.00  0.00     0.187 HD
ATOM     32  C   UNL d   1       1.316   1.498   0.001  0.00  0.00     0.272 C 
ATOM     33  C   UNL d   1       3.421   1.302   1.223  0.00  0.00     0.181 C 
ATOM     34  C   UNL d   1       0.184   0.814  -0.642  0.00  0.00     0.046 A 
ATOM     35  O   UNL d   1       1.348   2.727   0.033  0.00  0.00    -0.266 OA
ATOM     36  C   UNL d   1      -0.834   1.574  -1.240  0.00  0.00     0.018 A 
ATOM     37  C   UNL d   1       0.110  -0.576  -0.609  0.00  0.00     0.009 A 
ATOM     38  C   UNL d   1      -1.945   0.942  -1.794  0.00  0.00     0.001 A 
ATOM     39  C   UNL d   1      -2.068  -0.439  -1.692  0.00  0.00     0.001 A 
ATOM     40  C   UNL d   1      -1.064  -1.190  -1.072  0.00  0.00     0.015 A 
ENDBRANCH   1  28
TORSDOF 6
