REMARK  3 active torsions:
REMARK  status: ('A' for Active; 'I' for Inactive)
REMARK    1  A    between atoms: N_7  and  C_3 
REMARK    2  A    between atoms: S_11  and  C_3 
REMARK    3  A    between atoms: C_8  and  N_7 
ROOT
ATOM      1  N   UNL d   1       0.780  -1.757  -0.845  0.00  0.00    -0.274 N 
ATOM      2  HN  UNL d   1       1.677  -2.089  -1.199  1.00  0.00     0.180 HD
ATOM      3  C   UNL d   1       0.272  -0.660  -1.311  0.00  0.00     0.149 C 
ATOM      4  C   UNL d   1       0.140  -2.457   0.092  0.00  0.00     0.183 C 
ATOM      5  N   UNL d   1      -0.381  -3.095   0.911  0.00  0.00    -0.172 NA
ENDROOT
BRANCH   3   6
ATOM      6  N   UNL d   1       0.925   0.097  -2.249  0.00  0.00    -0.357 N 
ATOM      7  H   UNL d   1       0.530   1.028  -2.394  0.00  0.00     0.162 HD
BRANCH   6   8
ATOM      8  C   UNL d   1       2.397   0.118  -2.298  0.00  0.00     0.175 C 
ATOM      9  C   UNL d   1       2.855   1.488  -2.830  0.00  0.00     0.240 C 
ATOM     10  N   UNL d   1       4.193   1.758  -2.842  0.00  0.00    -0.359 N 
ATOM     11  O   UNL d   1       2.055   2.338  -3.225  0.00  0.00    -0.271 OA
ATOM     12  C   UNL d   1       5.245   0.917  -2.314  0.00  0.00     0.122 C 
ATOM     13  H   UNL d   1       4.431   2.677  -3.199  0.00  0.00     0.162 HD
ATOM     14  C   UNL d   1       5.428  -0.360  -3.125  0.00  0.00     0.020 C 
ATOM     15  C   UNL d   1       4.358  -1.421  -2.866  0.00  0.00     0.004 C 
ATOM     16  C   UNL d   1       2.924  -1.000  -3.204  0.00  0.00     0.035 C 
ENDBRANCH   6   8
ENDBRANCH   3   6
BRANCH   3  17
ATOM     17  S   UNL d   1      -1.242   0.046  -0.763  0.00  0.00    -0.098 SA
ATOM     18  C   UNL d   1      -2.235  -0.074  -2.264  0.00  0.00     0.099 C 
ENDBRANCH   3  17
TORSDOF 3
