REMARK  2 active torsions:
REMARK  status: ('A' for Active; 'I' for Inactive)
REMARK    1  A    between atoms: C_15  and  N_3 
REMARK    2  A    between atoms: C_9  and  C_4 
REMARK       I    between atoms: C_7  and  N_8 
REMARK       I    between atoms: N_11  and  C_7 
REMARK       I    between atoms: N_8  and  C_9 
ROOT
ATOM      1  N   UNL d   1      -4.171  -1.902  -1.231  0.00  0.00    -0.272 N 
ATOM      2  HN  UNL d   1      -4.923  -1.265  -1.496  1.00  0.00     0.189 HD
ATOM      3  N   UNL d   1      -4.113  -3.266  -1.349  0.00  0.00    -0.196 N 
ATOM      4  C   UNL d   1      -2.973  -1.622  -0.671  0.00  0.00     0.141 C 
ATOM      5  N   UNL d   1      -3.073  -3.866  -0.723  0.00  0.00    -0.281 N 
ATOM      6  HN  UNL d   1      -2.932  -4.857  -0.527  1.00  0.00     0.189 HD
ATOM      7  C   UNL d   1      -2.280  -2.833  -0.427  0.00  0.00     0.057 C 
ATOM      8  C   UNL d   1      -0.886  -3.078   0.006  0.00  0.00     0.072 C 
ENDROOT
BRANCH   4   9
ATOM      9  C   UNL d   1      -2.498  -0.254  -0.437  0.00  0.00     0.279 C 
ATOM     10  N   UNL d   1      -3.454   0.710  -0.678  0.00  0.00    -0.274 N 
ATOM     11  C   UNL d   1      -3.238   2.048  -0.483  0.00  0.00     0.325 C 
ATOM     12  H   UNL d   1      -4.345   0.362  -0.990  0.00  0.00     0.173 HD
ATOM     13  N   UNL d   1      -4.128   2.918  -1.095  0.00  0.00    -0.329 N 
ATOM     14  O   UNL d   1      -2.301   2.479   0.185  0.00  0.00    -0.247 OA
ATOM     15  C   UNL d   1      -5.456   2.603  -1.634  0.00  0.00     0.159 C 
ATOM     16  C   UNL d   1      -3.888   4.359  -0.924  0.00  0.00     0.159 C 
ATOM     17  C   UNL d   1      -5.788   3.470  -2.866  0.00  0.00     0.136 C 
ATOM     18  C   UNL d   1      -7.239   3.287  -3.286  0.00  0.00     0.041 C 
ATOM     19  O   UNL d   1      -5.596   4.867  -2.590  0.00  0.00    -0.378 OA
ATOM     20  C   UNL d   1      -4.236   5.133  -2.204  0.00  0.00     0.136 C 
ATOM     21  C   UNL d   1      -4.092   6.633  -2.000  0.00  0.00     0.041 C 
ATOM     22  O   UNL d   1      -1.335  -0.046  -0.100  0.00  0.00    -0.265 OA
ENDBRANCH   4   9
BRANCH   3  23
ATOM     23  C   UNL d   1      -4.937  -4.008  -2.233  0.00  0.00     0.074 A 
ATOM     24  C   UNL d   1      -5.731  -3.353  -3.181  0.00  0.00     0.033 A 
ATOM     25  C   UNL d   1      -6.387  -4.100  -4.164  0.00  0.00     0.002 A 
ATOM     26  C   UNL d   1      -6.281  -5.492  -4.180  0.00  0.00     0.000 A 
ATOM     27  C   UNL d   1      -5.533  -6.150  -3.205  0.00  0.00     0.002 A 
ATOM     28  C   UNL d   1      -4.858  -5.411  -2.234  0.00  0.00     0.033 A 
ENDBRANCH   3  23
TORSDOF 2
