REMARK  4 active torsions:
REMARK  status: ('A' for Active; 'I' for Inactive)
REMARK    1  A    between atoms: C_2  and  C_1 
REMARK       I    between atoms: N_8  and  C_2 
REMARK    2  A    between atoms: N_7  and  C_3 
REMARK    3  A    between atoms: C_11  and  N_8 
REMARK    4  A    between atoms: C_9  and  C_11 
ROOT
ATOM      1  C   UNL d   1       0.888  -0.021   0.022  0.00  0.00     0.127 C 
ATOM      2  C   UNL d   1       0.170  -1.120  -0.286  0.00  0.00     0.113 C 
ATOM      3  C   UNL d   1       0.285   1.221   0.339  0.00  0.00     0.106 C 
ATOM      4  N   UNL d   1      -0.172   2.258   0.600  0.00  0.00    -0.191 NA
ENDROOT
BRANCH   1   5
ATOM      5  C   UNL d   1       2.387  -0.133  -0.028  0.00  0.00     0.263 C 
ATOM      6  O   UNL d   1       2.941  -1.201  -0.278  0.00  0.00    -0.267 OA
ATOM      7  N   UNL d   1       3.098   1.018   0.236  0.00  0.00    -0.353 N 
ATOM      8  H   UNL d   1       2.634   1.890   0.456  0.00  0.00     0.163 HD
BRANCH   7   9
ATOM      9  C   UNL d   1       4.541   1.028   0.298  0.00  0.00     0.149 C 
BRANCH   9  10
ATOM     10  C   UNL d   1       5.031   2.045  -0.683  0.00  0.00    -0.018 C 
ATOM     11  C   UNL d   1       5.776   3.113  -0.368  0.00  0.00     0.008 C 
ENDBRANCH   9  10
ENDBRANCH   7   9
ENDBRANCH   1   5
BRANCH   2  12
ATOM     12  N   UNL d   1      -1.199  -1.389  -0.304  0.00  0.00    -0.397 N 
ATOM     13  C   UNL d   1      -2.208  -0.667   0.471  0.00  0.00     0.148 C 
ATOM     14  C   UNL d   1      -1.755  -2.440  -1.163  0.00  0.00     0.148 C 
ENDBRANCH   2  12
TORSDOF 4
