REMARK  7 active torsions:
REMARK  status: ('A' for Active; 'I' for Inactive)
REMARK    1  A    between atoms: C_4  and  C_1 
REMARK    2  A    between atoms: N_8  and  C_1 
REMARK    3  A    between atoms: C_5  and  N_2 
REMARK    4  A    between atoms: C_19  and  N_8 
REMARK    5  A    between atoms: C_9  and  S_11 
REMARK    6  A    between atoms: S_11  and  C_25 
REMARK    7  A    between atoms: C_25  and  C_19 
ROOT
ATOM      1  C   UNL d   1       0.999   0.115   0.022  0.00  0.00     0.112 C 
ATOM      2  N   UNL d   1       0.329  -0.889  -0.457  0.00  0.00    -0.342 N 
ATOM      3  HN  UNL d   1      -0.676  -0.890  -0.284  1.00  0.00     0.167 HD
ENDROOT
BRANCH   1   4
ATOM      4  C   UNL d   1       0.170   1.105   0.796  0.00  0.00     0.009 A 
ATOM      5  C   UNL d   1      -0.909   0.649   1.561  0.00  0.00     0.039 A 
ATOM      6  C   UNL d   1      -1.657   1.559   2.304  0.00  0.00     0.035 A 
ATOM      7 CL   UNL d   1      -2.981   1.004   3.252  0.00  0.00    -0.084 Cl
ATOM      8  C   UNL d   1      -1.340   2.918   2.292  0.00  0.00     0.024 A 
ATOM      9  C   UNL d   1      -0.283   3.379   1.506  0.00  0.00     0.003 A 
ATOM     10  C   UNL d   1       0.460   2.475   0.746  0.00  0.00     0.015 A 
ENDBRANCH   1   4
BRANCH   1  11
ATOM     11  N   UNL d   1       2.352   0.357  -0.123  0.00  0.00    -0.375 N 
ATOM     12  H   UNL d   1       2.842  -0.205  -0.812  0.00  0.00     0.161 HD
BRANCH  11  13
ATOM     13  C   UNL d   1       3.190   0.894   0.949  0.00  0.00     0.131 C 
BRANCH  13  14
ATOM     14  C   UNL d   1       4.623   0.352   0.918  0.00  0.00     0.094 C 
BRANCH  14  15
ATOM     15  S   UNL d   1       5.479   0.858  -0.614  0.00  0.00    -0.159 SA
BRANCH  15  16
ATOM     16  C   UNL d   1       7.231   0.385  -0.256  0.00  0.00    -0.003 C 
ATOM     17  C   UNL d   1       7.342  -1.120   0.008  0.00  0.00     0.026 C 
ATOM     18  C   UNL d   1       8.031   0.741  -1.519  0.00  0.00     0.026 C 
ATOM     19  C   UNL d   1       7.789   1.183   0.929  0.00  0.00     0.026 C 
ENDBRANCH  15  16
ENDBRANCH  14  15
ENDBRANCH  13  14
ENDBRANCH  11  13
ENDBRANCH   1  11
BRANCH   2  20
ATOM     20  C   UNL d   1       0.837  -1.970  -1.185  0.00  0.00     0.036 A 
ATOM     21  C   UNL d   1       0.018  -2.497  -2.190  0.00  0.00     0.071 A 
ATOM     22  C   UNL d   1       0.389  -3.651  -2.871  0.00  0.00     0.118 A 
ATOM     23  F   UNL d   1      -0.428  -4.161  -3.803  0.00  0.00    -0.206 F 
ATOM     24  C   UNL d   1       1.581  -4.302  -2.581  0.00  0.00     0.042 A 
ATOM     25  C   UNL d   1       2.405  -3.796  -1.579  0.00  0.00     0.005 A 
ATOM     26  C   UNL d   1       2.021  -2.649  -0.872  0.00  0.00     0.029 A 
ENDBRANCH   2  20
TORSDOF 7
