REMARK  4 active torsions:
REMARK  status: ('A' for Active; 'I' for Inactive)
REMARK    1  A    between atoms: C_8  and  N_1 
REMARK    2  A    between atoms: C_9  and  C_5 
REMARK    3  A    between atoms: O_22  and  C_9 
REMARK    4  A    between atoms: C_24  and  O_22 
ROOT
ATOM      1  N   UNL d   1      -0.641   1.142   0.039  0.00  0.00    -0.237 N 
ATOM      2  C   UNL d   1       1.539  -0.071   0.011  0.00  0.00     0.098 A 
ATOM      3  N   UNL d   1      -1.313  -0.054   0.061  0.00  0.00    -0.286 N 
ATOM      4  HN  UNL d   1      -2.332  -0.080   0.104  1.00  0.00     0.188 HD
ATOM      5  C   UNL d   1      -0.621  -1.152   0.027  0.00  0.00     0.131 A 
ATOM      6  C   UNL d   1       0.763   1.221  -0.014  0.00  0.00     0.142 A 
ATOM      7  C   UNL d   1       0.875  -1.241   0.026  0.00  0.00    -0.003 A 
ATOM      8  C   UNL d   1       2.958  -0.017   0.005  0.00  0.00     0.104 C 
ATOM      9  N   UNL d   1       4.114   0.040  -0.002  0.00  0.00    -0.191 NA
ATOM     10  N   UNL d   1       1.402   2.356  -0.103  0.00  0.00    -0.383 N 
ATOM     11  HN  UNL d   1       0.923   3.256  -0.136  1.00  0.00     0.157 HD
ATOM     12  C   UNL d   1       1.543  -2.590   0.039  0.00  0.00     0.052 C 
ATOM     13  H   UNL d   1       2.422   2.273  -0.137  0.00  0.00     0.157 HD
ENDROOT
BRANCH   1  14
ATOM     14  C   UNL d   1      -1.487   2.309   0.078  0.00  0.00     0.080 A 
ATOM     15  C   UNL d   1      -2.746   2.395  -0.566  0.00  0.00     0.064 A 
ATOM     16  C   UNL d   1      -3.529   3.561  -0.482  0.00  0.00     0.050 A 
ATOM     17 CL   UNL d   1      -3.400   1.146  -1.580  0.00  0.00    -0.082 Cl
ATOM     18  C   UNL d   1      -3.070   4.666   0.224  0.00  0.00     0.035 A 
ATOM     19  C   UNL d   1      -1.840   4.620   0.861  0.00  0.00     0.026 A 
ATOM     20 CL   UNL d   1      -4.023   6.095   0.305  0.00  0.00    -0.084 Cl
ATOM     21  C   UNL d   1      -1.073   3.452   0.800  0.00  0.00     0.035 A 
ENDBRANCH   1  14
BRANCH   5  22
ATOM     22  C   UNL d   1      -1.425  -2.460  -0.086  0.00  0.00     0.312 C 
ATOM     23  O   UNL d   1      -1.018  -3.420  -0.715  0.00  0.00    -0.258 OA
BRANCH  22  24
ATOM     24  O   UNL d   1      -2.638  -2.334   0.490  0.00  0.00    -0.317 OA
BRANCH  24  25
ATOM     25  C   UNL d   1      -3.599  -3.312   0.067  0.00  0.00     0.175 C 
ATOM     26  C   UNL d   1      -4.243  -2.840  -1.226  0.00  0.00     0.034 C 
ENDBRANCH  24  25
ENDBRANCH  22  24
ENDBRANCH   5  22
TORSDOF 4
