REMARK  4 active torsions:
REMARK  status: ('A' for Active; 'I' for Inactive)
REMARK    1  A    between atoms: N_8  and  C_1 
REMARK    2  A    between atoms: C_2  and  C_3 
REMARK    3  A    between atoms: N_9  and  S_6 
REMARK       I    between atoms: C_7  and  N_9 
REMARK       I    between atoms: N_14  and  C_7 
REMARK    4  A    between atoms: C_24  and  N_14 
ROOT
ATOM      1  S   UNL d   1       2.607   4.127  -0.141  0.00  0.00    -0.120 SA
ATOM      2  N   UNL d   1      -0.227   2.445  -0.186  0.00  0.00    -0.364 N 
ATOM      3  C   UNL d   1       1.249   4.072   1.079  0.00  0.00     0.105 C 
ATOM      4  C   UNL d   1       2.153   2.548  -0.954  0.00  0.00     0.105 C 
ATOM      5  C   UNL d   1      -0.157   3.697   0.587  0.00  0.00     0.135 C 
ATOM      6  C   UNL d   1       0.682   2.413  -1.344  0.00  0.00     0.135 C 
ENDROOT
BRANCH   1   7
ATOM      7  N   UNL d   1       2.008   5.096  -1.137  0.00  0.00    -0.292 N 
ATOM      8  C   UNL d   1       2.720   5.673  -2.131  0.00  0.00     0.330 C 
ATOM      9  N   UNL d   1       4.091   5.446  -2.120  0.00  0.00    -0.308 N 
ATOM     10  O   UNL d   1       2.181   6.371  -2.987  0.00  0.00    -0.246 OA
ATOM     11  H   UNL d   1       4.380   4.818  -1.387  0.00  0.00     0.170 HD
ATOM     12  HN  UNL d   1       1.017   5.327  -1.053  1.00  0.00     0.178 HD
BRANCH   9  13
ATOM     13  C   UNL d   1       5.109   6.062  -2.869  0.00  0.00     0.036 A 
ATOM     14  C   UNL d   1       4.889   7.047  -3.832  0.00  0.00     0.031 A 
ATOM     15  C   UNL d   1       5.969   7.696  -4.444  0.00  0.00     0.026 A 
ATOM     16  C   UNL d   1       7.273   7.348  -4.101  0.00  0.00     0.034 A 
ATOM     17  C   UNL d   1       7.510   6.336  -3.175  0.00  0.00     0.026 A 
ATOM     18 CL   UNL d   1       8.600   8.188  -4.808  0.00  0.00    -0.084 Cl
ATOM     19  C   UNL d   1       6.428   5.693  -2.566  0.00  0.00     0.031 A 
ENDBRANCH   9  13
ENDBRANCH   1   7
BRANCH   2  20
ATOM     20  C   UNL d   1      -0.609   1.238   0.370  0.00  0.00     0.125 A 
ATOM     21  N   UNL d   1       0.189   0.160   0.133  0.00  0.00    -0.350 N 
ATOM     22  C   UNL d   1      -0.194  -1.071   0.542  0.00  0.00     0.106 A 
ATOM     23  HN  UNL d   1       1.077   0.281  -0.354  1.00  0.00     0.166 HD
ATOM     24  C   UNL d   1      -1.376  -1.332   1.208  0.00  0.00     0.065 A 
ATOM     25  C   UNL d   1      -2.199  -0.241   1.475  0.00  0.00     0.045 A 
ATOM     26  C   UNL d   1      -1.829   1.046   1.050  0.00  0.00     0.078 A 
ATOM     27 CL   UNL d   1      -3.023   2.280   1.277  0.00  0.00    -0.080 Cl
BRANCH  24  28
ATOM     28  C   UNL d   1      -1.739  -2.735   1.567  0.00  0.00     0.418 C 
ATOM     29  F   UNL d   1      -2.931  -2.840   2.220  0.00  0.00    -0.166 F 
ATOM     30  F   UNL d   1      -1.845  -3.546   0.477  0.00  0.00    -0.166 F 
ATOM     31  F   UNL d   1      -0.820  -3.327   2.379  0.00  0.00    -0.166 F 
ENDBRANCH  24  28
ENDBRANCH   2  20
TORSDOF 4
