REMARK  6 active torsions:
REMARK  status: ('A' for Active; 'I' for Inactive)
REMARK    1  A    between atoms: C_4  and  C_1 
REMARK    2  A    between atoms: C_2  and  C_6 
REMARK    3  A    between atoms: O_18  and  C_2 
REMARK    4  A    between atoms: C_5  and  C_3 
REMARK    5  A    between atoms: C_8  and  C_5 
REMARK    6  A    between atoms: C_7  and  O_18 
ROOT
ATOM      1  C   UNL d   1      -0.793  -5.594   0.683  0.00  0.00     0.297 C 
ATOM      2  O   UNL d   1      -1.867  -5.799   1.234  0.00  0.00    -0.259 OA
ENDROOT
BRANCH   1   3
ATOM      3  C   UNL d   1      -0.290  -4.218   0.431  0.00  0.00     0.040 A 
ATOM      4  C   UNL d   1      -1.229  -3.177   0.394  0.00  0.00     0.018 A 
ATOM      5  C   UNL d   1      -0.818  -1.859   0.185  0.00  0.00     0.017 A 
ATOM      6  C   UNL d   1       0.541  -1.554   0.022  0.00  0.00     0.048 A 
ATOM      7  C   UNL d   1       1.479  -2.599   0.065  0.00  0.00     0.017 A 
ATOM      8  C   UNL d   1       1.068  -3.924   0.266  0.00  0.00     0.018 A 
BRANCH   6   9
ATOM      9  C   UNL d   1       0.966  -0.118  -0.187  0.00  0.00     0.417 C 
ATOM     10  F   UNL d   1       2.312   0.037  -0.326  0.00  0.00    -0.166 F 
ATOM     11  F   UNL d   1       0.602   0.688   0.849  0.00  0.00    -0.166 F 
ATOM     12  F   UNL d   1       0.409   0.432  -1.302  0.00  0.00    -0.166 F 
ENDBRANCH   6   9
ENDBRANCH   1   3
BRANCH   1  13
ATOM     13  O   UNL d   1       0.066  -6.527   0.172  0.00  0.00    -0.287 OA
BRANCH  13  14
ATOM     14  C   UNL d   1      -0.357  -7.858   0.293  0.00  0.00     0.150 C 
ATOM     15  C   UNL d   1       0.324  -8.869  -0.259  0.00  0.00     0.080 C 
BRANCH  15  16
ATOM     16  C   UNL d   1      -0.186 -10.260  -0.099  0.00  0.00     0.183 C 
ATOM     17  O   UNL d   1      -1.000 -10.534   0.778  0.00  0.00    -0.288 OA
BRANCH  16  18
ATOM     18  C   UNL d   1       0.300 -11.334  -1.023  0.00  0.00     0.014 A 
ATOM     19  C   UNL d   1       1.123 -11.088  -2.132  0.00  0.00     0.018 A 
ATOM     20  C   UNL d   1       1.503 -12.137  -2.978  0.00  0.00     0.043 A 
ATOM     21  C   UNL d   1       1.057 -13.428  -2.723  0.00  0.00     0.116 A 
ATOM     22  C   UNL d   1       0.243 -13.696  -1.631  0.00  0.00     0.043 A 
ATOM     23  F   UNL d   1       1.412 -14.423  -3.546  0.00  0.00    -0.206 F 
ATOM     24  C   UNL d   1      -0.134 -12.651  -0.782  0.00  0.00     0.018 A 
ENDBRANCH  16  18
ENDBRANCH  15  16
ENDBRANCH  13  14
ENDBRANCH   1  13
TORSDOF 6
