REMARK  9 active torsions:
REMARK  status: ('A' for Active; 'I' for Inactive)
REMARK    1  A    between atoms: C_2  and  C_1 
REMARK    2  A    between atoms: O_5  and  C_1 
REMARK    3  A    between atoms: N_3  and  O_5 
REMARK    4  A    between atoms: C_16  and  C_12 
REMARK    5  A    between atoms: C_17  and  C_16 
REMARK    6  A    between atoms: C_20  and  C_17 
REMARK    7  A    between atoms: C_18  and  C_19 
REMARK    8  A    between atoms: C_19  and  C_21 
REMARK    9  A    between atoms: C_21  and  C_20 
ROOT
ATOM      1  N   UNL d   1      -1.314  -0.932   1.007  0.00  0.00    -0.265 N 
ATOM      2  HN  UNL d   1      -0.336  -1.135   1.213  1.00  0.00     0.194 HD
ATOM      3  C   UNL d   1      -1.806  -0.824  -0.185  0.00  0.00     0.015 C 
ATOM      4  C   UNL d   1      -0.946  -0.889  -1.434  0.00  0.00     0.033 C 
ATOM      5  C   UNL d   1      -3.261  -0.576  -0.512  0.00  0.00     0.055 C 
ATOM      6  C   UNL d   1      -3.246  -0.449  -2.031  0.00  0.00     0.006 C 
ATOM      7  C   UNL d   1      -2.014  -1.218  -2.483  0.00  0.00     0.011 C 
ENDROOT
BRANCH   1   8
ATOM      8  O   UNL d   1      -2.317  -0.730   1.987  0.00  0.00    -0.195 OA
BRANCH   8   9
ATOM      9  C   UNL d   1      -1.787  -0.864   3.252  0.00  0.00     0.322 C 
ATOM     10  O   UNL d   1      -0.704  -1.376   3.521  0.00  0.00    -0.257 OA
BRANCH   9  11
ATOM     11  C   UNL d   1      -2.638  -0.241   4.260  0.00  0.00     0.082 A 
ATOM     12  S   UNL d   1      -4.224   0.322   3.928  0.00  0.00    -0.096 SA
ATOM     13  C   UNL d   1      -4.380   1.020   5.483  0.00  0.00     0.050 A 
ATOM     14  C   UNL d   1      -3.277   0.774   6.271  0.00  0.00     0.009 A 
ATOM     15  C   UNL d   1      -2.294   0.011   5.579  0.00  0.00     0.026 A 
ENDBRANCH   9  11
ENDBRANCH   8   9
ENDBRANCH   1   8
BRANCH   4  16
ATOM     16  C   UNL d   1       0.199  -1.900  -1.406  0.00  0.00     0.010 C 
BRANCH  16  17
ATOM     17  C   UNL d   1       1.008  -1.865  -2.709  0.00  0.00     0.001 C 
BRANCH  17  18
ATOM     18  C   UNL d   1       2.147  -2.880  -2.700  0.00  0.00     0.000 C 
BRANCH  18  19
ATOM     19  C   UNL d   1       2.925  -2.834  -4.017  0.00  0.00     0.000 C 
BRANCH  19  20
ATOM     20  C   UNL d   1       4.066  -3.848  -4.019  0.00  0.00    -0.000 C 
BRANCH  20  21
ATOM     21  C   UNL d   1       4.843  -3.805  -5.333  0.00  0.00    -0.005 C 
ATOM     22  C   UNL d   1       5.978  -4.814  -5.329  0.00  0.00     0.005 C 
ENDBRANCH  20  21
ENDBRANCH  19  20
ENDBRANCH  18  19
ENDBRANCH  17  18
ENDBRANCH  16  17
ENDBRANCH   4  16
TORSDOF 9
