REMARK  4 active torsions:
REMARK  status: ('A' for Active; 'I' for Inactive)
REMARK    1  A    between atoms: C_5  and  N_1 
REMARK    2  A    between atoms: C_6  and  C_2 
REMARK    3  A    between atoms: S_10  and  C_3 
REMARK    4  A    between atoms: C_17  and  S_10 
ROOT
ATOM      1  C   UNL d   1       0.324   3.300   1.631  0.00  0.00     0.011 A 
ATOM      2  C   UNL d   1      -0.790   3.014   2.453  0.00  0.00     0.018 A 
ATOM      3  C   UNL d   1       0.831   2.272   0.800  0.00  0.00     0.051 A 
ATOM      4  C   UNL d   1       0.274   0.990   0.810  0.00  0.00     0.103 A 
ATOM      5  C   UNL d   1      -1.329   1.709   2.457  0.00  0.00     0.022 A 
ATOM      6  C   UNL d   1      -0.804   0.701   1.646  0.00  0.00     0.037 A 
ENDROOT
BRANCH   2   7
ATOM      7  S   UNL d   1      -1.583   4.157   3.578  0.00  0.00    -0.090 SA
BRANCH   7   8
ATOM      8  C   UNL d   1      -2.901   4.925   2.651  0.00  0.00     0.005 A 
ATOM      9  C   UNL d   1      -3.168   4.698   1.296  0.00  0.00     0.020 A 
ATOM     10  C   UNL d   1      -4.203   5.387   0.649  0.00  0.00     0.025 A 
ATOM     11  C   UNL d   1      -4.978   6.306   1.353  0.00  0.00     0.034 A 
ATOM     12  C   UNL d   1      -4.740   6.529   2.704  0.00  0.00     0.025 A 
ATOM     13 CL   UNL d   1      -6.223   7.176   0.547  0.00  0.00    -0.084 Cl
ATOM     14  C   UNL d   1      -3.708   5.839   3.348  0.00  0.00     0.020 A 
ENDBRANCH   7   8
ENDBRANCH   2   7
BRANCH   1  15
ATOM     15  C   UNL d   1       1.032   4.594   1.583  0.00  0.00     0.061 A 
ATOM     16  N   UNL d   1       1.673   4.972   0.461  0.00  0.00    -0.300 N 
ATOM     17  N   UNL d   1       2.279   6.124   0.775  0.00  0.00    -0.311 N 
ATOM     18  HN  UNL d   1       1.693   4.486  -0.435  1.00  0.00     0.187 HD
ATOM     19  C   UNL d   1       2.041   6.531   2.049  0.00  0.00     0.109 A 
ATOM     20  H   UNL d   1       2.857   6.572   0.072  0.00  0.00     0.186 HD
ATOM     21  C   UNL d   1       1.244   5.559   2.605  0.00  0.00     0.050 A 
ENDBRANCH   1  15
BRANCH   4  22
ATOM     22  N   UNL d   1       0.834  -0.064  -0.044  0.00  0.00    -0.116 N 
ATOM     23  O   UNL d   1       1.791   0.230  -0.777  0.00  0.00    -0.532 OA
ATOM     24  O   UNL d   1       0.319  -1.190   0.014  0.00  0.00    -0.532 OA
ENDBRANCH   4  22
TORSDOF 4
