REMARK  5 active torsions:
REMARK  status: ('A' for Active; 'I' for Inactive)
REMARK    1  A    between atoms: N_6  and  C_2 
REMARK    2  A    between atoms: C_15  and  C_3 
REMARK    3  A    between atoms: N_12  and  C_20 
REMARK    4  A    between atoms: C_14  and  N_12 
REMARK    5  A    between atoms: O_22  and  C_21 
ROOT
ATOM      1  C   UNL d   1       0.070   0.813  -0.477  0.00  0.00     0.048 A 
ATOM      2  C   UNL d   1       1.420   1.225  -0.642  0.00  0.00     0.097 A 
ATOM      3  C   UNL d   1      -1.185   1.518  -0.241  0.00  0.00    -0.003 A 
ATOM      4  C   UNL d   1      -0.136  -0.557  -0.489  0.00  0.00     0.089 A 
ATOM      5  C   UNL d   1      -2.237   0.631  -0.067  0.00  0.00     0.065 A 
ATOM      6  S   UNL d   1      -1.752  -0.999  -0.193  0.00  0.00    -0.082 SA
ATOM      7  N   UNL d   1       2.370   0.291  -0.879  0.00  0.00    -0.342 N 
ATOM      8  HN  UNL d   1       3.337   0.563  -1.056  1.00  0.00     0.167 HD
ATOM      9  N   UNL d   1       0.793  -1.511  -0.679  0.00  0.00    -0.346 N 
ATOM     10  HN  UNL d   1       0.590  -2.511  -0.672  1.00  0.00     0.167 HD
ATOM     11  C   UNL d   1       2.009  -0.999  -0.876  0.00  0.00     0.182 A 
ENDROOT
BRANCH   2  12
ATOM     12  N   UNL d   1       1.793   2.549  -0.423  0.00  0.00    -0.268 NA
ATOM     13  C   UNL d   1       2.954   3.084  -1.126  0.00  0.00     0.099 C 
ATOM     14  C   UNL d   1       2.918   4.616  -0.967  0.00  0.00     0.050 C 
ATOM     15  C   UNL d   1       2.624   5.159   0.468  0.00  0.00     0.223 C 
ATOM     16  C   UNL d   1       1.686   4.239   1.244  0.00  0.00     0.050 C 
ATOM     17  C   UNL d   1       1.919   2.768   1.012  0.00  0.00     0.099 C 
BRANCH  15  18
ATOM     18  N   UNL d   1       3.849   5.445   1.242  0.00  0.00     0.095 N 
ATOM     19  H   UNL d   1       4.548   5.793   0.579  0.00  0.00     0.317 HD
BRANCH  18  20
ATOM     20  C   UNL d   1       3.755   6.486   2.321  0.00  0.00     0.249 C 
ATOM     21  C   UNL d   1       3.180   6.041   3.697  0.00  0.00     0.151 C 
ATOM     22  C   UNL d   1       1.694   6.323   3.949  0.00  0.00     0.034 C 
ATOM     23  C   UNL d   1       1.259   7.716   3.520  0.00  0.00     0.003 C 
ATOM     24  C   UNL d   1       1.727   8.081   2.117  0.00  0.00     0.002 C 
ATOM     25  C   UNL d   1       3.229   7.879   1.929  0.00  0.00     0.038 C 
BRANCH  21  26
ATOM     26  O   UNL d   1       3.483   4.663   3.938  0.00  0.00    -0.393 OA
ATOM     27  H   UNL d   1       3.867   4.336   3.099  0.00  0.00     0.210 HD
ENDBRANCH  21  26
ENDBRANCH  18  20
ENDBRANCH  15  18
ENDBRANCH   2  12
BRANCH   3  28
ATOM     28  C   UNL d   1      -1.446   2.961  -0.179  0.00  0.00    -0.024 A 
ATOM     29  C   UNL d   1      -0.989   3.814  -1.194  0.00  0.00     0.012 A 
ATOM     30  C   UNL d   1      -1.198   5.194  -1.112  0.00  0.00     0.001 A 
ATOM     31  C   UNL d   1      -1.884   5.739  -0.028  0.00  0.00     0.000 A 
ATOM     32  C   UNL d   1      -2.367   4.898   0.977  0.00  0.00     0.001 A 
ATOM     33  C   UNL d   1      -2.146   3.520   0.901  0.00  0.00     0.012 A 
ENDBRANCH   3  28
TORSDOF 5
