REMARK  9 active torsions:
REMARK  status: ('A' for Active; 'I' for Inactive)
REMARK       I    between atoms: N_4  and  C_1 
REMARK       I    between atoms: N_6  and  C_1 
REMARK    1  A    between atoms: C_7  and  N_2 
REMARK    2  A    between atoms: N_3  and  C_22 
REMARK    3  A    between atoms: C_8  and  N_4 
REMARK    4  A    between atoms: C_19  and  N_6 
REMARK    5  A    between atoms: C_16  and  C_7 
REMARK    6  A    between atoms: O_9  and  C_14 
REMARK    7  A    between atoms: C_15  and  O_9 
REMARK    8  A    between atoms: C_23  and  C_15 
REMARK    9  A    between atoms: C_22  and  C_19 
ROOT
ATOM      1  C   UNL d   1       1.726  -0.821  -0.701  0.00  0.00     0.320 C 
ATOM      2  N   UNL d   1       0.767  -0.385  -1.582  0.00  0.00    -0.309 N 
ATOM      3  O   UNL d   1       2.051  -1.986  -0.480  0.00  0.00    -0.247 OA
ATOM      4  N   UNL d   1       2.294   0.224  -0.003  0.00  0.00    -0.341 N 
ATOM      5  H   UNL d   1       0.591   0.609  -1.594  0.00  0.00     0.170 HD
ATOM      6  H   UNL d   1       2.174   1.173  -0.323  0.00  0.00     0.164 HD
ENDROOT
BRANCH   2   7
ATOM      7  C   UNL d   1       0.013  -1.164  -2.483  0.00  0.00     0.036 A 
ATOM      8  C   UNL d   1       0.130  -2.551  -2.586  0.00  0.00     0.032 A 
ATOM      9  C   UNL d   1      -0.539  -3.252  -3.594  0.00  0.00     0.039 A 
ATOM     10  C   UNL d   1      -1.337  -2.571  -4.511  0.00  0.00     0.069 A 
ATOM     11  C   UNL d   1      -1.548  -1.204  -4.347  0.00  0.00     0.039 A 
ATOM     12  C   UNL d   1      -0.873  -0.502  -3.341  0.00  0.00     0.032 A 
BRANCH  10  13
ATOM     13  O   UNL d   1      -1.967  -3.164  -5.572  0.00  0.00    -0.347 OA
BRANCH  13  14
ATOM     14  C   UNL d   1      -1.200  -4.200  -6.199  0.00  0.00     0.214 C 
BRANCH  14  15
ATOM     15  C   UNL d   1      -1.906  -4.668  -7.448  0.00  0.00    -0.034 A 
ATOM     16  C   UNL d   1      -1.266  -4.640  -8.695  0.00  0.00     0.009 A 
ATOM     17  C   UNL d   1      -1.912  -5.130  -9.832  0.00  0.00     0.001 A 
ATOM     18  C   UNL d   1      -3.200  -5.653  -9.734  0.00  0.00     0.000 A 
ATOM     19  C   UNL d   1      -3.847  -5.683  -8.500  0.00  0.00     0.001 A 
ATOM     20  C   UNL d   1      -3.204  -5.193  -7.363  0.00  0.00     0.009 A 
ENDBRANCH  14  15
ENDBRANCH  13  14
ENDBRANCH  10  13
ENDBRANCH   2   7
BRANCH   4  21
ATOM     21  C   UNL d   1       3.142  -0.027   1.147  0.00  0.00     0.154 C 
BRANCH  21  22
ATOM     22  C   UNL d   1       4.632  -0.234   0.810  0.00  0.00     0.292 C 
BRANCH  22  23
ATOM     23  N   UNL d   1       5.434  -0.560   2.012  0.00  0.00     0.093 N 
ATOM     24  C   UNL d   1       5.104  -1.899   2.555  0.00  0.00     0.302 C 
ATOM     25  C   UNL d   1       5.638  -3.091   1.719  0.00  0.00     0.303 C 
ATOM     26  N   UNL d   1       7.097  -3.047   1.477  0.00  0.00     0.096 N 
ATOM     27  C   UNL d   1       7.431  -1.719   0.917  0.00  0.00     0.303 C 
ATOM     28  C   UNL d   1       6.888  -0.516   1.726  0.00  0.00     0.302 C 
BRANCH  26  29
ATOM     29  C   UNL d   1       7.817  -3.351   2.728  0.00  0.00     0.311 C 
BRANCH  29  30
ATOM     30  C   UNL d   1       9.323  -3.357   2.599  0.00  0.00    -0.030 A 
ATOM     31  C   UNL d   1      10.098  -2.450   3.338  0.00  0.00     0.009 A 
ATOM     32  C   UNL d   1      11.488  -2.456   3.231  0.00  0.00     0.001 A 
ATOM     33  C   UNL d   1      12.116  -3.371   2.388  0.00  0.00     0.000 A 
ATOM     34  C   UNL d   1      11.357  -4.277   1.649  0.00  0.00     0.001 A 
ATOM     35  C   UNL d   1       9.965  -4.271   1.754  0.00  0.00     0.009 A 
ENDBRANCH  29  30
ENDBRANCH  26  29
ENDBRANCH  22  23
ENDBRANCH  21  22
ENDBRANCH   4  21
TORSDOF 9
