REMARK  3 active torsions:
REMARK  status: ('A' for Active; 'I' for Inactive)
REMARK    1  A    between atoms: C_2  and  C_1 
REMARK       I    between atoms: N_4  and  C_2 
REMARK    2  A    between atoms: N_9  and  N_4 
REMARK    3  A    between atoms: C_12  and  N_9 
ROOT
ATOM      1  C   UNL d   1       2.254  -2.241   0.923  0.00  0.00     0.269 C 
ATOM      2  N   UNL d   1       2.503  -3.433   0.268  0.00  0.00    -0.283 N 
ATOM      3  O   UNL d   1       1.123  -1.891   1.261  0.00  0.00    -0.266 OA
ATOM      4  H   UNL d   1       3.382  -3.604  -0.215  0.00  0.00     0.184 HD
ENDROOT
BRANCH   2   5
ATOM      5  N   UNL d   1       1.403  -4.169  -0.190  0.00  0.00    -0.203 NA
ATOM      6  H   UNL d   1       0.523  -3.798   0.192  0.00  0.00     0.153 HD
BRANCH   5   7
ATOM      7  C   UNL d   1       1.486  -5.570  -0.002  0.00  0.00     0.029 A 
ATOM      8  C   UNL d   1       0.419  -6.358  -0.457  0.00  0.00     0.049 A 
ATOM      9  C   UNL d   1       0.451  -7.753  -0.347  0.00  0.00     0.041 A 
ATOM     10 CL   UNL d   1      -0.907  -8.641  -0.944  0.00  0.00    -0.084 Cl
ATOM     11  C   UNL d   1       1.552  -8.402   0.225  0.00  0.00    -0.040 A 
ATOM     12  C   UNL d   1       2.630  -7.620   0.659  0.00  0.00     0.010 A 
ATOM     13  C   UNL d   1       1.606  -9.895   0.384  0.00  0.00     0.050 C 
ATOM     14  C   UNL d   1       2.601  -6.225   0.538  0.00  0.00     0.026 A 
ENDBRANCH   5   7
ENDBRANCH   2   5
BRANCH   1  15
ATOM     15  C   UNL d   1       3.429  -1.375   1.221  0.00  0.00     0.072 A 
ATOM     16  C   UNL d   1       4.743  -1.757   0.922  0.00  0.00     0.135 A 
ATOM     17  C   UNL d   1       5.825  -0.948   1.260  0.00  0.00     0.085 A 
ATOM     18  F   UNL d   1       5.001  -2.919   0.302  0.00  0.00    -0.205 F 
ATOM     19  C   UNL d   1       5.591   0.261   1.899  0.00  0.00     0.119 A 
ATOM     20  C   UNL d   1       4.297   0.677   2.194  0.00  0.00     0.043 A 
ATOM     21  F   UNL d   1       6.627   1.036   2.240  0.00  0.00    -0.206 F 
ATOM     22  C   UNL d   1       3.214  -0.140   1.854  0.00  0.00     0.023 A 
ENDBRANCH   1  15
TORSDOF 3
