REMARK  6 active torsions:
REMARK  status: ('A' for Active; 'I' for Inactive)
REMARK    1  A    between atoms: N_11  and  C_1 
REMARK    2  A    between atoms: C_2  and  S_5 
REMARK    3  A    between atoms: C_15  and  N_3 
REMARK    4  A    between atoms: S_5  and  C_4 
REMARK    5  A    between atoms: C_19  and  C_8 
REMARK    6  A    between atoms: C_25  and  C_26 
ROOT
ATOM      1  C   UNL d   1       2.428  -2.896   0.046  0.00  0.00     0.174 A 
ATOM      2  N   UNL d   1       3.057  -2.375   1.171  0.00  0.00    -0.274 N 
ATOM      3  C   UNL d   1       4.427  -2.532   0.891  0.00  0.00     0.139 A 
ATOM      4  N   UNL d   1       4.551  -3.176  -0.258  0.00  0.00    -0.282 N 
ATOM      5  HN  UNL d   1       5.431  -3.476  -0.677  1.00  0.00     0.188 HD
ATOM      6  N   UNL d   1       3.313  -3.376  -0.792  0.00  0.00    -0.277 N 
ATOM      7  HN  UNL d   1       3.111  -3.820  -1.688  1.00  0.00     0.189 HD
ENDROOT
BRANCH   1   8
ATOM      8  S   UNL d   1       0.728  -2.940  -0.299  0.00  0.00    -0.030 SA
BRANCH   8   9
ATOM      9  C   UNL d   1       0.233  -4.386   0.530  0.00  0.00     0.131 A 
ATOM     10  C   UNL d   1      -0.715  -4.590   1.524  0.00  0.00     0.209 A 
ATOM     11  N   UNL d   1      -0.895  -5.939   1.773  0.00  0.00    -0.331 N 
ATOM     12  C   UNL d   1      -0.100  -6.548   0.928  0.00  0.00     0.185 A 
ATOM     13  HN  UNL d   1      -1.512  -6.367   2.464  1.00  0.00     0.168 HD
ATOM     14  N   UNL d   1       0.618  -5.660   0.164  0.00  0.00    -0.338 N 
ATOM     15  C   UNL d   1       1.549  -6.109  -0.845  0.00  0.00     0.158 C 
BRANCH  10  16
ATOM     16  N   UNL d   1      -1.524  -3.624   2.244  0.00  0.00    -0.095 N 
ATOM     17  O   UNL d   1      -1.412  -2.432   1.927  0.00  0.00    -0.530 OA
ATOM     18  O   UNL d   1      -2.276  -4.054   3.128  0.00  0.00    -0.530 OA
ENDBRANCH  10  16
ENDBRANCH   8   9
ENDBRANCH   1   8
BRANCH   2  19
ATOM     19  C   UNL d   1       2.470  -1.791   2.336  0.00  0.00     0.046 A 
ATOM     20  C   UNL d   1       3.042  -2.034   3.597  0.00  0.00     0.069 A 
ATOM     21  C   UNL d   1       2.633  -1.241   4.651  0.00  0.00     0.107 A 
ATOM     22  O   UNL d   1       3.192  -1.226   5.891  0.00  0.00    -0.323 OA
ATOM     23  C   UNL d   1       1.635  -0.312   4.517  0.00  0.00     0.105 A 
ATOM     24  C   UNL d   1       2.505  -0.101   6.478  0.00  0.00     0.352 C 
ATOM     25  O   UNL d   1       1.432   0.401   5.655  0.00  0.00    -0.323 OA
ATOM     26  C   UNL d   1       0.975  -0.130   3.321  0.00  0.00     0.042 A 
ATOM     27  C   UNL d   1       1.413  -0.866   2.213  0.00  0.00     0.033 A 
ENDBRANCH   2  19
BRANCH   3  28
ATOM     28  C   UNL d   1       5.595  -2.097   1.682  0.00  0.00     0.010 C 
ATOM     29  C   UNL d   1       6.764  -2.862   1.638  0.00  0.00     0.016 C 
ATOM     30  C   UNL d   1       7.835  -2.603   2.502  0.00  0.00     0.009 C 
ATOM     31  C   UNL d   1       7.766  -1.581   3.464  0.00  0.00    -0.051 C 
ATOM     32  C   UNL d   1       6.651  -0.734   3.406  0.00  0.00     0.009 C 
ATOM     33  C   UNL d   1       5.606  -0.963   2.498  0.00  0.00     0.016 C 
BRANCH  31  34
ATOM     34  C   UNL d   1       8.874  -1.425   4.519  0.00  0.00    -0.024 C 
ATOM     35  C   UNL d   1       8.518  -0.430   5.649  0.00  0.00     0.019 C 
ATOM     36  C   UNL d   1       9.152  -2.784   5.206  0.00  0.00     0.019 C 
ATOM     37  C   UNL d   1      10.163  -0.929   3.839  0.00  0.00     0.019 C 
ENDBRANCH  31  34
ENDBRANCH   3  28
TORSDOF 6
