REMARK  5 active torsions:
REMARK  status: ('A' for Active; 'I' for Inactive)
REMARK    1  A    between atoms: N_5  and  S_1 
REMARK    2  A    between atoms: C_9  and  S_1 
REMARK       I    between atoms: C_8  and  N_2 
REMARK    3  A    between atoms: C_3  and  C_4 
REMARK       I    between atoms: C_4  and  N_7 
REMARK    4  A    between atoms: N_7  and  N_5 
REMARK    5  A    between atoms: C_6  and  C_10 
ROOT
ATOM      1  N   UNL d   1       0.478   1.435   0.533  0.00  0.00    -0.220 N 
ATOM      2  H   UNL d   1      -0.413   1.863   0.260  0.00  0.00     0.200 HD
ENDROOT
BRANCH   1   3
ATOM      3  S   UNL d   1       0.618  -0.253   0.395  0.00  0.00     0.276 S 
ATOM      4  O   UNL d   1      -0.279  -0.826   1.380  0.00  0.00    -0.199 OA
ATOM      5  O   UNL d   1       2.022  -0.590   0.369  0.00  0.00    -0.199 OA
BRANCH   3   6
ATOM      6  C   UNL d   1      -0.039  -0.598  -1.216  0.00  0.00     0.081 A 
ATOM      7  C   UNL d   1       0.603  -0.075  -2.344  0.00  0.00     0.041 A 
ATOM      8  C   UNL d   1       0.146  -0.410  -3.630  0.00  0.00     0.049 A 
ATOM      9  C   UNL d   1      -0.950  -1.282  -3.756  0.00  0.00     0.016 A 
ATOM     10  C   UNL d   1      -1.582  -1.804  -2.625  0.00  0.00     0.002 A 
ATOM     11  C   UNL d   1      -1.129  -1.463  -1.351  0.00  0.00     0.025 A 
BRANCH   8  12
ATOM     12  C   UNL d   1       0.819   0.133  -4.868  0.00  0.00     0.417 C 
ATOM     13  F   UNL d   1       1.867   0.959  -4.599  0.00  0.00    -0.166 F 
ATOM     14  F   UNL d   1       1.313  -0.851  -5.669  0.00  0.00    -0.166 F 
ATOM     15  F   UNL d   1      -0.035   0.855  -5.645  0.00  0.00    -0.166 F 
ENDBRANCH   8  12
ENDBRANCH   3   6
ENDBRANCH   1   3
BRANCH   1  16
ATOM     16  N   UNL d   1       1.127   2.014   1.709  0.00  0.00    -0.259 N 
ATOM     17  C   UNL d   1       0.574   3.116   2.338  0.00  0.00     0.260 C 
ATOM     18  O   UNL d   1      -0.357   3.743   1.836  0.00  0.00    -0.269 OA
ATOM     19  H   UNL d   1       1.842   1.442   2.179  0.00  0.00     0.190 HD
BRANCH  17  20
ATOM     20  C   UNL d   1       1.295   3.515   3.660  0.00  0.00     0.191 C 
ATOM     21  N   UNL d   1       1.203   2.486   4.729  0.00  0.00    -0.329 N 
ATOM     22  C   UNL d   1       1.887   1.290   4.606  0.00  0.00     0.217 C 
ATOM     23  C   UNL d   1       0.807   2.999   6.021  0.00  0.00     0.200 C 
ATOM     24  O   UNL d   1       2.565   1.049   3.610  0.00  0.00    -0.274 OA
ATOM     25  C   UNL d   1       1.692   0.224   5.659  0.00  0.00     0.117 C 
ATOM     26  S   UNL d   1      -0.092   4.519   5.738  0.00  0.00    -0.147 SA
ATOM     27  C   UNL d   1       0.767   4.859   4.186  0.00  0.00     0.110 C 
ENDBRANCH  17  20
ENDBRANCH   1  16
TORSDOF 5
