REMARK  4 active torsions:
REMARK  status: ('A' for Active; 'I' for Inactive)
REMARK    1  A    between atoms: N_9  and  C_1 
REMARK    2  A    between atoms: C_10  and  C_2 
REMARK    3  A    between atoms: C_3  and  C_5 
REMARK    4  A    between atoms: N_8  and  C_4 
REMARK       I    between atoms: C_5  and  N_9 
ROOT
ATOM      1  C   UNL d   1      -0.851  -4.803  -0.627  0.00  0.00     0.086 A 
ATOM      2  C   UNL d   1      -1.240  -3.716   0.236  0.00  0.00     0.093 A 
ATOM      3  N   UNL d   1       0.398  -5.192  -0.316  0.00  0.00    -0.259 N 
ATOM      4  HN  UNL d   1       0.951  -5.896  -0.805  1.00  0.00     0.195 HD
ATOM      5  O   UNL d   1       0.789  -4.467   0.779  0.00  0.00    -0.241 OA
ATOM      6  C   UNL d   1      -0.178  -3.580   1.112  0.00  0.00     0.090 A 
ATOM      7  C   UNL d   1       0.098  -2.755   2.307  0.00  0.00     0.080 C 
ENDROOT
BRANCH   2   8
ATOM      8  C   UNL d   1      -2.478  -2.963   0.278  0.00  0.00     0.262 C 
ATOM      9  N   UNL d   1      -2.300  -1.591   0.382  0.00  0.00    -0.299 N 
ATOM     10  H   UNL d   1      -1.362  -1.201   0.328  0.00  0.00     0.171 HD
ATOM     11  O   UNL d   1      -3.552  -3.540   0.191  0.00  0.00    -0.267 OA
BRANCH   9  12
ATOM     12  C   UNL d   1      -3.356  -0.705   0.496  0.00  0.00     0.208 A 
ATOM     13  C   UNL d   1      -3.410   0.675   0.592  0.00  0.00     0.179 A 
ATOM     14  C   UNL d   1      -4.777   0.971   0.809  0.00  0.00     0.066 A 
ATOM     15  C   UNL d   1      -5.455   2.260   1.095  0.00  0.00     0.073 C 
ATOM     16  N   UNL d   1      -5.515  -0.149   0.764  0.00  0.00    -0.261 N 
ATOM     17  O   UNL d   1      -4.624  -1.184   0.569  0.00  0.00    -0.217 OA
ATOM     18  HN  UNL d   1      -6.528  -0.220   0.855  1.00  0.00     0.194 HD
BRANCH  13  19
ATOM     19  N   UNL d   1      -2.303   1.568   0.525  0.00  0.00    -0.109 N 
ATOM     20  O   UNL d   1      -1.177   1.049   0.507  0.00  0.00    -0.532 OA
ATOM     21  O   UNL d   1      -2.545   2.776   0.486  0.00  0.00    -0.532 OA
ENDBRANCH  13  19
ENDBRANCH   9  12
ENDBRANCH   2   8
BRANCH   1  22
ATOM     22  C   UNL d   1      -1.568  -5.457  -1.741  0.00  0.00     0.037 A 
ATOM     23  C   UNL d   1      -2.254  -4.716  -2.727  0.00  0.00     0.048 A 
ATOM     24 CL   UNL d   1      -2.174  -2.986  -2.852  0.00  0.00    -0.083 Cl
ATOM     25  C   UNL d   1      -2.973  -5.351  -3.753  0.00  0.00     0.025 A 
ATOM     26  C   UNL d   1      -2.962  -6.735  -3.877  0.00  0.00     0.003 A 
ATOM     27  C   UNL d   1      -2.235  -7.488  -2.965  0.00  0.00     0.025 A 
ATOM     28  C   UNL d   1      -1.564  -6.866  -1.897  0.00  0.00     0.048 A 
ATOM     29 CL   UNL d   1      -0.761  -7.958  -0.810  0.00  0.00    -0.083 Cl
ENDBRANCH   1  22
TORSDOF 4
