REMARK  3 active torsions:
REMARK  status: ('A' for Active; 'I' for Inactive)
REMARK       I    between atoms: N_2  and  C_1 
REMARK    1  A    between atoms: C_5  and  C_1 
REMARK    2  A    between atoms: C_7  and  N_2 
REMARK    3  A    between atoms: O_18  and  C_15 
ROOT
ATOM      1  C   UNL d   1       1.088  -0.034   0.044  0.00  0.00     0.256 C 
ATOM      2  N   UNL d   1       0.536   0.751  -0.954  0.00  0.00    -0.323 N 
ATOM      3  O   UNL d   1       2.254  -0.407   0.126  0.00  0.00    -0.267 OA
ATOM      4  H   UNL d   1      -0.379   1.145  -0.779  0.00  0.00     0.169 HD
ENDROOT
BRANCH   2   5
ATOM      5  C   UNL d   1       1.219   1.249  -2.084  0.00  0.00     0.037 A 
ATOM      6  C   UNL d   1       2.460   0.764  -2.499  0.00  0.00     0.069 A 
ATOM      7  C   UNL d   1       3.132   1.369  -3.558  0.00  0.00     0.104 A 
ATOM      8  O   UNL d   1       4.368   0.860  -3.866  0.00  0.00    -0.346 OA
ATOM      9  C   UNL d   1       2.553   2.438  -4.244  0.00  0.00     0.102 A 
ATOM     10  C   UNL d   1       5.134   1.803  -4.617  0.00  0.00     0.202 C 
ATOM     11  C   UNL d   1       4.307   2.367  -5.761  0.00  0.00     0.202 C 
ATOM     12  O   UNL d   1       3.170   3.092  -5.277  0.00  0.00    -0.346 OA
ATOM     13  C   UNL d   1       1.294   2.898  -3.867  0.00  0.00     0.042 A 
ATOM     14  C   UNL d   1       0.623   2.297  -2.796  0.00  0.00     0.032 A 
ENDBRANCH   2   5
BRANCH   1  15
ATOM     15  C   UNL d   1       0.170  -0.381   1.159  0.00  0.00     0.032 A 
ATOM     16  C   UNL d   1      -1.189  -0.635   0.942  0.00  0.00     0.020 A 
ATOM     17  C   UNL d   1      -2.019  -0.952   2.021  0.00  0.00     0.038 A 
ATOM     18  C   UNL d   1      -1.495  -1.020   3.315  0.00  0.00     0.068 A 
ATOM     19  C   UNL d   1      -0.132  -0.806   3.521  0.00  0.00     0.038 A 
ATOM     20  C   UNL d   1       0.700  -0.482   2.450  0.00  0.00     0.020 A 
BRANCH  18  21
ATOM     21  O   UNL d   1      -2.211  -1.337   4.436  0.00  0.00    -0.356 OA
ATOM     22  C   UNL d   1      -3.587  -0.976   4.405  0.00  0.00     0.210 C 
ENDBRANCH  18  21
ENDBRANCH   1  15
TORSDOF 3
