REMARK  2 active torsions:
REMARK  status: ('A' for Active; 'I' for Inactive)
REMARK    1  A    between atoms: C_5  and  C_3 
REMARK    2  A    between atoms: C_6  and  C_4 
ROOT
ATOM      1  N   UNL d   1      -1.267  -0.046   0.010  0.00  0.00    -0.355 N 
ATOM      2  HN  UNL d   1      -2.287  -0.081   0.014  1.00  0.00     0.166 HD
ATOM      3  C   UNL d   1      -0.623   1.151  -0.011  0.00  0.00     0.043 A 
ATOM      4  C   UNL d   1      -0.540  -1.195   0.026  0.00  0.00     0.043 A 
ATOM      5  C   UNL d   1       0.769   1.225   0.001  0.00  0.00     0.030 A 
ATOM      6  C   UNL d   1       0.853  -1.171   0.004  0.00  0.00     0.030 A 
ATOM      7  C   UNL d   1       1.513   0.052  -0.001  0.00  0.00     0.005 A 
ENDROOT
BRANCH   3   8
ATOM      8  C   UNL d   1      -1.485   2.355  -0.042  0.00  0.00    -0.009 A 
ATOM      9  C   UNL d   1      -2.773   2.336   0.524  0.00  0.00     0.013 A 
ATOM     10  C   UNL d   1      -3.594   3.469   0.513  0.00  0.00     0.001 A 
ATOM     11  C   UNL d   1      -3.145   4.651  -0.069  0.00  0.00     0.000 A 
ATOM     12  C   UNL d   1      -1.881   4.697  -0.647  0.00  0.00     0.001 A 
ATOM     13  C   UNL d   1      -1.064   3.561  -0.636  0.00  0.00     0.013 A 
ENDBRANCH   3   8
BRANCH   4  14
ATOM     14  C   UNL d   1      -1.316  -2.456   0.062  0.00  0.00    -0.009 A 
ATOM     15  C   UNL d   1      -2.605  -2.528  -0.497  0.00  0.00     0.013 A 
ATOM     16  C   UNL d   1      -3.344  -3.716  -0.483  0.00  0.00     0.001 A 
ATOM     17  C   UNL d   1      -2.810  -4.863   0.097  0.00  0.00     0.000 A 
ATOM     18  C   UNL d   1      -1.543  -4.820   0.669  0.00  0.00     0.001 A 
ATOM     19  C   UNL d   1      -0.808  -3.629   0.654  0.00  0.00     0.013 A 
ENDBRANCH   4  14
TORSDOF 2
