REMARK  3 active torsions:
REMARK  status: ('A' for Active; 'I' for Inactive)
REMARK    1  A    between atoms: C_4  and  C_1 
REMARK       I    between atoms: N_7  and  C_4 
REMARK    2  A    between atoms: C_8  and  N_7 
REMARK    3  A    between atoms: O_12  and  C_11 
ROOT
ATOM      1  C   UNL d   1       3.917  -0.096   0.443  0.00  0.00     0.264 C 
ATOM      2  N   UNL d   1       4.506  -1.231  -0.105  0.00  0.00    -0.320 N 
ATOM      3  O   UNL d   1       4.580   0.843   0.879  0.00  0.00    -0.267 OA
ATOM      4  H   UNL d   1       3.911  -1.903  -0.570  0.00  0.00     0.169 HD
ENDROOT
BRANCH   1   5
ATOM      5  C   UNL d   1       2.460  -0.039   0.361  0.00  0.00     0.096 A 
ATOM      6  S   UNL d   1       1.730   1.503   0.550  0.00  0.00    -0.082 SA
ATOM      7  C   UNL d   1       0.150   0.900   0.291  0.00  0.00     0.017 A 
ATOM      8  C   UNL d   1      -1.042   1.648   0.293  0.00  0.00     0.020 A 
ATOM      9  C   UNL d   1       0.160  -0.477   0.062  0.00  0.00     0.004 A 
ATOM     10  C   UNL d   1      -2.249   0.998   0.039  0.00  0.00     0.001 A 
ATOM     11  C   UNL d   1      -2.272  -0.364  -0.215  0.00  0.00     0.001 A 
ATOM     12  C   UNL d   1      -1.086  -1.106  -0.199  0.00  0.00     0.014 A 
ATOM     13  C   UNL d   1       1.500  -1.009   0.149  0.00  0.00     0.068 A 
ATOM     14 CL   UNL d   1       1.799  -2.697  -0.011  0.00  0.00    -0.082 Cl
ENDBRANCH   1   5
BRANCH   2  15
ATOM     15  C   UNL d   1       5.901  -1.425  -0.216  0.00  0.00     0.068 A 
ATOM     16  C   UNL d   1       6.402  -2.167  -1.297  0.00  0.00     0.092 A 
ATOM     17  C   UNL d   1       7.775  -2.337  -1.479  0.00  0.00     0.039 A 
ATOM     18  C   UNL d   1       8.667  -1.781  -0.563  0.00  0.00     0.003 A 
ATOM     19  C   UNL d   1       8.182  -1.083   0.541  0.00  0.00     0.002 A 
ATOM     20  C   UNL d   1       6.807  -0.907   0.710  0.00  0.00     0.032 A 
BRANCH  16  21
ATOM     21  O   UNL d   1       5.580  -2.674  -2.263  0.00  0.00    -0.358 OA
ATOM     22  H   UNL d   1       4.862  -2.030  -2.384  0.00  0.00     0.217 HD
ENDBRANCH  16  21
ENDBRANCH   2  15
TORSDOF 3
