REMARK  7 active torsions:
REMARK  status: ('A' for Active; 'I' for Inactive)
REMARK    1  A    between atoms: S_4  and  C_1 
REMARK    2  A    between atoms: C_3  and  C_2 
REMARK       I    between atoms: N_5  and  C_3 
REMARK    3  A    between atoms: C_12  and  S_4 
REMARK    4  A    between atoms: C_11  and  N_5 
REMARK    5  A    between atoms: C_8  and  C_11 
REMARK    6  A    between atoms: O_13  and  C_8 
REMARK    7  A    between atoms: C_21  and  O_13 
ROOT
ATOM      1  C   UNL d   1      -0.504   1.235  -0.745  0.00  0.00     0.090 A 
ATOM      2  C   UNL d   1       0.431   1.231   0.302  0.00  0.00     0.065 A 
ATOM      3  N   UNL d   1      -0.948   0.081  -1.300  0.00  0.00    -0.359 N 
ATOM      4  HN  UNL d   1      -1.660   0.086  -2.030  1.00  0.00     0.166 HD
ATOM      5  C   UNL d   1       1.040   0.029   0.668  0.00  0.00     0.021 A 
ATOM      6  C   UNL d   1      -0.412  -1.078  -0.852  0.00  0.00     0.089 A 
ATOM      7  C   UNL d   1       0.603  -1.155   0.085  0.00  0.00     0.018 A 
ENDROOT
BRANCH   2   8
ATOM      8  C   UNL d   1       0.775   2.446   1.090  0.00  0.00     0.254 C 
ATOM      9  N   UNL d   1      -0.307   3.194   1.503  0.00  0.00    -0.347 N 
ATOM     10  H   UNL d   1      -1.242   2.908   1.236  0.00  0.00     0.163 HD
ATOM     11  O   UNL d   1       1.935   2.690   1.368  0.00  0.00    -0.268 OA
BRANCH   9  12
ATOM     12  C   UNL d   1      -0.179   4.508   2.117  0.00  0.00     0.233 C 
BRANCH  12  13
ATOM     13  C   UNL d   1      -0.797   4.671   3.502  0.00  0.00     0.276 C 
ATOM     14  O   UNL d   1      -0.812   5.744   4.097  0.00  0.00    -0.263 OA
BRANCH  13  15
ATOM     15  O   UNL d   1      -1.287   3.502   4.003  0.00  0.00    -0.321 OA
BRANCH  15  16
ATOM     16  C   UNL d   1      -1.585   3.497   5.408  0.00  0.00     0.174 C 
ATOM     17  C   UNL d   1      -3.081   3.412   5.654  0.00  0.00     0.034 C 
ENDBRANCH  15  16
ENDBRANCH  13  15
ENDBRANCH  12  13
ENDBRANCH   9  12
ENDBRANCH   2   8
BRANCH   1  18
ATOM     18  S   UNL d   1      -1.045   2.799  -1.428  0.00  0.00    -0.072 SA
BRANCH  18  19
ATOM     19  C   UNL d   1      -2.214   2.581  -2.735  0.00  0.00     0.007 A 
ATOM     20  C   UNL d   1      -3.190   1.589  -2.789  0.00  0.00     0.019 A 
ATOM     21  C   UNL d   1      -4.181   1.619  -3.781  0.00  0.00     0.008 A 
ATOM     22  C   UNL d   1      -4.225   2.657  -4.718  0.00  0.00    -0.062 A 
ATOM     23  C   UNL d   1      -3.237   3.641  -4.682  0.00  0.00     0.008 A 
ATOM     24  C   UNL d   1      -5.324   2.712  -5.737  0.00  0.00     0.048 C 
ATOM     25  C   UNL d   1      -2.245   3.600  -3.702  0.00  0.00     0.019 A 
ENDBRANCH  18  19
ENDBRANCH   1  18
TORSDOF 7
