REMARK  6 active torsions:
REMARK  status: ('A' for Active; 'I' for Inactive)
REMARK    1  A    between atoms: S_11  and  C_1 
REMARK    2  A    between atoms: C_9  and  C_8 
REMARK    3  A    between atoms: C_12  and  C_9 
REMARK    4  A    between atoms: C_10  and  S_11 
REMARK    5  A    between atoms: O_22  and  C_17 
REMARK    6  A    between atoms: C_23  and  O_22 
ROOT
ATOM      1  C   UNL d   1      -2.155  -0.676   0.016  0.00  0.00     0.117 A 
ATOM      2  N   UNL d   1      -2.079   0.633   0.037  0.00  0.00    -0.344 N 
ATOM      3  HN  UNL d   1      -2.880   1.265   0.060  1.00  0.00     0.167 HD
ATOM      4  S   UNL d   1      -0.646  -1.502  -0.015  0.00  0.00    -0.063 SA
ATOM      5  C   UNL d   1       0.191   0.005  -0.002  0.00  0.00     0.036 A 
ATOM      6  C   UNL d   1      -0.755   1.033   0.024  0.00  0.00     0.050 A 
ATOM      7  C   UNL d   1       1.573   0.276  -0.015  0.00  0.00     0.058 A 
ATOM      8  C   UNL d   1      -0.306   2.365   0.035  0.00  0.00     0.034 A 
ATOM      9  C   UNL d   1       2.003   1.611   0.002  0.00  0.00     0.070 A 
ATOM     10  C   UNL d   1       1.066   2.643   0.025  0.00  0.00     0.039 A 
ENDROOT
BRANCH   1  11
ATOM     11  S   UNL d   1      -3.683  -1.553   0.034  0.00  0.00    -0.077 SA
BRANCH  11  12
ATOM     12  C   UNL d   1      -4.830  -0.245   0.003  0.00  0.00     0.056 C 
ATOM     13  C   UNL d   1      -6.147  -0.491   0.091  0.00  0.00     0.063 C 
BRANCH  13  14
ATOM     14  C   UNL d   1      -7.130   0.629   0.053  0.00  0.00     0.182 C 
ATOM     15  O   UNL d   1      -6.840   1.727  -0.408  0.00  0.00    -0.288 OA
BRANCH  14  16
ATOM     16  C   UNL d   1      -8.507   0.365   0.562  0.00  0.00     0.014 A 
ATOM     17  C   UNL d   1      -8.750  -0.547   1.595  0.00  0.00     0.016 A 
ATOM     18  C   UNL d   1     -10.052  -0.740   2.071  0.00  0.00     0.007 A 
ATOM     19  C   UNL d   1     -11.125  -0.023   1.530  0.00  0.00    -0.062 A 
ATOM     20  C   UNL d   1     -10.880   0.893   0.500  0.00  0.00     0.007 A 
ATOM     21  C   UNL d   1     -12.510  -0.235   2.069  0.00  0.00     0.048 C 
ATOM     22  C   UNL d   1      -9.578   1.091   0.024  0.00  0.00     0.016 A 
ENDBRANCH  14  16
ENDBRANCH  13  14
ENDBRANCH  11  12
ENDBRANCH   1  11
BRANCH   9  23
ATOM     23  O   UNL d   1       3.366   1.787  -0.006  0.00  0.00    -0.351 OA
BRANCH  23  24
ATOM     24  C   UNL d   1       3.834   3.138   0.015  0.00  0.00     0.171 C 
ATOM     25  C   UNL d   1       5.353   3.144   0.008  0.00  0.00     0.034 C 
ENDBRANCH  23  24
ENDBRANCH   9  23
TORSDOF 6
