REMARK  4 active torsions:
REMARK  status: ('A' for Active; 'I' for Inactive)
REMARK    1  A    between atoms: C_5  and  C_1 
REMARK    2  A    between atoms: C_10  and  C_4 
REMARK       I    between atoms: N_11  and  C_5 
REMARK       I    between atoms: C_7  and  N_12 
REMARK    3  A    between atoms: C_9  and  C_7 
REMARK    4  A    between atoms: N_12  and  N_11 
ROOT
ATOM      1  C   UNL d   1       1.239   0.790   0.069  0.00  0.00     0.110 A 
ATOM      2  N   UNL d   1       1.420  -0.600   0.049  0.00  0.00    -0.345 N 
ATOM      3  HN  UNL d   1       2.325  -1.069   0.088  1.00  0.00     0.167 HD
ATOM      4  C   UNL d   1       0.252  -1.216  -0.029  0.00  0.00     0.085 A 
ATOM      5  S   UNL d   1      -1.117  -0.162  -0.033  0.00  0.00    -0.081 SA
ATOM      6  C   UNL d   1      -0.083   1.191   0.030  0.00  0.00     0.087 A 
ENDROOT
BRANCH   1   7
ATOM      7  C   UNL d   1       2.350   1.744   0.120  0.00  0.00     0.287 C 
ATOM      8  N   UNL d   1       3.600   1.167   0.162  0.00  0.00    -0.262 N 
ATOM      9  H   UNL d   1       3.729   0.156   0.175  0.00  0.00     0.190 HD
ATOM     10  O   UNL d   1       2.186   2.965   0.113  0.00  0.00    -0.264 OA
BRANCH   8  11
ATOM     11  N   UNL d   1       4.731   1.996   0.184  0.00  0.00    -0.263 N 
ATOM     12  C   UNL d   1       5.935   1.516   0.668  0.00  0.00     0.277 C 
ATOM     13  O   UNL d   1       6.038   0.353   1.067  0.00  0.00    -0.265 OA
ATOM     14  H   UNL d   1       4.588   2.988   0.001  0.00  0.00     0.190 HD
BRANCH  12  15
ATOM     15  C   UNL d   1       7.051   2.455   0.659  0.00  0.00     0.074 A 
ATOM     16  S   UNL d   1       6.948   4.000  -0.083  0.00  0.00    -0.097 SA
ATOM     17  C   UNL d   1       8.583   4.359   0.264  0.00  0.00     0.050 A 
ATOM     18  C   UNL d   1       9.198   3.341   0.956  0.00  0.00     0.009 A 
ATOM     19  C   UNL d   1       8.315   2.246   1.185  0.00  0.00     0.025 A 
ENDBRANCH  12  15
ENDBRANCH   8  11
ENDBRANCH   1   7
BRANCH   4  20
ATOM     20  C   UNL d   1       0.065  -2.680  -0.057  0.00  0.00    -0.001 A 
ATOM     21  C   UNL d   1       1.015  -3.512   0.557  0.00  0.00     0.040 A 
ATOM     22  C   UNL d   1       0.856  -4.905   0.573  0.00  0.00     0.056 A 
ATOM     23 CL   UNL d   1       2.063  -5.845   1.377  0.00  0.00    -0.083 Cl
ATOM     24  C   UNL d   1      -0.256  -5.490  -0.040  0.00  0.00     0.055 A 
ATOM     25  C   UNL d   1      -1.200  -4.679  -0.671  0.00  0.00     0.026 A 
ATOM     26 CL   UNL d   1      -0.524  -7.196  -0.057  0.00  0.00    -0.083 Cl
ATOM     27  C   UNL d   1      -1.039  -3.289  -0.681  0.00  0.00     0.016 A 
ENDBRANCH   4  20
TORSDOF 4
