REMARK  6 active torsions:
REMARK  status: ('A' for Active; 'I' for Inactive)
REMARK    1  A    between atoms: S_7  and  C_1 
REMARK    2  A    between atoms: C_14  and  S_7 
REMARK    3  A    between atoms: N_13  and  N_8 
REMARK    4  A    between atoms: C_10  and  C_11 
REMARK    5  A    between atoms: C_19  and  N_13 
REMARK    6  A    between atoms: C_16  and  C_14 
ROOT
ATOM      1  C   UNL d   1      -0.271  -1.058   0.014  0.00  0.00     0.091 A 
ATOM      2  C   UNL d   1       0.492   0.123   0.022  0.00  0.00     0.078 A 
ATOM      3  N   UNL d   1      -1.633  -1.036  -0.011  0.00  0.00    -0.348 N 
ATOM      4  HN  UNL d   1      -2.178  -1.898   0.013  1.00  0.00     0.166 HD
ATOM      5  C   UNL d   1       1.929   0.161   0.057  0.00  0.00     0.102 C 
ATOM      6  N   UNL d   1       3.076   0.305   0.074  0.00  0.00    -0.191 NA
ATOM      7  C   UNL d   1      -2.236   0.179  -0.068  0.00  0.00     0.050 A 
ATOM      8  C   UNL d   1      -0.176   1.361  -0.017  0.00  0.00     0.028 A 
ATOM      9  C   UNL d   1      -1.562   1.393  -0.072  0.00  0.00     0.032 A 
ENDROOT
BRANCH   1  10
ATOM     10  S   UNL d   1       0.481  -2.698   0.129  0.00  0.00    -0.106 SA
BRANCH  10  11
ATOM     11  C   UNL d   1      -0.747  -3.754  -0.738  0.00  0.00     0.119 C 
BRANCH  11  12
ATOM     12  C   UNL d   1      -0.402  -5.239  -0.708  0.00  0.00    -0.048 A 
ATOM     13  C   UNL d   1      -0.916  -6.066   0.307  0.00  0.00     0.009 A 
ATOM     14  C   UNL d   1      -0.644  -7.440   0.329  0.00  0.00     0.024 A 
ATOM     15  C   UNL d   1       0.147  -8.007  -0.666  0.00  0.00     0.034 A 
ATOM     16  C   UNL d   1       0.668  -7.210  -1.681  0.00  0.00     0.024 A 
ATOM     17 CL   UNL d   1       0.480  -9.697  -0.639  0.00  0.00    -0.084 Cl
ATOM     18  C   UNL d   1       0.397  -5.832  -1.702  0.00  0.00     0.009 A 
ENDBRANCH  11  12
ENDBRANCH  10  11
ENDBRANCH   1  10
BRANCH   7  19
ATOM     19  C   UNL d   1      -3.712   0.187  -0.120  0.00  0.00     0.136 C 
ATOM     20  N   UNL d   1      -4.326   1.183  -0.672  0.00  0.00    -0.309 N 
ATOM     21  HN  UNL d   1      -3.811   1.947  -1.110  1.00  0.00     0.186 HD
BRANCH  20  22
ATOM     22  N   UNL d   1      -5.675   1.171  -0.645  0.00  0.00    -0.301 N 
ATOM     23  H   UNL d   1      -6.220   0.408  -0.256  0.00  0.00     0.187 HD
BRANCH  22  24
ATOM     24  C   UNL d   1      -6.376   2.201  -1.300  0.00  0.00     0.048 A 
ATOM     25  C   UNL d   1      -5.719   3.187  -2.053  0.00  0.00     0.031 A 
ATOM     26  C   UNL d   1      -6.427   4.218  -2.677  0.00  0.00     0.002 A 
ATOM     27  C   UNL d   1      -7.809   4.291  -2.540  0.00  0.00     0.000 A 
ATOM     28  C   UNL d   1      -8.478   3.340  -1.772  0.00  0.00     0.002 A 
ATOM     29  C   UNL d   1      -7.765   2.305  -1.155  0.00  0.00     0.031 A 
ENDBRANCH  22  24
ENDBRANCH  20  22
ENDBRANCH   7  19
TORSDOF 6
