REMARK  4 active torsions:
REMARK  status: ('A' for Active; 'I' for Inactive)
REMARK    1  A    between atoms: S_2  and  C_1 
REMARK    2  A    between atoms: C_10  and  S_2 
REMARK    3  A    between atoms: C_7  and  C_4 
REMARK    4  A    between atoms: O_12  and  C_7 
ROOT
ATOM      1  C   UNL d   1       1.461  -0.678   0.036  0.00  0.00     0.067 A 
ATOM      2  C   UNL d   1       1.170   0.321  -0.943  0.00  0.00     0.049 A 
ATOM      3  C   UNL d   1      -0.009   0.995  -0.674  0.00  0.00     0.079 A 
ATOM      4  S   UNL d   1      -0.755   0.396   0.749  0.00  0.00    -0.094 SA
ATOM      5  C   UNL d   1       0.484  -0.751   1.004  0.00  0.00     0.074 A 
ENDROOT
BRANCH   1   6
ATOM      6  S   UNL d   1       2.856  -1.713  -0.007  0.00  0.00     0.179 S 
ATOM      7  O   UNL d   1       2.762  -2.498   1.207  0.00  0.00    -0.222 OA
ATOM      8  O   UNL d   1       2.781  -2.312  -1.323  0.00  0.00    -0.222 OA
BRANCH   6   9
ATOM      9  C   UNL d   1       4.283  -0.628   0.078  0.00  0.00     0.105 C 
ATOM     10  C   UNL d   1       4.259   0.266   1.312  0.00  0.00     0.026 C 
ATOM     11  C   UNL d   1       5.559  -1.468   0.059  0.00  0.00     0.026 C 
ENDBRANCH   6   9
ENDBRANCH   1   6
BRANCH   3  12
ATOM     12  C   UNL d   1      -0.590   2.075  -1.455  0.00  0.00     0.183 C 
ATOM     13  O   UNL d   1      -0.082   2.564  -2.454  0.00  0.00    -0.646 OA
BRANCH  12  14
ATOM     14  O   UNL d   1      -1.773   2.523  -0.963  0.00  0.00    -0.772 OA
ATOM     15  H   UNL d   1      -2.047   2.029  -0.166  0.00  0.00     0.167 HD
ENDBRANCH  12  14
ENDBRANCH   3  12
TORSDOF 4
