REMARK  9 active torsions:
REMARK  status: ('A' for Active; 'I' for Inactive)
REMARK    1  A    between atoms: N_3  and  C_1 
REMARK    2  A    between atoms: C_9  and  C_2 
REMARK    3  A    between atoms: C_5  and  N_3 
REMARK    4  A    between atoms: N_12  and  C_5 
REMARK    5  A    between atoms: C_6  and  C_7 
REMARK    6  A    between atoms: O_18  and  C_9 
REMARK    7  A    between atoms: C_20  and  C_10 
REMARK    8  A    between atoms: C_11  and  N_12 
REMARK    9  A    between atoms: C_22  and  O_18 
ROOT
ATOM      1  N   UNL d   1       0.086   2.132   0.447  0.00  0.00    -0.327 N 
ATOM      2  H   UNL d   1       0.779   2.815   0.156  0.00  0.00     0.169 HD
ENDROOT
BRANCH   1   3
ATOM      3  C   UNL d   1       0.507   0.804   0.323  0.00  0.00     0.093 C 
ATOM      4  C   UNL d   1       1.777   0.314   0.040  0.00  0.00     0.074 C 
ATOM      5  C   UNL d   1       1.770  -1.131   0.025  0.00  0.00     0.035 C 
ATOM      6  C   UNL d   1       0.510  -1.668   0.138  0.00  0.00    -0.015 C 
ATOM      7  S   UNL d   1      -0.655  -0.448   0.321  0.00  0.00    -0.076 SA
BRANCH   4   8
ATOM      8  C   UNL d   1       2.970   1.125  -0.198  0.00  0.00     0.296 C 
ATOM      9  O   UNL d   1       2.947   2.334  -0.375  0.00  0.00    -0.259 OA
BRANCH   8  10
ATOM     10  O   UNL d   1       4.099   0.354  -0.233  0.00  0.00    -0.318 OA
BRANCH  10  11
ATOM     11  C   UNL d   1       5.360   1.008  -0.430  0.00  0.00     0.174 C 
ATOM     12  C   UNL d   1       5.751   0.956  -1.895  0.00  0.00     0.034 C 
ENDBRANCH  10  11
ENDBRANCH   8  10
ENDBRANCH   4   8
BRANCH   6  13
ATOM     13  C   UNL d   1       0.097  -3.104   0.062  0.00  0.00     0.042 C 
ATOM     14  C   UNL d   1      -0.122  -3.525  -1.385  0.00  0.00     0.010 C 
ENDBRANCH   6  13
ENDBRANCH   1   3
BRANCH   1  15
ATOM     15  C   UNL d   1      -1.063   2.601   1.060  0.00  0.00     0.177 C 
ATOM     16  S   UNL d   1      -1.957   1.900   2.299  0.00  0.00    -0.040 SA
BRANCH  15  17
ATOM     17  N   UNL d   1      -1.613   3.751   0.547  0.00  0.00    -0.332 N 
ATOM     18  H   UNL d   1      -2.623   3.765   0.673  0.00  0.00     0.168 HD
BRANCH  17  19
ATOM     19  C   UNL d   1      -1.076   4.768  -0.254  0.00  0.00     0.049 A 
ATOM     20  C   UNL d   1       0.126   5.436   0.026  0.00  0.00     0.074 A 
ATOM     21  C   UNL d   1       0.550   6.449  -0.858  0.00  0.00     0.018 A 
ATOM     22  C   UNL d   1      -0.237   6.845  -1.939  0.00  0.00     0.001 A 
ATOM     23  C   UNL d   1      -1.470   6.241  -2.151  0.00  0.00     0.002 A 
ATOM     24  C   UNL d   1      -1.889   5.214  -1.303  0.00  0.00     0.030 A 
BRANCH  20  25
ATOM     25  C   UNL d   1       0.920   5.215   1.289  0.00  0.00     0.419 C 
ATOM     26  F   UNL d   1       0.154   5.002   2.394  0.00  0.00    -0.166 F 
ATOM     27  F   UNL d   1       1.755   4.147   1.197  0.00  0.00    -0.166 F 
ATOM     28  F   UNL d   1       1.719   6.275   1.612  0.00  0.00    -0.166 F 
ENDBRANCH  20  25
ENDBRANCH  17  19
ENDBRANCH  15  17
ENDBRANCH   1  15
TORSDOF 9
