REMARK  2 active torsions:
REMARK  status: ('A' for Active; 'I' for Inactive)
REMARK    1  A    between atoms: C_12  and  N_3 
REMARK    2  A    between atoms: C_8  and  C_4 
REMARK       I    between atoms: N_7  and  C_8 
REMARK       I    between atoms: C_10  and  N_7 
REMARK       I    between atoms: N_11  and  C_10 
ROOT
ATOM      1  N   UNL d   1      -0.230   1.118   0.271  0.00  0.00    -0.272 N 
ATOM      2  HN  UNL d   1      -0.626   2.041   0.095  1.00  0.00     0.189 HD
ATOM      3  N   UNL d   1       1.082   0.747   0.383  0.00  0.00    -0.196 N 
ATOM      4  C   UNL d   1      -0.865  -0.064   0.456  0.00  0.00     0.141 C 
ATOM      5  N   UNL d   1       1.315  -0.585   0.374  0.00  0.00    -0.281 N 
ATOM      6  HN  UNL d   1       2.187  -1.084   0.198  1.00  0.00     0.189 HD
ATOM      7  C   UNL d   1       0.105  -1.077   0.656  0.00  0.00     0.057 C 
ATOM      8  C   UNL d   1      -0.012  -2.459   1.168  0.00  0.00     0.072 C 
ENDROOT
BRANCH   4   9
ATOM      9  C   UNL d   1      -2.328  -0.175   0.492  0.00  0.00     0.279 C 
ATOM     10  N   UNL d   1      -2.953   0.992   0.095  0.00  0.00    -0.274 N 
ATOM     11  C   UNL d   1      -4.301   1.146  -0.100  0.00  0.00     0.325 C 
ATOM     12  H   UNL d   1      -2.313   1.715  -0.196  0.00  0.00     0.173 HD
ATOM     13  N   UNL d   1      -4.758   2.477  -0.204  0.00  0.00    -0.332 N 
ATOM     14  O   UNL d   1      -5.080   0.195  -0.172  0.00  0.00    -0.247 OA
ATOM     15  C   UNL d   1      -3.897   3.620   0.152  0.00  0.00     0.137 C 
ATOM     16  C   UNL d   1      -6.208   2.616   0.033  0.00  0.00     0.137 C 
ATOM     17  C   UNL d   1      -4.396   5.006  -0.257  0.00  0.00     0.093 C 
ATOM     18  S   UNL d   1      -6.043   5.355   0.403  0.00  0.00    -0.166 SA
ATOM     19  C   UNL d   1      -6.858   3.936  -0.375  0.00  0.00     0.093 C 
ATOM     20  O   UNL d   1      -2.883  -1.202   0.871  0.00  0.00    -0.265 OA
ENDBRANCH   4   9
BRANCH   3  21
ATOM     21  C   UNL d   1       2.121   1.619   0.790  0.00  0.00     0.074 A 
ATOM     22  C   UNL d   1       1.822   2.803   1.472  0.00  0.00     0.033 A 
ATOM     23  C   UNL d   1       2.854   3.504   2.100  0.00  0.00     0.002 A 
ATOM     24  C   UNL d   1       4.175   3.057   2.004  0.00  0.00     0.000 A 
ATOM     25  C   UNL d   1       4.478   1.917   1.268  0.00  0.00     0.002 A 
ATOM     26  C   UNL d   1       3.453   1.189   0.667  0.00  0.00     0.033 A 
ENDBRANCH   3  21
TORSDOF 2
