REMARK  7 active torsions:
REMARK  status: ('A' for Active; 'I' for Inactive)
REMARK    1  A    between atoms: C_12  and  N_3 
REMARK    2  A    between atoms: C_16  and  C_4 
REMARK    3  A    between atoms: C_11  and  C_7 
REMARK    4  A    between atoms: C_9  and  N_14 
REMARK    5  A    between atoms: C_10  and  C_18 
REMARK    6  A    between atoms: O_26  and  C_11 
REMARK    7  A    between atoms: C_13  and  C_12 
REMARK       I    between atoms: N_14  and  C_13 
ROOT
ATOM      1  N   UNL d   1      -0.366  -0.707  -0.131  0.00  0.00    -0.268 N 
ATOM      2  HN  UNL d   1      -0.612  -1.609  -0.538  1.00  0.00     0.190 HD
ATOM      3  N   UNL d   1       0.789  -0.303   0.454  0.00  0.00    -0.207 N 
ATOM      4  C   UNL d   1      -1.097   0.421  -0.020  0.00  0.00     0.144 A 
ATOM      5  N   UNL d   1      -0.392   1.450   0.554  0.00  0.00    -0.266 N 
ATOM      6  HN  UNL d   1      -0.733   2.396   0.728  1.00  0.00     0.186 HD
ATOM      7  N   UNL d   1       0.812   0.984   0.839  0.00  0.00    -0.002 NA
ENDROOT
BRANCH   3   8
ATOM      8  C   UNL d   1       2.027  -1.036   0.313  0.00  0.00     0.270 C 
BRANCH   8   9
ATOM      9  C   UNL d   1       1.966  -2.469   0.781  0.00  0.00     0.243 C 
ATOM     10  N   UNL d   1       0.954  -3.228   0.225  0.00  0.00    -0.324 N 
ATOM     11  H   UNL d   1       0.293  -2.765  -0.404  0.00  0.00     0.169 HD
ATOM     12  O   UNL d   1       2.868  -2.912   1.493  0.00  0.00    -0.271 OA
BRANCH  10  13
ATOM     13  C   UNL d   1       0.793  -4.607   0.372  0.00  0.00     0.058 A 
ATOM     14  C   UNL d   1      -0.058  -5.352  -0.439  0.00  0.00     0.106 A 
ATOM     15  S   UNL d   1      -0.037  -7.019  -0.012  0.00  0.00    -0.094 SA
ATOM     16  C   UNL d   1       1.116  -6.768   1.214  0.00  0.00     0.053 A 
ATOM     17  C   UNL d   1       1.466  -5.442   1.321  0.00  0.00     0.038 A 
BRANCH  14  18
ATOM     18  C   UNL d   1      -0.873  -4.961  -1.580  0.00  0.00     0.302 C 
ATOM     19  O   UNL d   1      -1.579  -5.692  -2.261  0.00  0.00    -0.259 OA
BRANCH  18  20
ATOM     20  O   UNL d   1      -0.700  -3.627  -1.839  0.00  0.00    -0.322 OA
ATOM     21  C   UNL d   1      -1.326  -3.176  -3.041  0.00  0.00     0.213 C 
ENDBRANCH  18  20
ENDBRANCH  14  18
ENDBRANCH  10  13
ENDBRANCH   8   9
ENDBRANCH   3   8
BRANCH   4  22
ATOM     22  C   UNL d   1      -2.466   0.587  -0.489  0.00  0.00     0.011 A 
ATOM     23  C   UNL d   1      -3.303  -0.519  -0.705  0.00  0.00     0.031 A 
ATOM     24  C   UNL d   1      -4.625  -0.346  -1.155  0.00  0.00     0.048 A 
ATOM     25  C   UNL d   1      -5.100   0.951  -1.399  0.00  0.00     0.016 A 
ATOM     26  C   UNL d   1      -4.277   2.057  -1.188  0.00  0.00     0.002 A 
ATOM     27  C   UNL d   1      -2.971   1.874  -0.731  0.00  0.00     0.015 A 
BRANCH  24  28
ATOM     28  C   UNL d   1      -5.533  -1.530  -1.391  0.00  0.00     0.417 C 
ATOM     29  F   UNL d   1      -4.995  -2.714  -0.988  0.00  0.00    -0.166 F 
ATOM     30  F   UNL d   1      -6.722  -1.416  -0.737  0.00  0.00    -0.166 F 
ATOM     31  F   UNL d   1      -5.842  -1.688  -2.707  0.00  0.00    -0.166 F 
ENDBRANCH  24  28
ENDBRANCH   4  22
TORSDOF 7
