REMARK  8 active torsions:
REMARK  status: ('A' for Active; 'I' for Inactive)
REMARK    1  A    between atoms: C_16  and  C_2 
REMARK    2  A    between atoms: N_19  and  C_6 
REMARK       I    between atoms: C_11  and  N_20 
REMARK    3  A    between atoms: C_13  and  C_11 
REMARK    4  A    between atoms: C_12  and  C_14 
REMARK    5  A    between atoms: O_21  and  C_12 
REMARK    6  A    between atoms: C_24  and  N_19 
REMARK    7  A    between atoms: N_20  and  C_25 
REMARK    8  A    between atoms: C_25  and  C_24 
ROOT
ATOM      1  C   UNL d   1       0.286   0.922   0.051  0.00  0.00     0.053 A 
ATOM      2  C   UNL d   1      -0.957   1.699   0.034  0.00  0.00    -0.003 A 
ATOM      3  C   UNL d   1      -2.062   0.862   0.024  0.00  0.00     0.065 A 
ATOM      4  C   UNL d   1       0.002  -0.440   0.062  0.00  0.00     0.089 A 
ATOM      5  S   UNL d   1      -1.660  -0.791   0.080  0.00  0.00    -0.082 SA
ATOM      6  C   UNL d   1       1.667   1.237   0.003  0.00  0.00     0.116 A 
ATOM      7  N   UNL d   1       0.880  -1.456   0.045  0.00  0.00    -0.346 N 
ATOM      8  HN  UNL d   1       0.610  -2.439   0.082  1.00  0.00     0.167 HD
ATOM      9  N   UNL d   1       2.568   0.230  -0.069  0.00  0.00    -0.338 N 
ATOM     10  HN  UNL d   1       3.564   0.434  -0.156  1.00  0.00     0.168 HD
ATOM     11  C   UNL d   1       2.140  -1.037  -0.025  0.00  0.00     0.182 A 
ENDROOT
BRANCH   6  12
ATOM     12  N   UNL d   1       2.141   2.532  -0.057  0.00  0.00    -0.374 N 
ATOM     13  H   UNL d   1       1.811   3.166   0.661  0.00  0.00     0.161 HD
BRANCH  12  14
ATOM     14  C   UNL d   1       3.382   2.836  -0.754  0.00  0.00     0.141 C 
BRANCH  14  15
ATOM     15  C   UNL d   1       3.235   2.525  -2.260  0.00  0.00     0.142 C 
BRANCH  15  16
ATOM     16  N   UNL d   1       4.429   2.736  -3.055  0.00  0.00    -0.356 N 
ATOM     17  C   UNL d   1       4.871   3.990  -3.388  0.00  0.00     0.241 C 
ATOM     18  O   UNL d   1       4.412   5.035  -2.949  0.00  0.00    -0.269 OA
ATOM     19  H   UNL d   1       4.817   1.925  -3.516  0.00  0.00     0.162 HD
BRANCH  17  20
ATOM     20  C   UNL d   1       5.972   3.952  -4.372  0.00  0.00     0.080 C 
ATOM     21  C   UNL d   1       6.539   5.100  -4.779  0.00  0.00     0.086 C 
BRANCH  21  22
ATOM     22  C   UNL d   1       7.628   5.017  -5.767  0.00  0.00     0.165 C 
ATOM     23  O   UNL d   1       8.029   3.980  -6.265  0.00  0.00    -0.647 OA
BRANCH  22  24
ATOM     24  O   UNL d   1       8.143   6.229  -6.058  0.00  0.00    -0.773 OA
ATOM     25  H   UNL d   1       7.744   6.981  -5.589  0.00  0.00     0.167 HD
ENDBRANCH  22  24
ENDBRANCH  21  22
ENDBRANCH  17  20
ENDBRANCH  15  16
ENDBRANCH  14  15
ENDBRANCH  12  14
ENDBRANCH   6  12
BRANCH   2  26
ATOM     26  C   UNL d   1      -1.165   3.157  -0.015  0.00  0.00    -0.024 A 
ATOM     27  C   UNL d   1      -0.348   3.985  -0.792  0.00  0.00     0.012 A 
ATOM     28  C   UNL d   1      -0.501   5.375  -0.782  0.00  0.00     0.001 A 
ATOM     29  C   UNL d   1      -1.534   5.955  -0.055  0.00  0.00     0.000 A 
ATOM     30  C   UNL d   1      -2.406   5.146   0.668  0.00  0.00     0.001 A 
ATOM     31  C   UNL d   1      -2.212   3.760   0.703  0.00  0.00     0.012 A 
ENDBRANCH   2  26
TORSDOF 8
