REMARK  1 active torsions:
REMARK  status: ('A' for Active; 'I' for Inactive)
REMARK    1  A    between atoms: C_2  and  N_1 
ROOT
ATOM      1  C   UNL d   1       2.112  -1.522  -0.007  0.00  0.00     0.089 A 
ATOM      2  C   UNL d   1       2.312  -2.469  -1.026  0.00  0.00     0.165 A 
ATOM      3  C   UNL d   1       3.441  -3.297  -1.034  0.00  0.00     0.074 A 
ATOM      4  F   UNL d   1       1.484  -2.527  -2.080  0.00  0.00    -0.202 F 
ATOM      5  C   UNL d   1       3.108  -1.424   0.986  0.00  0.00     0.034 A 
ATOM      6 CL   UNL d   1       3.682  -4.439  -2.303  0.00  0.00    -0.081 Cl
ATOM      7  C   UNL d   1       4.237  -2.252   0.978  0.00  0.00     0.004 A 
ATOM      8  C   UNL d   1       4.402  -3.194  -0.031  0.00  0.00     0.027 A 
ENDROOT
BRANCH   1   9
ATOM      9  N   UNL d   1       0.967  -0.668   0.025  0.00  0.00    -0.245 N 
ATOM     10  C   UNL d   1      -0.271  -0.940  -0.563  0.00  0.00     0.259 A 
ATOM     11  C   UNL d   1      -1.171   0.228  -0.407  0.00  0.00     0.084 A 
ATOM     12  O   UNL d   1      -0.688  -1.960  -1.088  0.00  0.00    -0.267 OA
ATOM     13  C   UNL d   1      -0.605   1.201   0.308  0.00  0.00     0.074 A 
ATOM     14  S   UNL d   1       0.995   0.849   0.836  0.00  0.00    -0.016 SA
ENDBRANCH   1   9
TORSDOF 1
