REMARK  5 active torsions:
REMARK  status: ('A' for Active; 'I' for Inactive)
REMARK    1  A    between atoms: C_9  and  C_3 
REMARK    2  A    between atoms: C_13  and  C_4 
REMARK    3  A    between atoms: C_6  and  C_12 
REMARK    4  A    between atoms: C_8  and  C_9 
REMARK    5  A    between atoms: N_11  and  C_10 
ROOT
ATOM      1  N   UNL d   1      -0.095   1.417  -0.100  0.00  0.00    -0.346 N 
ATOM      2  HN  UNL d   1      -0.290   2.413  -0.200  1.00  0.00     0.167 HD
ATOM      3  C   UNL d   1       1.187   0.867  -0.007  0.00  0.00     0.090 A 
ATOM      4  C   UNL d   1      -1.019   0.477  -0.041  0.00  0.00     0.085 A 
ATOM      5  S   UNL d   1      -0.400  -1.128   0.054  0.00  0.00    -0.081 SA
ATOM      6  C   UNL d   1       1.196  -0.514   0.078  0.00  0.00     0.085 A 
ENDROOT
BRANCH   3   7
ATOM      7  C   UNL d   1       2.411   1.676   0.001  0.00  0.00     0.200 C 
ATOM      8  O   UNL d   1       3.536   1.192   0.074  0.00  0.00    -0.286 OA
BRANCH   7   9
ATOM      9  C   UNL d   1       2.165   3.141  -0.075  0.00  0.00     0.074 C 
ATOM     10  C   UNL d   1       3.183   4.010  -0.137  0.00  0.00     0.089 C 
BRANCH  10  11
ATOM     11  N   UNL d   1       3.132   5.396  -0.226  0.00  0.00    -0.386 N 
ATOM     12  C   UNL d   1       2.006   6.198   0.307  0.00  0.00     0.148 C 
ATOM     13  C   UNL d   1       1.829   7.484  -0.513  0.00  0.00     0.187 C 
ATOM     14  O   UNL d   1       3.038   8.258  -0.551  0.00  0.00    -0.388 OA
ATOM     15  C   UNL d   1       4.097   7.485  -1.138  0.00  0.00     0.187 C 
ATOM     16  C   UNL d   1       4.371   6.202  -0.338  0.00  0.00     0.148 C 
ENDBRANCH  10  11
ENDBRANCH   7   9
ENDBRANCH   3   7
BRANCH   4  17
ATOM     17  C   UNL d   1      -2.467   0.744  -0.080  0.00  0.00    -0.002 A 
ATOM     18  C   UNL d   1      -2.943   1.858  -0.791  0.00  0.00     0.015 A 
ATOM     19  C   UNL d   1      -4.309   2.161  -0.828  0.00  0.00     0.017 A 
ATOM     20  C   UNL d   1      -5.235   1.362  -0.146  0.00  0.00     0.048 A 
ATOM     21  C   UNL d   1      -4.766   0.251   0.570  0.00  0.00     0.017 A 
ATOM     22  C   UNL d   1      -3.400  -0.054   0.601  0.00  0.00     0.015 A 
BRANCH  20  23
ATOM     23  C   UNL d   1      -6.711   1.679  -0.160  0.00  0.00     0.417 C 
ATOM     24  F   UNL d   1      -7.026   2.783  -0.894  0.00  0.00    -0.166 F 
ATOM     25  F   UNL d   1      -7.457   0.663  -0.675  0.00  0.00    -0.166 F 
ATOM     26  F   UNL d   1      -7.205   1.909   1.089  0.00  0.00    -0.166 F 
ENDBRANCH  20  23
ENDBRANCH   4  17
TORSDOF 5
