REMARK  4 active torsions:
REMARK  status: ('A' for Active; 'I' for Inactive)
REMARK    1  A    between atoms: C_12  and  N_3 
REMARK    2  A    between atoms: C_8  and  C_4 
REMARK       I    between atoms: N_10  and  C_8 
REMARK       I    between atoms: C_9  and  N_11 
REMARK    3  A    between atoms: C_15  and  C_9 
REMARK    4  A    between atoms: N_11  and  N_10 
ROOT
ATOM      1  N   UNL d   1      -0.293  -0.975  -0.177  0.00  0.00    -0.272 N 
ATOM      2  HN  UNL d   1      -0.568  -1.936  -0.378  1.00  0.00     0.189 HD
ATOM      3  N   UNL d   1       0.958  -0.470   0.031  0.00  0.00    -0.196 N 
ATOM      4  C   UNL d   1      -1.075   0.119  -0.050  0.00  0.00     0.143 A 
ATOM      5  N   UNL d   1       1.022   0.856   0.307  0.00  0.00    -0.281 N 
ATOM      6  HN  UNL d   1       1.843   1.422   0.523  1.00  0.00     0.189 HD
ATOM      7  C   UNL d   1      -0.255   1.240   0.225  0.00  0.00     0.057 A 
ATOM      8  C   UNL d   1      -0.607   2.669   0.385  0.00  0.00     0.072 C 
ENDROOT
BRANCH   4   9
ATOM      9  C   UNL d   1      -2.531   0.098  -0.192  0.00  0.00     0.290 C 
ATOM     10  N   UNL d   1      -3.076  -1.139  -0.477  0.00  0.00    -0.262 N 
ATOM     11  H   UNL d   1      -2.503  -1.980  -0.559  0.00  0.00     0.190 HD
ATOM     12  O   UNL d   1      -3.236   1.100  -0.062  0.00  0.00    -0.264 OA
BRANCH  10  13
ATOM     13  N   UNL d   1      -4.468  -1.255  -0.602  0.00  0.00    -0.263 N 
ATOM     14  C   UNL d   1      -5.018  -2.515  -0.738  0.00  0.00     0.270 C 
ATOM     15  O   UNL d   1      -4.338  -3.533  -0.818  0.00  0.00    -0.266 OA
ATOM     16  H   UNL d   1      -5.009  -0.432  -0.344  0.00  0.00     0.190 HD
BRANCH  14  17
ATOM     17  C   UNL d   1      -6.510  -2.587  -0.746  0.00  0.00     0.033 A 
ATOM     18  C   UNL d   1      -7.315  -1.509  -1.138  0.00  0.00     0.017 A 
ATOM     19  C   UNL d   1      -8.708  -1.632  -1.125  0.00  0.00     0.001 A 
ATOM     20  C   UNL d   1      -9.302  -2.830  -0.728  0.00  0.00     0.000 A 
ATOM     21  C   UNL d   1      -8.507  -3.911  -0.352  0.00  0.00     0.001 A 
ATOM     22  C   UNL d   1      -7.115  -3.793  -0.365  0.00  0.00     0.017 A 
ENDBRANCH  14  17
ENDBRANCH  10  13
ENDBRANCH   4   9
BRANCH   3  23
ATOM     23  C   UNL d   1       2.140  -1.250  -0.075  0.00  0.00     0.074 A 
ATOM     24  C   UNL d   1       2.085  -2.587  -0.488  0.00  0.00     0.033 A 
ATOM     25  C   UNL d   1       3.268  -3.317  -0.631  0.00  0.00     0.002 A 
ATOM     26  C   UNL d   1       4.502  -2.725  -0.354  0.00  0.00     0.000 A 
ATOM     27  C   UNL d   1       4.560  -1.400   0.072  0.00  0.00     0.002 A 
ATOM     28  C   UNL d   1       3.385  -0.662   0.211  0.00  0.00     0.033 A 
ENDBRANCH   3  23
TORSDOF 4
