REMARK  4 active torsions:
REMARK  status: ('A' for Active; 'I' for Inactive)
REMARK    1  A    between atoms: N_5  and  S_1 
REMARK    2  A    between atoms: C_12  and  S_1 
REMARK       I    between atoms: C_7  and  N_2 
REMARK    3  A    between atoms: C_3  and  C_4 
REMARK       I    between atoms: C_4  and  N_6 
REMARK    4  A    between atoms: N_6  and  N_5 
ROOT
ATOM      1  C   UNL d   1       0.824  -0.585  -3.904  0.00  0.00     0.260 C 
ATOM      2  N   UNL d   1       1.256  -0.195  -2.651  0.00  0.00    -0.259 N 
ATOM      3  O   UNL d   1       1.359  -0.152  -4.926  0.00  0.00    -0.269 OA
ATOM      4  H   UNL d   1       0.831  -0.555  -1.787  0.00  0.00     0.190 HD
ENDROOT
BRANCH   2   5
ATOM      5  N   UNL d   1       2.389   0.694  -2.552  0.00  0.00    -0.220 N 
ATOM      6  H   UNL d   1       2.854   1.001  -3.412  0.00  0.00     0.200 HD
BRANCH   5   7
ATOM      7  S   UNL d   1       2.965   1.179  -1.047  0.00  0.00     0.276 S 
ATOM      8  O   UNL d   1       3.378  -0.008  -0.322  0.00  0.00    -0.199 OA
ATOM      9  O   UNL d   1       2.014   2.111  -0.481  0.00  0.00    -0.199 OA
BRANCH   7  10
ATOM     10  C   UNL d   1       4.423   2.078  -1.509  0.00  0.00     0.081 A 
ATOM     11  C   UNL d   1       4.352   3.459  -1.718  0.00  0.00     0.025 A 
ATOM     12  C   UNL d   1       5.504   4.158  -2.081  0.00  0.00     0.002 A 
ATOM     13  C   UNL d   1       6.717   3.481  -2.224  0.00  0.00     0.000 A 
ATOM     14  C   UNL d   1       6.786   2.105  -1.996  0.00  0.00     0.002 A 
ATOM     15  C   UNL d   1       5.639   1.399  -1.633  0.00  0.00     0.025 A 
ENDBRANCH   7  10
ENDBRANCH   5   7
ENDBRANCH   2   5
BRANCH   1  16
ATOM     16  C   UNL d   1      -0.430  -1.501  -3.902  0.00  0.00     0.191 C 
ATOM     17  N   UNL d   1      -0.191  -2.826  -3.284  0.00  0.00    -0.329 N 
ATOM     18  C   UNL d   1       0.015  -2.929  -1.922  0.00  0.00     0.217 C 
ATOM     19  C   UNL d   1      -0.689  -3.943  -4.054  0.00  0.00     0.200 C 
ATOM     20  O   UNL d   1      -0.012  -1.940  -1.192  0.00  0.00    -0.274 OA
ATOM     21  C   UNL d   1       0.393  -4.284  -1.369  0.00  0.00     0.117 C 
ATOM     22  S   UNL d   1      -0.740  -3.422  -5.764  0.00  0.00    -0.147 SA
ATOM     23  C   UNL d   1      -0.964  -1.682  -5.332  0.00  0.00     0.110 C 
ENDBRANCH   1  16
TORSDOF 4
