REMARK  7 active torsions:
REMARK  status: ('A' for Active; 'I' for Inactive)
REMARK    1  A    between atoms: C_5  and  C_1 
REMARK    2  A    between atoms: S_20  and  C_2 
REMARK    3  A    between atoms: C_12  and  C_6 
REMARK    4  A    between atoms: C_9  and  C_18 
REMARK    5  A    between atoms: S_21  and  C_11 
REMARK    6  A    between atoms: C_30  and  S_21 
REMARK    7  A    between atoms: C_29  and  C_30 
ROOT
ATOM      1  C   UNL d   1       2.903   4.833  -0.025  0.00  0.00     0.144 A 
ATOM      2  C   UNL d   1       1.407   2.533   0.014  0.00  0.00     0.007 A 
ATOM      3  N   UNL d   1       2.242   4.540   1.105  0.00  0.00    -0.346 N 
ATOM      4  HN  UNL d   1       2.280   5.146   1.924  1.00  0.00     0.167 HD
ATOM      5  N   UNL d   1       2.890   4.073  -1.126  0.00  0.00    -0.346 N 
ATOM      6  HN  UNL d   1       3.423   4.325  -1.958  1.00  0.00     0.167 HD
ATOM      7  C   UNL d   1       2.134   2.955  -1.080  0.00  0.00     0.104 A 
ATOM      8  C   UNL d   1       1.519   3.392   1.096  0.00  0.00     0.104 A 
ENDROOT
BRANCH   2   9
ATOM      9  C   UNL d   1       0.614   1.287   0.013  0.00  0.00     0.008 A 
ATOM     10  C   UNL d   1       1.023   0.002  -0.585  0.00  0.00    -0.029 A 
ATOM     11  C   UNL d   1       0.050  -0.984  -0.405  0.00  0.00     0.046 A 
ATOM     12  C   UNL d   1       2.329  -0.220  -1.302  0.00  0.00     0.050 C 
ATOM     13  S   UNL d   1      -1.303  -0.369   0.430  0.00  0.00    -0.079 SA
ATOM     14  C   UNL d   1      -0.672   1.210   0.553  0.00  0.00     0.053 A 
BRANCH  11  15
ATOM     15  C   UNL d   1       0.097  -2.381  -0.807  0.00  0.00     0.092 A 
ATOM     16  N   UNL d   1       1.227  -3.055  -0.892  0.00  0.00    -0.353 N 
ATOM     17  C   UNL d   1       0.998  -4.358  -1.303  0.00  0.00     0.012 A 
ATOM     18  HN  UNL d   1       2.147  -2.669  -0.683  1.00  0.00     0.166 HD
ATOM     19  C   UNL d   1       2.156  -5.272  -1.476  0.00  0.00     0.068 C 
ATOM     20  C   UNL d   1      -0.329  -4.670  -1.511  0.00  0.00     0.076 A 
ATOM     21  S   UNL d   1      -1.307  -3.296  -1.225  0.00  0.00    -0.081 SA
ENDBRANCH  11  15
BRANCH  14  22
ATOM     22  S   UNL d   1      -1.617   2.540   1.263  0.00  0.00    -0.126 SA
ATOM     23  C   UNL d   1      -3.139   1.791   1.875  0.00  0.00     0.096 C 
ENDBRANCH  14  22
ENDBRANCH   2   9
BRANCH   1  24
ATOM     24  S   UNL d   1       3.823   6.337  -0.139  0.00  0.00    -0.089 SA
BRANCH  24  25
ATOM     25  C   UNL d   1       4.152   6.640   1.621  0.00  0.00     0.121 C 
BRANCH  25  26
ATOM     26  C   UNL d   1       5.009   7.872   1.780  0.00  0.00    -0.048 A 
ATOM     27  C   UNL d   1       6.411   7.772   1.768  0.00  0.00     0.024 A 
ATOM     28  C   UNL d   1       7.216   8.920   1.840  0.00  0.00     0.048 A 
ATOM     29  C   UNL d   1       6.600  10.179   1.915  0.00  0.00     0.016 A 
ATOM     30  C   UNL d   1       5.205  10.287   1.928  0.00  0.00     0.001 A 
ATOM     31  C   UNL d   1       4.421   9.140   1.857  0.00  0.00     0.008 A 
BRANCH  28  32
ATOM     32  C   UNL d   1       8.719   8.821   1.824  0.00  0.00     0.417 C 
ATOM     33  F   UNL d   1       9.183   7.540   1.760  0.00  0.00    -0.166 F 
ATOM     34  F   UNL d   1       9.279   9.471   0.768  0.00  0.00    -0.166 F 
ATOM     35  F   UNL d   1       9.288   9.363   2.939  0.00  0.00    -0.166 F 
ENDBRANCH  28  32
ENDBRANCH  25  26
ENDBRANCH  24  25
ENDBRANCH   1  24
TORSDOF 7
