REMARK  4 active torsions:
REMARK  status: ('A' for Active; 'I' for Inactive)
REMARK    1  A    between atoms: C_2  and  C_1 
REMARK    2  A    between atoms: O_3  and  C_1 
REMARK    3  A    between atoms: C_12  and  O_3 
REMARK    4  A    between atoms: C_7  and  C_8 
ROOT
ATOM      1  C   UNL d   1       1.179  -1.370  -0.110  0.00  0.00     0.302 C 
ATOM      2  O   UNL d   1       0.956  -2.316  -0.841  0.00  0.00    -0.259 OA
ENDROOT
BRANCH   1   3
ATOM      3  C   UNL d   1       2.517  -0.798   0.140  0.00  0.00     0.083 A 
ATOM      4  C   UNL d   1       3.288  -0.326  -0.931  0.00  0.00     0.052 A 
ATOM      5 CL   UNL d   1       2.728  -0.335  -2.565  0.00  0.00    -0.083 Cl
ATOM      6  C   UNL d   1       4.560   0.217  -0.698  0.00  0.00     0.025 A 
ATOM      7  C   UNL d   1       5.064   0.300   0.601  0.00  0.00     0.003 A 
ATOM      8  C   UNL d   1       4.302  -0.173   1.667  0.00  0.00     0.025 A 
ATOM      9  C   UNL d   1       3.039  -0.732   1.441  0.00  0.00     0.052 A 
ATOM     10 CL   UNL d   1       2.203  -1.352   2.823  0.00  0.00    -0.083 Cl
ENDBRANCH   1   3
BRANCH   1  11
ATOM     11  O   UNL d   1       0.273  -0.603   0.601  0.00  0.00    -0.275 OA
BRANCH  11  12
ATOM     12  C   UNL d   1      -1.085  -0.953   0.541  0.00  0.00     0.079 A 
ATOM     13  C   UNL d   1      -1.740  -1.160   1.754  0.00  0.00     0.038 A 
ATOM     14  C   UNL d   1      -3.124  -1.342   1.763  0.00  0.00     0.018 A 
ATOM     15  C   UNL d   1      -3.849  -1.291   0.564  0.00  0.00     0.009 A 
ATOM     16  C   UNL d   1      -3.173  -1.122  -0.652  0.00  0.00     0.018 A 
ATOM     17  C   UNL d   1      -1.786  -0.943  -0.664  0.00  0.00     0.038 A 
BRANCH  15  18
ATOM     18  C   UNL d   1      -5.333  -1.388   0.639  0.00  0.00     0.155 C 
ATOM     19  O   UNL d   1      -5.855  -2.017   1.558  0.00  0.00    -0.293 OA
ATOM     20  C   UNL d   1      -6.171  -0.665  -0.384  0.00  0.00     0.096 C 
ENDBRANCH  15  18
ENDBRANCH  11  12
ENDBRANCH   1  11
TORSDOF 4
