REMARK  4 active torsions:
REMARK  status: ('A' for Active; 'I' for Inactive)
REMARK    1  A    between atoms: N_2  and  C_1 
REMARK    2  A    between atoms: N_3  and  C_11 
REMARK    3  A    between atoms: C_6  and  S_12 
REMARK    4  A    between atoms: S_12  and  C_8 
ROOT
ATOM      1  C   UNL d   1       1.462  -0.253   0.115  0.00  0.00     0.122 A 
ATOM      2  C   UNL d   1       0.550  -1.325   0.099  0.00  0.00     0.073 A 
ATOM      3  C   UNL d   1       1.043   1.083  -0.024  0.00  0.00     0.041 A 
ATOM      4  C   UNL d   1      -0.815  -1.054  -0.036  0.00  0.00     0.105 A 
ATOM      5  C   UNL d   1      -0.339   1.319  -0.155  0.00  0.00     0.024 A 
ATOM      6  C   UNL d   1      -1.264   0.266  -0.159  0.00  0.00     0.037 A 
ENDROOT
BRANCH   3   7
ATOM      7  S   UNL d   1       2.082   2.537   0.005  0.00  0.00    -0.050 SA
BRANCH   7   8
ATOM      8  C   UNL d   1       3.130   2.330  -1.373  0.00  0.00     0.165 A 
ATOM      9  N   UNL d   1       3.091   1.248  -2.212  0.00  0.00    -0.331 N 
ATOM     10  C   UNL d   1       4.074   1.488  -3.049  0.00  0.00     0.199 A 
ATOM     11  HN  UNL d   1       2.454   0.452  -2.191  1.00  0.00     0.168 HD
ATOM     12  N   UNL d   1       4.659   2.674  -2.735  0.00  0.00    -0.294 N 
ATOM     13  N   UNL d   1       4.064   3.238  -1.674  0.00  0.00    -0.279 N 
ATOM     14  H   UNL d   1       5.441   3.143  -3.178  0.00  0.00     0.187 HD
ATOM     15  HN  UNL d   1       4.270   4.126  -1.217  1.00  0.00     0.189 HD
ENDBRANCH   7   8
ENDBRANCH   3   7
BRANCH   1  16
ATOM     16  N   UNL d   1       2.857  -0.593   0.346  0.00  0.00    -0.114 N 
ATOM     17  O   UNL d   1       3.349  -1.475  -0.371  0.00  0.00    -0.532 OA
ATOM     18  O   UNL d   1       3.425  -0.048   1.302  0.00  0.00    -0.532 OA
ENDBRANCH   1  16
BRANCH   4  19
ATOM     19  N   UNL d   1      -1.786  -2.156  -0.022  0.00  0.00    -0.116 N 
ATOM     20  O   UNL d   1      -1.344  -3.307   0.097  0.00  0.00    -0.532 OA
ATOM     21  O   UNL d   1      -2.986  -1.867  -0.122  0.00  0.00    -0.532 OA
ENDBRANCH   4  19
TORSDOF 4
