REMARK  4 active torsions:
REMARK  status: ('A' for Active; 'I' for Inactive)
REMARK    1  A    between atoms: C_7  and  C_1 
REMARK    2  A    between atoms: N_8  and  C_7 
REMARK    3  A    between atoms: C_14  and  N_8 
REMARK    4  A    between atoms: C_15  and  N_8 
ROOT
ATOM      1  C   UNL d   1      -1.116   1.024   0.213  0.00  0.00    -0.017 C 
ATOM      2  C   UNL d   1       0.112   1.635   0.560  0.00  0.00    -0.047 C 
ATOM      3  C   UNL d   1      -1.162  -0.397   0.095  0.00  0.00    -0.047 C 
ATOM      4  C   UNL d   1       1.320   0.925   0.381  0.00  0.00    -0.049 C 
ATOM      5  C   UNL d   1       0.044  -1.147   0.098  0.00  0.00    -0.049 C 
ATOM      6  C   UNL d   1       1.288  -0.475   0.171  0.00  0.00    -0.049 C 
ATOM      7  C   UNL d   1       0.149   3.051   1.096  0.00  0.00     0.049 C 
ATOM      8  C   UNL d   1      -2.480  -1.134  -0.010  0.00  0.00     0.049 C 
ATOM      9  C   UNL d   1       2.646   1.652   0.384  0.00  0.00     0.049 C 
ATOM     10  C   UNL d   1       0.029  -2.658  -0.010  0.00  0.00     0.049 C 
ATOM     11  C   UNL d   1       2.598  -1.218   0.009  0.00  0.00     0.049 C 
ENDROOT
BRANCH   1  12
ATOM     12  C   UNL d   1      -2.384   1.854  -0.019  0.00  0.00     0.312 C 
BRANCH  12  13
ATOM     13  N   UNL d   1      -2.216   3.192  -0.642  0.00  0.00     0.091 N 
BRANCH  13  14
ATOM     14  C   UNL d   1      -1.492   3.172  -1.925  0.00  0.00     0.268 C 
ATOM     15  C   UNL d   1      -2.163   2.460  -3.092  0.00  0.00     0.037 C 
ENDBRANCH  13  14
BRANCH  13  16
ATOM     16  C   UNL d   1      -3.520   3.873  -0.700  0.00  0.00     0.268 C 
ATOM     17  C   UNL d   1      -3.456   5.312  -1.201  0.00  0.00     0.037 C 
ENDBRANCH  13  16
ENDBRANCH  12  13
ENDBRANCH   1  12
TORSDOF 4
