REMARK  5 active torsions:
REMARK  status: ('A' for Active; 'I' for Inactive)
REMARK    1  A    between atoms: C_5  and  C_1 
REMARK    2  A    between atoms: C_8  and  C_2 
REMARK    3  A    between atoms: C_9  and  C_6 
REMARK    4  A    between atoms: O_15  and  C_8 
REMARK    5  A    between atoms: N_14  and  C_10 
ROOT
ATOM      1  C   UNL d   1      -0.320  -1.274  -0.175  0.00  0.00     0.087 A 
ATOM      2  C   UNL d   1      -1.389  -0.374   0.155  0.00  0.00     0.104 A 
ATOM      3  N   UNL d   1       0.738  -0.593  -0.624  0.00  0.00    -0.259 N 
ATOM      4  HN  UNL d   1       1.626  -0.982  -0.941  1.00  0.00     0.195 HD
ATOM      5  C   UNL d   1      -0.893   0.902  -0.129  0.00  0.00     0.118 A 
ATOM      6  O   UNL d   1       0.396   0.730  -0.576  0.00  0.00    -0.236 OA
ENDROOT
BRANCH   1   7
ATOM      7  C   UNL d   1      -0.275  -2.737  -0.118  0.00  0.00     0.037 A 
ATOM      8  C   UNL d   1      -1.173  -3.525  -0.862  0.00  0.00     0.048 A 
ATOM      9 CL   UNL d   1      -2.322  -2.846  -1.971  0.00  0.00    -0.083 Cl
ATOM     10  C   UNL d   1      -1.168  -4.922  -0.753  0.00  0.00     0.025 A 
ATOM     11  C   UNL d   1      -0.234  -5.561   0.057  0.00  0.00     0.003 A 
ATOM     12  C   UNL d   1       0.696  -4.803   0.761  0.00  0.00     0.025 A 
ATOM     13  C   UNL d   1       0.674  -3.403   0.686  0.00  0.00     0.048 A 
ATOM     14 CL   UNL d   1       1.843  -2.566   1.654  0.00  0.00    -0.083 Cl
ENDBRANCH   1   7
BRANCH   2  15
ATOM     15  C   UNL d   1      -2.716  -0.678   0.645  0.00  0.00     0.298 C 
ATOM     16  O   UNL d   1      -3.671   0.087   0.560  0.00  0.00    -0.259 OA
BRANCH  15  17
ATOM     17  O   UNL d   1      -2.802  -1.928   1.190  0.00  0.00    -0.322 OA
ATOM     18  C   UNL d   1      -4.130  -2.363   1.483  0.00  0.00     0.213 C 
ENDBRANCH  15  17
ENDBRANCH   2  15
BRANCH   5  19
ATOM     19  C   UNL d   1      -1.501   2.191  -0.019  0.00  0.00     0.057 C 
ATOM     20  C   UNL d   1      -0.768   3.308  -0.164  0.00  0.00     0.087 C 
BRANCH  20  21
ATOM     21  N   UNL d   1      -1.141   4.643  -0.114  0.00  0.00    -0.398 N 
ATOM     22  C   UNL d   1      -2.522   5.119  -0.060  0.00  0.00     0.148 C 
ATOM     23  C   UNL d   1      -0.151   5.714  -0.265  0.00  0.00     0.148 C 
ENDBRANCH  20  21
ENDBRANCH   5  19
TORSDOF 5
