REMARK  4 active torsions:
REMARK  status: ('A' for Active; 'I' for Inactive)
REMARK    1  A    between atoms: C_4  and  C_1 
REMARK       I    between atoms: N_9  and  C_4 
REMARK       I    between atoms: C_8  and  N_10 
REMARK    2  A    between atoms: C_11  and  C_8 
REMARK    3  A    between atoms: N_10  and  N_9 
REMARK    4  A    between atoms: C_12  and  C_13 
ROOT
ATOM      1  C   UNL d   1       5.405  -0.762   0.028  0.00  0.00     0.270 C 
ATOM      2  N   UNL d   1       4.381  -0.632  -0.889  0.00  0.00    -0.263 N 
ATOM      3  O   UNL d   1       5.521  -0.011   0.994  0.00  0.00    -0.266 OA
ATOM      4  H   UNL d   1       4.404  -1.057  -1.813  0.00  0.00     0.190 HD
ENDROOT
BRANCH   2   5
ATOM      5  N   UNL d   1       3.460   0.414  -0.725  0.00  0.00    -0.262 N 
ATOM      6  C   UNL d   1       2.741   0.855  -1.821  0.00  0.00     0.287 C 
ATOM      7  O   UNL d   1       2.869   0.342  -2.935  0.00  0.00    -0.264 OA
ATOM      8  H   UNL d   1       3.378   0.863   0.188  0.00  0.00     0.190 HD
BRANCH   6   9
ATOM      9  C   UNL d   1       1.828   1.962  -1.548  0.00  0.00     0.109 A 
ATOM     10  N   UNL d   1       1.688   2.540  -0.281  0.00  0.00    -0.349 N 
ATOM     11  C   UNL d   1       0.815   3.526  -0.331  0.00  0.00     0.047 A 
ATOM     12  HN  UNL d   1       2.188   2.242   0.556  1.00  0.00     0.166 HD
ATOM     13  C   UNL d   1       0.433   4.391   0.821  0.00  0.00     0.076 C 
ATOM     14  S   UNL d   1       0.094   3.806  -1.866  0.00  0.00    -0.087 SA
ATOM     15  C   UNL d   1       1.026   2.532  -2.523  0.00  0.00     0.086 A 
ENDBRANCH   6   9
ENDBRANCH   2   5
BRANCH   1  16
ATOM     16  C   UNL d   1       6.378  -1.882  -0.183  0.00  0.00     0.033 A 
ATOM     17  C   UNL d   1       6.160  -2.938  -1.073  0.00  0.00     0.017 A 
ATOM     18  C   UNL d   1       7.067  -4.008  -1.143  0.00  0.00     0.009 A 
ATOM     19  C   UNL d   1       8.212  -4.067  -0.324  0.00  0.00    -0.051 A 
ATOM     20  C   UNL d   1       8.429  -2.983   0.541  0.00  0.00     0.009 A 
ATOM     21  C   UNL d   1       7.528  -1.911   0.612  0.00  0.00     0.017 A 
BRANCH  19  22
ATOM     22  C   UNL d   1       9.144  -5.295  -0.363  0.00  0.00    -0.024 C 
ATOM     23  C   UNL d   1      10.334  -5.200   0.620  0.00  0.00     0.019 C 
ATOM     24  C   UNL d   1       8.348  -6.565   0.014  0.00  0.00     0.019 C 
ATOM     25  C   UNL d   1       9.736  -5.481  -1.776  0.00  0.00     0.019 C 
ENDBRANCH  19  22
ENDBRANCH   1  16
TORSDOF 4
