REMARK  9 active torsions:
REMARK  status: ('A' for Active; 'I' for Inactive)
REMARK    1  A    between atoms: C_8  and  N_1 
REMARK    2  A    between atoms: C_11  and  C_2 
REMARK    3  A    between atoms: S_9  and  C_5 
REMARK    4  A    between atoms: C_14  and  C_8 
REMARK    5  A    between atoms: C_15  and  S_9 
REMARK    6  A    between atoms: C_10  and  C_15 
REMARK       I    between atoms: N_12  and  C_10 
REMARK    7  A    between atoms: C_16  and  N_12 
REMARK    8  A    between atoms: O_23  and  C_14 
REMARK    9  A    between atoms: O_24  and  C_14 
ROOT
ATOM      1  N   UNL d   1      -0.225  -1.266  -0.000  0.00  0.00    -0.306 N 
ATOM      2  C   UNL d   1       0.910  -0.533  -0.342  0.00  0.00     0.134 C 
ATOM      3  N   UNL d   1       0.584   0.747  -0.333  0.00  0.00    -0.283 N 
ATOM      4  HN  UNL d   1       1.183   1.515  -0.637  1.00  0.00     0.188 HD
ATOM      5  C   UNL d   1      -1.143  -0.331   0.403  0.00  0.00     0.163 C 
ATOM      6  N   UNL d   1      -0.690   0.874   0.152  0.00  0.00    -0.278 N 
ATOM      7  HN  UNL d   1      -1.196   1.748   0.293  1.00  0.00     0.189 HD
ENDROOT
BRANCH   5   8
ATOM      8  S   UNL d   1      -2.631  -0.659   1.225  0.00  0.00    -0.083 SA
BRANCH   8   9
ATOM      9  C   UNL d   1      -3.443   0.961   1.076  0.00  0.00     0.185 C 
BRANCH   9  10
ATOM     10  C   UNL d   1      -4.839   1.035   1.685  0.00  0.00     0.231 C 
ATOM     11  N   UNL d   1      -5.234  -0.041   2.459  0.00  0.00    -0.327 N 
ATOM     12  H   UNL d   1      -4.551  -0.785   2.551  0.00  0.00     0.169 HD
ATOM     13  O   UNL d   1      -5.515   2.048   1.493  0.00  0.00    -0.272 OA
BRANCH  11  14
ATOM     14  C   UNL d   1      -6.442  -0.196   3.173  0.00  0.00     0.034 A 
ATOM     15  C   UNL d   1      -7.498   0.719   3.128  0.00  0.00     0.031 A 
ATOM     16  C   UNL d   1      -8.652   0.519   3.896  0.00  0.00     0.026 A 
ATOM     17  C   UNL d   1      -8.756  -0.603   4.713  0.00  0.00     0.034 A 
ATOM     18  C   UNL d   1      -7.723  -1.534   4.754  0.00  0.00     0.026 A 
ATOM     19 CL   UNL d   1     -10.162  -0.834   5.676  0.00  0.00    -0.084 Cl
ATOM     20  C   UNL d   1      -6.572  -1.333   3.982  0.00  0.00     0.031 A 
ENDBRANCH  11  14
ENDBRANCH   9  10
ENDBRANCH   8   9
ENDBRANCH   5   8
BRANCH   1  21
ATOM     21  C   UNL d   1      -0.307  -2.711   0.001  0.00  0.00     0.193 C 
BRANCH  21  22
ATOM     22  C   UNL d   1      -1.631  -3.404  -0.363  0.00  0.00     0.276 C 
BRANCH  22  23
ATOM     23  O   UNL d   1      -2.013  -2.986  -1.677  0.00  0.00    -0.364 OA
ATOM     24  C   UNL d   1      -3.320  -3.431  -2.020  0.00  0.00     0.204 C 
ENDBRANCH  22  23
BRANCH  22  25
ATOM     25  O   UNL d   1      -1.465  -4.829  -0.354  0.00  0.00    -0.364 OA
ATOM     26  C   UNL d   1      -1.210  -5.372   0.935  0.00  0.00     0.204 C 
ENDBRANCH  22  25
ENDBRANCH  21  22
ENDBRANCH   1  21
BRANCH   2  27
ATOM     27  C   UNL d   1       2.251  -1.047  -0.663  0.00  0.00     0.009 A 
ATOM     28  C   UNL d   1       3.020  -0.398  -1.640  0.00  0.00     0.015 A 
ATOM     29  C   UNL d   1       4.301  -0.854  -1.967  0.00  0.00     0.001 A 
ATOM     30  C   UNL d   1       4.833  -1.967  -1.320  0.00  0.00     0.000 A 
ATOM     31  C   UNL d   1       4.097  -2.604  -0.326  0.00  0.00     0.001 A 
ATOM     32  C   UNL d   1       2.825  -2.134   0.013  0.00  0.00     0.015 A 
ENDBRANCH   2  27
TORSDOF 9
