REMARK  4 active torsions:
REMARK  status: ('A' for Active; 'I' for Inactive)
REMARK    1  A    between atoms: N_2  and  S_1 
REMARK    2  A    between atoms: C_4  and  S_1 
REMARK    3  A    between atoms: S_6  and  N_2 
REMARK    4  A    between atoms: C_13  and  S_6 
ROOT
ATOM      1  S   UNL d   1       0.912   0.075   0.045  0.00  0.00     0.271 S 
ATOM      2  O   UNL d   1      -0.267   0.772   0.518  0.00  0.00    -0.200 OA
ATOM      3  O   UNL d   1       1.926   0.796  -0.697  0.00  0.00    -0.200 OA
ENDROOT
BRANCH   1   4
ATOM      4  N   UNL d   1       0.433  -1.311  -0.790  0.00  0.00    -0.236 N 
ATOM      5  HN  UNL d   1      -0.163  -1.989  -0.316  1.00  0.00     0.189 HD
BRANCH   4   6
ATOM      6  S   UNL d   1       0.894  -1.612  -2.353  0.00  0.00     0.061 S 
ATOM      7  O   UNL d   1       2.317  -1.812  -2.486  0.00  0.00    -0.244 OA
ATOM      8  C   UNL d   1       0.025  -3.083  -2.808  0.00  0.00     0.143 C 
BRANCH   6   9
ATOM      9  C   UNL d   1       0.307  -0.300  -3.349  0.00  0.00     0.039 A 
ATOM     10  C   UNL d   1       1.219   0.479  -4.062  0.00  0.00     0.023 A 
ATOM     11  C   UNL d   1       0.753   1.497  -4.897  0.00  0.00     0.025 A 
ATOM     12  C   UNL d   1      -0.618   1.725  -5.013  0.00  0.00     0.034 A 
ATOM     13  C   UNL d   1      -1.528   0.951  -4.292  0.00  0.00     0.025 A 
ATOM     14 CL   UNL d   1      -1.194   2.966  -6.057  0.00  0.00    -0.084 Cl
ATOM     15  C   UNL d   1      -1.066  -0.066  -3.453  0.00  0.00     0.023 A 
ENDBRANCH   6   9
ENDBRANCH   4   6
ENDBRANCH   1   4
BRANCH   1  16
ATOM     16  C   UNL d   1       1.701  -0.607   1.456  0.00  0.00     0.111 A 
ATOM     17  C   UNL d   1       1.022  -1.413   2.383  0.00  0.00     0.108 A 
ATOM     18  C   UNL d   1       1.691  -1.928   3.575  0.00  0.00     0.086 A 
ATOM     19  N   UNL d   1      -0.241  -1.859   2.398  0.00  0.00    -0.238 N 
ATOM     20  N   UNL d   1       0.809  -2.650   4.275  0.00  0.00    -0.239 N 
ATOM     21  C   UNL d   1       3.043  -1.661   3.862  0.00  0.00     0.034 A 
ATOM     22  O   UNL d   1      -0.374  -2.597   3.561  0.00  0.00    -0.156 OA
ATOM     23  HN  UNL d   1       0.975  -3.138   5.155  1.00  0.00     0.197 HD
ATOM     24  C   UNL d   1       3.701  -0.861   2.910  0.00  0.00     0.004 A 
ATOM     25  C   UNL d   1       3.059  -0.350   1.751  0.00  0.00     0.028 A 
ATOM     26  HN  UNL d   1      -0.959  -1.688   1.695  1.00  0.00     0.197 HD
ENDBRANCH   1  16
TORSDOF 4
