REMARK  6 active torsions:
REMARK  status: ('A' for Active; 'I' for Inactive)
REMARK       I    between atoms: C_6  and  N_1 
REMARK    1  A    between atoms: C_8  and  C_2 
REMARK    2  A    between atoms: S_10  and  C_3 
REMARK       I    between atoms: N_9  and  C_6 
REMARK    3  A    between atoms: O_17  and  C_8 
REMARK    4  A    between atoms: C_12  and  N_9 
REMARK    5  A    between atoms: C_15  and  S_10 
REMARK    6  A    between atoms: C_22  and  O_17 
ROOT
ATOM      1  N   UNL d   1       1.069  -0.314  -0.582  0.00  0.00    -0.198 N 
ATOM      2  C   UNL d   1       0.771   1.033  -0.710  0.00  0.00     0.155 C 
ATOM      3  C   UNL d   1      -0.477   1.177  -0.128  0.00  0.00     0.057 C 
ATOM      4  N   UNL d   1      -0.052  -1.056  -0.295  0.00  0.00    -0.299 N 
ATOM      5  HN  UNL d   1      -0.174  -2.068  -0.352  1.00  0.00     0.186 HD
ATOM      6  C   UNL d   1       2.321  -0.972  -0.692  0.00  0.00     0.346 C 
ATOM      7  C   UNL d   1      -0.943  -0.134   0.076  0.00  0.00     0.129 C 
ATOM      8  N   UNL d   1       2.122  -2.286  -1.062  0.00  0.00    -0.307 N 
ATOM      9  O   UNL d   1       3.351  -0.353  -0.479  0.00  0.00    -0.245 OA
ATOM     10  H   UNL d   1       1.156  -2.534  -1.272  0.00  0.00     0.170 HD
ENDROOT
BRANCH   2  11
ATOM     11  C   UNL d   1       1.604   1.933  -1.459  0.00  0.00     0.313 C 
ATOM     12  O   UNL d   1       2.429   1.587  -2.294  0.00  0.00    -0.257 OA
BRANCH  11  13
ATOM     13  O   UNL d   1       1.231   3.223  -1.248  0.00  0.00    -0.317 OA
BRANCH  13  14
ATOM     14  C   UNL d   1       1.644   4.131  -2.276  0.00  0.00     0.175 C 
ATOM     15  C   UNL d   1       1.316   5.543  -1.833  0.00  0.00     0.034 C 
ENDBRANCH  13  14
ENDBRANCH  11  13
ENDBRANCH   2  11
BRANCH   3  16
ATOM     16  S   UNL d   1      -1.469   2.598   0.072  0.00  0.00    -0.086 SA
BRANCH  16  17
ATOM     17  C   UNL d   1      -1.054   3.222   1.695  0.00  0.00     0.005 A 
ATOM     18  C   UNL d   1       0.237   3.190   2.229  0.00  0.00     0.019 A 
ATOM     19  C   UNL d   1       0.500   3.747   3.487  0.00  0.00     0.001 A 
ATOM     20  C   UNL d   1      -0.521   4.351   4.216  0.00  0.00     0.000 A 
ATOM     21  C   UNL d   1      -1.809   4.400   3.689  0.00  0.00     0.001 A 
ATOM     22  C   UNL d   1      -2.071   3.839   2.435  0.00  0.00     0.019 A 
ENDBRANCH  16  17
ENDBRANCH   3  16
BRANCH   8  23
ATOM     23  C   UNL d   1       3.115  -3.250  -1.303  0.00  0.00     0.038 A 
ATOM     24  C   UNL d   1       4.413  -3.152  -0.799  0.00  0.00     0.053 A 
ATOM     25  C   UNL d   1       5.338  -4.165  -1.065  0.00  0.00     0.036 A 
ATOM     26 CL   UNL d   1       6.921  -4.076  -0.394  0.00  0.00    -0.084 Cl
ATOM     27  C   UNL d   1       4.990  -5.259  -1.855  0.00  0.00     0.024 A 
ATOM     28  C   UNL d   1       3.699  -5.354  -2.369  0.00  0.00     0.004 A 
ATOM     29  C   UNL d   1       2.759  -4.363  -2.076  0.00  0.00     0.029 A 
ENDBRANCH   8  23
TORSDOF 6
