REMARK  6 active torsions:
REMARK  status: ('A' for Active; 'I' for Inactive)
REMARK       I    between atoms: N_2  and  C_1 
REMARK    1  A    between atoms: C_3  and  C_1 
REMARK       I    between atoms: C_5  and  N_2 
REMARK    2  A    between atoms: C_4  and  C_9 
REMARK    3  A    between atoms: S_11  and  C_5 
REMARK    4  A    between atoms: O_7  and  C_6 
REMARK    5  A    between atoms: C_8  and  O_7 
REMARK    6  A    between atoms: C_9  and  S_11 
ROOT
ATOM      1  C   UNL d   1       0.895   0.731  -0.388  0.00  0.00     0.261 C 
ATOM      2  N   UNL d   1       0.270   1.787   0.258  0.00  0.00    -0.284 N 
ATOM      3  C   UNL d   1       0.921   2.953   0.581  0.00  0.00     0.286 C 
ATOM      4  O   UNL d   1       2.092   0.495  -0.303  0.00  0.00    -0.267 OA
ATOM      5  O   UNL d   1       2.118   3.163   0.628  0.00  0.00    -0.260 OA
ATOM      6  H   UNL d   1      -0.734   1.861   0.259  0.00  0.00     0.172 HD
ENDROOT
BRANCH   1   7
ATOM      7  C   UNL d   1       0.024  -0.167  -1.220  0.00  0.00     0.066 A 
ATOM      8  C   UNL d   1       0.359  -1.503  -1.527  0.00  0.00     0.091 A 
ATOM      9  C   UNL d   1      -0.360  -2.180  -2.530  0.00  0.00     0.038 A 
ATOM     10  C   UNL d   1      -1.444  -1.590  -3.173  0.00  0.00     0.003 A 
ATOM     11  C   UNL d   1      -1.836  -0.311  -2.809  0.00  0.00     0.001 A 
ATOM     12  C   UNL d   1      -1.104   0.399  -1.851  0.00  0.00     0.020 A 
BRANCH   8  13
ATOM     13  O   UNL d   1       1.392  -2.276  -1.058  0.00  0.00    -0.308 OA
BRANCH  13  14
ATOM     14  C   UNL d   1       1.819  -2.297   0.244  0.00  0.00     0.098 A 
ATOM     15  C   UNL d   1       1.081  -2.108   1.418  0.00  0.00     0.069 A 
ATOM     16  C   UNL d   1       1.736  -2.100   2.658  0.00  0.00     0.050 A 
ATOM     17 CL   UNL d   1      -0.640  -1.952   1.457  0.00  0.00    -0.081 Cl
ATOM     18  C   UNL d   1       3.106  -2.348   2.731  0.00  0.00     0.035 A 
ATOM     19  C   UNL d   1       3.829  -2.643   1.582  0.00  0.00     0.026 A 
ATOM     20 CL   UNL d   1       3.906  -2.309   4.253  0.00  0.00    -0.084 Cl
ATOM     21  C   UNL d   1       3.183  -2.618   0.347  0.00  0.00     0.041 A 
ENDBRANCH  13  14
ENDBRANCH   8  13
ENDBRANCH   1   7
BRANCH   3  22
ATOM     22  S   UNL d   1      -0.252   4.217   0.961  0.00  0.00    -0.064 SA
BRANCH  22  23
ATOM     23  C   UNL d   1       0.875   5.646   0.862  0.00  0.00     0.127 C 
BRANCH  23  24
ATOM     24  C   UNL d   1       0.250   6.968   1.233  0.00  0.00     0.012 A 
ATOM     25  C   UNL d   1       0.441   7.470   2.529  0.00  0.00     0.125 A 
ATOM     26  F   UNL d   1       1.096   6.733   3.436  0.00  0.00    -0.205 F 
ATOM     27  C   UNL d   1      -0.001   8.737   2.907  0.00  0.00     0.043 A 
ATOM     28  C   UNL d   1      -0.660   9.542   1.985  0.00  0.00     0.005 A 
ATOM     29  C   UNL d   1      -0.897   9.058   0.699  0.00  0.00     0.024 A 
ATOM     30  C   UNL d   1      -0.457   7.779   0.328  0.00  0.00     0.044 A 
ATOM     31 CL   UNL d   1      -0.797   7.257  -1.283  0.00  0.00    -0.084 Cl
ENDBRANCH  23  24
ENDBRANCH  22  23
ENDBRANCH   3  22
TORSDOF 6
