REMARK  2 active torsions:
REMARK  status: ('A' for Active; 'I' for Inactive)
REMARK    1  A    between atoms: O_9  and  C_2 
REMARK    2  A    between atoms: O_10  and  C_3 
ROOT
ATOM      1  C   UNL d   1      -1.079   0.026  -0.020  0.00  0.00     0.040 A 
ATOM      2  C   UNL d   1      -0.343  -1.143  -0.006  0.00  0.00     0.152 A 
ATOM      3  C   UNL d   1      -0.313   1.178  -0.030  0.00  0.00     0.152 A 
ATOM      4  N   UNL d   1       1.003  -1.187  -0.003  0.00  0.00    -0.333 N 
ATOM      5  HN  UNL d   1       1.517  -2.068   0.007  1.00  0.00     0.168 HD
ATOM      6  N   UNL d   1       1.034   1.193  -0.029  0.00  0.00    -0.333 N 
ATOM      7  HN  UNL d   1       1.568   2.062  -0.038  1.00  0.00     0.168 HD
ATOM      8  C   UNL d   1       1.623  -0.004  -0.016  0.00  0.00     0.184 A 
ATOM      9  C   UNL d   1      -2.572   0.071  -0.017  0.00  0.00     0.057 C 
ENDROOT
BRANCH   2  10
ATOM     10  O   UNL d   1      -1.039  -2.337   0.006  0.00  0.00    -0.340 OA
ATOM     11  C   UNL d   1      -0.195  -3.485   0.023  0.00  0.00     0.211 C 
ENDBRANCH   2  10
BRANCH   3  12
ATOM     12  O   UNL d   1      -0.990   2.385  -0.044  0.00  0.00    -0.340 OA
ATOM     13  C   UNL d   1      -0.123   3.516  -0.051  0.00  0.00     0.211 C 
ENDBRANCH   3  12
TORSDOF 2
