REMARK  2 active torsions:
REMARK  status: ('A' for Active; 'I' for Inactive)
REMARK    1  A    between atoms: C_2  and  C_1 
REMARK    2  A    between atoms: O_14  and  C_4 
ROOT
ATOM      1  C   UNL d   1      -0.051   1.980   0.070  0.00  0.00     0.029 A 
ATOM      2  C   UNL d   1      -1.119   1.080  -0.120  0.00  0.00     0.100 A 
ATOM      3  C   UNL d   1      -0.901  -0.307  -0.093  0.00  0.00     0.069 A 
ATOM      4  C   UNL d   1       0.384  -0.814   0.086  0.00  0.00     0.050 A 
ATOM      5  C   UNL d   1       1.233   1.448   0.273  0.00  0.00     0.040 A 
ATOM      6  C   UNL d   1       1.444   0.067   0.259  0.00  0.00     0.036 A 
ATOM      7 CL   UNL d   1      -2.200  -1.428  -0.292  0.00  0.00    -0.081 Cl
ATOM      8 CL   UNL d   1       3.039  -0.548   0.458  0.00  0.00    -0.084 Cl
ENDROOT
BRANCH   1   9
ATOM      9  C   UNL d   1      -0.257   3.435   0.120  0.00  0.00     0.064 A 
ATOM     10  N   UNL d   1       0.483   4.395  -0.544  0.00  0.00    -0.296 N 
ATOM     11  N   UNL d   1       0.046   5.653  -0.325  0.00  0.00    -0.310 N 
ATOM     12  C   UNL d   1       1.624   4.224  -1.416  0.00  0.00     0.178 C 
ATOM     13  C   UNL d   1      -0.974   5.504   0.513  0.00  0.00     0.109 A 
ATOM     14  HN  UNL d   1       0.415   6.521  -0.714  1.00  0.00     0.186 HD
ATOM     15  C   UNL d   1      -1.202   4.158   0.832  0.00  0.00     0.050 A 
ENDBRANCH   1   9
BRANCH   2  16
ATOM     16  O   UNL d   1      -2.398   1.522  -0.354  0.00  0.00    -0.358 OA
ATOM     17  H   UNL d   1      -2.369   2.456  -0.619  0.00  0.00     0.217 HD
ENDBRANCH   2  16
TORSDOF 2
