REMARK  4 active torsions:
REMARK  status: ('A' for Active; 'I' for Inactive)
REMARK    1  A    between atoms: N_2  and  S_1 
REMARK    2  A    between atoms: C_9  and  S_1 
REMARK    3  A    between atoms: C_6  and  N_2 
REMARK    4  A    between atoms: C_3  and  C_6 
ROOT
ATOM      1  S   UNL d   1       0.913   0.034   0.090  0.00  0.00     0.241 S 
ATOM      2  O   UNL d   1       2.037   0.918  -0.107  0.00  0.00    -0.206 OA
ATOM      3  O   UNL d   1       0.928  -1.008   1.095  0.00  0.00    -0.206 OA
ENDROOT
BRANCH   1   4
ATOM      4  N   UNL d   1       0.542  -0.708  -1.381  0.00  0.00    -0.211 NA
ATOM      5  H   UNL d   1      -0.431  -1.012  -1.419  0.00  0.00     0.140 HD
BRANCH   4   6
ATOM      6  C   UNL d   1       0.951   0.036  -2.583  0.00  0.00     0.151 C 
BRANCH   6   7
ATOM      7  C   UNL d   1       0.545  -0.758  -3.795  0.00  0.00     0.002 A 
ATOM      8  C   UNL d   1       0.962  -2.019  -4.205  0.00  0.00    -0.047 A 
ATOM      9  C   UNL d   1       0.306  -2.411  -5.420  0.00  0.00     0.015 A 
ATOM     10  C   UNL d   1       1.941  -2.900  -3.497  0.00  0.00     0.049 C 
ATOM     11  C   UNL d   1      -0.549  -1.448  -5.899  0.00  0.00     0.051 A 
ATOM     12  S   UNL d   1      -0.571  -0.066  -4.903  0.00  0.00    -0.105 SA
ENDBRANCH   6   7
ENDBRANCH   4   6
ENDBRANCH   1   4
BRANCH   1  13
ATOM     13  C   UNL d   1      -0.532   1.029   0.395  0.00  0.00     0.074 A 
ATOM     14  C   UNL d   1      -1.594   0.496   1.134  0.00  0.00     0.025 A 
ATOM     15  C   UNL d   1      -2.697   1.298   1.433  0.00  0.00     0.002 A 
ATOM     16  C   UNL d   1      -2.731   2.625   1.002  0.00  0.00     0.000 A 
ATOM     17  C   UNL d   1      -1.666   3.156   0.273  0.00  0.00     0.002 A 
ATOM     18  C   UNL d   1      -0.557   2.362  -0.029  0.00  0.00     0.025 A 
ENDBRANCH   1  13
TORSDOF 4
