REMARK  3 active torsions:
REMARK  status: ('A' for Active; 'I' for Inactive)
REMARK    1  A    between atoms: N_2  and  S_1 
REMARK    2  A    between atoms: C_11  and  S_1 
REMARK    3  A    between atoms: C_8  and  C_5 
ROOT
ATOM      1  N   UNL d   1       0.552  -0.742  -1.583  0.00  0.00    -0.188 N 
ATOM      2  N   UNL d   1      -0.111  -0.130  -2.604  0.00  0.00    -0.284 N 
ATOM      3  HN  UNL d   1      -0.403   0.846  -2.662  1.00  0.00     0.188 HD
ATOM      4  C   UNL d   1      -0.295  -1.098  -3.517  0.00  0.00     0.060 A 
ATOM      5  C   UNL d   1       0.712  -2.090  -1.792  0.00  0.00     0.131 A 
ATOM      6  C   UNL d   1       0.212  -2.340  -3.047  0.00  0.00     0.052 A 
ENDROOT
BRANCH   1   7
ATOM      7  S   UNL d   1       1.044   0.012  -0.100  0.00  0.00     0.282 S 
ATOM      8  O   UNL d   1       1.403   1.376  -0.435  0.00  0.00    -0.198 OA
ATOM      9  O   UNL d   1       2.000  -0.904   0.505  0.00  0.00    -0.198 OA
BRANCH   7  10
ATOM     10  C   UNL d   1      -0.414   0.052   0.907  0.00  0.00     0.081 A 
ATOM     11  C   UNL d   1      -0.430  -0.633   2.129  0.00  0.00     0.025 A 
ATOM     12  C   UNL d   1      -1.533  -0.511   2.975  0.00  0.00     0.002 A 
ATOM     13  C   UNL d   1      -2.611   0.294   2.604  0.00  0.00     0.000 A 
ATOM     14  C   UNL d   1      -2.593   0.973   1.384  0.00  0.00     0.002 A 
ATOM     15  C   UNL d   1      -1.494   0.856   0.531  0.00  0.00     0.025 A 
ENDBRANCH   7  10
ENDBRANCH   1   7
BRANCH   4  16
ATOM     16  C   UNL d   1      -0.971  -0.841  -4.792  0.00  0.00    -0.007 A 
ATOM     17  C   UNL d   1      -0.836   0.401  -5.436  0.00  0.00     0.023 A 
ATOM     18  C   UNL d   1      -1.529   0.616  -6.618  0.00  0.00    -0.022 A 
ATOM     19  C   UNL d   1      -1.538   1.793  -7.516  0.00  0.00     0.068 C 
ATOM     20  C   UNL d   1      -2.329  -0.375  -7.165  0.00  0.00     0.075 A 
ATOM     21  C   UNL d   1      -2.746   1.426  -8.381  0.00  0.00     0.180 C 
ATOM     22  O   UNL d   1      -2.947  -0.006  -8.331  0.00  0.00    -0.350 OA
ATOM     23  C   UNL d   1      -2.465  -1.612  -6.574  0.00  0.00     0.038 A 
ATOM     24  C   UNL d   1      -1.781  -1.842  -5.375  0.00  0.00     0.016 A 
ENDBRANCH   4  16
TORSDOF 3
