REMARK  4 active torsions:
REMARK  status: ('A' for Active; 'I' for Inactive)
REMARK    1  A    between atoms: C_2  and  N_1 
REMARK    2  A    between atoms: C_8  and  C_5 
REMARK    3  A    between atoms: S_9  and  C_8 
REMARK    4  A    between atoms: C_12  and  S_9 
ROOT
ATOM      1  C   UNL d   1       0.750  -0.905   1.237  0.00  0.00     0.104 A 
ATOM      2  C   UNL d   1      -0.481  -1.293   0.700  0.00  0.00     0.060 A 
ATOM      3  C   UNL d   1      -1.259  -2.247   1.369  0.00  0.00     0.043 A 
ATOM      4  C   UNL d   1      -0.832  -2.814   2.587  0.00  0.00    -0.027 A 
ATOM      5  C   UNL d   1       1.218  -1.480   2.421  0.00  0.00     0.037 A 
ATOM      6  C   UNL d   1       0.437  -2.438   3.075  0.00  0.00     0.012 A 
ATOM      7 CL   UNL d   1      -2.746  -2.706   0.614  0.00  0.00    -0.084 Cl
ENDROOT
BRANCH   4   8
ATOM      8  C   UNL d   1      -1.651  -3.865   3.321  0.00  0.00     0.119 C 
BRANCH   8   9
ATOM      9  S   UNL d   1      -1.659  -3.635   5.141  0.00  0.00    -0.125 SA
BRANCH   9  10
ATOM     10  C   UNL d   1      -2.306  -5.181   5.763  0.00  0.00     0.001 A 
ATOM     11  C   UNL d   1      -3.098  -6.067   5.026  0.00  0.00     0.020 A 
ATOM     12  C   UNL d   1      -3.595  -7.236   5.616  0.00  0.00     0.025 A 
ATOM     13  C   UNL d   1      -3.308  -7.522   6.949  0.00  0.00     0.034 A 
ATOM     14  C   UNL d   1      -2.523  -6.651   7.697  0.00  0.00     0.025 A 
ATOM     15 CL   UNL d   1      -3.933  -8.951   7.674  0.00  0.00    -0.084 Cl
ATOM     16  C   UNL d   1      -2.027  -5.486   7.104  0.00  0.00     0.020 A 
ENDBRANCH   9  10
ENDBRANCH   8   9
ENDBRANCH   4   8
BRANCH   1  17
ATOM     17  N   UNL d   1       1.563   0.105   0.550  0.00  0.00    -0.116 N 
ATOM     18  O   UNL d   1       1.132   0.559  -0.519  0.00  0.00    -0.532 OA
ATOM     19  O   UNL d   1       2.631   0.442   1.078  0.00  0.00    -0.532 OA
ENDBRANCH   1  17
TORSDOF 4
