REMARK  4 active torsions:
REMARK  status: ('A' for Active; 'I' for Inactive)
REMARK    1  A    between atoms: S_4  and  C_1 
REMARK    2  A    between atoms: C_10  and  S_4 
REMARK    3  A    between atoms: C_8  and  C_10 
REMARK    4  A    between atoms: O_14  and  C_8 
ROOT
ATOM      1  C   UNL d   1       0.308   1.405   0.035  0.00  0.00     0.044 A 
ATOM      2  C   UNL d   1      -1.035   0.977   0.026  0.00  0.00     0.054 A 
ATOM      3  C   UNL d   1       1.308   0.403   0.032  0.00  0.00     0.054 A 
ATOM      4  C   UNL d   1      -1.361  -0.387   0.035  0.00  0.00     0.049 A 
ATOM      5  C   UNL d   1       0.980  -0.957   0.037  0.00  0.00     0.049 A 
ATOM      6  C   UNL d   1      -0.353  -1.344   0.038  0.00  0.00     0.037 A 
ATOM      7 CL   UNL d   1      -2.372   2.075  -0.054  0.00  0.00    -0.083 Cl
ATOM      8 CL   UNL d   1       3.003   0.778   0.011  0.00  0.00    -0.083 Cl
ATOM      9 CL   UNL d   1      -0.756  -3.016   0.018  0.00  0.00    -0.084 Cl
ENDROOT
BRANCH   1  10
ATOM     10  S   UNL d   1       0.800   3.141  -0.112  0.00  0.00    -0.116 SA
BRANCH  10  11
ATOM     11  C   UNL d   1       0.198   3.893   1.439  0.00  0.00     0.189 C 
BRANCH  11  12
ATOM     12  C   UNL d   1       0.728   3.239   2.693  0.00  0.00     0.149 C 
ATOM     13  O   UNL d   1       0.115   3.246   3.755  0.00  0.00    -0.649 OA
BRANCH  12  14
ATOM     14  O   UNL d   1       1.966   2.714   2.596  0.00  0.00    -0.776 OA
ATOM     15  H   UNL d   1       2.341   2.792   1.692  0.00  0.00     0.167 HD
ENDBRANCH  12  14
ENDBRANCH  11  12
ENDBRANCH  10  11
ENDBRANCH   1  10
TORSDOF 4
