REMARK  3 active torsions:
REMARK  status: ('A' for Active; 'I' for Inactive)
REMARK    1  A    between atoms: S_2  and  N_1 
REMARK    2  A    between atoms: C_12  and  S_2 
REMARK    3  A    between atoms: C_17  and  C_11 
ROOT
ATOM      1  N   UNL d   1       0.990  -0.676  -0.156  0.00  0.00    -0.175 N 
ATOM      2  C   UNL d   1      -0.282  -1.169   0.112  0.00  0.00     0.106 C 
ATOM      3  C   UNL d   1      -0.694  -2.497   0.453  0.00  0.00     0.130 A 
ATOM      4  C   UNL d   1      -0.154  -3.430   1.310  0.00  0.00     0.074 A 
ATOM      5  N   UNL d   1      -2.080  -4.278   0.493  0.00  0.00    -0.260 N 
ATOM      6  HN  UNL d   1      -2.877  -4.888   0.309  1.00  0.00     0.195 HD
ATOM      7  O   UNL d   1      -1.872  -3.016  -0.015  0.00  0.00    -0.235 OA
ATOM      8  N   UNL d   1       0.986   0.690  -0.290  0.00  0.00    -0.295 N 
ATOM      9  HN  UNL d   1       1.790   1.313  -0.374  1.00  0.00     0.187 HD
ATOM     10  C   UNL d   1      -1.028  -4.546   1.277  0.00  0.00     0.068 A 
ATOM     11  C   UNL d   1      -1.131  -0.089  -0.061  0.00  0.00     0.054 C 
ATOM     12  C   UNL d   1      -0.303   1.018  -0.285  0.00  0.00     0.111 C 
ENDROOT
BRANCH   1  13
ATOM     13  S   UNL d   1       2.462  -1.597  -0.078  0.00  0.00     0.282 S 
ATOM     14  O   UNL d   1       2.128  -2.942  -0.501  0.00  0.00    -0.198 OA
ATOM     15  O   UNL d   1       3.479  -0.813  -0.752  0.00  0.00    -0.198 OA
BRANCH  13  16
ATOM     16  C   UNL d   1       2.888  -1.640   1.645  0.00  0.00     0.081 A 
ATOM     17  C   UNL d   1       3.548  -2.772   2.140  0.00  0.00     0.027 A 
ATOM     18  C   UNL d   1       3.857  -2.850   3.500  0.00  0.00     0.025 A 
ATOM     19  C   UNL d   1       3.510  -1.801   4.352  0.00  0.00     0.034 A 
ATOM     20  C   UNL d   1       2.860  -0.671   3.857  0.00  0.00     0.025 A 
ATOM     21 CL   UNL d   1       3.890  -1.899   6.026  0.00  0.00    -0.084 Cl
ATOM     22  C   UNL d   1       2.552  -0.583   2.498  0.00  0.00     0.027 A 
ENDBRANCH  13  16
ENDBRANCH   1  13
BRANCH  10  23
ATOM     23  C   UNL d   1      -0.880  -5.818   1.974  0.00  0.00    -0.007 A 
ATOM     24  C   UNL d   1      -2.008  -6.498   2.452  0.00  0.00     0.014 A 
ATOM     25  C   UNL d   1      -1.874  -7.730   3.095  0.00  0.00     0.001 A 
ATOM     26  C   UNL d   1      -0.611  -8.294   3.263  0.00  0.00     0.000 A 
ATOM     27  C   UNL d   1       0.520  -7.623   2.801  0.00  0.00     0.001 A 
ATOM     28  C   UNL d   1       0.388  -6.387   2.163  0.00  0.00     0.014 A 
ENDBRANCH  10  23
TORSDOF 3
