REMARK  5 active torsions:
REMARK  status: ('A' for Active; 'I' for Inactive)
REMARK    1  A    between atoms: C_5  and  C_1 
REMARK    2  A    between atoms: N_9  and  C_2 
REMARK    3  A    between atoms: O_12  and  C_5 
REMARK    4  A    between atoms: N_7  and  N_9 
REMARK    5  A    between atoms: C_13  and  C_11 
ROOT
ATOM      1  N   UNL d   1       1.437   2.416  -0.173  0.00  0.00    -0.299 N 
ATOM      2  H   UNL d   1       0.967   3.329  -0.209  0.00  0.00     0.187 HD
ENDROOT
BRANCH   1   3
ATOM      3  N   UNL d   1       2.786   2.402  -0.070  0.00  0.00    -0.311 N 
ATOM      4  C   UNL d   1       3.419   3.411  -0.576  0.00  0.00     0.118 C 
ATOM      5  HN  UNL d   1       3.280   1.634   0.384  1.00  0.00     0.186 HD
BRANCH   4   6
ATOM      6  C   UNL d   1       4.897   3.446  -0.549  0.00  0.00    -0.019 A 
ATOM      7  C   UNL d   1       5.614   2.451   0.132  0.00  0.00     0.016 A 
ATOM      8  C   UNL d   1       7.008   2.461   0.120  0.00  0.00     0.043 A 
ATOM      9  C   UNL d   1       7.676   3.466  -0.569  0.00  0.00     0.116 A 
ATOM     10  C   UNL d   1       6.974   4.463  -1.244  0.00  0.00     0.043 A 
ATOM     11  F   UNL d   1       9.014   3.474  -0.587  0.00  0.00    -0.206 F 
ATOM     12  C   UNL d   1       5.577   4.456  -1.236  0.00  0.00     0.016 A 
ENDBRANCH   4   6
ENDBRANCH   1   3
BRANCH   1  13
ATOM     13  C   UNL d   1       0.662   1.294  -0.070  0.00  0.00     0.077 A 
ATOM     14  C   UNL d   1      -0.726   1.373  -0.035  0.00  0.00     0.108 A 
ATOM     15  S   UNL d   1      -1.442  -0.182   0.047  0.00  0.00    -0.093 SA
ATOM     16  C   UNL d   1       0.069  -0.954   0.044  0.00  0.00     0.059 A 
ATOM     17  C   UNL d   1       1.135  -0.073  -0.010  0.00  0.00    -0.026 A 
ATOM     18  C   UNL d   1       2.542  -0.581  -0.018  0.00  0.00     0.051 C 
BRANCH  14  19
ATOM     19  C   UNL d   1      -1.538   2.578  -0.065  0.00  0.00     0.302 C 
ATOM     20  O   UNL d   1      -1.088   3.718  -0.142  0.00  0.00    -0.259 OA
BRANCH  19  21
ATOM     21  O   UNL d   1      -2.872   2.294   0.009  0.00  0.00    -0.322 OA
ATOM     22  C   UNL d   1      -3.728   3.436   0.003  0.00  0.00     0.213 C 
ENDBRANCH  19  21
ENDBRANCH  14  19
ENDBRANCH   1  13
TORSDOF 5
