REMARK  2 active torsions:
REMARK  status: ('A' for Active; 'I' for Inactive)
REMARK    1  A    between atoms: N_3  and  C_1 
REMARK    2  A    between atoms: S_4  and  N_2 
ROOT
ATOM      1  C   UNL d   1      -0.187  -1.192   0.017  0.00  0.00     0.711 A 
ATOM      2  N   UNL d   1       1.134  -0.688   0.176  0.00  0.00    -0.105 N 
ATOM      3  N   UNL d   1      -1.073  -0.279  -0.260  0.00  0.00    -0.222 N 
ATOM      4  HN  UNL d   1      -2.062  -0.434  -0.460  1.00  0.00     0.177 HD
ATOM      5  C   UNL d   1       1.103   0.775   0.054  0.00  0.00     0.180 A 
ATOM      6  C   UNL d   1      -0.376   1.031  -0.231  0.00  0.00     0.159 A 
ENDROOT
BRANCH   1   7
ATOM      7  N   UNL d   1      -0.554  -2.552   0.112  0.00  0.00    -0.090 N 
ATOM      8  N   UNL d   1       0.040  -3.328   1.050  0.00  0.00    -0.284 N 
ATOM      9  C   UNL d   1      -0.548  -4.520   0.947  0.00  0.00     0.025 A 
ATOM     10  HN  UNL d   1       0.781  -3.058   1.698  1.00  0.00     0.188 HD
ATOM     11  C   UNL d   1      -0.124  -5.644   1.815  0.00  0.00     0.070 C 
ATOM     12  C   UNL d   1      -1.534  -4.525  -0.057  0.00  0.00     0.053 A 
ATOM     13  C   UNL d   1      -1.509  -3.259  -0.605  0.00  0.00     0.050 A 
ATOM     14  C   UNL d   1      -2.240  -2.732  -1.783  0.00  0.00     0.071 C 
ENDBRANCH   1   7
BRANCH   2  15
ATOM     15  S   UNL d   1       2.503  -1.470  -0.433  0.00  0.00     0.242 S 
ATOM     16  O   UNL d   1       3.600  -0.526  -0.386  0.00  0.00    -0.205 OA
ATOM     17  O   UNL d   1       2.653  -2.790   0.132  0.00  0.00    -0.205 OA
ATOM     18  C   UNL d   1       2.065  -1.679  -2.150  0.00  0.00     0.186 C 
ENDBRANCH   2  15
TORSDOF 2
