REMARK  3 active torsions:
REMARK  status: ('A' for Active; 'I' for Inactive)
REMARK       I    between atoms: N_3  and  C_1 
REMARK    1  A    between atoms: C_10  and  C_1 
REMARK    2  A    between atoms: C_2  and  N_3 
REMARK    3  A    between atoms: N_4  and  C_10 
ROOT
ATOM      1  C   UNL d   1       1.088   0.053   0.095  0.00  0.00     0.250 C 
ATOM      2  N   UNL d   1       0.691  -1.273   0.169  0.00  0.00    -0.326 N 
ATOM      3  O   UNL d   1       2.131   0.514   0.562  0.00  0.00    -0.271 OA
ATOM      4  H   UNL d   1      -0.131  -1.503  -0.388  0.00  0.00     0.169 HD
ENDROOT
BRANCH   2   5
ATOM      5  C   UNL d   1       1.314  -2.293   0.916  0.00  0.00     0.037 A 
ATOM      6  C   UNL d   1       2.283  -2.034   1.893  0.00  0.00     0.053 A 
ATOM      7  C   UNL d   1       2.884  -3.080   2.594  0.00  0.00     0.037 A 
ATOM      8 CL   UNL d   1       4.067  -2.730   3.795  0.00  0.00    -0.084 Cl
ATOM      9  C   UNL d   1       2.534  -4.399   2.336  0.00  0.00     0.048 A 
ATOM     10  C   UNL d   1       1.556  -4.660   1.382  0.00  0.00     0.037 A 
ATOM     11  C   UNL d   1       0.933  -3.619   0.682  0.00  0.00     0.053 A 
ATOM     12 CL   UNL d   1       1.116  -6.292   1.050  0.00  0.00    -0.084 Cl
ENDBRANCH   2   5
BRANCH   1  13
ATOM     13  C   UNL d   1       0.159   0.954  -0.720  0.00  0.00     0.374 C 
BRANCH  13  14
ATOM     14  N   UNL d   1      -1.275   0.588  -0.597  0.00  0.00     0.097 N 
ATOM     15  C   UNL d   1      -1.753   0.768   0.791  0.00  0.00     0.273 C 
ATOM     16  C   UNL d   1      -3.227   0.373   0.909  0.00  0.00     0.030 C 
ATOM     17  C   UNL d   1      -4.100   1.168  -0.056  0.00  0.00     0.003 C 
ATOM     18  C   UNL d   1      -3.536   1.110  -1.470  0.00  0.00     0.030 C 
ATOM     19  C   UNL d   1      -2.053   1.474  -1.491  0.00  0.00     0.273 C 
ENDBRANCH  13  14
ENDBRANCH   1  13
TORSDOF 3
