REMARK  7 active torsions:
REMARK  status: ('A' for Active; 'I' for Inactive)
REMARK    1  A    between atoms: O_9  and  C_1 
REMARK    2  A    between atoms: O_7  and  N_2 
REMARK    3  A    between atoms: C_4  and  O_7 
REMARK       I    between atoms: N_6  and  C_4 
REMARK    4  A    between atoms: C_5  and  C_8 
REMARK    5  A    between atoms: N_16  and  C_5 
REMARK    6  A    between atoms: C_18  and  N_6 
REMARK    7  A    between atoms: C_17  and  O_9 
ROOT
ATOM      1  N   UNL d   1       0.512   5.157   5.196  0.00  0.00    -0.244 N 
ATOM      2  HN  UNL d   1       0.600   5.464   6.165  1.00  0.00     0.196 HD
ATOM      3  C   UNL d   1       1.467   4.649   4.459  0.00  0.00     0.109 C 
ENDROOT
BRANCH   3   4
ATOM      4  C   UNL d   1       2.849   4.492   5.019  0.00  0.00     0.004 A 
ATOM      5  C   UNL d   1       3.060   4.385   6.395  0.00  0.00     0.017 A 
ATOM      6  C   UNL d   1       4.352   4.165   6.900  0.00  0.00     0.038 A 
ATOM      7  C   UNL d   1       5.444   4.094   6.034  0.00  0.00     0.078 A 
ATOM      8  C   UNL d   1       5.228   4.198   4.657  0.00  0.00     0.038 A 
ATOM      9  C   UNL d   1       3.944   4.404   4.150  0.00  0.00     0.017 A 
BRANCH   7  10
ATOM     10  O   UNL d   1       6.744   3.881   6.373  0.00  0.00    -0.255 OA
BRANCH  10  11
ATOM     11  C   UNL d   1       7.222   4.257   7.654  0.00  0.00     0.530 C 
ATOM     12  F   UNL d   1       6.397   5.083   8.329  0.00  0.00    -0.144 F 
ATOM     13  F   UNL d   1       8.403   4.896   7.493  0.00  0.00    -0.144 F 
ATOM     14  F   UNL d   1       7.442   3.150   8.396  0.00  0.00    -0.144 F 
ENDBRANCH  10  11
ENDBRANCH   7  10
ENDBRANCH   3   4
BRANCH   3  15
ATOM     15  N   UNL d   1       1.256   4.220   3.164  0.00  0.00    -0.286 NA
ATOM     16  H   UNL d   1       0.268   4.150   2.936  0.00  0.00     0.125 HD
ATOM     17  H   UNL d   1       1.766   3.389   2.884  0.00  0.00     0.125 HD
ENDBRANCH   3  15
BRANCH   1  18
ATOM     18  O   UNL d   1      -0.667   5.206   4.406  0.00  0.00    -0.179 OA
BRANCH  18  19
ATOM     19  C   UNL d   1      -1.775   5.750   5.024  0.00  0.00     0.387 C 
ATOM     20  N   UNL d   1      -1.598   6.065   6.351  0.00  0.00    -0.301 N 
ATOM     21  H   UNL d   1      -0.663   5.852   6.680  0.00  0.00     0.171 HD
ATOM     22  O   UNL d   1      -2.804   5.885   4.372  0.00  0.00    -0.236 OA
BRANCH  20  23
ATOM     23  C   UNL d   1      -2.549   6.617   7.233  0.00  0.00     0.036 A 
ATOM     24  C   UNL d   1      -3.845   6.978   6.847  0.00  0.00     0.029 A 
ATOM     25  C   UNL d   1      -4.742   7.535   7.767  0.00  0.00     0.002 A 
ATOM     26  C   UNL d   1      -4.355   7.734   9.087  0.00  0.00     0.000 A 
ATOM     27  C   UNL d   1      -3.072   7.372   9.489  0.00  0.00     0.002 A 
ATOM     28  C   UNL d   1      -2.174   6.817   8.566  0.00  0.00     0.029 A 
ENDBRANCH  20  23
ENDBRANCH  18  19
ENDBRANCH   1  18
TORSDOF 7
