REMARK  6 active torsions:
REMARK  status: ('A' for Active; 'I' for Inactive)
REMARK    1  A    between atoms: C_6  and  C_1 
REMARK    2  A    between atoms: O_13  and  C_6 
REMARK    3  A    between atoms: C_10  and  C_17 
REMARK    4  A    between atoms: O_16  and  C_12 
REMARK    5  A    between atoms: C_18  and  O_13 
REMARK    6  A    between atoms: C_17  and  O_16 
ROOT
ATOM      1  C   UNL d   1      -1.278  -1.216   0.084  0.00  0.00     0.074 A 
ATOM      2  C   UNL d   1      -2.053  -0.061  -0.003  0.00  0.00     0.023 A 
ATOM      3  C   UNL d   1       0.096  -0.796   0.017  0.00  0.00     0.011 A 
ATOM      4  N   UNL d   1      -1.197   1.013  -0.050  0.00  0.00    -0.358 N 
ATOM      5  C   UNL d   1       0.111   0.597  -0.037  0.00  0.00     0.043 A 
ATOM      6  C   UNL d   1       1.337  -1.474  -0.007  0.00  0.00     0.051 A 
ATOM      7  C   UNL d   1       1.293   1.344  -0.069  0.00  0.00     0.033 A 
ATOM      8  C   UNL d   1       2.530  -0.750  -0.113  0.00  0.00     0.070 A 
ATOM      9  C   UNL d   1      -3.525   0.155  -0.008  0.00  0.00     0.069 C 
ATOM     10  C   UNL d   1       2.502   0.642  -0.104  0.00  0.00     0.039 A 
ATOM     11  H   UNL d   1      -1.488   1.979  -0.094  0.00  0.00     0.166 HD
ENDROOT
BRANCH   1  12
ATOM     12  C   UNL d   1      -1.796  -2.574   0.238  0.00  0.00     0.296 C 
ATOM     13  O   UNL d   1      -2.948  -2.902  -0.022  0.00  0.00    -0.259 OA
BRANCH  12  14
ATOM     14  O   UNL d   1      -0.877  -3.413   0.800  0.00  0.00    -0.318 OA
BRANCH  14  15
ATOM     15  C   UNL d   1      -1.397  -4.643   1.317  0.00  0.00     0.174 C 
ATOM     16  C   UNL d   1      -1.974  -4.397   2.700  0.00  0.00     0.034 C 
ENDBRANCH  14  15
ENDBRANCH  12  14
ENDBRANCH   1  12
BRANCH   8  17
ATOM     17  O   UNL d   1       3.774  -1.316  -0.227  0.00  0.00    -0.347 OA
BRANCH  17  18
ATOM     18  C   UNL d   1       3.792  -2.638  -0.769  0.00  0.00     0.202 C 
BRANCH  18  19
ATOM     19  C   UNL d   1       5.163  -2.900  -1.317  0.00  0.00    -0.011 C 
ATOM     20  C   UNL d   1       5.417  -3.200  -2.597  0.00  0.00     0.009 C 
ENDBRANCH  18  19
ENDBRANCH  17  18
ENDBRANCH   8  17
TORSDOF 6
