REMARK  9 active torsions:
REMARK  status: ('A' for Active; 'I' for Inactive)
REMARK    1  A    between atoms: S_4  and  C_1 
REMARK    2  A    between atoms: N_7  and  C_2 
REMARK    3  A    between atoms: C_8  and  C_3 
REMARK    4  A    between atoms: C_14  and  S_4 
REMARK    5  A    between atoms: S_9  and  C_5 
REMARK    6  A    between atoms: O_19  and  C_8 
REMARK    7  A    between atoms: C_18  and  S_9 
REMARK    8  A    between atoms: C_20  and  C_18 
REMARK    9  A    between atoms: C_23  and  O_19 
ROOT
ATOM      1  C   UNL d   1       1.522  -0.684  -0.065  0.00  0.00     0.112 A 
ATOM      2  C   UNL d   1       1.506   0.800  -0.046  0.00  0.00     0.085 A 
ATOM      3  C   UNL d   1       0.196   1.289   0.034  0.00  0.00     0.110 A 
ATOM      4  C   UNL d   1       0.227  -1.201  -0.069  0.00  0.00     0.066 A 
ATOM      5  S   UNL d   1      -0.945   0.024   0.085  0.00  0.00    -0.073 SA
ENDROOT
BRANCH   4   6
ATOM      6  S   UNL d   1      -0.378  -2.871  -0.098  0.00  0.00    -0.116 SA
BRANCH   6   7
ATOM      7  C   UNL d   1      -1.319  -2.905  -1.656  0.00  0.00     0.118 C 
BRANCH   7   8
ATOM      8  C   UNL d   1      -1.999  -4.219  -1.986  0.00  0.00    -0.049 A 
ATOM      9  C   UNL d   1      -3.253  -4.193  -2.627  0.00  0.00     0.008 A 
ATOM     10  C   UNL d   1      -3.877  -5.373  -3.042  0.00  0.00     0.001 A 
ATOM     11  C   UNL d   1      -3.260  -6.600  -2.826  0.00  0.00     0.000 A 
ATOM     12  C   UNL d   1      -2.018  -6.646  -2.195  0.00  0.00     0.001 A 
ATOM     13  C   UNL d   1      -1.388  -5.465  -1.786  0.00  0.00     0.008 A 
ENDBRANCH   7   8
ENDBRANCH   6   7
ENDBRANCH   4   6
BRANCH   1  14
ATOM     14  S   UNL d   1       2.958  -1.716  -0.068  0.00  0.00     0.183 S 
ATOM     15  O   UNL d   1       2.507  -3.067   0.198  0.00  0.00    -0.222 OA
ATOM     16  O   UNL d   1       3.596  -1.414  -1.325  0.00  0.00    -0.222 OA
BRANCH  14  17
ATOM     17  C   UNL d   1       4.004  -1.251   1.318  0.00  0.00     0.105 C 
ATOM     18  C   UNL d   1       3.325  -1.531   2.658  0.00  0.00     0.026 C 
ATOM     19  C   UNL d   1       5.316  -2.040   1.242  0.00  0.00     0.026 C 
ENDBRANCH  14  17
ENDBRANCH   1  14
BRANCH   2  20
ATOM     20  N   UNL d   1       2.646   1.699  -0.078  0.00  0.00    -0.330 N 
ATOM     21  C   UNL d   1       2.734   2.924   0.567  0.00  0.00     0.097 A 
ATOM     22  C   UNL d   1       3.977   3.479   0.357  0.00  0.00     0.019 A 
ATOM     23  C   UNL d   1       4.694   2.581  -0.449  0.00  0.00     0.019 A 
ATOM     24  C   UNL d   1       3.845   1.536  -0.738  0.00  0.00     0.097 A 
ENDBRANCH   2  20
BRANCH   3  25
ATOM     25  C   UNL d   1      -0.338   2.650  -0.034  0.00  0.00     0.302 C 
ATOM     26  O   UNL d   1       0.149   3.579  -0.666  0.00  0.00    -0.259 OA
BRANCH  25  27
ATOM     27  O   UNL d   1      -1.473   2.755   0.723  0.00  0.00    -0.317 OA
BRANCH  27  28
ATOM     28  C   UNL d   1      -2.118   4.037   0.767  0.00  0.00     0.174 C 
ATOM     29  C   UNL d   1      -2.954   4.275  -0.478  0.00  0.00     0.034 C 
ENDBRANCH  27  28
ENDBRANCH  25  27
ENDBRANCH   3  25
TORSDOF 9
