REMARK  4 active torsions:
REMARK  status: ('A' for Active; 'I' for Inactive)
REMARK    1  A    between atoms: C_11  and  C_3 
REMARK    2  A    between atoms: C_12  and  C_17 
REMARK    3  A    between atoms: S_20  and  C_15 
REMARK    4  A    between atoms: C_17  and  S_20 
ROOT
ATOM      1  C   UNL d   1       3.495  -1.383   0.012  0.00  0.00     0.049 A 
ATOM      2  N   UNL d   1       4.345  -1.222   1.050  0.00  0.00    -0.336 N 
ATOM      3  HN  UNL d   1       4.068  -0.729   1.899  1.00  0.00     0.168 HD
ATOM      4  C   UNL d   1       5.573  -1.747   0.904  0.00  0.00     0.144 A 
ATOM      5  N   UNL d   1       5.985  -2.415  -0.188  0.00  0.00    -0.347 N 
ATOM      6  HN  UNL d   1       6.928  -2.798  -0.253  1.00  0.00     0.167 HD
ATOM      7  C   UNL d   1       3.826  -2.056  -1.146  0.00  0.00     0.047 A 
ATOM      8  C   UNL d   1       5.102  -2.556  -1.191  0.00  0.00     0.092 A 
ENDROOT
BRANCH   1   9
ATOM      9  C   UNL d   1       2.171  -0.770   0.163  0.00  0.00     0.030 A 
ATOM     10  C   UNL d   1       1.822   0.450  -0.302  0.00  0.00     0.046 A 
ATOM     11  N   UNL d   1       0.520   0.923  -0.048  0.00  0.00    -0.243 N 
ATOM     12  C   UNL d   1       2.731   1.372  -1.065  0.00  0.00     0.071 C 
ATOM     13  C   UNL d   1      -0.409   0.146   0.654  0.00  0.00     0.129 A 
ATOM     14  N   UNL d   1      -0.017   2.122  -0.406  0.00  0.00    -0.297 N 
ATOM     15  N   UNL d   1      -0.120  -1.109   1.108  0.00  0.00    -0.350 N 
ATOM     16  C   UNL d   1      -1.549   0.906   0.756  0.00  0.00     0.076 A 
ATOM     17  C   UNL d   1       1.090  -1.520   0.880  0.00  0.00     0.105 A 
ATOM     18  HN  UNL d   1      -0.807  -1.685   1.594  1.00  0.00     0.166 HD
ATOM     19  C   UNL d   1      -1.257   2.114   0.093  0.00  0.00     0.026 A 
ATOM     20  C   UNL d   1      -2.154   3.282  -0.080  0.00  0.00     0.070 C 
ATOM     21  HN  UNL d   1       0.431   2.867  -0.940  1.00  0.00     0.187 HD
ENDBRANCH   1   9
BRANCH   4  22
ATOM     22  S   UNL d   1       6.779  -1.581   2.201  0.00  0.00    -0.089 SA
BRANCH  22  23
ATOM     23  C   UNL d   1       5.857  -0.584   3.410  0.00  0.00     0.124 C 
BRANCH  23  24
ATOM     24  C   UNL d   1       6.684  -0.264   4.641  0.00  0.00    -0.005 A 
ATOM     25  C   UNL d   1       7.475   0.901   4.714  0.00  0.00     0.042 A 
ATOM     26 CL   UNL d   1       7.604   2.009   3.390  0.00  0.00    -0.084 Cl
ATOM     27  C   UNL d   1       8.195   1.223   5.873  0.00  0.00     0.024 A 
ATOM     28  C   UNL d   1       8.157   0.385   6.981  0.00  0.00     0.003 A 
ATOM     29  C   UNL d   1       7.413  -0.790   6.922  0.00  0.00     0.024 A 
ATOM     30  C   UNL d   1       6.691  -1.115   5.763  0.00  0.00     0.042 A 
ATOM     31 CL   UNL d   1       5.813  -2.607   5.795  0.00  0.00    -0.084 Cl
ENDBRANCH  23  24
ENDBRANCH  22  23
ENDBRANCH   4  22
TORSDOF 4
