REMARK  6 active torsions:
REMARK  status: ('A' for Active; 'I' for Inactive)
REMARK    1  A    between atoms: C_4  and  C_1 
REMARK    2  A    between atoms: O_12  and  C_4 
REMARK    3  A    between atoms: C_6  and  C_13 
REMARK    4  A    between atoms: N_7  and  O_12 
REMARK    5  A    between atoms: C_14  and  C_10 
REMARK    6  A    between atoms: N_23  and  C_10 
ROOT
ATOM      1  N   UNL d   1      -3.966   0.429   0.193  0.00  0.00    -0.246 N 
ATOM      2  HN  UNL d   1      -3.918  -0.567   0.408  1.00  0.00     0.196 HD
ATOM      3  C   UNL d   1      -5.077   1.071  -0.006  0.00  0.00     0.109 C 
ENDROOT
BRANCH   3   4
ATOM      4  C   UNL d   1      -6.351   0.283   0.069  0.00  0.00     0.004 A 
ATOM      5  C   UNL d   1      -6.415  -0.871   0.859  0.00  0.00     0.015 A 
ATOM      6  C   UNL d   1      -7.601  -1.608   0.935  0.00  0.00     0.017 A 
ATOM      7  C   UNL d   1      -8.737  -1.210   0.212  0.00  0.00     0.048 A 
ATOM      8  C   UNL d   1      -8.660  -0.061  -0.590  0.00  0.00     0.017 A 
ATOM      9  C   UNL d   1      -7.476   0.683  -0.660  0.00  0.00     0.015 A 
BRANCH   7  10
ATOM     10  C   UNL d   1     -10.010  -2.020   0.300  0.00  0.00     0.417 C 
ATOM     11  F   UNL d   1     -11.030  -1.514  -0.449  0.00  0.00    -0.166 F 
ATOM     12  F   UNL d   1      -9.844  -3.305  -0.116  0.00  0.00    -0.166 F 
ATOM     13  F   UNL d   1     -10.489  -2.098   1.573  0.00  0.00    -0.166 F 
ENDBRANCH   7  10
ENDBRANCH   3   4
BRANCH   3  14
ATOM     14  N   UNL d   1      -5.149   2.420  -0.266  0.00  0.00    -0.286 NA
ATOM     15  H   UNL d   1      -4.282   2.906  -0.056  0.00  0.00     0.125 HD
ATOM     16  H   UNL d   1      -5.957   2.899   0.115  0.00  0.00     0.125 HD
ENDBRANCH   3  14
BRANCH   1  17
ATOM     17  O   UNL d   1      -2.829   1.264   0.079  0.00  0.00    -0.192 OA
BRANCH  17  18
ATOM     18  C   UNL d   1      -1.688   0.504   0.243  0.00  0.00     0.333 C 
ATOM     19  O   UNL d   1      -1.666  -0.705   0.473  0.00  0.00    -0.256 OA
BRANCH  18  20
ATOM     20  C   UNL d   1      -0.451   1.273   0.134  0.00  0.00     0.134 A 
ATOM     21  N   UNL d   1      -0.405   2.596  -0.111  0.00  0.00    -0.255 N 
ATOM     22  O   UNL d   1       0.942   2.934  -0.128  0.00  0.00    -0.242 OA
ATOM     23  HN  UNL d   1      -1.197   3.222  -0.254  1.00  0.00     0.195 HD
ATOM     24  C   UNL d   1       1.695   1.827   0.106  0.00  0.00     0.075 A 
ATOM     25  C   UNL d   1       0.865   0.751   0.274  0.00  0.00     0.072 A 
ATOM     26  C   UNL d   1       3.159   2.001   0.136  0.00  0.00     0.079 C 
ENDBRANCH  18  20
ENDBRANCH  17  18
ENDBRANCH   1  17
TORSDOF 6
