REMARK  8 active torsions:
REMARK  status: ('A' for Active; 'I' for Inactive)
REMARK    1  A    between atoms: C_10  and  C_1 
REMARK    2  A    between atoms: S_2  and  C_8 
REMARK    3  A    between atoms: N_16  and  S_2 
REMARK    4  A    between atoms: C_11  and  C_7 
REMARK       I    between atoms: C_12  and  N_13 
REMARK    5  A    between atoms: O_17  and  C_12 
REMARK    6  A    between atoms: C_27  and  N_16 
REMARK    7  A    between atoms: C_23  and  O_17 
REMARK    8  A    between atoms: C_31  and  C_27 
ROOT
ATOM      1  S   UNL d   1       7.162   6.942   0.485  0.00  0.00     0.248 S 
ATOM      2  O   UNL d   1       6.939   5.512   0.544  0.00  0.00    -0.205 OA
ATOM      3  O   UNL d   1       7.991   7.638   1.437  0.00  0.00    -0.205 OA
ENDROOT
BRANCH   1   4
ATOM      4  C   UNL d   1       7.952   7.206  -1.097  0.00  0.00     0.115 A 
ATOM      5  S   UNL d   1       8.260   8.837  -1.518  0.00  0.00    -0.075 SA
ATOM      6  C   UNL d   1       8.929   8.400  -3.028  0.00  0.00     0.034 A 
ATOM      7  C   UNL d   1       8.952   7.030  -3.196  0.00  0.00     0.023 A 
ATOM      8  C   UNL d   1       8.393   6.340  -2.080  0.00  0.00     0.034 A 
BRANCH   6   9
ATOM      9  C   UNL d   1       9.400   9.377  -4.066  0.00  0.00     0.067 A 
ATOM     10  C   UNL d   1       9.527  10.773  -3.927  0.00  0.00     0.068 A 
ATOM     11  C   UNL d   1       9.925  11.244  -5.167  0.00  0.00     0.136 A 
ATOM     12  N   UNL d   1       9.976  10.138  -5.972  0.00  0.00    -0.292 N 
ATOM     13  N   UNL d   1       9.727   8.990  -5.304  0.00  0.00    -0.297 N 
ATOM     14  C   UNL d   1      10.168  10.019  -7.400  0.00  0.00     0.178 C 
ATOM     15  HN  UNL d   1       9.776   8.037  -5.665  1.00  0.00     0.187 HD
BRANCH  11  16
ATOM     16  C   UNL d   1      10.205  12.635  -5.581  0.00  0.00     0.434 C 
ATOM     17  F   UNL d   1      10.640  12.767  -6.855  0.00  0.00    -0.165 F 
ATOM     18  F   UNL d   1       9.095  13.408  -5.468  0.00  0.00    -0.165 F 
ATOM     19  F   UNL d   1      11.154  13.198  -4.791  0.00  0.00    -0.165 F 
ENDBRANCH  11  16
ENDBRANCH   6   9
ENDBRANCH   1   4
BRANCH   1  20
ATOM     20  N   UNL d   1       5.649   7.727   0.442  0.00  0.00    -0.215 NA
ATOM     21  H   UNL d   1       5.771   8.694   0.141  0.00  0.00     0.140 HD
BRANCH  20  22
ATOM     22  C   UNL d   1       4.562   6.977  -0.212  0.00  0.00     0.109 C 
BRANCH  22  23
ATOM     23  C   UNL d   1       3.200   7.696  -0.115  0.00  0.00     0.002 C 
ATOM     24  C   UNL d   1       2.091   6.777  -0.670  0.00  0.00     0.026 C 
ATOM     25  C   UNL d   1       2.172   6.655  -2.190  0.00  0.00     0.128 C 
ATOM     26  N   UNL d   1       2.048   7.973  -2.797  0.00  0.00    -0.328 N 
ATOM     27  C   UNL d   1       1.248   8.223  -3.905  0.00  0.00     0.363 C 
ATOM     28  C   UNL d   1       3.016   8.975  -2.356  0.00  0.00     0.128 C 
ATOM     29  O   UNL d   1       1.289   9.273  -4.543  0.00  0.00    -0.238 OA
ATOM     30  C   UNL d   1       3.114   9.060  -0.828  0.00  0.00     0.026 C 
BRANCH  27  31
ATOM     31  O   UNL d   1       0.418   7.189  -4.201  0.00  0.00    -0.294 OA
BRANCH  31  32
ATOM     32  C   UNL d   1      -0.449   7.213  -5.369  0.00  0.00     0.061 C 
ATOM     33  C   UNL d   1       0.371   7.342  -6.660  0.00  0.00     0.046 C 
ATOM     34  C   UNL d   1      -1.173   5.853  -5.362  0.00  0.00     0.046 C 
ATOM     35  C   UNL d   1      -1.507   8.319  -5.277  0.00  0.00     0.046 C 
ENDBRANCH  31  32
ENDBRANCH  27  31
ENDBRANCH  22  23
ENDBRANCH  20  22
ENDBRANCH   1  20
TORSDOF 8
