REMARK  2 active torsions:
REMARK  status: ('A' for Active; 'I' for Inactive)
REMARK    1  A    between atoms: C_10  and  CA_4 
REMARK    2  A    between atoms: O_8  and  C_10 
ROOT
ATOM      1  N   UNL d   1      -1.181   1.353  -0.004  0.00  0.00    -0.357 N 
ATOM      2  HN  UNL d   1      -1.184   2.373  -0.017  1.00  0.00     0.166 HD
ATOM      3  C   UNL d   1      -0.022   0.670  -0.008  0.00  0.00     0.042 A 
ATOM      4  CA  UNL d   1      -2.349   0.655   0.017  0.00  0.00     0.033 A 
ATOM      5  C   UNL d   1       0.028  -0.739  -0.006  0.00  0.00    -0.009 A 
ATOM      6  C   UNL d   1      -1.185  -1.436  -0.011  0.00  0.00     0.016 A 
ATOM      7  C   UNL d   1      -2.382  -0.734  -0.007  0.00  0.00     0.028 A 
ATOM      8  C   UNL d   1       1.181   1.366  -0.009  0.00  0.00     0.030 A 
ATOM      9  C   UNL d   1       1.264  -1.408   0.001  0.00  0.00     0.013 A 
ATOM     10  C   UNL d   1       2.413   0.705  -0.003  0.00  0.00     0.002 A 
ATOM     11  C   UNL d   1       2.454  -0.685   0.003  0.00  0.00     0.001 A 
ENDROOT
BRANCH   4  12
ATOM     12  C   UNL d   1      -3.626   1.460   0.013  0.00  0.00     0.221 C 
BRANCH  12  13
ATOM     13  O   UNL d   1      -4.688   0.771   0.672  0.00  0.00    -0.395 OA
ATOM     14  H   UNL d   1      -5.458   1.363   0.644  0.00  0.00     0.209 HD
ENDBRANCH  12  13
ENDBRANCH   4  12
TORSDOF 2
