REMARK  12 active torsions:
REMARK  status: ('A' for Active; 'I' for Inactive)
REMARK    1  A    between atoms: C_2  and  C_1 
REMARK       I    between atoms: N_8  and  C_2 
REMARK    2  A    between atoms: C_10  and  N_8 
REMARK    3  A    between atoms: C_12  and  C_10 
REMARK    4  A    between atoms: N_11  and  C_12 
REMARK    5  A    between atoms: C_18  and  N_11 
REMARK    6  A    between atoms: C_19  and  N_11 
REMARK    7  A    between atoms: C_27  and  C_26 
REMARK    8  A    between atoms: O_31  and  C_26 
REMARK    9  A    between atoms: O_30  and  C_27 
REMARK   10  A    between atoms: C_35  and  C_34 
REMARK   11  A    between atoms: O_39  and  C_34 
REMARK   12  A    between atoms: O_38  and  C_35 
ROOT
ATOM      1  C   UNL d   2      -0.556   1.136   0.720  0.00  0.00     0.243 C 
ATOM      2  O   UNL d   2       0.475   1.775   0.810  0.00  0.00    -0.642 OA
ENDROOT
BRANCH   1   3
ATOM      3  C   UNL d   2      -1.058   0.529  -0.622  0.00  0.00     0.243 C 
ATOM      4  O   UNL d   2      -1.998   0.980  -1.254  0.00  0.00    -0.642 OA
BRANCH   3   5
ATOM      5  O   UNL d   2      -0.412  -0.572  -1.003  0.00  0.00    -0.769 OA
ATOM      6  H   UNL d   2      -0.773  -0.830  -1.873  0.00  0.00     0.168 HD
ENDBRANCH   3   5
ENDBRANCH   1   3
BRANCH   1   7
ATOM      7  O   UNL d   2      -1.370   0.886   1.758  0.00  0.00    -0.769 OA
ATOM      8  H   UNL d   2      -2.132   0.317   1.536  0.00  0.00     0.168 HD
ENDBRANCH   1   7
TORSDOF 12
