REMARK  5 active torsions:
REMARK  status: ('A' for Active; 'I' for Inactive)
REMARK    1  A    between atoms: C_4  and  S_1 
REMARK    2  A    between atoms: C_5  and  S_1 
REMARK    3  A    between atoms: S_2  and  C_3 
REMARK    4  A    between atoms: C_6  and  S_2 
REMARK    5  A    between atoms: C_3  and  C_4 
ROOT
ATOM      1  C   UNL d   1       0.934   2.273   1.403  0.00  0.00     0.161 C 
ENDROOT
BRANCH   1   2
ATOM      2  S   UNL d   1       0.347   3.935   1.568  0.00  0.00     0.176 S 
ATOM      3  O   UNL d   1       0.819   4.694   0.425  0.00  0.00    -0.223 OA
ATOM      4  O   UNL d   1      -1.065   3.864   1.885  0.00  0.00    -0.223 OA
BRANCH   2   5
ATOM      5  C   UNL d   1       1.200   4.567   2.997  0.00  0.00     0.059 A 
ATOM      6  C   UNL d   1       2.594   4.686   2.963  0.00  0.00     0.025 A 
ATOM      7  C   UNL d   1       3.273   5.155   4.089  0.00  0.00     0.025 A 
ATOM      8  C   UNL d   1       2.559   5.515   5.233  0.00  0.00     0.034 A 
ATOM      9  C   UNL d   1       1.166   5.425   5.255  0.00  0.00     0.025 A 
ATOM     10 CL   UNL d   1       3.402   6.074   6.624  0.00  0.00    -0.084 Cl
ATOM     11  C   UNL d   1       0.480   4.951   4.133  0.00  0.00     0.025 A 
ENDBRANCH   2   5
ENDBRANCH   1   2
BRANCH   1  12
ATOM     12  C   UNL d   1       0.310   1.603   0.192  0.00  0.00     0.161 C 
BRANCH  12  13
ATOM     13  S   UNL d   1       0.945  -0.045   0.040  0.00  0.00     0.176 S 
ATOM     14  O   UNL d   1       0.464  -0.809   1.174  0.00  0.00    -0.223 OA
ATOM     15  O   UNL d   1       2.366   0.054  -0.232  0.00  0.00    -0.223 OA
BRANCH  13  16
ATOM     16  C   UNL d   1       0.165  -0.701  -1.418  0.00  0.00     0.059 A 
ATOM     17  C   UNL d   1       0.805  -0.581  -2.658  0.00  0.00     0.026 A 
ATOM     18  C   UNL d   1       0.215  -1.140  -3.793  0.00  0.00     0.044 A 
ATOM     19  C   UNL d   1      -0.993  -1.820  -3.676  0.00  0.00     0.116 A 
ATOM     20  C   UNL d   1      -1.623  -1.961  -2.442  0.00  0.00     0.044 A 
ATOM     21  F   UNL d   1      -1.555  -2.360  -4.766  0.00  0.00    -0.206 F 
ATOM     22  C   UNL d   1      -1.040  -1.404  -1.301  0.00  0.00     0.026 A 
ENDBRANCH  13  16
ENDBRANCH  12  13
ENDBRANCH   1  12
TORSDOF 5
