REMARK  4 active torsions:
REMARK  status: ('A' for Active; 'I' for Inactive)
REMARK    1  A    between atoms: S_2  and  C_1 
REMARK    2  A    between atoms: N_11  and  S_2 
REMARK    3  A    between atoms: C_8  and  C_14 
REMARK    4  A    between atoms: C_14  and  N_11 
ROOT
ATOM      1  N   UNL d   1       4.109  -0.582   1.415  0.00  0.00    -0.210 NA
ATOM      2  H   UNL d   1       5.121  -0.704   1.405  0.00  0.00     0.140 HD
ENDROOT
BRANCH   1   3
ATOM      3  S   UNL d   1       3.623   0.184  -0.006  0.00  0.00     0.258 S 
ATOM      4  O   UNL d   1       4.252  -0.511  -1.107  0.00  0.00    -0.204 OA
ATOM      5  O   UNL d   1       3.783   1.613   0.174  0.00  0.00    -0.204 OA
BRANCH   3   6
ATOM      6  C   UNL d   1       1.913  -0.033  -0.266  0.00  0.00     0.161 A 
ATOM      7  N   UNL d   1       1.089  -0.766   0.573  0.00  0.00    -0.335 N 
ATOM      8  C   UNL d   1      -0.115  -0.698   0.036  0.00  0.00     0.079 A 
ATOM      9  HN  UNL d   1       1.356  -1.255   1.427  1.00  0.00     0.168 HD
ATOM     10  C   UNL d   1      -1.337  -1.360   0.557  0.00  0.00     0.089 C 
ATOM     11  N   UNL d   1      -0.098   0.079  -1.100  0.00  0.00    -0.348 N 
ATOM     12  C   UNL d   1       1.184   0.502  -1.308  0.00  0.00     0.135 A 
ATOM     13  C   UNL d   1      -1.233   0.401  -1.931  0.00  0.00     0.156 C 
ENDBRANCH   3   6
ENDBRANCH   1   3
BRANCH   1  14
ATOM     14  C   UNL d   1       3.624   0.036   2.656  0.00  0.00     0.146 C 
BRANCH  14  15
ATOM     15  C   UNL d   1       4.125  -0.723   3.863  0.00  0.00    -0.007 A 
ATOM     16  C   UNL d   1       5.318  -0.369   4.516  0.00  0.00     0.087 A 
ATOM     17  C   UNL d   1       5.795  -1.117   5.602  0.00  0.00     0.003 A 
ATOM     18  O   UNL d   1       6.009   0.713   4.039  0.00  0.00    -0.325 OA
ATOM     19  C   UNL d   1       7.075  -0.725   6.275  0.00  0.00     0.212 C 
ATOM     20  C   UNL d   1       5.051  -2.209   6.063  0.00  0.00     0.054 A 
ATOM     21  O   UNL d   1       7.841   0.140   5.445  0.00  0.00    -0.362 OA
ATOM     22  C   UNL d   1       7.015   1.178   4.940  0.00  0.00     0.345 C 
ATOM     23  C   UNL d   1       3.868  -2.557   5.421  0.00  0.00     0.117 A 
ATOM     24  C   UNL d   1       3.406  -1.836   4.326  0.00  0.00     0.053 A 
ATOM     25  F   UNL d   1       3.164  -3.605   5.867  0.00  0.00    -0.206 F 
ENDBRANCH  14  15
ENDBRANCH   1  14
TORSDOF 4
