REMARK  4 active torsions:
REMARK  status: ('A' for Active; 'I' for Inactive)
REMARK    1  A    between atoms: C_11  and  C_6 
REMARK    2  A    between atoms: C_12  and  C_7 
REMARK    3  A    between atoms: O_19  and  C_11 
REMARK    4  A    between atoms: C_20  and  O_19 
ROOT
ATOM      1  N   UNL d   1      -0.323  -0.601   0.158  0.00  0.00    -0.202 N 
ATOM      2  N   UNL d   1      -1.604  -1.044   0.231  0.00  0.00    -0.287 N 
ATOM      3  HN  UNL d   1      -1.930  -2.001   0.361  1.00  0.00     0.188 HD
ATOM      4  C   UNL d   1      -0.257   0.775   0.024  0.00  0.00     0.133 A 
ATOM      5  C   UNL d   1       0.785  -1.465   0.187  0.00  0.00     0.285 A 
ATOM      6  C   UNL d   1       2.097  -0.761   0.055  0.00  0.00     0.124 A 
ATOM      7  C   UNL d   1      -2.340   0.067   0.095  0.00  0.00     0.086 A 
ATOM      8  C   UNL d   1      -1.547   1.231  -0.035  0.00  0.00     0.084 A 
ATOM      9  C   UNL d   1       2.097   0.584  -0.049  0.00  0.00     0.113 A 
ATOM     10  N   UNL d   1       0.958   1.360  -0.044  0.00  0.00    -0.349 N 
ATOM     11  O   UNL d   1       0.625  -2.675   0.275  0.00  0.00    -0.265 OA
ATOM     12  H   UNL d   1       1.077   2.364  -0.178  0.00  0.00     0.166 HD
ENDROOT
BRANCH   6  13
ATOM     13  C   UNL d   1       3.391  -1.460  -0.059  0.00  0.00     0.300 C 
ATOM     14  O   UNL d   1       4.403  -0.941  -0.509  0.00  0.00    -0.259 OA
BRANCH  13  15
ATOM     15  O   UNL d   1       3.277  -2.744   0.345  0.00  0.00    -0.318 OA
BRANCH  15  16
ATOM     16  C   UNL d   1       4.306  -3.645  -0.084  0.00  0.00     0.174 C 
ATOM     17  C   UNL d   1       3.913  -4.208  -1.438  0.00  0.00     0.034 C 
ENDBRANCH  15  16
ENDBRANCH  13  15
ENDBRANCH   6  13
BRANCH   7  18
ATOM     18  C   UNL d   1      -3.830   0.035   0.082  0.00  0.00     0.103 A 
ATOM     19  O   UNL d   1      -4.630   1.127  -0.118  0.00  0.00    -0.320 OA
ATOM     20  C   UNL d   1      -5.917   0.695  -0.069  0.00  0.00     0.142 A 
ATOM     21  C   UNL d   1      -5.965  -0.656   0.173  0.00  0.00     0.027 A 
ATOM     22  C   UNL d   1      -4.619  -1.085   0.264  0.00  0.00     0.041 A 
ENDBRANCH   7  18
TORSDOF 4
