REMARK  6 active torsions:
REMARK  status: ('A' for Active; 'I' for Inactive)
REMARK    1  A    between atoms: C_16  and  N_1 
REMARK    2  A    between atoms: S_15  and  C_2 
REMARK    3  A    between atoms: C_11  and  C_3 
REMARK    4  A    between atoms: O_20  and  C_4 
REMARK    5  A    between atoms: C_13  and  C_19 
REMARK    6  A    between atoms: C_19  and  S_15 
ROOT
ATOM      1  S   UNL d   1       2.715  -1.333  -0.483  0.00  0.00    -0.086 SA
ENDROOT
BRANCH   1   2
ATOM      2  C   UNL d   1       1.137  -0.690  -0.137  0.00  0.00     0.165 A 
ATOM      3  N   UNL d   1      -0.043  -1.377  -0.013  0.00  0.00    -0.286 N 
ATOM      4  C   UNL d   1      -0.995  -0.382   0.138  0.00  0.00     0.240 A 
ATOM      5  N   UNL d   1      -0.422   0.793   0.195  0.00  0.00    -0.263 N 
ATOM      6  N   UNL d   1       0.915   0.600   0.012  0.00  0.00    -0.277 N 
ATOM      7  HN  UNL d   1      -0.889   1.687   0.348  1.00  0.00     0.190 HD
ATOM      8  HN  UNL d   1       1.625   1.332  -0.007  1.00  0.00     0.189 HD
BRANCH   3   9
ATOM      9  C   UNL d   1      -0.360  -2.791  -0.003  0.00  0.00     0.095 C 
ATOM     10  C   UNL d   1      -0.602  -3.360  -1.407  0.00  0.00     0.026 C 
ATOM     11  C   UNL d   1      -1.311  -4.712  -1.300  0.00  0.00     0.002 C 
ATOM     12  C   UNL d   1      -0.552  -5.695  -0.407  0.00  0.00     0.000 C 
ATOM     13  C   UNL d   1      -0.151  -5.098   0.945  0.00  0.00     0.002 C 
ATOM     14  C   UNL d   1       0.541  -3.735   0.803  0.00  0.00     0.026 C 
ENDBRANCH   3   9
BRANCH   4  15
ATOM     15  O   UNL d   1      -2.307  -0.539   0.220  0.00  0.00    -0.331 OA
ATOM     16  H   UNL d   1      -2.560  -1.398  -0.146  0.00  0.00     0.221 HD
ENDBRANCH   4  15
ENDBRANCH   1   2
BRANCH   1  17
ATOM     17  C   UNL d   1       3.645   0.235  -0.389  0.00  0.00     0.149 C 
BRANCH  17  18
ATOM     18  C   UNL d   1       5.092   0.180  -0.714  0.00  0.00     0.088 A 
ATOM     19  C   UNL d   1       5.898   1.011  -1.456  0.00  0.00     0.068 A 
ATOM     20  C   UNL d   1       7.228   0.594  -1.179  0.00  0.00     0.070 A 
ATOM     21  N   UNL d   1       7.204  -0.472  -0.359  0.00  0.00    -0.260 N 
ATOM     22  O   UNL d   1       5.873  -0.724  -0.071  0.00  0.00    -0.241 OA
ATOM     23  HN  UNL d   1       8.010  -0.993  -0.015  1.00  0.00     0.195 HD
BRANCH  20  24
ATOM     24  C   UNL d   1       8.484   1.211  -1.633  0.00  0.00     0.036 A 
ATOM     25  C   UNL d   1       8.697   2.605  -1.538  0.00  0.00     0.048 A 
ATOM     26 CL   UNL d   1       7.553   3.695  -0.826  0.00  0.00    -0.083 Cl
ATOM     27  C   UNL d   1       9.884   3.193  -1.997  0.00  0.00     0.025 A 
ATOM     28  C   UNL d   1      10.899   2.412  -2.539  0.00  0.00     0.003 A 
ATOM     29  C   UNL d   1      10.720   1.036  -2.625  0.00  0.00     0.025 A 
ATOM     30  C   UNL d   1       9.527   0.435  -2.188  0.00  0.00     0.048 A 
ATOM     31 CL   UNL d   1       9.420  -1.277  -2.424  0.00  0.00    -0.083 Cl
ENDBRANCH  20  24
ENDBRANCH  17  18
ENDBRANCH   1  17
TORSDOF 6
