REMARK  5 active torsions:
REMARK  status: ('A' for Active; 'I' for Inactive)
REMARK    1  A    between atoms: N_2  and  S_1 
REMARK    2  A    between atoms: C_11  and  S_1 
REMARK       I    between atoms: C_4  and  N_2 
REMARK    3  A    between atoms: C_9  and  C_4 
REMARK    4  A    between atoms: C_5  and  C_8 
REMARK    5  A    between atoms: C_6  and  C_7 
ROOT
ATOM      1  C   UNL d   1       2.857   1.694   3.258  0.00  0.00     0.049 A 
ATOM      2  C   UNL d   1       2.449   4.107   3.244  0.00  0.00     0.049 A 
ATOM      3  C   UNL d   1       1.765   2.737   1.339  0.00  0.00     0.034 A 
ATOM      4  C   UNL d   1       2.943   2.953   3.875  0.00  0.00     0.032 A 
ATOM      5  C   UNL d   1       1.855   3.986   1.974  0.00  0.00     0.033 A 
ATOM      6  C   UNL d   1       2.292   1.603   1.974  0.00  0.00     0.033 A 
ENDROOT
BRANCH   3   7
ATOM      7  C   UNL d   1       1.045   2.600   0.025  0.00  0.00     0.262 C 
ATOM      8  N   UNL d   1       1.036   1.369  -0.647  0.00  0.00    -0.279 N 
ATOM      9  HN  UNL d   1       1.317   0.524  -0.150  1.00  0.00     0.179 HD
ATOM     10  O   UNL d   1       0.390   3.570  -0.353  0.00  0.00    -0.267 OA
BRANCH   8  11
ATOM     11  S   UNL d   1       0.609   1.274  -2.124  0.00  0.00     0.055 S 
ATOM     12  O   UNL d   1       1.080   2.160  -3.171  0.00  0.00    -0.245 OA
ATOM     13  C   UNL d   1      -1.166   1.236  -2.212  0.00  0.00     0.142 C 
BRANCH  11  14
ATOM     14  C   UNL d   1       1.050  -0.381  -2.651  0.00  0.00     0.038 A 
ATOM     15  C   UNL d   1       0.942  -1.453  -1.760  0.00  0.00     0.023 A 
ATOM     16  C   UNL d   1       1.322  -2.734  -2.178  0.00  0.00     0.025 A 
ATOM     17  C   UNL d   1       1.801  -2.929  -3.474  0.00  0.00     0.034 A 
ATOM     18  C   UNL d   1       1.901  -1.859  -4.363  0.00  0.00     0.025 A 
ATOM     19 CL   UNL d   1       2.281  -4.502  -3.978  0.00  0.00    -0.084 Cl
ATOM     20  C   UNL d   1       1.528  -0.579  -3.952  0.00  0.00     0.023 A 
ENDBRANCH  11  14
ENDBRANCH   8  11
ENDBRANCH   3   7
BRANCH   2  21
ATOM     21  C   UNL d   1       2.522   5.457   3.922  0.00  0.00     0.417 C 
ATOM     22  F   UNL d   1       3.048   5.401   5.178  0.00  0.00    -0.166 F 
ATOM     23  F   UNL d   1       3.289   6.344   3.234  0.00  0.00    -0.166 F 
ATOM     24  F   UNL d   1       1.298   6.036   4.057  0.00  0.00    -0.166 F 
ENDBRANCH   2  21
BRANCH   1  25
ATOM     25  C   UNL d   1       3.317   0.440   3.965  0.00  0.00     0.417 C 
ATOM     26  F   UNL d   1       3.646   0.646   5.269  0.00  0.00    -0.166 F 
ATOM     27  F   UNL d   1       2.356  -0.525   3.972  0.00  0.00    -0.166 F 
ATOM     28  F   UNL d   1       4.410  -0.120   3.382  0.00  0.00    -0.166 F 
ENDBRANCH   1  25
TORSDOF 5
