REMARK  6 active torsions:
REMARK  status: ('A' for Active; 'I' for Inactive)
REMARK    1  A    between atoms: C_12  and  C_1 
REMARK    2  A    between atoms: C_8  and  C_2 
REMARK    3  A    between atoms: N_11  and  C_2 
REMARK    4  A    between atoms: N_3  and  C_8 
REMARK    5  A    between atoms: N_4  and  O_10 
REMARK    6  A    between atoms: O_10  and  C_12 
ROOT
ATOM      1  C   UNL d   1      -2.309   5.052   0.175  0.00  0.00     0.103 C 
ATOM      2  N   UNL d   1      -1.189   4.404   0.021  0.00  0.00    -0.258 N 
ATOM      3  HN  UNL d   1      -1.113   3.406  -0.176  1.00  0.00     0.195 HD
ENDROOT
BRANCH   2   4
ATOM      4  O   UNL d   1      -0.098   5.282   0.167  0.00  0.00    -0.275 OA
BRANCH   4   5
ATOM      5  C   UNL d   1       1.112   4.562  -0.074  0.00  0.00     0.244 C 
BRANCH   5   6
ATOM      6  C   UNL d   1       2.269   5.514   0.049  0.00  0.00     0.028 A 
ATOM      7  C   UNL d   1       2.434   6.623  -0.796  0.00  0.00     0.045 A 
ATOM      8 CL   UNL d   1       1.324   6.973  -2.074  0.00  0.00    -0.084 Cl
ATOM      9  C   UNL d   1       3.522   7.490  -0.634  0.00  0.00     0.024 A 
ATOM     10  C   UNL d   1       4.464   7.260   0.366  0.00  0.00     0.005 A 
ATOM     11  C   UNL d   1       4.320   6.158   1.204  0.00  0.00     0.043 A 
ATOM     12  C   UNL d   1       3.232   5.302   1.039  0.00  0.00     0.126 A 
ATOM     13  F   UNL d   1       3.128   4.247   1.861  0.00  0.00    -0.205 F 
ENDBRANCH   5   6
ENDBRANCH   4   5
ENDBRANCH   2   4
BRANCH   1  14
ATOM     14  C   UNL d   1      -3.616   4.263   0.037  0.00  0.00     0.343 C 
BRANCH  14  15
ATOM     15  N   UNL d   1      -4.167   4.264  -1.334  0.00  0.00     0.096 N 
ATOM     16  C   UNL d   1      -3.246   3.660  -2.316  0.00  0.00     0.283 C 
ATOM     17  C   UNL d   1      -3.926   3.365  -3.661  0.00  0.00     0.104 C 
ATOM     18  S   UNL d   1      -4.591   4.862  -4.460  0.00  0.00    -0.166 SA
ATOM     19  C   UNL d   1      -5.509   5.508  -3.029  0.00  0.00     0.104 C 
ATOM     20  C   UNL d   1      -4.628   5.586  -1.778  0.00  0.00     0.283 C 
ENDBRANCH  14  15
ENDBRANCH   1  14
BRANCH   1  21
ATOM     21  N   UNL d   1      -2.375   6.402   0.430  0.00  0.00    -0.289 NA
ATOM     22  H   UNL d   1      -1.497   6.861   0.205  0.00  0.00     0.125 HD
ATOM     23  H   UNL d   1      -3.192   6.891   0.092  0.00  0.00     0.125 HD
ENDBRANCH   1  21
TORSDOF 6
