REMARK  0 active torsions:
REMARK  status: ('A' for Active; 'I' for Inactive)
ROOT
ATOM      1  O   UNL d   1       1.116   1.349   0.037  0.00  0.00    -0.336 OA
ATOM      2  C   UNL d   1      -0.033   0.611   0.019  0.00  0.00     0.080 A 
ATOM      3  C   UNL d   1      -0.061  -0.785   0.018  0.00  0.00    -0.002 A 
ATOM      4  C   UNL d   1       1.183  -1.536   0.038  0.00  0.00     0.013 A 
ATOM      5  N   UNL d   1      -4.757  -1.978  -0.013  0.00  0.00    -0.191 NA
ATOM      6  C   UNL d   1       2.386   0.665  -0.025  0.00  0.00     0.078 A 
ATOM      7  C   UNL d   1       2.325  -0.846   0.020  0.00  0.00     0.011 A 
ATOM      8  C   UNL d   1      -3.743  -1.414  -0.008  0.00  0.00     0.099 C 
ATOM      9  C   UNL d   1      -1.291  -1.452   0.007  0.00  0.00     0.037 A 
ATOM     10  C   UNL d   1      -1.225   1.338   0.011  0.00  0.00     0.039 A 
ATOM     11  C   UNL d   1      -2.487  -0.724  -0.001  0.00  0.00     0.045 A 
ATOM     12  C   UNL d   1      -2.452   0.673   0.001  0.00  0.00     0.025 A 
ATOM     13  C   UNL d   1       3.051   1.097  -1.336  0.00  0.00     0.051 C 
ATOM     14  C   UNL d   1       3.201   1.169   1.171  0.00  0.00     0.051 C 
ENDROOT
TORSDOF 0
