REMARK  2 active torsions:
REMARK  status: ('A' for Active; 'I' for Inactive)
REMARK    1  A    between atoms: C_2  and  C_1 
REMARK       I    between atoms: N_8  and  C_2 
REMARK    2  A    between atoms: C_13  and  N_8 
ROOT
ATOM      1  C   UNL d   1       5.120   0.921  -1.680  0.00  0.00     0.294 A 
ATOM      2  C   UNL d   1       4.333   1.861  -0.892  0.00  0.00     0.050 A 
ATOM      3  O   UNL d   1       6.407   1.019  -1.227  0.00  0.00    -0.313 OA
ATOM      4  C   UNL d   1       5.168   2.515  -0.013  0.00  0.00    -0.018 A 
ATOM      5  C   UNL d   1       2.970   2.101  -0.952  0.00  0.00     0.048 A 
ATOM      6  C   UNL d   1       2.429   3.043  -0.074  0.00  0.00     0.036 A 
ATOM      7  C   UNL d   1       6.535   1.979  -0.157  0.00  0.00     0.218 A 
ATOM      8  O   UNL d   1       4.720   0.199  -2.570  0.00  0.00    -0.259 OA
ATOM      9  C   UNL d   1       4.666   3.489   0.829  0.00  0.00     0.012 A 
ATOM     10  C   UNL d   1       3.291   3.761   0.785  0.00  0.00     0.030 A 
ENDROOT
BRANCH   6  11
ATOM     11  N   UNL d   1       1.045   3.317   0.020  0.00  0.00    -0.322 N 
ATOM     12  C   UNL d   1       0.013   2.539  -0.487  0.00  0.00     0.264 C 
ATOM     13  O   UNL d   1       0.212   1.475  -1.071  0.00  0.00    -0.267 OA
ATOM     14  H   UNL d   1       0.780   4.099   0.605  0.00  0.00     0.169 HD
BRANCH  12  15
ATOM     15  C   UNL d   1      -1.342   3.042  -0.248  0.00  0.00     0.094 A 
ATOM     16  C   UNL d   1      -1.821   4.210   0.321  0.00  0.00     0.057 A 
ATOM     17  C   UNL d   1      -3.248   4.280   0.321  0.00  0.00     0.032 A 
ATOM     18 CL   UNL d   1      -0.898   5.500   0.974  0.00  0.00    -0.083 Cl
ATOM     19  C   UNL d   1      -3.826   3.163  -0.234  0.00  0.00     0.052 A 
ATOM     20  S   UNL d   1      -2.658   2.037  -0.750  0.00  0.00    -0.095 SA
ENDBRANCH  12  15
ENDBRANCH   6  11
TORSDOF 2
