REMARK  4 active torsions:
REMARK  status: ('A' for Active; 'I' for Inactive)
REMARK    1  A    between atoms: C_7  and  C_3 
REMARK    2  A    between atoms: O_10  and  C_11 
REMARK    3  A    between atoms: C_14  and  O_10 
REMARK    4  A    between atoms: C_13  and  C_14 
ROOT
ATOM      1  C   UNL d   1       2.078  -2.335  -0.077  0.00  0.00    -0.009 A 
ATOM      2  C   UNL d   1       1.976  -3.295  -1.091  0.00  0.00     0.016 A 
ATOM      3  C   UNL d   1       3.069  -2.494   0.900  0.00  0.00     0.016 A 
ATOM      4  C   UNL d   1       3.817  -4.549  -0.131  0.00  0.00     0.069 A 
ATOM      5  C   UNL d   1       3.941  -3.583   0.866  0.00  0.00     0.037 A 
ATOM      6  C   UNL d   1       2.849  -4.389  -1.123  0.00  0.00     0.037 A 
ENDROOT
BRANCH   4   7
ATOM      7  O   UNL d   1       4.584  -5.679  -0.221  0.00  0.00    -0.347 OA
BRANCH   7   8
ATOM      8  C   UNL d   1       5.218  -6.075   0.996  0.00  0.00     0.214 C 
BRANCH   8   9
ATOM      9  C   UNL d   1       5.595  -7.530   0.902  0.00  0.00    -0.034 A 
ATOM     10  C   UNL d   1       6.906  -7.913   0.583  0.00  0.00     0.012 A 
ATOM     11  C   UNL d   1       7.244  -9.265   0.519  0.00  0.00     0.043 A 
ATOM     12  C   UNL d   1       6.272 -10.228   0.765  0.00  0.00     0.116 A 
ATOM     13  C   UNL d   1       4.965  -9.868   1.069  0.00  0.00     0.043 A 
ATOM     14  F   UNL d   1       6.601 -11.526   0.706  0.00  0.00    -0.206 F 
ATOM     15  C   UNL d   1       4.624  -8.518   1.133  0.00  0.00     0.012 A 
ENDBRANCH   8   9
ENDBRANCH   7   8
ENDBRANCH   4   7
BRANCH   1  16
ATOM     16  C   UNL d   1       1.163  -1.201  -0.039  0.00  0.00     0.049 A 
ATOM     17  N   UNL d   1      -0.126  -1.284  -0.542  0.00  0.00    -0.353 N 
ATOM     18  C   UNL d   1      -0.752  -0.140  -0.363  0.00  0.00     0.047 A 
ATOM     19  HN  UNL d   1      -0.529  -2.109  -0.985  1.00  0.00     0.166 HD
ATOM     20  S   UNL d   1       0.170   1.104   0.383  0.00  0.00    -0.087 SA
ATOM     21  C   UNL d   1      -2.159   0.129  -0.761  0.00  0.00     0.076 C 
ATOM     22  C   UNL d   1       1.501   0.033   0.485  0.00  0.00     0.081 A 
ENDBRANCH   1  16
TORSDOF 4
