REMARK  4 active torsions:
REMARK  status: ('A' for Active; 'I' for Inactive)
REMARK    1  A    between atoms: C_6  and  C_1 
REMARK    2  A    between atoms: C_13  and  N_2 
REMARK    3  A    between atoms: S_8  and  C_6 
REMARK    4  A    between atoms: C_9  and  S_8 
ROOT
ATOM      1  C   UNL d   1      -0.279  -0.717   0.475  0.00  0.00     0.127 C 
ATOM      2  N   UNL d   1       0.983  -0.508  -0.061  0.00  0.00    -0.287 N 
ATOM      3  N   UNL d   1       1.201   0.758  -0.476  0.00  0.00    -0.301 N 
ATOM      4  HN  UNL d   1       1.996   1.113  -1.006  1.00  0.00     0.187 HD
ATOM      5  C   UNL d   1      -0.777   0.576   0.597  0.00  0.00     0.067 C 
ATOM      6  C   UNL d   1       0.143   1.438  -0.038  0.00  0.00     0.042 C 
ATOM      7 BR   UNL d   1      -2.358   1.249   1.369  0.00  0.00    -0.046 Br
ATOM      8  C   UNL d   1       0.080   2.906  -0.246  0.00  0.00     0.071 C 
ENDROOT
BRANCH   1   9
ATOM      9  C   UNL d   1      -0.814  -2.039   0.766  0.00  0.00     0.243 C 
ATOM     10  O   UNL d   1      -0.246  -3.092   0.508  0.00  0.00    -0.278 OA
BRANCH   9  11
ATOM     11  S   UNL d   1      -2.394  -2.111   1.536  0.00  0.00    -0.044 SA
BRANCH  11  12
ATOM     12  C   UNL d   1      -3.332  -3.110   0.382  0.00  0.00     0.030 A 
ATOM     13  C   UNL d   1      -3.482  -2.846  -0.991  0.00  0.00     0.051 A 
ATOM     14 CL   UNL d   1      -2.776  -1.476  -1.776  0.00  0.00    -0.083 Cl
ATOM     15  C   UNL d   1      -4.269  -3.683  -1.792  0.00  0.00     0.025 A 
ATOM     16  C   UNL d   1      -4.935  -4.772  -1.235  0.00  0.00     0.002 A 
ATOM     17  C   UNL d   1      -4.821  -5.027   0.128  0.00  0.00     0.001 A 
ATOM     18  C   UNL d   1      -4.026  -4.203   0.929  0.00  0.00     0.021 A 
ENDBRANCH  11  12
ENDBRANCH   9  11
ENDBRANCH   1   9
BRANCH   2  19
ATOM     19  C   UNL d   1       2.127  -1.405  -0.130  0.00  0.00     0.145 C 
ATOM     20  C   UNL d   1       3.202  -0.995   0.868  0.00  0.00     0.028 C 
ENDBRANCH   2  19
TORSDOF 4
