REMARK  2 active torsions:
REMARK  status: ('A' for Active; 'I' for Inactive)
REMARK    1  A    between atoms: C_13  and  C_8 
REMARK    2  A    between atoms: C_12  and  C_9 
ROOT
ATOM      1  C   UNL d   1       0.212  -0.796   0.022  0.00  0.00     0.147 A 
ATOM      2  N   UNL d   1       0.271   0.598  -0.008  0.00  0.00    -0.242 N 
ATOM      3  C   UNL d   1       1.520  -1.215   0.050  0.00  0.00     0.085 A 
ATOM      4  N   UNL d   1      -0.970  -1.487   0.035  0.00  0.00    -0.336 N 
ATOM      5  HN  UNL d   1      -0.988  -2.507   0.054  1.00  0.00     0.167 HD
ATOM      6  N   UNL d   1       1.552   1.045  -0.032  0.00  0.00    -0.290 N 
ATOM      7  HN  UNL d   1       1.863   2.016  -0.054  1.00  0.00     0.187 HD
ATOM      8  C   UNL d   1       2.328  -0.054  -0.020  0.00  0.00     0.080 A 
ATOM      9  C   UNL d   1      -2.074  -0.786   0.021  0.00  0.00     0.120 A 
ATOM     10  C   UNL d   1      -0.912   1.356  -0.003  0.00  0.00     0.034 A 
ATOM     11  C   UNL d   1      -2.099   0.718   0.009  0.00  0.00     0.061 A 
ATOM     12 BR   UNL d   1       2.072  -3.004   0.200  0.00  0.00    -0.044 Br
ATOM     13  C   UNL d   1      -0.835   2.852  -0.002  0.00  0.00     0.070 C 
ENDROOT
BRANCH   8  14
ATOM     14  C   UNL d   1       3.790   0.083  -0.057  0.00  0.00    -0.006 A 
ATOM     15  C   UNL d   1       4.597  -0.831  -0.751  0.00  0.00     0.015 A 
ATOM     16  C   UNL d   1       5.990  -0.697  -0.756  0.00  0.00     0.024 A 
ATOM     17  C   UNL d   1       6.587   0.370  -0.090  0.00  0.00     0.034 A 
ATOM     18  C   UNL d   1       5.803   1.307   0.576  0.00  0.00     0.024 A 
ATOM     19 CL   UNL d   1       8.299   0.534  -0.102  0.00  0.00    -0.084 Cl
ATOM     20  C   UNL d   1       4.411   1.163   0.592  0.00  0.00     0.015 A 
ENDBRANCH   8  14
BRANCH   9  21
ATOM     21  C   UNL d   1      -3.428  -1.502   0.013  0.00  0.00     0.432 C 
ATOM     22  F   UNL d   1      -4.480  -0.635   0.011  0.00  0.00    -0.165 F 
ATOM     23  F   UNL d   1      -3.588  -2.293  -1.083  0.00  0.00    -0.165 F 
ATOM     24  F   UNL d   1      -3.598  -2.300   1.102  0.00  0.00    -0.165 F 
ENDBRANCH   9  21
TORSDOF 2
