REMARK  6 active torsions:
REMARK  status: ('A' for Active; 'I' for Inactive)
REMARK    1  A    between atoms: C_7  and  N_1 
REMARK    2  A    between atoms: S_19  and  C_2 
REMARK    3  A    between atoms: S_4  and  C_12 
REMARK    4  A    between atoms: C_11  and  S_4 
REMARK    5  A    between atoms: C_12  and  C_24 
REMARK    6  A    between atoms: C_24  and  S_19 
ROOT
ATOM      1  N   UNL d   1      -0.319   0.872  -0.097  0.00  0.00    -0.241 N 
ATOM      2  C   UNL d   1       1.019   0.582  -0.083  0.00  0.00     0.170 A 
ATOM      3  C   UNL d   1      -0.928  -0.375  -0.020  0.00  0.00     0.347 A 
ATOM      4  N   UNL d   1       1.308  -0.687   0.010  0.00  0.00    -0.275 N 
ATOM      5  HN  UNL d   1       2.232  -1.118   0.049  1.00  0.00     0.189 HD
ATOM      6  N   UNL d   1       0.104  -1.301   0.043  0.00  0.00    -0.249 N 
ATOM      7  O   UNL d   1      -2.103  -0.689   0.030  0.00  0.00    -0.245 OA
ATOM      8  H   UNL d   1      -0.014  -2.303   0.123  0.00  0.00     0.192 HD
ENDROOT
BRANCH   2   9
ATOM      9  S   UNL d   1       2.275   1.758  -0.304  0.00  0.00    -0.091 SA
BRANCH   9  10
ATOM     10  C   UNL d   1       3.781   0.725  -0.314  0.00  0.00     0.098 C 
BRANCH  10  11
ATOM     11  C   UNL d   1       3.916  -0.103  -1.586  0.00  0.00     0.156 C 
BRANCH  11  12
ATOM     12  S   UNL d   1       5.457  -0.990  -1.558  0.00  0.00     0.176 S 
ATOM     13  O   UNL d   1       6.521  -0.013  -1.697  0.00  0.00    -0.223 OA
ATOM     14  O   UNL d   1       5.439  -1.909  -0.436  0.00  0.00    -0.223 OA
BRANCH  12  15
ATOM     15  C   UNL d   1       5.454  -1.995  -3.027  0.00  0.00     0.059 A 
ATOM     16  C   UNL d   1       6.477  -1.851  -3.967  0.00  0.00     0.024 A 
ATOM     17  C   UNL d   1       6.573  -2.756  -5.027  0.00  0.00     0.008 A 
ATOM     18  C   UNL d   1       5.646  -3.800  -5.159  0.00  0.00    -0.062 A 
ATOM     19  C   UNL d   1       4.602  -3.909  -4.230  0.00  0.00     0.008 A 
ATOM     20  C   UNL d   1       5.841  -4.846  -6.218  0.00  0.00     0.048 C 
ATOM     21  C   UNL d   1       4.504  -3.011  -3.163  0.00  0.00     0.024 A 
ENDBRANCH  12  15
ENDBRANCH  11  12
ENDBRANCH  10  11
ENDBRANCH   9  10
ENDBRANCH   2   9
BRANCH   1  22
ATOM     22  C   UNL d   1      -1.043   2.099  -0.120  0.00  0.00     0.049 A 
ATOM     23  C   UNL d   1      -2.371   2.121  -0.586  0.00  0.00     0.069 A 
ATOM     24  C   UNL d   1      -3.143   3.284  -0.554  0.00  0.00     0.104 A 
ATOM     25  O   UNL d   1      -4.419   3.189  -1.052  0.00  0.00    -0.346 OA
ATOM     26  C   UNL d   1      -2.618   4.457  -0.020  0.00  0.00     0.102 A 
ATOM     27  C   UNL d   1      -5.012   4.481  -1.223  0.00  0.00     0.202 C 
ATOM     28  C   UNL d   1      -4.753   5.344   0.001  0.00  0.00     0.202 C 
ATOM     29  O   UNL d   1      -3.348   5.608   0.126  0.00  0.00    -0.346 OA
ATOM     30  C   UNL d   1      -1.295   4.481   0.400  0.00  0.00     0.042 A 
ATOM     31  C   UNL d   1      -0.516   3.312   0.353  0.00  0.00     0.033 A 
ENDBRANCH   1  22
TORSDOF 6
