REMARK  5 active torsions:
REMARK  status: ('A' for Active; 'I' for Inactive)
REMARK    1  A    between atoms: N_2  and  S_1 
REMARK    2  A    between atoms: C_7  and  S_1 
REMARK    3  A    between atoms: N_5  and  S_3 
REMARK       I    between atoms: C_4  and  N_5 
REMARK       I    between atoms: N_12  and  C_4 
REMARK    4  A    between atoms: C_18  and  N_12 
REMARK    5  A    between atoms: O_28  and  C_20 
ROOT
ATOM      1  N   UNL d   1       0.046   0.641  -1.051  0.00  0.00    -0.305 N 
ATOM      2  S   UNL d   1       1.391   3.606  -0.976  0.00  0.00    -0.120 SA
ATOM      3  C   UNL d   1       1.065   0.967  -2.088  0.00  0.00     0.146 C 
ATOM      4  C   UNL d   1      -0.845   1.821  -0.861  0.00  0.00     0.146 C 
ATOM      5  C   UNL d   1       2.054   2.049  -1.661  0.00  0.00     0.105 C 
ATOM      6  C   UNL d   1      -0.139   2.995  -0.200  0.00  0.00     0.105 C 
ENDROOT
BRANCH   2   7
ATOM      7  N   UNL d   1       0.808   4.203  -2.236  0.00  0.00    -0.292 N 
ATOM      8  C   UNL d   1       1.552   4.990  -3.047  0.00  0.00     0.330 C 
ATOM      9  N   UNL d   1       2.689   5.573  -2.485  0.00  0.00    -0.308 N 
ATOM     10  O   UNL d   1       1.223   5.189  -4.217  0.00  0.00    -0.246 OA
ATOM     11  H   UNL d   1       2.847   5.296  -1.527  0.00  0.00     0.170 HD
ATOM     12  HN  UNL d   1      -0.163   4.009  -2.480  1.00  0.00     0.178 HD
BRANCH   9  13
ATOM     13  C   UNL d   1       3.674   6.371  -3.100  0.00  0.00     0.036 A 
ATOM     14  C   UNL d   1       3.554   6.887  -4.389  0.00  0.00     0.032 A 
ATOM     15  C   UNL d   1       4.605   7.597  -4.984  0.00  0.00     0.039 A 
ATOM     16  C   UNL d   1       5.801   7.795  -4.300  0.00  0.00     0.068 A 
ATOM     17  C   UNL d   1       5.905   7.342  -2.982  0.00  0.00     0.039 A 
ATOM     18  C   UNL d   1       4.848   6.638  -2.385  0.00  0.00     0.032 A 
BRANCH  16  19
ATOM     19  O   UNL d   1       6.914   8.411  -4.804  0.00  0.00    -0.356 OA
ATOM     20  C   UNL d   1       6.934   8.585  -6.218  0.00  0.00     0.210 C 
ENDBRANCH  16  19
ENDBRANCH   9  13
ENDBRANCH   2   7
BRANCH   1  21
ATOM     21  S   UNL d   1       0.529  -0.189   0.345  0.00  0.00     0.260 S 
ATOM     22  O   UNL d   1      -0.549  -0.131   1.319  0.00  0.00    -0.200 OA
ATOM     23  O   UNL d   1       1.879   0.159   0.725  0.00  0.00    -0.200 OA
BRANCH  21  24
ATOM     24  C   UNL d   1       0.571  -1.887  -0.203  0.00  0.00     0.079 A 
ATOM     25  C   UNL d   1       1.792  -2.556  -0.343  0.00  0.00     0.027 A 
ATOM     26  C   UNL d   1       1.798  -3.928  -0.610  0.00  0.00     0.025 A 
ATOM     27  C   UNL d   1       0.590  -4.618  -0.729  0.00  0.00     0.034 A 
ATOM     28  C   UNL d   1      -0.627  -3.949  -0.595  0.00  0.00     0.025 A 
ATOM     29 CL   UNL d   1       0.601  -6.317  -1.008  0.00  0.00    -0.084 Cl
ATOM     30  C   UNL d   1      -0.639  -2.581  -0.327  0.00  0.00     0.027 A 
ENDBRANCH  21  24
ENDBRANCH   1  21
TORSDOF 5
